# generated using pymatgen
data_Ca108Mn108O277
_symmetry_space_group_name_H-M   'P 1'
_cell_length_a   16.02770943
_cell_length_b   22.30603899
_cell_length_c   16.38899548
_cell_angle_alpha   89.99693180
_cell_angle_beta   89.99669426
_cell_angle_gamma   89.99860437
_symmetry_Int_Tables_number   1
_chemical_formula_structural   Ca108Mn108O277
_chemical_formula_sum   'Ca108 Mn108 O277'
_cell_volume   5859.30697030
_cell_formula_units_Z   1
loop_
 _symmetry_equiv_pos_site_id
 _symmetry_equiv_pos_as_xyz
  1  'x, y, z'
loop_
 _atom_type_symbol
 _atom_type_oxidation_number
  Ca2+  2.0
  Mn3.34+  3.34
  O2-  -2.0
loop_
 _atom_site_type_symbol
 _atom_site_label
 _atom_site_symmetry_multiplicity
 _atom_site_fract_x
 _atom_site_fract_y
 _atom_site_fract_z
 _atom_site_occupancy
  Ca2+  Ca0  1  0.06807589  0.25514898  0.25353036  1
  Ca2+  Ca1  1  0.08804565  0.22058896  0.59248821  1
  Ca2+  Ca2  1  0.08236534  0.25269614  0.90982298  1
  Ca2+  Ca3  1  0.09586934  0.75237388  0.22870097  1
  Ca2+  Ca4  1  0.07277673  0.75687164  0.58779086  1
  Ca2+  Ca5  1  0.08554793  0.74521549  0.92215225  1
  Ca2+  Ca6  1  0.42932898  0.25989603  0.25818759  1
  Ca2+  Ca7  1  0.40702057  0.24708704  0.58046159  1
  Ca2+  Ca8  1  0.41766219  0.24354936  0.91440022  1
  Ca2+  Ca9  1  0.41577343  0.74220872  0.25635113  1
  Ca2+  Ca10  1  0.42455361  0.75380156  0.56449818  1
  Ca2+  Ca11  1  0.42978552  0.75287048  0.92760913  1
  Ca2+  Ca12  1  0.75151998  0.25622021  0.24698485  1
  Ca2+  Ca13  1  0.75541639  0.25126846  0.57895782  1
  Ca2+  Ca14  1  0.75044461  0.25168418  0.92576411  1
  Ca2+  Ca15  1  0.74701491  0.75479624  0.26422012  1
  Ca2+  Ca16  1  0.74501599  0.75330360  0.57819393  1
  Ca2+  Ca17  1  0.73465670  0.75614683  0.90724832  1
  Ca2+  Ca18  1  0.24693033  0.25362317  0.07575816  1
  Ca2+  Ca19  1  0.25140432  0.25930442  0.44016243  1
  Ca2+  Ca20  1  0.25479671  0.24718866  0.73502531  1
  Ca2+  Ca21  1  0.25594480  0.74868319  0.08323585  1
  Ca2+  Ca22  1  0.27975027  0.74273857  0.40770897  1
  Ca2+  Ca23  1  0.24655920  0.75445319  0.75582125  1
  Ca2+  Ca24  1  0.57775192  0.23841609  0.08480283  1
  Ca2+  Ca25  1  0.57381505  0.25374743  0.41765864  1
  Ca2+  Ca26  1  0.57102975  0.24796676  0.75078060  1
  Ca2+  Ca27  1  0.57053970  0.74662800  0.06746918  1
  Ca2+  Ca28  1  0.57010306  0.73332123  0.41694771  1
  Ca2+  Ca29  1  0.59065236  0.75252612  0.76034490  1
  Ca2+  Ca30  1  0.91771963  0.26672790  0.08164534  1
  Ca2+  Ca31  1  0.92249500  0.25375685  0.43259992  1
  Ca2+  Ca32  1  0.91903986  0.25245208  0.74148211  1
  Ca2+  Ca33  1  0.93590427  0.74440587  0.07120560  1
  Ca2+  Ca34  1  0.90271918  0.75344518  0.42674737  1
  Ca2+  Ca35  1  0.90925310  0.75017367  0.75266464  1
  Ca2+  Ca36  1  0.06886601  0.58025939  0.60771968  1
  Ca2+  Ca37  1  0.08882410  0.10804548  0.90324983  1
  Ca2+  Ca38  1  0.71393382  0.58755624  0.91464249  1
  Ca2+  Ca39  1  0.72025190  0.10673393  0.24250231  1
  Ca2+  Ca40  1  0.75908458  0.08160200  0.59562114  1
  Ca2+  Ca41  1  0.69066570  0.09568541  0.92497926  1
  Ca2+  Ca42  1  0.24164852  0.58587106  0.07541789  1
  Ca2+  Ca43  1  0.92860996  0.09972208  0.43915643  1
  Ca2+  Ca44  1  0.44434111  0.59536826  0.92364125  1
  Ca2+  Ca45  1  0.28898612  0.09035113  0.07370727  1
  Ca2+  Ca46  1  0.25321657  0.10295591  0.44456463  1
  Ca2+  Ca47  1  0.09178737  0.58253885  0.23927362  1
  Ca2+  Ca48  1  0.91693048  0.10436792  0.08850075  1
  Ca2+  Ca49  1  0.08048051  0.58065910  0.60680915  1
  Ca2+  Ca50  1  0.28232524  0.09454382  0.06797807  1
  Ca2+  Ca51  1  0.71275783  0.60329861  0.57420107  1
  Ca2+  Ca52  1  0.24070623  0.10252478  0.44429813  1
  Ca2+  Ca53  1  0.46545678  0.11600033  0.22382274  1
  Ca2+  Ca54  1  0.23317905  0.10121797  0.73400343  1
  Ca2+  Ca55  1  0.46111471  0.09994782  0.93470598  1
  Ca2+  Ca56  1  0.57521204  0.09074789  0.40816297  1
  Ca2+  Ca57  1  0.45914458  0.11184252  0.21793260  1
  Ca2+  Ca58  1  0.41141569  0.09435633  0.59087049  1
  Ca2+  Ca59  1  0.08092066  0.58907473  0.91707220  1
  Ca2+  Ca60  1  0.43300454  0.58912935  0.29494666  1
  Ca2+  Ca61  1  0.57656681  0.08604822  0.75718092  1
  Ca2+  Ca62  1  0.07710784  0.08344347  0.26851277  1
  Ca2+  Ca63  1  0.57055107  0.58414373  0.05814879  1
  Ca2+  Ca64  1  0.22437241  0.10669426  0.72973913  1
  Ca2+  Ca65  1  0.95420065  0.10400464  0.71662692  1
  Ca2+  Ca66  1  0.28396511  0.58286808  0.40786528  1
  Ca2+  Ca67  1  0.45767762  0.60610195  0.54026017  1
  Ca2+  Ca68  1  0.94863328  0.09763745  0.71751898  1
  Ca2+  Ca69  1  0.25232004  0.58660156  0.07606424  1
  Ca2+  Ca70  1  0.89798849  0.59074160  0.42578947  1
  Ca2+  Ca71  1  0.90449187  0.10326183  0.08965614  1
  Ca2+  Ca72  1  0.09450522  0.89967058  0.91240765  1
  Ca2+  Ca73  1  0.58912836  0.90443105  0.41973864  1
  Ca2+  Ca74  1  0.23958782  0.41516863  0.08202414  1
  Ca2+  Ca75  1  0.25186140  0.40503608  0.74935521  1
  Ca2+  Ca76  1  0.74883119  0.91050401  0.26244309  1
  Ca2+  Ca77  1  0.08436845  0.90901012  0.25947073  1
  Ca2+  Ca78  1  0.58646095  0.40445809  0.75655009  1
  Ca2+  Ca79  1  0.27699051  0.90964186  0.07983331  1
  Ca2+  Ca80  1  0.90564700  0.89893081  0.08818939  1
  Ca2+  Ca81  1  0.56815378  0.41109476  0.40904543  1
  Ca2+  Ca82  1  0.08100795  0.90677121  0.58958852  1
  Ca2+  Ca83  1  0.91658803  0.40520754  0.41468821  1
  Ca2+  Ca84  1  0.75094007  0.40797856  0.58187158  1
  Ca2+  Ca85  1  0.91522460  0.90723146  0.41525160  1
  Ca2+  Ca86  1  0.08418061  0.40538429  0.24775115  1
  Ca2+  Ca87  1  0.73933648  0.40800910  0.58153578  1
  Ca2+  Ca88  1  0.91034001  0.91301501  0.74058672  1
  Ca2+  Ca89  1  0.43873873  0.40782838  0.92969380  1
  Ca2+  Ca90  1  0.91030804  0.40743081  0.75219039  1
  Ca2+  Ca91  1  0.73756408  0.40875462  0.92693594  1
  Ca2+  Ca92  1  0.25197714  0.41291136  0.08183392  1
  Ca2+  Ca93  1  0.25887732  0.90519733  0.74870450  1
  Ca2+  Ca94  1  0.23916455  0.40395311  0.74993369  1
  Ca2+  Ca95  1  0.71493635  0.91365444  0.90542493  1
  Ca2+  Ca96  1  0.08746798  0.39890104  0.57727905  1
  Ca2+  Ca97  1  0.42446711  0.90717558  0.59700084  1
  Ca2+  Ca98  1  0.25335971  0.90820006  0.41812413  1
  Ca2+  Ca99  1  0.41593871  0.41736692  0.27237361  1
  Ca2+  Ca100  1  0.07761960  0.40160442  0.57994217  1
  Ca2+  Ca101  1  0.57694269  0.90627701  0.41814319  1
  Ca2+  Ca102  1  0.28823903  0.91315819  0.08228990  1
  Ca2+  Ca103  1  0.89814632  0.91381622  0.74086192  1
  Ca2+  Ca104  1  0.54477237  0.92692458  0.04923400  1
  Ca2+  Ca105  1  0.24055120  0.90818785  0.41748625  1
  Ca2+  Ca106  1  0.91856758  0.89913015  0.08754778  1
  Ca2+  Ca107  1  0.07933153  0.41398349  0.92994717  1
  Mn3.34+  Mn108  1  0.08122552  0.33566338  0.08523880  1
  Mn3.34+  Mn109  1  0.08620929  0.33300679  0.41344085  1
  Mn3.34+  Mn110  1  0.07952890  0.32917454  0.75469964  1
  Mn3.34+  Mn111  1  0.08847247  0.83268602  0.08242266  1
  Mn3.34+  Mn112  1  0.08354555  0.82965402  0.41874451  1
  Mn3.34+  Mn113  1  0.08164232  0.82966544  0.75437328  1
  Mn3.34+  Mn114  1  0.42289397  0.33296666  0.08892479  1
  Mn3.34+  Mn115  1  0.41442359  0.33764605  0.41862204  1
  Mn3.34+  Mn116  1  0.42053514  0.32998505  0.75083267  1
  Mn3.34+  Mn117  1  0.42358279  0.82946845  0.08953161  1
  Mn3.34+  Mn118  1  0.41941137  0.83398121  0.41436690  1
  Mn3.34+  Mn119  1  0.42154816  0.83470667  0.75350999  1
  Mn3.34+  Mn120  1  0.74687409  0.33128728  0.08618985  1
  Mn3.34+  Mn121  1  0.74582012  0.33733212  0.40979109  1
  Mn3.34+  Mn122  1  0.74715539  0.33269465  0.75664734  1
  Mn3.34+  Mn123  1  0.74218439  0.83004288  0.08630494  1
  Mn3.34+  Mn124  1  0.74722805  0.83201210  0.42063830  1
  Mn3.34+  Mn125  1  0.73856194  0.84489656  0.74573351  1
  Mn3.34+  Mn126  1  0.25280937  0.33124119  0.24933686  1
  Mn3.34+  Mn127  1  0.25603629  0.33233081  0.58118942  1
  Mn3.34+  Mn128  1  0.25248614  0.33132238  0.91488988  1
  Mn3.34+  Mn129  1  0.25428580  0.83465878  0.24720457  1
  Mn3.34+  Mn130  1  0.25050606  0.83150954  0.58362961  1
  Mn3.34+  Mn131  1  0.25759282  0.83217586  0.91429923  1
  Mn3.34+  Mn132  1  0.58758740  0.33966325  0.23904297  1
  Mn3.34+  Mn133  1  0.57688133  0.33197843  0.58252623  1
  Mn3.34+  Mn134  1  0.58278072  0.33305054  0.91849958  1
  Mn3.34+  Mn135  1  0.58128118  0.83519101  0.23960478  1
  Mn3.34+  Mn136  1  0.58512793  0.83651923  0.58826457  1
  Mn3.34+  Mn137  1  0.57663828  0.83500930  0.91457538  1
  Mn3.34+  Mn138  1  0.91179440  0.33304316  0.24878006  1
  Mn3.34+  Mn139  1  0.91415170  0.33178293  0.58299957  1
  Mn3.34+  Mn140  1  0.91447395  0.33659068  0.91911493  1
  Mn3.34+  Mn141  1  0.91616859  0.83157909  0.25266830  1
  Mn3.34+  Mn142  1  0.91144178  0.83325762  0.58082127  1
  Mn3.34+  Mn143  1  0.91367386  0.82810301  0.91259380  1
  Mn3.34+  Mn144  1  0.74182068  0.16179519  0.75741794  1
  Mn3.34+  Mn145  1  0.91904451  0.66140484  0.91320185  1
  Mn3.34+  Mn146  1  0.25311480  0.66584188  0.24619051  1
  Mn3.34+  Mn147  1  0.74417101  0.67178057  0.08428701  1
  Mn3.34+  Mn148  1  0.25981278  0.65901336  0.58354979  1
  Mn3.34+  Mn149  1  0.08536622  0.17237339  0.08349208  1
  Mn3.34+  Mn150  1  0.42910213  0.67346828  0.75256195  1
  Mn3.34+  Mn151  1  0.07982807  0.66929067  0.41375504  1
  Mn3.34+  Mn152  1  0.08266840  0.66781244  0.75583977  1
  Mn3.34+  Mn153  1  0.57972949  0.16398156  0.58553210  1
  Mn3.34+  Mn154  1  0.75252364  0.16559784  0.75460358  1
  Mn3.34+  Mn155  1  0.07946616  0.17109348  0.41933037  1
  Mn3.34+  Mn156  1  0.08941120  0.66399316  0.41640688  1
  Mn3.34+  Mn157  1  0.25502834  0.17545563  0.24866569  1
  Mn3.34+  Mn158  1  0.41594392  0.66716989  0.75359573  1
  Mn3.34+  Mn159  1  0.74460527  0.16289328  0.41963381  1
  Mn3.34+  Mn160  1  0.91694584  0.66562575  0.24738735  1
  Mn3.34+  Mn161  1  0.42056924  0.66500798  0.08869652  1
  Mn3.34+  Mn162  1  0.75387759  0.66069205  0.75134000  1
  Mn3.34+  Mn163  1  0.58729943  0.65919005  0.24609215  1
  Mn3.34+  Mn164  1  0.91761453  0.17112735  0.91378589  1
  Mn3.34+  Mn165  1  0.90610807  0.66102481  0.24518302  1
  Mn3.34+  Mn166  1  0.74041794  0.66769492  0.41723290  1
  Mn3.34+  Mn167  1  0.75255294  0.66550550  0.08575211  1
  Mn3.34+  Mn168  1  0.08350288  0.66083996  0.08183733  1
  Mn3.34+  Mn169  1  0.24743686  0.66643761  0.58368101  1
  Mn3.34+  Mn170  1  0.74283130  0.17293602  0.08336842  1
  Mn3.34+  Mn171  1  0.91349813  0.66838863  0.58324822  1
  Mn3.34+  Mn172  1  0.91729957  0.16838149  0.25264873  1
  Mn3.34+  Mn173  1  0.24552197  0.16982951  0.24680737  1
  Mn3.34+  Mn174  1  0.75551008  0.16689812  0.41970824  1
  Mn3.34+  Mn175  1  0.25308995  0.16785167  0.91118368  1
  Mn3.34+  Mn176  1  0.74398189  0.66547878  0.75267989  1
  Mn3.34+  Mn177  1  0.25181664  0.66822343  0.91275710  1
  Mn3.34+  Mn178  1  0.41891588  0.16896474  0.42012250  1
  Mn3.34+  Mn179  1  0.41879167  0.16434561  0.75605728  1
  Mn3.34+  Mn180  1  0.58082693  0.49758623  0.57966101  1
  Mn3.34+  Mn181  1  0.73198678  -0.00005321  0.08540500  1
  Mn3.34+  Mn182  1  0.92168080  0.50200041  0.92913985  1
  Mn3.34+  Mn183  1  0.08788913  0.50178902  0.40919766  1
  Mn3.34+  Mn184  1  0.91281141  -0.00321504  0.58970606  1
  Mn3.34+  Mn185  1  0.25034543  -0.00247344  0.59592200  1
  Mn3.34+  Mn186  1  0.74967908  -0.00297201  0.42054658  1
  Mn3.34+  Mn187  1  0.74151841  0.50422975  0.40516882  1
  Mn3.34+  Mn188  1  0.89740327  0.49946842  0.24852538  1
  Mn3.34+  Mn189  1  0.08405139  0.00225405  0.08414332  1
  Mn3.34+  Mn190  1  0.59030969  0.00234823  0.60083994  1
  Mn3.34+  Mn191  1  0.58386108  -0.00606892  0.24946818  1
  Mn3.34+  Mn192  1  0.89848244  0.00151069  0.90597666  1
  Mn3.34+  Mn193  1  0.09689912  0.00574938  0.08380317  1
  Mn3.34+  Mn194  1  0.41730084  0.00219352  0.41482449  1
  Mn3.34+  Mn195  1  0.26295569  -0.00078101  0.91171964  1
  Mn3.34+  Mn196  1  0.25043828  0.50255055  0.91728248  1
  Mn3.34+  Mn197  1  0.71840245  0.00015238  0.08316884  1
  Mn3.34+  Mn198  1  0.74024090  0.49622394  0.08766791  1
  Mn3.34+  Mn199  1  0.90826461  0.50093128  0.58527497  1
  Mn3.34+  Mn200  1  0.08434128  -0.00355793  0.75796078  1
  Mn3.34+  Mn201  1  0.25477719  0.50013427  0.25512262  1
  Mn3.34+  Mn202  1  0.41700112  0.50382048  0.74927514  1
  Mn3.34+  Mn203  1  0.26524556  0.49718045  0.58038533  1
  Mn3.34+  Mn204  1  0.42135687  0.00121635  0.75457515  1
  Mn3.34+  Mn205  1  0.75151108  0.50021494  0.08783340  1
  Mn3.34+  Mn206  1  0.90584593  0.00492949  0.91442797  1
  Mn3.34+  Mn207  1  0.58355148  0.50045157  0.25513446  1
  Mn3.34+  Mn208  1  0.08123319  0.49930479  0.75218463  1
  Mn3.34+  Mn209  1  0.42666476  0.49836600  0.08208693  1
  Mn3.34+  Mn210  1  0.42755931  0.49922730  0.75131145  1
  Mn3.34+  Mn211  1  0.90944265  0.49560670  0.24607162  1
  Mn3.34+  Mn212  1  0.08349423  0.00071357  0.41983736  1
  Mn3.34+  Mn213  1  0.74736662  0.49815808  0.74447671  1
  Mn3.34+  Mn214  1  0.91147131  0.00146922  0.25891661  1
  Mn3.34+  Mn215  1  0.26334932  0.00370230  0.25760767  1
  O2-  O216  1  -0.00142624  0.14893763  -0.00092559  1
  O2-  O217  1  0.00022153  0.15170207  0.33300651  1
  O2-  O218  1  -0.00247657  0.18260130  0.68073759  1
  O2-  O219  1  0.00481534  0.65879143  -0.00412096  1
  O2-  O220  1  -0.00195504  0.64132170  0.33586183  1
  O2-  O221  1  0.01184980  0.66902144  0.65694648  1
  O2-  O222  1  0.34123410  0.15799460  -0.01113954  1
  O2-  O223  1  0.33407202  0.15309383  0.32986441  1
  O2-  O224  1  0.33665300  0.14938189  0.67645729  1
  O2-  O225  1  0.33397130  0.64690290  0.00100180  1
  O2-  O226  1  0.33027183  0.65863987  0.32533100  1
  O2-  O227  1  0.33324709  0.66477323  0.67771012  1
  O2-  O228  1  0.66537758  0.17461872  0.00509246  1
  O2-  O229  1  0.66275017  0.16335162  0.34318762  1
  O2-  O230  1  0.66768471  0.14779286  0.66725769  1
  O2-  O231  1  0.66406574  0.66035544  0.00660701  1
  O2-  O232  1  0.66658895  0.67938779  0.32837089  1
  O2-  O233  1  0.66944654  0.67128022  0.66871560  1
  O2-  O234  1  0.17929941  0.14745724  0.00922941  1
  O2-  O235  1  0.16798873  0.15728970  0.33161074  1
  O2-  O236  1  0.16853324  0.17852040  0.68051178  1
  O2-  O237  1  0.16883941  0.65277273  -0.00076346  1
  O2-  O238  1  0.16514790  0.65353053  0.32762481  1
  O2-  O239  1  0.16623301  0.65881862  0.66489900  1
  O2-  O240  1  0.49584629  0.18596196  -0.00285877  1
  O2-  O241  1  0.50003569  0.15859586  0.33899642  1
  O2-  O242  1  0.50078198  0.15031782  0.67094541  1
  O2-  O243  1  0.49713961  0.66222323  0.00868620  1
  O2-  O244  1  0.50666562  0.67378317  0.31938828  1
  O2-  O245  1  0.49591621  0.68636894  0.66647555  1
  O2-  O246  1  0.82970739  0.14599644  -0.00335061  1
  O2-  O247  1  0.83012124  0.14400705  0.33253605  1
  O2-  O248  1  0.83106612  0.14686945  0.67720074  1
  O2-  O249  1  0.82689748  0.66138642  -0.00011966  1
  O2-  O250  1  0.83126026  0.65227037  0.33375661  1
  O2-  O251  1  0.82846286  0.64971977  0.66935789  1
  O2-  O252  1  0.00331347  0.34356113  -0.00278282  1
  O2-  O253  1  0.00143707  0.34773471  0.33220263  1
  O2-  O254  1  -0.00151102  0.34577797  0.66850247  1
  O2-  O255  1  0.00121372  0.84523918  -0.00175064  1
  O2-  O256  1  0.00272633  0.84385745  0.33634346  1
  O2-  O257  1  -0.00371272  0.83896572  0.66899988  1
  O2-  O258  1  0.33351456  0.34811249  0.00400510  1
  O2-  O259  1  0.33556058  0.32825722  0.32870816  1
  O2-  O260  1  0.32903164  0.34698828  0.67422678  1
  O2-  O261  1  0.33851122  0.84264177  -0.00002852  1
  O2-  O262  1  0.33044062  0.84797213  0.33761057  1
  O2-  O263  1  0.33310575  0.84013358  0.66686593  1
  O2-  O264  1  0.66839555  0.32633023  -0.00625445  1
  O2-  O265  1  0.66070974  0.32576752  0.33176625  1
  O2-  O266  1  0.66835874  0.34918923  0.66738981  1
  O2-  O267  1  0.66933874  0.83736804  -0.00071715  1
  O2-  O268  1  0.66526268  0.83947576  0.32994361  1
  O2-  O269  1  0.66479545  0.81568097  0.66295882  1
  O2-  O270  1  0.17172162  0.34911626  0.00008961  1
  O2-  O271  1  0.16441503  0.33126198  0.32619893  1
  O2-  O272  1  0.16202331  0.33730288  0.66978669  1
  O2-  O273  1  0.17792860  0.85697104  0.00923015  1
  O2-  O274  1  0.16834649  0.84476428  0.33388954  1
  O2-  O275  1  0.16219017  0.83312303  0.66791502  1
  O2-  O276  1  0.49554007  0.32147417  -0.00372371  1
  O2-  O277  1  0.50408006  0.33397255  0.32738517  1
  O2-  O278  1  0.50611005  0.34329232  0.67544990  1
  O2-  O279  1  0.50319072  0.83239331  0.00794619  1
  O2-  O280  1  0.50720169  0.84503680  0.33601347  1
  O2-  O281  1  0.49544278  0.82038860  0.66222535  1
  O2-  O282  1  0.82872303  0.34683536  -0.00501550  1
  O2-  O283  1  0.83709945  0.34482617  0.33744596  1
  O2-  O284  1  0.83044729  0.34983109  0.66605518  1
  O2-  O285  1  0.83398315  0.84311593  0.00186780  1
  O2-  O286  1  0.83085114  0.84718572  0.33495154  1
  O2-  O287  1  0.83235318  0.84895730  0.66749892  1
  O2-  O288  1  -0.00619498  0.18270111  0.16115252  1
  O2-  O289  1  0.00041177  0.17603409  0.49312401  1
  O2-  O290  1  -0.00271278  0.18302758  0.83916860  1
  O2-  O291  1  0.00434378  0.67884254  0.17048323  1
  O2-  O292  1  -0.00017824  0.69209750  0.49299550  1
  O2-  O293  1  0.00088438  0.68943752  0.82886311  1
  O2-  O294  1  0.33057098  0.18065336  0.16109867  1
  O2-  O295  1  0.33249637  0.17460731  0.49347936  1
  O2-  O296  1  0.32680281  0.18081812  0.82588076  1
  O2-  O297  1  0.32569537  0.67344035  0.15897997  1
  O2-  O298  1  0.33511513  0.66838760  0.50040624  1
  O2-  O299  1  0.34023490  0.68996255  0.83583881  1
  O2-  O300  1  0.67653408  0.18497501  0.16968082  1
  O2-  O301  1  0.66641787  0.17802667  0.50389428  1
  O2-  O302  1  0.66316222  0.18169253  0.83165753  1
  O2-  O303  1  0.66879826  0.68807984  0.16601754  1
  O2-  O304  1  0.67066250  0.68430394  0.49881661  1
  O2-  O305  1  0.67147518  0.67548044  0.83501770  1
  O2-  O306  1  0.16325150  0.19482714  0.17345002  1
  O2-  O307  1  0.17015404  0.18000215  0.48615146  1
  O2-  O308  1  0.16632867  0.17879712  0.84121462  1
  O2-  O309  1  0.16839547  0.67721922  0.16267029  1
  O2-  O310  1  0.16764854  0.69191685  0.49560456  1
  O2-  O311  1  0.16621059  0.68782870  0.83227656  1
  O2-  O312  1  0.49543799  0.19625692  0.17497426  1
  O2-  O313  1  0.49795157  0.17520231  0.50306006  1
  O2-  O314  1  0.49811901  0.18036316  0.83270536  1
  O2-  O315  1  0.50226240  0.68189002  0.16593670  1
  O2-  O316  1  0.50680737  0.69050083  0.51189101  1
  O2-  O317  1  0.49994038  0.68281822  0.83559803  1
  O2-  O318  1  0.83846429  0.17345851  0.16511134  1
  O2-  O319  1  0.83342060  0.17178091  0.49757657  1
  O2-  O320  1  0.83176501  0.18624907  0.83553238  1
  O2-  O321  1  0.83353676  0.69514653  0.15747407  1
  O2-  O322  1  0.83333287  0.67214038  0.49838141  1
  O2-  O323  1  0.83048514  0.67504237  0.83438690  1
  O2-  O324  1  0.00411336  0.32007239  0.17018971  1
  O2-  O325  1  0.00010353  0.32632233  0.50306682  1
  O2-  O326  1  -0.00289569  0.31649994  0.83184739  1
  O2-  O327  1  -0.00308095  0.82101300  0.16237741  1
  O2-  O328  1  0.00047107  0.81742153  0.50086307  1
  O2-  O329  1  -0.00105645  0.81569062  0.83351618  1
  O2-  O330  1  0.33284873  0.30973401  0.16369682  1
  O2-  O331  1  0.33767740  0.32691337  0.50187001  1
  O2-  O332  1  0.33092937  0.32631698  0.83002898  1
  O2-  O333  1  0.32770437  0.82260555  0.15977526  1
  O2-  O334  1  0.33218267  0.83237283  0.49511117  1
  O2-  O335  1  0.33237711  0.81532812  0.82747221  1
  O2-  O336  1  0.66558519  0.31003721  0.16368463  1
  O2-  O337  1  0.67180571  0.32439451  0.50547130  1
  O2-  O338  1  0.66182871  0.31270202  0.83308446  1
  O2-  O339  1  0.66704533  0.80512622  0.16894525  1
  O2-  O340  1  0.65717817  0.81949243  0.49366955  1
  O2-  O341  1  0.66561785  0.83026241  0.83365631  1
  O2-  O342  1  0.17137143  0.31878495  0.16343523  1
  O2-  O343  1  0.15967232  0.32352572  0.50727700  1
  O2-  O344  1  0.17061862  0.31659288  0.82748371  1
  O2-  O345  1  0.16511509  0.82663969  0.16903758  1
  O2-  O346  1  0.16951843  0.81596901  0.49628860  1
  O2-  O347  1  0.16301545  0.81787795  0.83811013  1
  O2-  O348  1  0.50247682  0.31573796  0.16682857  1
  O2-  O349  1  0.50378774  0.32313803  0.49528160  1
  O2-  O350  1  0.49903335  0.31484334  0.83741643  1
  O2-  O351  1  0.49772493  0.80721172  0.17125864  1
  O2-  O352  1  0.50100280  0.83045588  0.49969938  1
  O2-  O353  1  0.49821337  0.81389993  0.83242809  1
  O2-  O354  1  0.83181085  0.31921796  0.16951196  1
  O2-  O355  1  0.82956529  0.33477169  0.50409994  1
  O2-  O356  1  0.83505492  0.32397793  0.83081198  1
  O2-  O357  1  0.83507976  0.81842859  0.16027184  1
  O2-  O358  1  0.83496406  0.83015032  0.49551322  1
  O2-  O359  1  0.83679652  0.82434865  0.83132116  1
  O2-  O360  1  0.07499872  0.08557137  0.12255080  1
  O2-  O361  1  0.09882906  0.08391760  0.43379535  1
  O2-  O362  1  0.08043077  0.07838129  0.77265831  1
  O2-  O363  1  0.10400163  0.58003051  0.10513996  1
  O2-  O364  1  0.07897269  0.58112006  0.46665261  1
  O2-  O365  1  0.07710027  0.58105234  0.76490600  1
  O2-  O366  1  0.39752612  0.06487843  0.12984685  1
  O2-  O367  1  0.40539586  0.08235465  0.44501237  1
  O2-  O368  1  0.42358222  0.08043190  0.78991832  1
  O2-  O369  1  0.41886668  0.57874849  0.11458520  1
  O2-  O370  1  0.41109844  0.56935355  0.43042954  1
  O2-  O371  1  0.42009242  0.58357102  0.78573444  1
  O2-  O372  1  0.76393023  0.08062278  0.11497957  1
  O2-  O373  1  0.74879205  0.07859074  0.45125775  1
  O2-  O374  1  0.74514744  0.08287127  0.79403497  1
  O2-  O375  1  0.75082195  0.58284622  0.11843369  1
  O2-  O376  1  0.75055417  0.58241600  0.44252296  1
  O2-  O377  1  0.74376001  0.57992528  0.77791075  1
  O2-  O378  1  0.23238100  0.08247482  0.20551017  1
  O2-  O379  1  0.24939139  0.07804582  0.57191638  1
  O2-  O380  1  0.24547964  0.08276682  0.88012500  1
  O2-  O381  1  0.24688115  0.57875014  0.21527748  1
  O2-  O382  1  0.23139937  0.58017375  0.54875533  1
  O2-  O383  1  0.24298749  0.58379415  0.89437832  1
  O2-  O384  1  0.58890827  0.07462814  0.22242241  1
  O2-  O385  1  0.57994452  0.07248785  0.54421836  1
  O2-  O386  1  0.57371432  0.06350635  0.88436640  1
  O2-  O387  1  0.58278286  0.57177749  0.20446356  1
  O2-  O388  1  0.58636912  0.57157462  0.54740128  1
  O2-  O389  1  0.57797884  0.57186565  0.90536478  1
  O2-  O390  1  0.92883435  0.08122210  0.21857542  1
  O2-  O391  1  0.91062751  0.07589031  0.57171832  1
  O2-  O392  1  0.92703641  0.08506733  0.87546281  1
  O2-  O393  1  0.91662256  0.57928100  0.20530104  1
  O2-  O394  1  0.93689712  0.58326498  0.55926993  1
  O2-  O395  1  0.92368698  0.57996170  0.88969930  1
  O2-  O396  1  0.10289752  0.41627623  0.11243863  1
  O2-  O397  1  0.07770686  0.41883406  0.44335495  1
  O2-  O398  1  0.10195691  0.41934369  0.78086699  1
  O2-  O399  1  0.06150982  0.92268074  0.11354829  1
  O2-  O400  1  0.09888429  0.91975748  0.45065536  1
  O2-  O401  1  0.06795606  0.91658508  0.77859632  1
  O2-  O402  1  0.39865486  0.42139866  0.11678102  1
  O2-  O403  1  0.42629976  0.41557943  0.41378431  1
  O2-  O404  1  0.42489586  0.41869662  0.78992414  1
  O2-  O405  1  0.41999114  0.91242592  0.10762436  1
  O2-  O406  1  0.42246410  0.92262479  0.44740221  1
  O2-  O407  1  0.40631366  0.92036771  0.75661879  1
  O2-  O408  1  0.73481263  0.41422151  0.09808079  1
  O2-  O409  1  0.75057770  0.42550385  0.44541206  1
  O2-  O410  1  0.73828090  0.41849438  0.78791021  1
  O2-  O411  1  0.76865746  0.92204622  0.12137852  1
  O2-  O412  1  0.72635735  0.91599289  0.43855258  1
  O2-  O413  1  0.77389637  0.92476775  0.78492333  1
  O2-  O414  1  0.25482898  0.42137739  0.21793474  1
  O2-  O415  1  0.22616837  0.41582608  0.57611494  1
  O2-  O416  1  0.24968883  0.42036267  0.88443863  1
  O2-  O417  1  0.24366851  0.92244715  0.21271028  1
  O2-  O418  1  0.23885853  0.91930956  0.55568337  1
  O2-  O419  1  0.24351917  0.91601718  0.88336188  1
  O2-  O420  1  0.56989378  0.42548276  0.22063988  1
  O2-  O421  1  0.59750583  0.41898236  0.54769492  1
  O2-  O422  1  0.58247332  0.41232146  0.89609169  1
  O2-  O423  1  0.60748695  0.92034979  0.20264275  1
  O2-  O424  1  0.57248523  0.92868124  0.55189857  1
  O2-  O425  1  0.57695498  0.91510985  0.91401730  1
  O2-  O426  1  0.92453334  0.41558711  0.22220602  1
  O2-  O427  1  0.92825531  0.42097113  0.55088411  1
  O2-  O428  1  0.92419528  0.42159035  0.88758706  1
  O2-  O429  1  0.91874102  0.91921155  0.21928478  1
  O2-  O430  1  0.93322873  0.91785443  0.55765425  1
  O2-  O431  1  0.92478002  0.91778362  0.89015507  1
  O2-  O432  1  -0.01155950  0.01070659  0.00802592  1
  O2-  O433  1  0.00096203  -0.00195727  0.33679182  1
  O2-  O434  1  0.00455092  -0.00558592  0.66865534  1
  O2-  O435  1  0.02834882  0.50261005  -0.04359117  1
  O2-  O436  1  0.00498064  0.50646053  0.31599877  1
  O2-  O437  1  0.00689253  0.49265763  0.65531867  1
  O2-  O438  1  0.30694160  -0.00086859  0.02667280  1
  O2-  O439  1  0.30807298  -0.00174908  0.37614179  1
  O2-  O440  1  0.33791266  0.00810463  0.66940535  1
  O2-  O441  1  0.32481575  0.50233375  0.02192007  1
  O2-  O442  1  0.33754018  0.50669263  0.31840190  1
  O2-  O443  1  0.31621647  0.48676419  0.69303704  1
  O2-  O444  1  0.68017108  -0.00177331  -0.02096112  1
  O2-  O445  1  0.66427570  -0.00307694  0.33745695  1
  O2-  O446  1  0.66909208  0.01945237  0.66548922  1
  O2-  O447  1  0.66226300  0.51478267  0.00726693  1
  O2-  O448  1  0.64859986  0.48902724  0.34443936  1
  O2-  O449  1  0.67866161  0.49357116  0.64311122  1
  O2-  O450  1  0.15146948  0.00109737  -0.01804277  1
  O2-  O451  1  0.16260468  -0.00958025  0.33070819  1
  O2-  O452  1  0.18052527  -0.00367124  0.69256370  1
  O2-  O453  1  0.18072950  0.49527807  0.00880866  1
  O2-  O454  1  0.16328610  0.50945640  0.31718313  1
  O2-  O455  1  0.15490521  0.50375434  0.65277095  1
  O2-  O456  1  0.50539138  0.01480789  -0.00209109  1
  O2-  O457  1  0.50936759  0.00073172  0.34575801  1
  O2-  O458  1  0.49682512  0.00788447  0.66126864  1
  O2-  O459  1  0.48480362  0.50453788  -0.00796780  1
  O2-  O460  1  0.49454124  0.49922260  0.31245824  1
  O2-  O461  1  0.50700632  0.49445107  0.66821618  1
  O2-  O462  1  0.83671094  -0.00164677  0.01427902  1
  O2-  O463  1  0.83372637  -0.01582869  0.34331563  1
  O2-  O464  1  0.85267402  0.00510924  0.68593798  1
  O2-  O465  1  0.82094685  0.49795483  -0.01311224  1
  O2-  O466  1  0.85075159  0.50212069  0.35907675  1
  O2-  O467  1  0.83278719  0.47478733  0.66705361  1
  O2-  O468  1  0.07263837  0.25108999  0.39303815  1
  O2-  O469  1  0.58956231  0.75439944  0.92823666  1
  O2-  O470  1  0.91602970  0.74700318  0.28278715  1
  O2-  O471  1  0.26456028  0.74759551  0.60109655  1
  O2-  O472  1  0.08572392  0.74773920  0.06396479  1
  O2-  O473  1  0.91235654  0.74835085  0.93762059  1
  O2-  O474  1  0.76309307  0.25007483  0.40457224  1
  O2-  O475  1  0.75403969  0.24678967  0.72005409  1
  O2-  O476  1  0.90208769  0.25461497  0.59632099  1
  O2-  O477  1  0.25159662  0.25013534  0.94096799  1
  O2-  O478  1  0.76404951  0.75123249  0.40163320  1
  O2-  O479  1  0.41984517  0.24904397  0.40281629  1
  O2-  O480  1  0.41331177  0.24841484  0.72375342  1
  O2-  O481  1  0.91424841  0.24948031  0.28073428  1
  O2-  O482  1  0.24955395  0.74996510  0.26888958  1
  O2-  O483  1  0.58612500  0.24900483  0.60656669  1
  O2-  O484  1  0.75954718  0.74793884  0.74360660  1
  O2-  O485  1  0.40557235  0.74671224  0.06471600  1
  O2-  O486  1  0.90043474  0.75123725  0.60590584  1
  O2-  O487  1  0.77274304  0.25090496  0.06359047  1
  O2-  O488  1  0.41724069  0.75526082  0.40263972  1
  O2-  O489  1  0.91144095  0.25084088  0.94518754  1
  O2-  O490  1  0.08587806  0.25122811  0.05039205  1
  O2-  O491  1  0.24692508  0.75032857  0.94537830  1
  O2-  O492  1  0.26182218  0.25440823  0.59389316  1
