# generated using pymatgen
data_Ca108Mn108O277
_symmetry_space_group_name_H-M   'P 1'
_cell_length_a   16.02681362
_cell_length_b   22.30550253
_cell_length_c   16.38792564
_cell_angle_alpha   90.00361114
_cell_angle_beta   89.99910241
_cell_angle_gamma   89.99694142
_symmetry_Int_Tables_number   1
_chemical_formula_structural   Ca108Mn108O277
_chemical_formula_sum   'Ca108 Mn108 O277'
_cell_volume   5858.45612197
_cell_formula_units_Z   1
loop_
 _symmetry_equiv_pos_site_id
 _symmetry_equiv_pos_as_xyz
  1  'x, y, z'
loop_
 _atom_type_symbol
 _atom_type_oxidation_number
  Ca2+  2.0
  Mn3.34+  3.34
  O2-  -2.0
loop_
 _atom_site_type_symbol
 _atom_site_label
 _atom_site_symmetry_multiplicity
 _atom_site_fract_x
 _atom_site_fract_y
 _atom_site_fract_z
 _atom_site_occupancy
  Ca2+  Ca0  1  0.05585357  0.24484385  0.25319538  1
  Ca2+  Ca1  1  0.08651879  0.25675030  0.58632918  1
  Ca2+  Ca2  1  0.08895343  0.25810898  0.91084635  1
  Ca2+  Ca3  1  0.07795813  0.75254328  0.26456965  1
  Ca2+  Ca4  1  0.07620475  0.75803310  0.55737459  1
  Ca2+  Ca5  1  0.07219015  0.75846205  0.92441296  1
  Ca2+  Ca6  1  0.41206695  0.25104242  0.22556375  1
  Ca2+  Ca7  1  0.43023935  0.24509855  0.59246427  1
  Ca2+  Ca8  1  0.41053554  0.24102158  0.91680428  1
  Ca2+  Ca9  1  0.43287520  0.74830043  0.23903701  1
  Ca2+  Ca10  1  0.42651343  0.76383172  0.58727116  1
  Ca2+  Ca11  1  0.44415369  0.73802828  0.91822688  1
  Ca2+  Ca12  1  0.76881812  0.24736406  0.24670631  1
  Ca2+  Ca13  1  0.73411303  0.24396215  0.59027809  1
  Ca2+  Ca14  1  0.75114655  0.25676912  0.91710775  1
  Ca2+  Ca15  1  0.74555230  0.74953172  0.26489194  1
  Ca2+  Ca16  1  0.75107660  0.75395546  0.58833118  1
  Ca2+  Ca17  1  0.74350478  0.75859589  0.89839984  1
  Ca2+  Ca18  1  0.27003901  0.24274983  0.07900883  1
  Ca2+  Ca19  1  0.24639597  0.25107628  0.42990272  1
  Ca2+  Ca20  1  0.27472187  0.24337448  0.73560168  1
  Ca2+  Ca21  1  0.24716132  0.77126073  0.08016865  1
  Ca2+  Ca22  1  0.23087857  0.76198502  0.41463986  1
  Ca2+  Ca23  1  0.25956732  0.76525055  0.74975594  1
  Ca2+  Ca24  1  0.57138863  0.25580665  0.08975662  1
  Ca2+  Ca25  1  0.59278755  0.24161216  0.44966165  1
  Ca2+  Ca26  1  0.56815963  0.23569173  0.72950335  1
  Ca2+  Ca27  1  0.58422996  0.74542802  0.06726698  1
  Ca2+  Ca28  1  0.60453386  0.74528181  0.42197039  1
  Ca2+  Ca29  1  0.59649788  0.75741248  0.75583734  1
  Ca2+  Ca30  1  0.90908090  0.24633248  0.10791544  1
  Ca2+  Ca31  1  0.90620032  0.23489985  0.41699094  1
  Ca2+  Ca32  1  0.90498236  0.24422091  0.72956250  1
  Ca2+  Ca33  1  0.92474554  0.75821307  0.07890523  1
  Ca2+  Ca34  1  0.91386353  0.73696520  0.41867001  1
  Ca2+  Ca35  1  0.88455488  0.74736745  0.74232112  1
  Ca2+  Ca36  1  0.73119138  0.61603570  0.90494241  1
  Ca2+  Ca37  1  0.76530794  0.60092945  0.56463370  1
  Ca2+  Ca38  1  0.05037086  0.59358955  0.27579082  1
  Ca2+  Ca39  1  0.41974325  0.08611995  0.26241053  1
  Ca2+  Ca40  1  0.91217526  0.60209837  0.09067829  1
  Ca2+  Ca41  1  0.24615676  0.09183555  0.06199520  1
  Ca2+  Ca42  1  0.88941528  0.59101175  0.73334751  1
  Ca2+  Ca43  1  0.78949548  0.10922614  0.27602704  1
  Ca2+  Ca44  1  0.60084354  0.58890706  0.40756740  1
  Ca2+  Ca45  1  0.59100160  0.58729101  0.40470751  1
  Ca2+  Ca46  1  0.27841629  0.56615717  0.74493653  1
  Ca2+  Ca47  1  0.58938703  0.60109124  0.08422752  1
  Ca2+  Ca48  1  0.42417720  0.58355206  0.58971653  1
  Ca2+  Ca49  1  0.58074322  0.09618428  0.07904580  1
  Ca2+  Ca50  1  0.25167826  0.59422980  0.08318835  1
  Ca2+  Ca51  1  0.06699117  0.09128841  0.58640824  1
  Ca2+  Ca52  1  0.04344879  0.59125327  0.56532688  1
  Ca2+  Ca53  1  0.28990311  0.57019191  0.74752750  1
  Ca2+  Ca54  1  0.58989686  0.09388361  0.72489052  1
  Ca2+  Ca55  1  0.59006346  0.60771666  0.76045692  1
  Ca2+  Ca56  1  0.57941107  0.60651523  0.76189128  1
  Ca2+  Ca57  1  0.76638976  0.58210846  0.27454036  1
  Ca2+  Ca58  1  0.40805296  0.08589217  0.26275377  1
  Ca2+  Ca59  1  0.43271856  0.09958613  0.58394936  1
  Ca2+  Ca60  1  0.23481668  0.58922296  0.41419939  1
  Ca2+  Ca61  1  0.61106104  0.10431564  0.43960913  1
  Ca2+  Ca62  1  0.76507034  0.10763255  0.57756163  1
  Ca2+  Ca63  1  0.73949512  0.61180649  0.90771182  1
  Ca2+  Ca64  1  0.24763851  0.58823030  0.41296009  1
  Ca2+  Ca65  1  0.75962613  0.08324683  0.90893014  1
  Ca2+  Ca66  1  0.08860596  0.08124410  0.93841716  1
  Ca2+  Ca67  1  0.92175818  0.09583066  0.08923972  1
  Ca2+  Ca68  1  0.42237593  0.09991717  0.58522262  1
  Ca2+  Ca69  1  0.76057988  0.59778371  0.55654110  1
  Ca2+  Ca70  1  0.75597455  0.58224378  0.27316092  1
  Ca2+  Ca71  1  0.06383881  0.08937256  0.24036398  1
  Ca2+  Ca72  1  0.24660709  0.40592801  0.41916561  1
  Ca2+  Ca73  1  0.90747309  0.42569541  0.41284753  1
  Ca2+  Ca74  1  0.90220537  0.90559555  0.75158882  1
  Ca2+  Ca75  1  0.57768672  0.90236073  0.42518144  1
  Ca2+  Ca76  1  0.40594523  0.90706158  0.26316183  1
  Ca2+  Ca77  1  0.74938850  0.42039175  0.25678533  1
  Ca2+  Ca78  1  0.76046851  0.42027154  0.25657881  1
  Ca2+  Ca79  1  0.25055537  0.39964872  0.07487151  1
  Ca2+  Ca80  1  0.92076875  0.40667555  0.73455147  1
  Ca2+  Ca81  1  0.06851246  0.40972807  0.25892541  1
  Ca2+  Ca82  1  0.25116364  0.40126797  0.75568271  1
  Ca2+  Ca83  1  0.41728151  0.90611510  0.26347960  1
  Ca2+  Ca84  1  0.07226248  0.91694154  0.94012733  1
  Ca2+  Ca85  1  0.41256549  0.41882570  0.61227536  1
  Ca2+  Ca86  1  0.59057865  0.90295403  0.42403271  1
  Ca2+  Ca87  1  0.59686570  0.42143464  0.40992586  1
  Ca2+  Ca88  1  0.08263973  0.91620678  0.94171367  1
  Ca2+  Ca89  1  0.75602132  0.41542999  0.58657956  1
  Ca2+  Ca90  1  0.92882848  0.40925088  0.74013461  1
  Ca2+  Ca91  1  0.42136405  0.41598123  0.26015085  1
  Ca2+  Ca92  1  0.43441440  0.41622070  0.26003634  1
  Ca2+  Ca93  1  0.06077970  0.41529077  0.25922384  1
  Ca2+  Ca94  1  0.08282635  0.90994384  0.25498153  1
  Ca2+  Ca95  1  0.40200591  0.42017416  0.61174796  1
  Ca2+  Ca96  1  0.74934385  0.91202945  0.60166571  1
  Ca2+  Ca97  1  0.90754341  0.40101324  0.08503152  1
  Ca2+  Ca98  1  0.60683915  0.41814782  0.41104536  1
  Ca2+  Ca99  1  0.22623757  0.91465395  0.41856907  1
  Ca2+  Ca100  1  0.24209047  0.90976573  0.73941667  1
  Ca2+  Ca101  1  0.41717811  0.89023565  0.91353155  1
  Ca2+  Ca102  1  0.73990377  0.40339932  0.91679006  1
  Ca2+  Ca103  1  0.76466208  0.41718539  0.58123869  1
  Ca2+  Ca104  1  0.59313910  0.89206032  0.08303620  1
  Ca2+  Ca105  1  0.59307184  0.40782779  0.07685581  1
  Ca2+  Ca106  1  0.23769061  0.39938345  0.07486357  1
  Ca2+  Ca107  1  0.41953550  0.40410497  0.89621981  1
  Mn3.34+  Mn108  1  0.08069775  0.32125697  0.08080200  1
  Mn3.34+  Mn109  1  0.07862431  0.33191880  0.42297952  1
  Mn3.34+  Mn110  1  0.08804295  0.33250488  0.74880648  1
  Mn3.34+  Mn111  1  0.07854523  0.83820874  0.09238066  1
  Mn3.34+  Mn112  1  0.06978683  0.83980293  0.41760352  1
  Mn3.34+  Mn113  1  0.07927239  0.83803033  0.75139723  1
  Mn3.34+  Mn114  1  0.41834526  0.33110118  0.08193235  1
  Mn3.34+  Mn115  1  0.41844171  0.33348841  0.42497421  1
  Mn3.34+  Mn116  1  0.42094923  0.32979370  0.75230805  1
  Mn3.34+  Mn117  1  0.41500033  0.83226077  0.08466682  1
  Mn3.34+  Mn118  1  0.41083583  0.83892426  0.42715712  1
  Mn3.34+  Mn119  1  0.41987759  0.83348475  0.74812628  1
  Mn3.34+  Mn120  1  0.74920073  0.33063244  0.08140871  1
  Mn3.34+  Mn121  1  0.75489689  0.32952358  0.42010215  1
  Mn3.34+  Mn122  1  0.74445826  0.33036718  0.75289445  1
  Mn3.34+  Mn123  1  0.75722143  0.83753412  0.08817788  1
  Mn3.34+  Mn124  1  0.75880787  0.83180160  0.41883499  1
  Mn3.34+  Mn125  1  0.74558475  0.84131665  0.75247243  1
  Mn3.34+  Mn126  1  0.24672279  0.33486076  0.25065944  1
  Mn3.34+  Mn127  1  0.24785884  0.33121382  0.58245587  1
  Mn3.34+  Mn128  1  0.25095252  0.32876690  0.90966052  1
  Mn3.34+  Mn129  1  0.24531036  0.83481787  0.24925234  1
  Mn3.34+  Mn130  1  0.24772165  0.83966836  0.58249680  1
  Mn3.34+  Mn131  1  0.24902015  0.83567212  0.91493798  1
  Mn3.34+  Mn132  1  0.58438132  0.33987510  0.24662347  1
  Mn3.34+  Mn133  1  0.58366169  0.33485042  0.58447782  1
  Mn3.34+  Mn134  1  0.58022382  0.33144272  0.91219340  1
  Mn3.34+  Mn135  1  0.59045034  0.82647995  0.24755995  1
  Mn3.34+  Mn136  1  0.58422073  0.83250048  0.58921557  1
  Mn3.34+  Mn137  1  0.58768253  0.82941846  0.91583849  1
  Mn3.34+  Mn138  1  0.91479460  0.33363208  0.25108060  1
  Mn3.34+  Mn139  1  0.91997931  0.33435371  0.57233006  1
  Mn3.34+  Mn140  1  0.91977118  0.32974750  0.91315928  1
  Mn3.34+  Mn141  1  0.91137994  0.83066074  0.24808115  1
  Mn3.34+  Mn142  1  0.91666102  0.83179606  0.58214523  1
  Mn3.34+  Mn143  1  0.91004777  0.83360272  0.91697598  1
  Mn3.34+  Mn144  1  0.75196689  0.16244571  0.08813860  1
  Mn3.34+  Mn145  1  0.75112163  0.16389787  0.74514210  1
  Mn3.34+  Mn146  1  0.91163020  0.16997816  0.91279797  1
  Mn3.34+  Mn147  1  0.58056003  0.17139812  0.91538909  1
  Mn3.34+  Mn148  1  0.91397827  0.66908413  0.57710189  1
  Mn3.34+  Mn149  1  0.58057135  0.17184618  0.25418481  1
  Mn3.34+  Mn150  1  0.08562668  0.16237223  0.41995781  1
  Mn3.34+  Mn151  1  0.24479119  0.66599238  0.57996613  1
  Mn3.34+  Mn152  1  0.25503952  0.66189023  0.91659121  1
  Mn3.34+  Mn153  1  0.08248607  0.16618896  0.74920197  1
  Mn3.34+  Mn154  1  0.24665686  0.66992277  0.24551313  1
  Mn3.34+  Mn155  1  0.91329286  0.66842864  0.24620155  1
  Mn3.34+  Mn156  1  0.58899707  0.66417106  0.24618187  1
  Mn3.34+  Mn157  1  0.42202281  0.66772571  0.41642633  1
  Mn3.34+  Mn158  1  0.59455598  0.16643860  0.25305509  1
  Mn3.34+  Mn159  1  0.91686109  0.67046121  0.91677739  1
  Mn3.34+  Mn160  1  0.42242342  0.66807977  0.08301693  1
  Mn3.34+  Mn161  1  0.25740289  0.66537801  0.24442690  1
  Mn3.34+  Mn162  1  0.23788266  0.16235947  0.24909804  1
  Mn3.34+  Mn163  1  0.07814661  0.67186891  0.08361177  1
  Mn3.34+  Mn164  1  0.58161140  0.66620155  0.57791561  1
  Mn3.34+  Mn165  1  0.24176734  0.66829659  0.91875647  1
  Mn3.34+  Mn166  1  0.58884861  0.16528576  0.91292254  1
  Mn3.34+  Mn167  1  0.24874485  0.16698416  0.25170166  1
  Mn3.34+  Mn168  1  0.75373532  0.67193420  0.08988005  1
  Mn3.34+  Mn169  1  0.25815925  0.67226027  0.58305879  1
  Mn3.34+  Mn170  1  0.08391152  0.66302013  0.75525791  1
  Mn3.34+  Mn171  1  0.07517642  0.66897588  0.75292872  1
  Mn3.34+  Mn172  1  0.41832256  0.66867346  0.75018844  1
  Mn3.34+  Mn173  1  0.08523931  0.16738114  0.08136564  1
  Mn3.34+  Mn174  1  0.07102860  0.15710941  0.42249722  1
  Mn3.34+  Mn175  1  0.41515361  0.16051758  0.42257630  1
  Mn3.34+  Mn176  1  0.25120850  0.16542149  0.91316126  1
  Mn3.34+  Mn177  1  0.25285356  0.16317340  0.57937464  1
  Mn3.34+  Mn178  1  0.92164728  0.16489798  0.91117875  1
  Mn3.34+  Mn179  1  0.09256045  0.16105987  0.75062746  1
  Mn3.34+  Mn180  1  0.41406589  0.49868755  0.42417126  1
  Mn3.34+  Mn181  1  0.91562840  0.50596888  0.91206171  1
  Mn3.34+  Mn182  1  0.08394317  0.50710842  0.09231505  1
  Mn3.34+  Mn183  1  0.60222811  -0.00184226  0.24477817  1
  Mn3.34+  Mn184  1  0.58407970  0.50203247  0.58734498  1
  Mn3.34+  Mn185  1  0.90774007  -0.00388840  0.25857995  1
  Mn3.34+  Mn186  1  0.07407265  0.49815238  0.41522599  1
  Mn3.34+  Mn187  1  0.91170948  0.00256815  0.57695590  1
  Mn3.34+  Mn188  1  0.61235822  -0.00504913  0.24749056  1
  Mn3.34+  Mn189  1  0.58760092  -0.00325658  0.59775455  1
  Mn3.34+  Mn190  1  0.74473075  0.49250895  0.74886264  1
  Mn3.34+  Mn191  1  0.25092612  0.49972739  0.25208260  1
  Mn3.34+  Mn192  1  0.58299849  0.00034497  0.90398391  1
  Mn3.34+  Mn193  1  0.59592844  -0.00601348  0.90679017  1
  Mn3.34+  Mn194  1  0.58482711  0.49755492  0.91589746  1
  Mn3.34+  Mn195  1  0.92927449  0.49991091  0.91130921  1
  Mn3.34+  Mn196  1  0.90846175  -0.00160169  0.92391912  1
  Mn3.34+  Mn197  1  0.42116139  -0.00138225  0.75754940  1
  Mn3.34+  Mn198  1  0.07354413  0.50176181  0.09368322  1
  Mn3.34+  Mn199  1  0.41421080  0.50925667  0.08186517  1
  Mn3.34+  Mn200  1  0.75111238  0.50440002  0.08059872  1
  Mn3.34+  Mn201  1  0.08346750  0.00192495  0.74439494  1
  Mn3.34+  Mn202  1  0.92539532  -0.00246789  0.57276490  1
  Mn3.34+  Mn203  1  0.24106817  0.49848746  0.91947485  1
  Mn3.34+  Mn204  1  0.91589731  -0.00937684  0.26326844  1
  Mn3.34+  Mn205  1  0.75170756  0.00016989  0.08142043  1
  Mn3.34+  Mn206  1  0.42719694  0.50348021  0.08617322  1
  Mn3.34+  Mn207  1  0.24801378  0.00165651  0.90844980  1
  Mn3.34+  Mn208  1  0.40964446  0.00609315  0.75723441  1
  Mn3.34+  Mn209  1  0.24184339  -0.00230289  0.24967540  1
  Mn3.34+  Mn210  1  0.24862885  0.00278774  0.58606111  1
  Mn3.34+  Mn211  1  0.22757526  0.49531621  0.58513931  1
  Mn3.34+  Mn212  1  0.40621556  -0.00571492  0.07436773  1
  Mn3.34+  Mn213  1  0.41917924  0.00067241  0.07214530  1
  Mn3.34+  Mn214  1  0.75415584  -0.00270073  0.41963004  1
  Mn3.34+  Mn215  1  0.08100622  0.49922461  0.74810743  1
  O2-  O216  1  0.00128741  0.16828140  -0.00302158  1
  O2-  O217  1  0.00297662  0.15689028  0.33379404  1
  O2-  O218  1  0.00535405  0.16564997  0.66689151  1
  O2-  O219  1  -0.00582811  0.65837287  0.00631759  1
  O2-  O220  1  -0.00878497  0.67758180  0.32240826  1
  O2-  O221  1  -0.00542440  0.65586729  0.67055118  1
  O2-  O222  1  0.32163663  0.17019701  -0.00329064  1
  O2-  O223  1  0.34038741  0.15945741  0.33056371  1
  O2-  O224  1  0.33663797  0.16361881  0.65072993  1
  O2-  O225  1  0.33305307  0.65280187  0.00231435  1
  O2-  O226  1  0.33117219  0.66163321  0.33908300  1
  O2-  O227  1  0.32993168  0.64522808  0.66737849  1
  O2-  O228  1  0.67240783  0.15278847  -0.00730225  1
  O2-  O229  1  0.66806077  0.16754109  0.33480555  1
  O2-  O230  1  0.67099963  0.16082070  0.66992836  1
  O2-  O231  1  0.67223380  0.66327714  0.01037545  1
  O2-  O232  1  0.66962671  0.65405076  0.32974856  1
  O2-  O233  1  0.66150629  0.63888556  0.65214058  1
  O2-  O234  1  0.16339614  0.18113731  -0.00405855  1
  O2-  O235  1  0.16336104  0.14473837  0.33512125  1
  O2-  O236  1  0.16682950  0.14621533  0.66044351  1
  O2-  O237  1  0.16589904  0.64740417  0.00189638  1
  O2-  O238  1  0.16782869  0.64791733  0.32643267  1
  O2-  O239  1  0.16781130  0.65359751  0.67286720  1
  O2-  O240  1  0.51242600  0.16919924  0.00567498  1
  O2-  O241  1  0.50217603  0.15054017  0.33978079  1
  O2-  O242  1  0.50234250  0.15701373  0.65878596  1
  O2-  O243  1  0.50139404  0.66030188  0.00907071  1
  O2-  O244  1  0.50793833  0.65327024  0.33732534  1
  O2-  O245  1  0.49822100  0.65375516  0.66283001  1
  O2-  O246  1  0.83661510  0.15529030  0.00125086  1
  O2-  O247  1  0.82088576  0.18843084  0.33903266  1
  O2-  O248  1  0.83165140  0.16904247  0.66951913  1
  O2-  O249  1  0.83083350  0.65276414  -0.00116383  1
  O2-  O250  1  0.82841955  0.66755536  0.31672949  1
  O2-  O251  1  0.82622564  0.65860669  0.65636466  1
  O2-  O252  1  -0.00754878  0.30844281  0.00459946  1
  O2-  O253  1  -0.00355996  0.34503400  0.33404997  1
  O2-  O254  1  -0.00470462  0.33361437  0.66400694  1
  O2-  O255  1  -0.00105522  0.84167248  -0.00008605  1
  O2-  O256  1  0.00206882  0.83214714  0.32248402  1
  O2-  O257  1  -0.00292455  0.82788956  0.67235577  1
  O2-  O258  1  0.33347722  0.33961282  -0.00084844  1
  O2-  O259  1  0.34083818  0.34849405  0.33420613  1
  O2-  O260  1  0.33283152  0.34002942  0.66597546  1
  O2-  O261  1  0.33159598  0.84584856  0.00431878  1
  O2-  O262  1  0.33114236  0.83981221  0.33903173  1
  O2-  O263  1  0.33026651  0.84516279  0.66953482  1
  O2-  O264  1  0.66326404  0.33340607  -0.00093136  1
  O2-  O265  1  0.67293464  0.34838131  0.33068910  1
  O2-  O266  1  0.67664230  0.35347046  0.65571963  1
  O2-  O267  1  0.66778430  0.82677073  0.00556324  1
  O2-  O268  1  0.66231998  0.84475072  0.33755821  1
  O2-  O269  1  0.67113544  0.84062904  0.66032573  1
  O2-  O270  1  0.17216074  0.32176224  0.00123983  1
  O2-  O271  1  0.15927781  0.35401806  0.32941398  1
  O2-  O272  1  0.17010155  0.34827622  0.66715249  1
  O2-  O273  1  0.16165379  0.84352973  -0.00521459  1
  O2-  O274  1  0.16713660  0.84453908  0.33123526  1
  O2-  O275  1  0.16813477  0.83643883  0.67326668  1
  O2-  O276  1  0.50349847  0.33877279  0.00449595  1
  O2-  O277  1  0.50427987  0.35200303  0.34010292  1
  O2-  O278  1  0.49792567  0.34855646  0.66230427  1
  O2-  O279  1  0.50040350  0.83910886  0.00510543  1
  O2-  O280  1  0.49675824  0.83635687  0.33001741  1
  O2-  O281  1  0.50295158  0.83356305  0.66939880  1
  O2-  O282  1  0.83188953  0.34372748  -0.00555346  1
  O2-  O283  1  0.83283617  0.35135178  0.33403871  1
  O2-  O284  1  0.83929306  0.34392592  0.66645887  1
  O2-  O285  1  0.82901238  0.82266284  0.00092645  1
  O2-  O286  1  0.83685849  0.81964893  0.33446590  1
  O2-  O287  1  0.83467294  0.84029215  0.66818174  1
  O2-  O288  1  0.00589381  0.17990169  0.15673031  1
  O2-  O289  1  0.00229474  0.18384954  0.50121800  1
  O2-  O290  1  -0.00159476  0.19256813  0.83204949  1
  O2-  O291  1  0.00028910  0.68567692  0.16715992  1
  O2-  O292  1  0.00187394  0.67709322  0.50987283  1
  O2-  O293  1  -0.00364564  0.68897423  0.83244997  1
  O2-  O294  1  0.33391729  0.17180655  0.17351035  1
  O2-  O295  1  0.33382318  0.18636478  0.49453519  1
  O2-  O296  1  0.31999973  0.19154942  0.84106094  1
  O2-  O297  1  0.33151751  0.68533130  0.16246675  1
  O2-  O298  1  0.33886995  0.68642315  0.49611742  1
  O2-  O299  1  0.32631720  0.67649027  0.82682005  1
  O2-  O300  1  0.65679141  0.18173280  0.15497678  1
  O2-  O301  1  0.67868046  0.17706329  0.50334806  1
  O2-  O302  1  0.66779718  0.19044203  0.83743884  1
  O2-  O303  1  0.66845709  0.68699344  0.16659221  1
  O2-  O304  1  0.66017010  0.66301957  0.49619166  1
  O2-  O305  1  0.66401721  0.67276771  0.82620608  1
  O2-  O306  1  0.16889677  0.18872495  0.15868860  1
  O2-  O307  1  0.16243784  0.17588743  0.50055004  1
  O2-  O308  1  0.16076804  0.18118004  0.83728235  1
  O2-  O309  1  0.16840772  0.67935381  0.15971639  1
  O2-  O310  1  0.17725399  0.67698248  0.49066617  1
  O2-  O311  1  0.16440546  0.68952510  0.83277057  1
  O2-  O312  1  0.49696613  0.16947922  0.18110346  1
  O2-  O313  1  0.49363828  0.17829159  0.49598292  1
  O2-  O314  1  0.50250348  0.18693636  0.83888831  1
  O2-  O315  1  0.50614275  0.67747534  0.16512187  1
  O2-  O316  1  0.50065362  0.68533623  0.49726586  1
  O2-  O317  1  0.50244467  0.67980262  0.81901238  1
  O2-  O318  1  0.82984562  0.17158826  0.16525578  1
  O2-  O319  1  0.81389118  0.19030846  0.50201725  1
  O2-  O320  1  0.82890204  0.18582365  0.83627378  1
  O2-  O321  1  0.84236612  0.68974669  0.15842895  1
  O2-  O322  1  0.83224583  0.67627846  0.50214649  1
  O2-  O323  1  0.83065645  0.67602368  0.84248022  1
  O2-  O324  1  0.00474025  0.32471141  0.17149772  1
  O2-  O325  1  -0.00318994  0.30738872  0.49676937  1
  O2-  O326  1  -0.00419936  0.31636916  0.82524393  1
  O2-  O327  1  0.00059225  0.81372269  0.17017304  1
  O2-  O328  1  -0.01107336  0.82011701  0.49433711  1
  O2-  O329  1  0.00233385  0.82259472  0.83856035  1
  O2-  O330  1  0.32918561  0.32809742  0.16219791  1
  O2-  O331  1  0.33517653  0.31258701  0.50045354  1
  O2-  O332  1  0.33624664  0.31768136  0.83422219  1
  O2-  O333  1  0.34109783  0.82437326  0.17857944  1
  O2-  O334  1  0.33031855  0.81459880  0.50022420  1
  O2-  O335  1  0.33371438  0.82437518  0.83578566  1
  O2-  O336  1  0.66325314  0.33048463  0.16380978  1
  O2-  O337  1  0.66386663  0.32392970  0.49353393  1
  O2-  O338  1  0.66926760  0.31934536  0.84079086  1
  O2-  O339  1  0.66402022  0.81315147  0.16229329  1
  O2-  O340  1  0.65834568  0.82683913  0.49677133  1
  O2-  O341  1  0.66476722  0.82792877  0.83268001  1
  O2-  O342  1  0.16943150  0.32107371  0.15629423  1
  O2-  O343  1  0.17202552  0.32693292  0.49300483  1
  O2-  O344  1  0.17239168  0.31587552  0.82875205  1
  O2-  O345  1  0.16383459  0.82399348  0.17113638  1
  O2-  O346  1  0.16696588  0.82930822  0.49909762  1
  O2-  O347  1  0.16567916  0.81635659  0.83295570  1
  O2-  O348  1  0.49119288  0.33073666  0.17233242  1
  O2-  O349  1  0.50323062  0.31756011  0.49903988  1
  O2-  O350  1  0.49378591  0.31659315  0.84044039  1
  O2-  O351  1  0.49959951  0.82325570  0.17059724  1
  O2-  O352  1  0.50322540  0.82167173  0.49408655  1
  O2-  O353  1  0.49424649  0.82052536  0.83897260  1
  O2-  O354  1  0.83222514  0.32748274  0.16828320  1
  O2-  O355  1  0.82952691  0.30941286  0.50447606  1
  O2-  O356  1  0.83540567  0.31465423  0.83266934  1
  O2-  O357  1  0.83088188  0.80713152  0.16851992  1
  O2-  O358  1  0.82286622  0.82707356  0.51217831  1
  O2-  O359  1  0.83617745  0.82484027  0.83016609  1
  O2-  O360  1  0.08917346  0.08588781  0.09515340  1
  O2-  O361  1  0.07602519  0.07885049  0.44973840  1
  O2-  O362  1  0.07689418  0.08205067  0.79265764  1
  O2-  O363  1  0.07257579  0.58684661  0.12593525  1
  O2-  O364  1  0.10439689  0.57315756  0.44927447  1
  O2-  O365  1  0.09137034  0.57902730  0.78108547  1
  O2-  O366  1  0.42527843  0.07290073  0.12933454  1
  O2-  O367  1  0.41997813  0.08157555  0.44058670  1
  O2-  O368  1  0.42995661  0.08313884  0.77112447  1
  O2-  O369  1  0.40760656  0.58663475  0.11869106  1
  O2-  O370  1  0.39438988  0.58014418  0.44531726  1
  O2-  O371  1  0.42367103  0.58293047  0.76905007  1
  O2-  O372  1  0.74186633  0.07837626  0.12474857  1
  O2-  O373  1  0.74671542  0.07243146  0.44791167  1
  O2-  O374  1  0.73428314  0.08769093  0.77830225  1
  O2-  O375  1  0.75925769  0.58184455  0.12661255  1
  O2-  O376  1  0.72462103  0.56421709  0.44159354  1
  O2-  O377  1  0.74243743  0.57161144  0.78007126  1
  O2-  O378  1  0.24593354  0.07813294  0.20883301  1
  O2-  O379  1  0.27582423  0.08097057  0.55304195  1
  O2-  O380  1  0.23426326  0.08470467  0.91015107  1
  O2-  O381  1  0.25145070  0.58178489  0.21828825  1
  O2-  O382  1  0.25472057  0.58134595  0.54878038  1
  O2-  O383  1  0.24547502  0.57988804  0.87761821  1
  O2-  O384  1  0.59363463  0.08151938  0.21673946  1
  O2-  O385  1  0.55979193  0.06689339  0.55250118  1
  O2-  O386  1  0.59290809  0.08183020  0.87632929  1
  O2-  O387  1  0.61321292  0.58243745  0.22925190  1
  O2-  O388  1  0.56461264  0.57904055  0.54373849  1
  O2-  O389  1  0.60136865  0.57626024  0.88868603  1
  O2-  O390  1  0.91768487  0.07436779  0.22057041  1
  O2-  O391  1  0.91597939  0.08093945  0.55337151  1
  O2-  O392  1  0.90884196  0.07938579  0.88503951  1
  O2-  O393  1  0.90657426  0.58839594  0.22776839  1
  O2-  O394  1  0.90606295  0.58252575  0.56851553  1
  O2-  O395  1  0.91614300  0.58578922  0.88206205  1
  O2-  O396  1  0.09187918  0.41710954  0.10820056  1
  O2-  O397  1  0.06515432  0.41786899  0.43685020  1
  O2-  O398  1  0.06598119  0.41693684  0.77205203  1
  O2-  O399  1  0.07864834  0.91735732  0.10012965  1
  O2-  O400  1  0.08579050  0.91846148  0.41861375  1
  O2-  O401  1  0.08761131  0.92529279  0.79445969  1
  O2-  O402  1  0.40426258  0.42196452  0.11623023  1
  O2-  O403  1  0.41951993  0.42058218  0.46608899  1
  O2-  O404  1  0.40059899  0.41637117  0.76155898  1
  O2-  O405  1  0.42838865  0.91903208  0.12172488  1
  O2-  O406  1  0.43981590  0.92180359  0.40833110  1
  O2-  O407  1  0.40618895  0.91998840  0.77994918  1
  O2-  O408  1  0.75103542  0.42196754  0.11251517  1
  O2-  O409  1  0.74443177  0.42094968  0.45007238  1
  O2-  O410  1  0.76494115  0.41373846  0.78107431  1
  O2-  O411  1  0.72925209  0.92292458  0.11197424  1
  O2-  O412  1  0.73425956  0.91943943  0.44976107  1
  O2-  O413  1  0.76042936  0.92057798  0.75525247  1
  O2-  O414  1  0.24388633  0.42058848  0.20717302  1
  O2-  O415  1  0.27157107  0.41604962  0.55544423  1
  O2-  O416  1  0.25764389  0.41643525  0.89629362  1
  O2-  O417  1  0.26365506  0.91740171  0.23291868  1
  O2-  O418  1  0.25247638  0.92267406  0.55509971  1
  O2-  O419  1  0.24630660  0.92006849  0.88135711  1
  O2-  O420  1  0.56646631  0.42291286  0.21703249  1
  O2-  O421  1  0.58808157  0.42238016  0.54933186  1
  O2-  O422  1  0.57857964  0.41769392  0.89987931  1
  O2-  O423  1  0.58079151  0.91265481  0.22488898  1
  O2-  O424  1  0.58771066  0.92018067  0.55859286  1
  O2-  O425  1  0.57526584  0.91419425  0.91103919  1
  O2-  O426  1  0.92510626  0.41765067  0.21957234  1
  O2-  O427  1  0.89418306  0.42057891  0.54950928  1
  O2-  O428  1  0.91404726  0.41942988  0.87830731  1
  O2-  O429  1  0.92085912  0.91425116  0.22516717  1
  O2-  O430  1  0.91625227  0.91619260  0.57027388  1
  O2-  O431  1  0.92897346  0.91908727  0.89224242  1
  O2-  O432  1  0.00635120  0.00384542  -0.02809433  1
  O2-  O433  1  0.02382112  0.00132433  0.29254334  1
  O2-  O434  1  0.00271835  0.00518805  0.65875075  1
  O2-  O435  1  -0.00192575  0.50155122  0.00593252  1
  O2-  O436  1  0.01116522  0.49630522  0.31705806  1
  O2-  O437  1  -0.02604416  0.50344453  0.71559521  1
  O2-  O438  1  0.32286025  0.00544863  -0.00182310  1
  O2-  O439  1  0.34800018  0.00134332  0.28789281  1
  O2-  O440  1  0.33543580  -0.00008474  0.66917735  1
  O2-  O441  1  0.33415109  0.49365675  0.00051458  1
  O2-  O442  1  0.34186887  0.48145312  0.33079507  1
  O2-  O443  1  0.33486578  0.50668548  0.65138320  1
  O2-  O444  1  0.66516857  0.01581872  -0.00042995  1
  O2-  O445  1  0.64285022  -0.00277846  0.36394539  1
  O2-  O446  1  0.67565733  0.01444876  0.64643196  1
  O2-  O447  1  0.67350641  0.49822080  -0.00612610  1
  O2-  O448  1  0.66735086  0.48118773  0.32680066  1
  O2-  O449  1  0.68934441  0.50127427  0.63366837  1
  O2-  O450  1  0.15834168  -0.00380670  -0.02686078  1
  O2-  O451  1  0.17248657  -0.00585443  0.32650689  1
  O2-  O452  1  0.16957617  0.00025132  0.66898805  1
  O2-  O453  1  0.18159954  0.50100681  0.02755915  1
  O2-  O454  1  0.17691026  0.49681839  0.34958840  1
  O2-  O455  1  0.18832871  0.49629841  0.70477123  1
  O2-  O456  1  0.49975057  0.00501349  -0.01036781  1
  O2-  O457  1  0.49349639  0.00611977  0.29278751  1
  O2-  O458  1  0.50533069  0.00351040  0.67631409  1
  O2-  O459  1  0.51012566  0.50035576  0.00556176  1
  O2-  O460  1  0.50881600  0.48791415  0.35566448  1
  O2-  O461  1  0.48666714  0.49960481  0.63890364  1
  O2-  O462  1  0.83571384  0.02176294  0.00729326  1
  O2-  O463  1  0.80863119  0.00852701  0.31529155  1
  O2-  O464  1  0.82929455  0.00167721  0.64771515  1
  O2-  O465  1  0.84031439  0.49389241  0.00231619  1
  O2-  O466  1  0.82217972  0.49612554  0.30092819  1
  O2-  O467  1  0.83293561  0.48585390  0.67992823  1
  O2-  O468  1  0.58578031  0.75121424  0.92575570  1
  O2-  O469  1  0.25332061  0.74998546  0.94246357  1
  O2-  O470  1  0.59208916  0.74682097  0.60401614  1
  O2-  O471  1  0.74456150  0.75328442  0.41214658  1
  O2-  O472  1  0.91018425  0.75063714  0.60119577  1
  O2-  O473  1  0.40388893  0.74893506  0.72462329  1
  O2-  O474  1  0.42076905  0.25299862  0.72743600  1
  O2-  O475  1  0.92031110  0.75029300  0.93868805  1
  O2-  O476  1  0.24366838  0.75152934  0.27323971  1
  O2-  O477  1  0.23365118  0.24869990  0.59945935  1
  O2-  O478  1  0.58231331  0.74716124  0.27791682  1
  O2-  O479  1  0.08931474  0.75762719  0.40698349  1
  O2-  O480  1  0.09199188  0.75083087  0.05982659  1
  O2-  O481  1  0.75562162  0.24657887  0.06566389  1
  O2-  O482  1  0.57612920  0.25614320  0.25903624  1
  O2-  O483  1  0.74368802  0.75728878  0.73769193  1
  O2-  O484  1  0.58563389  0.25655612  0.59893184  1
  O2-  O485  1  0.91432109  0.25440443  0.26318867  1
  O2-  O486  1  0.74560102  0.25264894  0.72759793  1
  O2-  O487  1  0.41417867  0.75024537  0.06573948  1
  O2-  O488  1  0.41976284  0.25255997  0.07924658  1
  O2-  O489  1  0.24600346  0.75250880  0.60773750  1
  O2-  O490  1  0.09614489  0.24450217  0.38941899  1
  O2-  O491  1  0.25204972  0.25077539  0.27852900  1
  O2-  O492  1  0.09578561  0.24850621  0.72488350  1
