# generated using pymatgen
data_Ca108Mn108O277
_symmetry_space_group_name_H-M   'P 1'
_cell_length_a   16.02454488
_cell_length_b   22.30198925
_cell_length_c   16.38543930
_cell_angle_alpha   89.99867745
_cell_angle_beta   89.99831709
_cell_angle_gamma   89.99645055
_symmetry_Int_Tables_number   1
_chemical_formula_structural   Ca108Mn108O277
_chemical_formula_sum   'Ca108 Mn108 O277'
_cell_volume   5855.81562682
_cell_formula_units_Z   1
loop_
 _symmetry_equiv_pos_site_id
 _symmetry_equiv_pos_as_xyz
  1  'x, y, z'
loop_
 _atom_type_symbol
 _atom_type_oxidation_number
  Ca2+  2.0
  Mn3.34+  3.34
  O2-  -2.0
loop_
 _atom_site_type_symbol
 _atom_site_label
 _atom_site_symmetry_multiplicity
 _atom_site_fract_x
 _atom_site_fract_y
 _atom_site_fract_z
 _atom_site_occupancy
  Ca2+  Ca0  1  0.07605484  0.25440145  0.24849328  1
  Ca2+  Ca1  1  0.07957399  0.25192494  0.58420781  1
  Ca2+  Ca2  1  0.06598822  0.24678980  0.91964483  1
  Ca2+  Ca3  1  0.08900776  0.75326966  0.25964824  1
  Ca2+  Ca4  1  0.09870094  0.73489597  0.57203941  1
  Ca2+  Ca5  1  0.08314195  0.74376101  0.92787557  1
  Ca2+  Ca6  1  0.41587580  0.25074652  0.24923449  1
  Ca2+  Ca7  1  0.40787489  0.25792543  0.58308630  1
  Ca2+  Ca8  1  0.41376801  0.25398181  0.91932883  1
  Ca2+  Ca9  1  0.40990182  0.75379490  0.25285337  1
  Ca2+  Ca10  1  0.39694674  0.75520649  0.58186299  1
  Ca2+  Ca11  1  0.42151543  0.74966404  0.90816782  1
  Ca2+  Ca12  1  0.76540249  0.25848379  0.24644372  1
  Ca2+  Ca13  1  0.75998348  0.25505814  0.59321603  1
  Ca2+  Ca14  1  0.76890470  0.26052442  0.91086086  1
  Ca2+  Ca15  1  0.75799601  0.73866221  0.24037669  1
  Ca2+  Ca16  1  0.75123457  0.74438764  0.59293990  1
  Ca2+  Ca17  1  0.75430810  0.74366937  0.91246106  1
  Ca2+  Ca18  1  0.24055874  0.25957898  0.07651629  1
  Ca2+  Ca19  1  0.21875592  0.23993443  0.42271714  1
  Ca2+  Ca20  1  0.23738777  0.25898854  0.74805613  1
  Ca2+  Ca21  1  0.23757231  0.74955576  0.09323533  1
  Ca2+  Ca22  1  0.23813078  0.73239674  0.41770068  1
  Ca2+  Ca23  1  0.25273183  0.74297299  0.73802697  1
  Ca2+  Ca24  1  0.58214901  0.26076135  0.08028534  1
  Ca2+  Ca25  1  0.58573426  0.24951251  0.41610984  1
  Ca2+  Ca26  1  0.59658570  0.25607518  0.75547689  1
  Ca2+  Ca27  1  0.59766408  0.74378518  0.07535762  1
  Ca2+  Ca28  1  0.57657212  0.75368775  0.41183994  1
  Ca2+  Ca29  1  0.59174405  0.74780395  0.76377065  1
  Ca2+  Ca30  1  0.92718187  0.26264601  0.07123265  1
  Ca2+  Ca31  1  0.93520847  0.25759198  0.42081069  1
  Ca2+  Ca32  1  0.91732371  0.24307809  0.76554139  1
  Ca2+  Ca33  1  0.92089732  0.74524568  0.08047658  1
  Ca2+  Ca34  1  0.94161677  0.74045405  0.41040748  1
  Ca2+  Ca35  1  0.90844276  0.74757198  0.76048810  1
  Ca2+  Ca36  1  0.90954739  0.09672555  0.42011997  1
  Ca2+  Ca37  1  0.08605364  0.08929628  0.24633733  1
  Ca2+  Ca38  1  0.09738904  0.08892552  0.24590022  1
  Ca2+  Ca39  1  0.75642108  0.09150010  0.59008327  1
  Ca2+  Ca40  1  0.22683486  0.08764477  0.75293288  1
  Ca2+  Ca41  1  0.60363579  0.59398566  0.41063997  1
  Ca2+  Ca42  1  0.08286291  0.59648877  0.26702617  1
  Ca2+  Ca43  1  0.08662945  0.59322143  0.25859116  1
  Ca2+  Ca44  1  0.92231244  0.09635192  0.42087610  1
  Ca2+  Ca45  1  0.09279290  0.09957045  0.58898336  1
  Ca2+  Ca46  1  0.89899181  0.59550951  0.08513532  1
  Ca2+  Ca47  1  0.40904641  0.59539984  0.91414506  1
  Ca2+  Ca48  1  0.74911733  0.59642100  0.92447759  1
  Ca2+  Ca49  1  0.57690882  0.07933642  0.07562631  1
  Ca2+  Ca50  1  0.72969726  0.07332900  0.27612731  1
  Ca2+  Ca51  1  0.23767777  0.08541540  0.75145684  1
  Ca2+  Ca52  1  0.92998639  0.09131362  0.05553277  1
  Ca2+  Ca53  1  0.59977775  0.59584118  0.74977608  1
  Ca2+  Ca54  1  0.56438471  0.08183828  0.07694357  1
  Ca2+  Ca55  1  0.92430086  0.59936160  0.41860926  1
  Ca2+  Ca56  1  0.42112634  0.07993637  0.26035099  1
  Ca2+  Ca57  1  0.57803173  0.07725164  0.39077073  1
  Ca2+  Ca58  1  0.40055556  0.60941590  0.57668568  1
  Ca2+  Ca59  1  0.74114625  0.07321552  0.27626485  1
  Ca2+  Ca60  1  0.39555492  0.08676496  0.57863530  1
  Ca2+  Ca61  1  0.61490985  0.59261388  0.41614002  1
  Ca2+  Ca62  1  0.22446608  0.57684039  0.04474333  1
  Ca2+  Ca63  1  0.08270705  0.10202083  0.58502192  1
  Ca2+  Ca64  1  0.94119313  0.09126739  0.05455093  1
  Ca2+  Ca65  1  0.21908785  0.58312836  0.04532492  1
  Ca2+  Ca66  1  0.24527300  0.60151063  0.77464656  1
  Ca2+  Ca67  1  0.41408994  0.59289405  0.25920768  1
  Ca2+  Ca68  1  0.40921463  0.61169631  0.58205243  1
  Ca2+  Ca69  1  0.77279316  0.10191644  0.90262872  1
  Ca2+  Ca70  1  0.39977522  0.59409953  0.90963409  1
  Ca2+  Ca71  1  0.90828351  0.59251871  0.08191811  1
  Ca2+  Ca72  1  0.25113123  0.39803322  0.41097529  1
  Ca2+  Ca73  1  0.42057599  0.40226168  0.58265353  1
  Ca2+  Ca74  1  0.40939301  0.90780064  0.91680796  1
  Ca2+  Ca75  1  0.76606327  0.40645584  0.25669513  1
  Ca2+  Ca76  1  0.75512960  0.90087508  0.91502781  1
  Ca2+  Ca77  1  0.89846580  0.90185642  0.41457377  1
  Ca2+  Ca78  1  0.58746605  0.90940960  0.08761765  1
  Ca2+  Ca79  1  0.60442735  0.40482127  0.41625780  1
  Ca2+  Ca80  1  0.42128387  0.91457965  0.25349708  1
  Ca2+  Ca81  1  0.23604260  0.91205929  0.74123473  1
  Ca2+  Ca82  1  0.59645488  0.40691142  0.75544531  1
  Ca2+  Ca83  1  0.24113131  0.90399064  0.09239982  1
  Ca2+  Ca84  1  0.92684865  0.90570557  0.08536087  1
  Ca2+  Ca85  1  0.58910153  0.90026015  0.75197303  1
  Ca2+  Ca86  1  0.74921220  0.89874002  0.58237196  1
  Ca2+  Ca87  1  0.92786651  0.41661075  0.07540824  1
  Ca2+  Ca88  1  0.07536680  0.40838380  0.59143912  1
  Ca2+  Ca89  1  0.92937793  0.90109742  0.75899594  1
  Ca2+  Ca90  1  0.26002133  0.90174879  0.41273587  1
  Ca2+  Ca91  1  0.73854229  0.91412208  0.26234450  1
  Ca2+  Ca92  1  0.08375028  0.90356534  0.59182537  1
  Ca2+  Ca93  1  0.41178591  0.39736619  0.23794220  1
  Ca2+  Ca94  1  0.91522977  0.40532576  0.75532159  1
  Ca2+  Ca95  1  0.41421851  0.40565996  0.92922563  1
  Ca2+  Ca96  1  0.91103837  0.90265183  0.41380773  1
  Ca2+  Ca97  1  0.41233556  0.91708052  0.24931959  1
  Ca2+  Ca98  1  0.59725472  0.92492306  0.38859099  1
  Ca2+  Ca99  1  0.59428692  0.40397734  0.40905509  1
  Ca2+  Ca100  1  0.07686575  0.41174619  0.24033234  1
  Ca2+  Ca101  1  0.91567459  0.90555464  0.08395603  1
  Ca2+  Ca102  1  0.22458347  0.91512153  0.74489593  1
  Ca2+  Ca103  1  0.08809213  0.41196998  0.23985369  1
  Ca2+  Ca104  1  0.06426608  0.40796533  0.58961803  1
  Ca2+  Ca105  1  0.41079949  0.90519626  0.58564663  1
  Ca2+  Ca106  1  0.76097707  0.41286155  0.58328610  1
  Ca2+  Ca107  1  0.42109514  0.90783896  0.91733317  1
  Mn3.34+  Mn108  1  0.08924267  0.34257172  0.07431444  1
  Mn3.34+  Mn109  1  0.08185689  0.33575863  0.41649743  1
  Mn3.34+  Mn110  1  0.08426655  0.33299490  0.75939538  1
  Mn3.34+  Mn111  1  0.08428580  0.83129600  0.08487534  1
  Mn3.34+  Mn112  1  0.08532678  0.83044509  0.41629793  1
  Mn3.34+  Mn113  1  0.08158089  0.83139022  0.75325785  1
  Mn3.34+  Mn114  1  0.41534756  0.33170931  0.08082215  1
  Mn3.34+  Mn115  1  0.41540896  0.32589178  0.41630130  1
  Mn3.34+  Mn116  1  0.41541787  0.33113183  0.75470637  1
  Mn3.34+  Mn117  1  0.41572689  0.83439568  0.08615256  1
  Mn3.34+  Mn118  1  0.42083356  0.83432522  0.41978963  1
  Mn3.34+  Mn119  1  0.41671260  0.83372413  0.75032333  1
  Mn3.34+  Mn120  1  0.74898285  0.34174423  0.07959058  1
  Mn3.34+  Mn121  1  0.75883532  0.33539780  0.42151495  1
  Mn3.34+  Mn122  1  0.75269978  0.33712604  0.75397972  1
  Mn3.34+  Mn123  1  0.74935861  0.83070148  0.08813892  1
  Mn3.34+  Mn124  1  0.74518744  0.82824329  0.42113764  1
  Mn3.34+  Mn125  1  0.75192239  0.83239166  0.75166671  1
  Mn3.34+  Mn126  1  0.25102067  0.33250861  0.24448663  1
  Mn3.34+  Mn127  1  0.25047970  0.33446448  0.58418990  1
  Mn3.34+  Mn128  1  0.24660316  0.34460628  0.91251823  1
  Mn3.34+  Mn129  1  0.24767024  0.83708467  0.24999309  1
  Mn3.34+  Mn130  1  0.24664295  0.83088814  0.57854109  1
  Mn3.34+  Mn131  1  0.24473084  0.83271549  0.91515242  1
  Mn3.34+  Mn132  1  0.58552498  0.32671320  0.24357566  1
  Mn3.34+  Mn133  1  0.58479833  0.33542386  0.58578082  1
  Mn3.34+  Mn134  1  0.58690206  0.33839969  0.91780283  1
  Mn3.34+  Mn135  1  0.58480181  0.83315038  0.24758211  1
  Mn3.34+  Mn136  1  0.58266553  0.82918781  0.58048490  1
  Mn3.34+  Mn137  1  0.58489457  0.83272079  0.91890036  1
  Mn3.34+  Mn138  1  0.91782516  0.33473000  0.25021794  1
  Mn3.34+  Mn139  1  0.91335834  0.33432217  0.58322036  1
  Mn3.34+  Mn140  1  0.91893784  0.33957450  0.91681688  1
  Mn3.34+  Mn141  1  0.91598264  0.82966037  0.24746739  1
  Mn3.34+  Mn142  1  0.91843918  0.82289674  0.58325104  1
  Mn3.34+  Mn143  1  0.92138443  0.83110413  0.91604241  1
  Mn3.34+  Mn144  1  0.41579270  0.66707930  0.08773194  1
  Mn3.34+  Mn145  1  0.92069364  0.16558153  0.24645137  1
  Mn3.34+  Mn146  1  0.57770822  0.16970751  0.58417434  1
  Mn3.34+  Mn147  1  0.74440817  0.17395061  0.08699101  1
  Mn3.34+  Mn148  1  0.41254157  0.16901541  0.75625419  1
  Mn3.34+  Mn149  1  0.91470669  0.17248973  0.58794535  1
  Mn3.34+  Mn150  1  0.91493234  0.66014759  0.58344670  1
  Mn3.34+  Mn151  1  0.07734887  0.16802022  0.75983949  1
  Mn3.34+  Mn152  1  0.41735945  0.67075549  0.75284722  1
  Mn3.34+  Mn153  1  0.42931917  0.66101863  0.08975832  1
  Mn3.34+  Mn154  1  0.42503794  0.16209898  0.75877655  1
  Mn3.34+  Mn155  1  0.75194426  0.16950378  0.41914929  1
  Mn3.34+  Mn156  1  0.91679419  0.66225403  0.91603618  1
  Mn3.34+  Mn157  1  0.25058647  0.66796446  0.25075775  1
  Mn3.34+  Mn158  1  0.58824428  0.16468587  0.58224537  1
  Mn3.34+  Mn159  1  0.75541868  0.16700320  0.08942281  1
  Mn3.34+  Mn160  1  0.08872818  0.17328602  0.07822543  1
  Mn3.34+  Mn161  1  0.08314605  0.66604619  0.08729467  1
  Mn3.34+  Mn162  1  0.26157135  0.16036704  0.24644387  1
  Mn3.34+  Mn163  1  0.75897083  0.66806442  0.42319385  1
  Mn3.34+  Mn164  1  0.24967375  0.16496755  0.92237707  1
  Mn3.34+  Mn165  1  0.58986944  0.66518977  0.91752757  1
  Mn3.34+  Mn166  1  0.91178589  0.66719021  0.24830057  1
  Mn3.34+  Mn167  1  0.41781235  0.67270361  0.41399657  1
  Mn3.34+  Mn168  1  0.41269961  0.16798987  0.07891566  1
  Mn3.34+  Mn169  1  0.58571216  0.16819349  0.91315119  1
  Mn3.34+  Mn170  1  0.25074127  0.17051259  0.57954357  1
  Mn3.34+  Mn171  1  0.75181825  0.16897444  0.75392375  1
  Mn3.34+  Mn172  1  0.08416224  0.66521459  0.75093746  1
  Mn3.34+  Mn173  1  0.58006104  0.17000768  0.24555821  1
  Mn3.34+  Mn174  1  0.41604522  0.16639658  0.42021360  1
  Mn3.34+  Mn175  1  0.59243939  0.67310718  0.24759096  1
  Mn3.34+  Mn176  1  0.75881975  0.66364430  0.74841490  1
  Mn3.34+  Mn177  1  0.07401083  0.66077228  0.75263826  1
  Mn3.34+  Mn178  1  0.24856285  0.16737285  0.24764058  1
  Mn3.34+  Mn179  1  0.58842892  0.66819002  0.58147150  1
  Mn3.34+  Mn180  1  0.75505905  0.50034512  0.74792038  1
  Mn3.34+  Mn181  1  0.58837781  0.50024148  0.23728910  1
  Mn3.34+  Mn182  1  0.07968258  0.49758245  0.75425817  1
  Mn3.34+  Mn183  1  0.08523422  0.50156893  0.41016507  1
  Mn3.34+  Mn184  1  0.25333170  0.49999171  0.23789383  1
  Mn3.34+  Mn185  1  0.41360754  0.00030215  0.41003998  1
  Mn3.34+  Mn186  1  0.09074271  -0.00404799  0.07567765  1
  Mn3.34+  Mn187  1  0.10662494  -0.00241803  0.41041309  1
  Mn3.34+  Mn188  1  0.23999325  0.00039908  0.92817189  1
  Mn3.34+  Mn189  1  0.93187354  0.50164039  0.93312574  1
  Mn3.34+  Mn190  1  0.75226884  0.00004794  0.08856056  1
  Mn3.34+  Mn191  1  0.74605394  0.00246020  0.75362891  1
  Mn3.34+  Mn192  1  0.39423832  0.00689215  0.07388491  1
  Mn3.34+  Mn193  1  0.57800451  0.00130814  0.57580507  1
  Mn3.34+  Mn194  1  0.90313082  0.50016651  0.26731864  1
  Mn3.34+  Mn195  1  0.57900389  0.50127950  0.93026620  1
  Mn3.34+  Mn196  1  0.40563180  0.49193945  0.75156572  1
  Mn3.34+  Mn197  1  0.92283428  -0.00332903  0.59165023  1
  Mn3.34+  Mn198  1  0.23459528  0.50928246  0.58166640  1
  Mn3.34+  Mn199  1  0.91944272  -0.00138304  0.24591448  1
  Mn3.34+  Mn200  1  0.91401729  0.50330750  0.58953090  1
  Mn3.34+  Mn201  1  0.42319662  0.00280445  0.75143120  1
  Mn3.34+  Mn202  1  0.59535265  0.50253856  0.59127863  1
  Mn3.34+  Mn203  1  0.92180632  -0.00164297  0.91654750  1
  Mn3.34+  Mn204  1  0.40459564  0.50451502  0.41621246  1
  Mn3.34+  Mn205  1  0.91193688  0.00094071  0.58969698  1
  Mn3.34+  Mn206  1  0.58896157  -0.00336344  0.57774853  1
  Mn3.34+  Mn207  1  0.41879763  0.49850693  0.07705992  1
  Mn3.34+  Mn208  1  0.59978250  0.50480090  0.24078846  1
  Mn3.34+  Mn209  1  0.09345148  -0.00573837  0.41023909  1
  Mn3.34+  Mn210  1  0.58436147  0.00201237  0.92020257  1
  Mn3.34+  Mn211  1  0.41967851  0.49940356  0.41379660  1
  Mn3.34+  Mn212  1  0.74344183  0.49843151  0.07141549  1
  Mn3.34+  Mn213  1  0.24887621  0.00055064  0.58188249  1
  Mn3.34+  Mn214  1  0.41971877  0.49768402  0.75071004  1
  Mn3.34+  Mn215  1  0.24624583  0.50145219  0.58041148  1
  O2-  O216  1  0.00097847  0.16975253  0.00966609  1
  O2-  O217  1  -0.00295007  0.13999782  0.32672072  1
  O2-  O218  1  0.00184328  0.15758325  0.66432369  1
  O2-  O219  1  -0.00388880  0.65364510  0.00824554  1
  O2-  O220  1  -0.00524183  0.65564558  0.32652365  1
  O2-  O221  1  -0.00374629  0.66505598  0.66971636  1
  O2-  O222  1  0.33139801  0.19286693  0.00116632  1
  O2-  O223  1  0.33964340  0.16403558  0.33115079  1
  O2-  O224  1  0.33038111  0.14863039  0.67005938  1
  O2-  O225  1  0.33632761  0.65428230  0.00524505  1
  O2-  O226  1  0.34127976  0.66008981  0.32721958  1
  O2-  O227  1  0.33518835  0.65876963  0.67615646  1
  O2-  O228  1  0.66536527  0.15625631  0.00371301  1
  O2-  O229  1  0.66712176  0.16322723  0.33218191  1
  O2-  O230  1  0.66597466  0.15371363  0.66712745  1
  O2-  O231  1  0.67097591  0.67363400  -0.00821921  1
  O2-  O232  1  0.66996373  0.67310736  0.34022057  1
  O2-  O233  1  0.66344414  0.67117441  0.66839490  1
  O2-  O234  1  0.16638213  0.18363227  -0.00340725  1
  O2-  O235  1  0.16591002  0.15372492  0.32706284  1
  O2-  O236  1  0.17325279  0.15789409  0.66713932  1
  O2-  O237  1  0.16935260  0.66976861  0.01157384  1
  O2-  O238  1  0.17038550  0.65955120  0.32614897  1
  O2-  O239  1  0.16499797  0.65888745  0.67450170  1
  O2-  O240  1  0.50748378  0.17280690  0.00500844  1
  O2-  O241  1  0.50014173  0.17204001  0.33441492  1
  O2-  O242  1  0.49003140  0.14185148  0.66064353  1
  O2-  O243  1  0.49671667  0.64869220  -0.00485259  1
  O2-  O244  1  0.50938671  0.64758428  0.34180034  1
  O2-  O245  1  0.50000365  0.65442707  0.66394373  1
  O2-  O246  1  0.83189417  0.15249679  0.00798335  1
  O2-  O247  1  0.83188214  0.15241147  0.32659482  1
  O2-  O248  1  0.82437996  0.16230095  0.65937727  1
  O2-  O249  1  0.83684789  0.66121580  -0.00293740  1
  O2-  O250  1  0.83613948  0.67290952  0.33822493  1
  O2-  O251  1  0.83845237  0.68222300  0.66559384  1
  O2-  O252  1  -0.00043207  0.34263167  0.00275949  1
  O2-  O253  1  0.00483313  0.35217044  0.32925466  1
  O2-  O254  1  -0.00415325  0.34466277  0.66614631  1
  O2-  O255  1  -0.00195208  0.84459309  0.00286687  1
  O2-  O256  1  -0.00659880  0.84555726  0.33780899  1
  O2-  O257  1  -0.00089995  0.84101575  0.66540666  1
  O2-  O258  1  0.33373728  0.32540576  -0.00457530  1
  O2-  O259  1  0.33790628  0.33464773  0.32856257  1
  O2-  O260  1  0.33881974  0.34321306  0.66153351  1
  O2-  O261  1  0.33441274  0.84420173  -0.00222485  1
  O2-  O262  1  0.34306826  0.84785008  0.32924607  1
  O2-  O263  1  0.32710576  0.85079773  0.67206559  1
  O2-  O264  1  0.66611844  0.31745602  -0.00461081  1
  O2-  O265  1  0.66833186  0.32795088  0.33570257  1
  O2-  O266  1  0.67168661  0.34900161  0.66326238  1
  O2-  O267  1  0.66915984  0.83622428  0.00213907  1
  O2-  O268  1  0.66453262  0.83965017  0.33682951  1
  O2-  O269  1  0.66533032  0.83608073  0.66559957  1
  O2-  O270  1  0.17020296  0.32548318  -0.00542534  1
  O2-  O271  1  0.16377874  0.34945939  0.32946728  1
  O2-  O272  1  0.15992397  0.34609353  0.65966304  1
  O2-  O273  1  0.17093042  0.82434227  0.00366953  1
  O2-  O274  1  0.17104545  0.84563954  0.33912476  1
  O2-  O275  1  0.16761374  0.84315819  0.66685427  1
  O2-  O276  1  0.49769533  0.31927314  -0.00340844  1
  O2-  O277  1  0.50479043  0.32354215  0.33514539  1
  O2-  O278  1  0.50235165  0.35160421  0.67030667  1
  O2-  O279  1  0.50019237  0.85304780  0.00278805  1
  O2-  O280  1  0.50147520  0.85575188  0.33382003  1
  O2-  O281  1  0.50000431  0.84636693  0.66477980  1
  O2-  O282  1  0.83879891  0.35118795  0.00438331  1
  O2-  O283  1  0.83282395  0.32919832  0.33359542  1
  O2-  O284  1  0.83120265  0.34641729  0.66303517  1
  O2-  O285  1  0.83603533  0.84235776  0.00504399  1
  O2-  O286  1  0.82904444  0.83880949  0.33211600  1
  O2-  O287  1  0.83490485  0.83751456  0.66578531  1
  O2-  O288  1  0.00984063  0.16906903  0.17346465  1
  O2-  O289  1  -0.00292818  0.16798201  0.50805570  1
  O2-  O290  1  0.00400100  0.17929244  0.83313107  1
  O2-  O291  1  -0.00158781  0.66325194  0.16755878  1
  O2-  O292  1  -0.00817769  0.68281761  0.51096396  1
  O2-  O293  1  0.00102735  0.67871500  0.83559747  1
  O2-  O294  1  0.33740891  0.18498636  0.16738212  1
  O2-  O295  1  0.33717117  0.18337275  0.50336328  1
  O2-  O296  1  0.33155880  0.18537464  0.83585032  1
  O2-  O297  1  0.33220858  0.68050112  0.16454123  1
  O2-  O298  1  0.34446667  0.68272705  0.49814599  1
  O2-  O299  1  0.34175442  0.67819365  0.83697378  1
  O2-  O300  1  0.66851425  0.19211452  0.16796120  1
  O2-  O301  1  0.67195823  0.19004017  0.50031896  1
  O2-  O302  1  0.67106527  0.18858523  0.84113163  1
  O2-  O303  1  0.66342439  0.69062277  0.16887018  1
  O2-  O304  1  0.66474401  0.68547133  0.49494219  1
  O2-  O305  1  0.66629685  0.67465308  0.83266557  1
  O2-  O306  1  0.16574084  0.17148049  0.16752660  1
  O2-  O307  1  0.15991000  0.17692990  0.51465315  1
  O2-  O308  1  0.17495947  0.17712670  0.82482951  1
  O2-  O309  1  0.16003809  0.68224732  0.17481078  1
  O2-  O310  1  0.16530368  0.66794161  0.49493619  1
  O2-  O311  1  0.16494242  0.68128171  0.82960106  1
  O2-  O312  1  0.50179327  0.18927680  0.16445006  1
  O2-  O313  1  0.50018151  0.18815092  0.49853611  1
  O2-  O314  1  0.50417505  0.19045812  0.83578216  1
  O2-  O315  1  0.49366731  0.67792366  0.17933564  1
  O2-  O316  1  0.49846903  0.68385673  0.50512690  1
  O2-  O317  1  0.50085980  0.67231316  0.83271986  1
  O2-  O318  1  0.83544123  0.18149464  0.17206776  1
  O2-  O319  1  0.84250658  0.18636333  0.49073029  1
  O2-  O320  1  0.82733401  0.17955174  0.83170228  1
  O2-  O321  1  0.84270047  0.67734217  0.15924184  1
  O2-  O322  1  0.83638155  0.68887821  0.50150823  1
  O2-  O323  1  0.83382274  0.67732571  0.83780137  1
  O2-  O324  1  0.00138113  0.33208350  0.17181622  1
  O2-  O325  1  0.00688594  0.32747721  0.50874742  1
  O2-  O326  1  -0.00309445  0.32020234  0.82989128  1
  O2-  O327  1  -0.00925762  0.82919509  0.15854219  1
  O2-  O328  1  -0.00505593  0.82141719  0.49517117  1
  O2-  O329  1  -0.00358138  0.82101819  0.82901569  1
  O2-  O330  1  0.33480211  0.31433781  0.16563875  1
  O2-  O331  1  0.33141123  0.32007757  0.49594204  1
  O2-  O332  1  0.32996160  0.31280075  0.83540922  1
  O2-  O333  1  0.33307830  0.81832091  0.16407687  1
  O2-  O334  1  0.33205495  0.82640941  0.49827092  1
  O2-  O335  1  0.33806097  0.81886478  0.84048494  1
  O2-  O336  1  0.67034802  0.31596696  0.16863339  1
  O2-  O337  1  0.66450534  0.31727449  0.49433539  1
  O2-  O338  1  0.66638437  0.32382142  0.83143193  1
  O2-  O339  1  0.66474410  0.81505860  0.16621768  1
  O2-  O340  1  0.66794593  0.80686589  0.50422036  1
  O2-  O341  1  0.66487435  0.82628072  0.83499453  1
  O2-  O342  1  0.16111925  0.33017949  0.17297746  1
  O2-  O343  1  0.16735332  0.32380723  0.49817755  1
  O2-  O344  1  0.16616378  0.31731449  0.83777563  1
  O2-  O345  1  0.16648569  0.82341669  0.16583445  1
  O2-  O346  1  0.16115329  0.82688417  0.50323898  1
  O2-  O347  1  0.17498056  0.81711096  0.82444189  1
  O2-  O348  1  0.49531681  0.31392467  0.16967711  1
  O2-  O349  1  0.49999461  0.31898190  0.49781385  1
  O2-  O350  1  0.50296379  0.31593623  0.83410742  1
  O2-  O351  1  0.49406089  0.83010819  0.17202543  1
  O2-  O352  1  0.49581450  0.81446421  0.50620688  1
  O2-  O353  1  0.49814201  0.82751656  0.83581498  1
  O2-  O354  1  0.83419147  0.32887338  0.17219724  1
  O2-  O355  1  0.83439221  0.31537349  0.50295379  1
  O2-  O356  1  0.84017836  0.32612735  0.82640772  1
  O2-  O357  1  0.83511808  0.81179794  0.16257636  1
  O2-  O358  1  0.83563400  0.81292375  0.49716844  1
  O2-  O359  1  0.83307732  0.82461923  0.83764128  1
  O2-  O360  1  0.07441841  0.07802942  0.10798926  1
  O2-  O361  1  0.06254595  0.07202305  0.46048155  1
  O2-  O362  1  0.09412893  0.08613334  0.75091854  1
  O2-  O363  1  0.10069642  0.58319627  0.12135958  1
  O2-  O364  1  0.06779708  0.57931878  0.41023477  1
  O2-  O365  1  0.09404472  0.58021561  0.77856316  1
  O2-  O366  1  0.43763512  0.08094965  0.12401550  1
  O2-  O367  1  0.43288779  0.07854123  0.44359510  1
  O2-  O368  1  0.39916549  0.08335576  0.78540697  1
  O2-  O369  1  0.42310214  0.57747145  0.12274120  1
  O2-  O370  1  0.42049040  0.58557009  0.44439873  1
  O2-  O371  1  0.41385004  0.58084670  0.77491045  1
  O2-  O372  1  0.73526331  0.08281951  0.12365205  1
  O2-  O373  1  0.76935140  0.08371312  0.44518516  1
  O2-  O374  1  0.74866448  0.08377019  0.77200314  1
  O2-  O375  1  0.76420302  0.56831172  0.11279483  1
  O2-  O376  1  0.74660980  0.58847985  0.44056161  1
  O2-  O377  1  0.74435215  0.58004580  0.77907044  1
  O2-  O378  1  0.25318769  0.08154947  0.22075252  1
  O2-  O379  1  0.24449198  0.08364638  0.56058845  1
  O2-  O380  1  0.24795768  0.07853696  0.88500561  1
  O2-  O381  1  0.24906058  0.58251474  0.21173137  1
  O2-  O382  1  0.27336445  0.58266348  0.54896858  1
  O2-  O383  1  0.27891711  0.56898515  0.89442912  1
  O2-  O384  1  0.59646952  0.08180339  0.21157114  1
  O2-  O385  1  0.59233532  0.08057055  0.53238135  1
  O2-  O386  1  0.58939510  0.08219083  0.90998136  1
  O2-  O387  1  0.59507903  0.58739985  0.23127703  1
  O2-  O388  1  0.56324429  0.57965594  0.54057442  1
  O2-  O389  1  0.57997888  0.57943409  0.88668949  1
  O2-  O390  1  0.91420643  0.07933812  0.20054618  1
  O2-  O391  1  0.90326111  0.08285083  0.55820069  1
  O2-  O392  1  0.91509299  0.07821202  0.91877303  1
  O2-  O393  1  0.91962428  0.57681016  0.22389443  1
  O2-  O394  1  0.91025440  0.57918788  0.55034297  1
  O2-  O395  1  0.90223930  0.57822188  0.90238391  1
  O2-  O396  1  0.07672754  0.42259753  0.10734006  1
  O2-  O397  1  0.09871585  0.42412746  0.45404799  1
  O2-  O398  1  0.06961096  0.41673197  0.76283041  1
  O2-  O399  1  0.07513656  0.91689728  0.10579410  1
  O2-  O400  1  0.07024799  0.91802454  0.45095330  1
  O2-  O401  1  0.08737641  0.91406793  0.76340316  1
  O2-  O402  1  0.42511588  0.41916358  0.10330526  1
  O2-  O403  1  0.42063874  0.41732368  0.43775510  1
  O2-  O404  1  0.41812973  0.41395632  0.78763486  1
  O2-  O405  1  0.41041169  0.92287807  0.11399463  1
  O2-  O406  1  0.41595841  0.92119673  0.44799404  1
  O2-  O407  1  0.41592479  0.91881213  0.78173005  1
  O2-  O408  1  0.74308282  0.42715759  0.12270285  1
  O2-  O409  1  0.73064044  0.41853632  0.44738642  1
  O2-  O410  1  0.74940251  0.42013970  0.77705200  1
  O2-  O411  1  0.75663938  0.91839687  0.11901364  1
  O2-  O412  1  0.76637783  0.91652547  0.44628394  1
  O2-  O413  1  0.74534174  0.91979429  0.77655521  1
  O2-  O414  1  0.26014497  0.41639034  0.23231015  1
  O2-  O415  1  0.25624441  0.42202073  0.54843029  1
  O2-  O416  1  0.27336956  0.41799368  0.89925751  1
  O2-  O417  1  0.27307343  0.91655712  0.22482419  1
  O2-  O418  1  0.24809451  0.91927104  0.55564167  1
  O2-  O419  1  0.26119839  0.92183915  0.87520559  1
  O2-  O420  1  0.58298157  0.41624570  0.24828977  1
  O2-  O421  1  0.57707163  0.42090503  0.54472974  1
  O2-  O422  1  0.56500841  0.42391885  0.89089796  1
  O2-  O423  1  0.58678554  0.91627442  0.22661147  1
  O2-  O424  1  0.59562989  0.91735738  0.53698863  1
  O2-  O425  1  0.57480411  0.92151627  0.88918378  1
  O2-  O426  1  0.91582033  0.42320014  0.22346234  1
  O2-  O427  1  0.92206089  0.42026838  0.55663316  1
  O2-  O428  1  0.92570327  0.42664177  0.89085408  1
  O2-  O429  1  0.89938347  0.91473313  0.22379363  1
  O2-  O430  1  0.91219452  0.91708077  0.54986702  1
  O2-  O431  1  0.90841430  0.91725645  0.89349197  1
  O2-  O432  1  -0.01682393  -0.00530893  0.02753932  1
  O2-  O433  1  -0.00794485  0.00648583  0.34510574  1
  O2-  O434  1  0.03024176  0.00339504  0.62863294  1
  O2-  O435  1  -0.01275265  0.51635114  0.02550127  1
  O2-  O436  1  0.00836460  0.49492843  0.31247447  1
  O2-  O437  1  0.00810418  0.49091961  0.65464818  1
  O2-  O438  1  0.34858703  -0.01604710  -0.02872014  1
  O2-  O439  1  0.34659700  -0.00771792  0.32282240  1
  O2-  O440  1  0.33398483  0.00132686  0.66686155  1
  O2-  O441  1  0.32016382  0.51337013  0.03135681  1
  O2-  O442  1  0.32867926  0.50249712  0.32937092  1
  O2-  O443  1  0.33227479  0.50276985  0.66103263  1
  O2-  O444  1  0.65666688  0.00069426  0.01866410  1
  O2-  O445  1  0.66584652  0.00553779  0.33660853  1
  O2-  O446  1  0.66541555  -0.00414608  0.66495461  1
  O2-  O447  1  0.67932711  0.51337102  -0.01628170  1
  O2-  O448  1  0.63501185  0.49998168  0.35932258  1
  O2-  O449  1  0.65029281  0.49892481  0.69846156  1
  O2-  O450  1  0.19465116  -0.01071121  0.03390691  1
  O2-  O451  1  0.15938062  0.01362956  0.31338395  1
  O2-  O452  1  0.18460819  -0.00110653  0.68444291  1
  O2-  O453  1  0.15962672  0.50210692  -0.00127407  1
  O2-  O454  1  0.15575515  0.49707370  0.30823395  1
  O2-  O455  1  0.16607410  0.49571943  0.67127056  1
  O2-  O456  1  0.50600904  -0.00100271  0.01423229  1
  O2-  O457  1  0.49865667  -0.00040409  0.33450094  1
  O2-  O458  1  0.49179332  -0.00835277  0.65199958  1
  O2-  O459  1  0.46427634  0.50671384  -0.04085879  1
  O2-  O460  1  0.48541496  0.50838566  0.30999706  1
  O2-  O461  1  0.49081865  0.49884303  0.65879061  1
  O2-  O462  1  0.83315080  -0.00375878  0.00324807  1
  O2-  O463  1  0.83211386  0.00986689  0.32450505  1
  O2-  O464  1  0.82635952  -0.00447305  0.66507500  1
  O2-  O465  1  0.84046041  0.49742251  0.01263951  1
  O2-  O466  1  0.81123810  0.49436486  0.31924047  1
  O2-  O467  1  0.82888259  0.48514715  0.66279452  1
  O2-  O468  1  0.25201218  0.25089413  0.60780570  1
  O2-  O469  1  0.08962374  0.75171471  0.40132143  1
  O2-  O470  1  0.77235771  0.25453869  0.06593909  1
  O2-  O471  1  0.42173696  0.75226655  0.72688492  1
  O2-  O472  1  0.57884171  0.25204139  0.61636931  1
  O2-  O473  1  0.42474676  0.75279029  0.38825937  1
  O2-  O474  1  0.25256554  0.75131574  0.26989335  1
  O2-  O475  1  0.07841947  0.25456516  0.08692728  1
  O2-  O476  1  0.92740314  0.24749137  0.27215580  1
  O2-  O477  1  0.42323196  0.24681021  0.71951295  1
  O2-  O478  1  0.92354009  0.25251875  0.60787371  1
  O2-  O479  1  0.93414928  0.74956086  0.26528524  1
  O2-  O480  1  0.92289391  0.74875893  0.93525838  1
  O2-  O481  1  0.06819016  0.74880335  0.07266372  1
  O2-  O482  1  0.24913376  0.75251702  0.59644092  1
  O2-  O483  1  0.07777834  0.25633318  0.39572648  1
  O2-  O484  1  0.07882388  0.74774082  0.72774257  1
  O2-  O485  1  0.91358786  0.25901336  0.93252932  1
  O2-  O486  1  0.23949964  0.24864146  0.27104287  1
  O2-  O487  1  0.74806679  0.75093825  0.74718379  1
  O2-  O488  1  0.56909389  0.74944763  0.92913049  1
  O2-  O489  1  0.74798368  0.25311291  0.72928662  1
  O2-  O490  1  0.43165969  0.74960823  0.05785204  1
  O2-  O491  1  0.08586599  0.25129638  0.72724251  1
  O2-  O492  1  0.56456607  0.75231693  0.27387759  1
