# generated using pymatgen
data_Ca108Mn108O277
_symmetry_space_group_name_H-M   'P 1'
_cell_length_a   16.03193538
_cell_length_b   22.31001686
_cell_length_c   16.39085929
_cell_angle_alpha   90.00083935
_cell_angle_beta   90.00298217
_cell_angle_gamma   90.00349259
_symmetry_Int_Tables_number   1
_chemical_formula_structural   Ca108Mn108O277
_chemical_formula_sum   'Ca108 Mn108 O277'
_cell_volume   5862.56367546
_cell_formula_units_Z   1
loop_
 _symmetry_equiv_pos_site_id
 _symmetry_equiv_pos_as_xyz
  1  'x, y, z'
loop_
 _atom_type_symbol
 _atom_type_oxidation_number
  Ca2+  2.0
  Mn3.34+  3.34
  O2-  -2.0
loop_
 _atom_site_type_symbol
 _atom_site_label
 _atom_site_symmetry_multiplicity
 _atom_site_fract_x
 _atom_site_fract_y
 _atom_site_fract_z
 _atom_site_occupancy
  Ca2+  Ca0  1  0.05804894  0.23353154  0.25318938  1
  Ca2+  Ca1  1  0.07467670  0.25809574  0.58723596  1
  Ca2+  Ca2  1  0.08329780  0.24919151  0.90802889  1
  Ca2+  Ca3  1  0.08117832  0.74909436  0.25588029  1
  Ca2+  Ca4  1  0.07181846  0.74380101  0.58877493  1
  Ca2+  Ca5  1  0.08054735  0.74588437  0.90464060  1
  Ca2+  Ca6  1  0.41671021  0.26094652  0.26538696  1
  Ca2+  Ca7  1  0.43624566  0.24635105  0.57561631  1
  Ca2+  Ca8  1  0.41870773  0.26437146  0.90896981  1
  Ca2+  Ca9  1  0.41829298  0.75610071  0.26304552  1
  Ca2+  Ca10  1  0.42946184  0.74700688  0.56689121  1
  Ca2+  Ca11  1  0.40035344  0.75420251  0.92116572  1
  Ca2+  Ca12  1  0.77382774  0.24222872  0.24945635  1
  Ca2+  Ca13  1  0.73400442  0.24724883  0.57410177  1
  Ca2+  Ca14  1  0.75133265  0.24389091  0.93305195  1
  Ca2+  Ca15  1  0.75583379  0.75756417  0.24076499  1
  Ca2+  Ca16  1  0.76086203  0.75342784  0.59501682  1
  Ca2+  Ca17  1  0.77009519  0.75677003  0.91337338  1
  Ca2+  Ca18  1  0.23976798  0.25558030  0.08698868  1
  Ca2+  Ca19  1  0.26050673  0.25220698  0.40986379  1
  Ca2+  Ca20  1  0.23872471  0.25095853  0.75812464  1
  Ca2+  Ca21  1  0.24447593  0.75700688  0.08121098  1
  Ca2+  Ca22  1  0.24113838  0.73300335  0.41629925  1
  Ca2+  Ca23  1  0.22405187  0.74370252  0.75872079  1
  Ca2+  Ca24  1  0.60328142  0.24985231  0.08954840  1
  Ca2+  Ca25  1  0.57319149  0.24202375  0.42827811  1
  Ca2+  Ca26  1  0.57443390  0.24462769  0.73323508  1
  Ca2+  Ca27  1  0.58408746  0.76104967  0.08878483  1
  Ca2+  Ca28  1  0.56253353  0.74808933  0.42376410  1
  Ca2+  Ca29  1  0.59198041  0.74873354  0.72891804  1
  Ca2+  Ca30  1  0.90675941  0.25100942  0.10431536  1
  Ca2+  Ca31  1  0.91525002  0.24273003  0.40714264  1
  Ca2+  Ca32  1  0.94060047  0.24498625  0.74412776  1
  Ca2+  Ca33  1  0.91938836  0.76621273  0.07890689  1
  Ca2+  Ca34  1  0.94094370  0.74866894  0.41894129  1
  Ca2+  Ca35  1  0.92667869  0.75165909  0.75365333  1
  Ca2+  Ca36  1  0.94423950  0.59429067  0.74292200  1
  Ca2+  Ca37  1  0.39288323  0.59003218  0.90867393  1
  Ca2+  Ca38  1  0.08837788  0.60710029  0.56240296  1
  Ca2+  Ca39  1  0.93382652  0.59194873  0.74045784  1
  Ca2+  Ca40  1  0.10368226  0.59573252  0.26880112  1
  Ca2+  Ca41  1  0.06015955  0.09255948  0.59157585  1
  Ca2+  Ca42  1  0.58681439  0.58466583  0.06487542  1
  Ca2+  Ca43  1  0.92903357  0.59607699  0.07596637  1
  Ca2+  Ca44  1  0.24880671  0.06167334  0.06771284  1
  Ca2+  Ca45  1  0.24553666  0.59509360  0.07370058  1
  Ca2+  Ca46  1  0.76191870  0.59344513  0.25584634  1
  Ca2+  Ca47  1  0.08380280  0.09890307  0.90344527  1
  Ca2+  Ca48  1  0.94146341  0.59354256  0.42984786  1
  Ca2+  Ca49  1  0.09824241  0.60646706  0.90867845  1
  Ca2+  Ca50  1  0.06850193  0.08953692  0.58630409  1
  Ca2+  Ca51  1  0.23443552  0.59423695  0.07215710  1
  Ca2+  Ca52  1  0.74272637  0.59155094  0.59626981  1
  Ca2+  Ca53  1  0.57401919  0.58436044  0.06500060  1
  Ca2+  Ca54  1  0.22279737  0.60169246  0.75852393  1
  Ca2+  Ca55  1  0.91087359  0.11407132  0.09668759  1
  Ca2+  Ca56  1  0.39416531  0.07781027  0.91592659  1
  Ca2+  Ca57  1  0.76347717  0.08857583  0.93750063  1
  Ca2+  Ca58  1  0.24526574  0.06480403  0.07630147  1
  Ca2+  Ca59  1  0.23308577  0.09990217  0.75889872  1
  Ca2+  Ca60  1  0.75830482  0.59069977  0.91238437  1
  Ca2+  Ca61  1  0.42293442  0.61533896  0.57890470  1
  Ca2+  Ca62  1  0.40016006  0.08617263  0.27405759  1
  Ca2+  Ca63  1  0.76989901  0.10914955  0.24479258  1
  Ca2+  Ca64  1  0.90133735  0.11162435  0.09392705  1
  Ca2+  Ca65  1  0.38091748  0.59088885  0.90426866  1
  Ca2+  Ca66  1  0.57633174  0.59633808  0.72300239  1
  Ca2+  Ca67  1  0.55623354  0.60607487  0.44771164  1
  Ca2+  Ca68  1  0.22003987  0.60706063  0.75193924  1
  Ca2+  Ca69  1  0.93092373  0.09342744  0.74598588  1
  Ca2+  Ca70  1  0.91505942  0.09214965  0.41461768  1
  Ca2+  Ca71  1  0.09345264  0.59733108  0.26839644  1
  Ca2+  Ca72  1  0.56711103  0.40853258  0.75684576  1
  Ca2+  Ca73  1  0.09180297  0.40378284  0.91570336  1
  Ca2+  Ca74  1  0.75120093  0.39709056  0.25177361  1
  Ca2+  Ca75  1  0.76021023  0.90750506  0.91762156  1
  Ca2+  Ca76  1  0.74562098  0.40518435  0.90923130  1
  Ca2+  Ca77  1  0.92790383  0.39912710  0.07966324  1
  Ca2+  Ca78  1  0.09504663  0.91204498  0.25814851  1
  Ca2+  Ca79  1  0.74562005  0.89890502  0.25529991  1
  Ca2+  Ca80  1  0.57664828  0.41199240  0.75334913  1
  Ca2+  Ca81  1  0.24462255  0.40606921  0.07509250  1
  Ca2+  Ca82  1  0.07002222  0.91396851  0.57702996  1
  Ca2+  Ca83  1  0.75639585  0.40671338  0.58470929  1
  Ca2+  Ca84  1  0.24766098  0.40820979  0.75215469  1
  Ca2+  Ca85  1  0.92078329  0.41236248  0.72848277  1
  Ca2+  Ca86  1  0.57728223  0.40189628  0.42351669  1
  Ca2+  Ca87  1  0.60409222  0.91529594  0.72343786  1
  Ca2+  Ca88  1  0.26014370  0.90992295  0.75903474  1
  Ca2+  Ca89  1  0.92322592  0.40317162  0.42885238  1
  Ca2+  Ca90  1  0.57273038  0.90157319  0.08336744  1
  Ca2+  Ca91  1  0.43680659  0.90153216  0.58698221  1
  Ca2+  Ca92  1  0.09469349  0.40131395  0.24725739  1
  Ca2+  Ca93  1  0.25318033  0.40416042  0.41847426  1
  Ca2+  Ca94  1  0.09386550  0.91235221  0.92798020  1
  Ca2+  Ca95  1  0.40800965  0.40540388  0.58500984  1
  Ca2+  Ca96  1  0.24756861  0.90771504  0.75929594  1
  Ca2+  Ca97  1  0.42684823  0.89825336  0.58936308  1
  Ca2+  Ca98  1  0.24257495  0.91676284  0.40076252  1
  Ca2+  Ca99  1  0.10379363  0.91441711  0.25368857  1
  Ca2+  Ca100  1  0.75833951  0.40544291  0.91008386  1
  Ca2+  Ca101  1  0.39095259  0.91224220  0.23768339  1
  Ca2+  Ca102  1  0.37459419  0.93162137  0.96631126  1
  Ca2+  Ca103  1  0.57322987  0.40056535  0.07727054  1
  Ca2+  Ca104  1  0.90729751  0.90767731  0.42087014  1
  Ca2+  Ca105  1  0.59300173  0.91474800  0.72448726  1
  Ca2+  Ca106  1  0.90838131  0.90988786  0.74427401  1
  Ca2+  Ca107  1  0.05817271  0.91146288  0.57497207  1
  Mn3.34+  Mn108  1  0.08381562  0.32883653  0.08261274  1
  Mn3.34+  Mn109  1  0.08622355  0.33008914  0.41866339  1
  Mn3.34+  Mn110  1  0.08476867  0.32939838  0.74723392  1
  Mn3.34+  Mn111  1  0.08312901  0.83465104  0.08488390  1
  Mn3.34+  Mn112  1  0.08676093  0.83121834  0.41962933  1
  Mn3.34+  Mn113  1  0.08139725  0.83414082  0.75244280  1
  Mn3.34+  Mn114  1  0.41517346  0.32715392  0.08333324  1
  Mn3.34+  Mn115  1  0.41682136  0.33420289  0.41673845  1
  Mn3.34+  Mn116  1  0.41073851  0.33116331  0.74901628  1
  Mn3.34+  Mn117  1  0.41487406  0.83278618  0.08538967  1
  Mn3.34+  Mn118  1  0.41672023  0.83402794  0.41442181  1
  Mn3.34+  Mn119  1  0.41805631  0.82884089  0.76129400  1
  Mn3.34+  Mn120  1  0.75146884  0.33097554  0.08808115  1
  Mn3.34+  Mn121  1  0.74921080  0.33077304  0.41761436  1
  Mn3.34+  Mn122  1  0.75287500  0.32925070  0.74827315  1
  Mn3.34+  Mn123  1  0.75032940  0.83553616  0.08303957  1
  Mn3.34+  Mn124  1  0.74877232  0.83492713  0.42098242  1
  Mn3.34+  Mn125  1  0.75378965  0.83263094  0.75061862  1
  Mn3.34+  Mn126  1  0.25272438  0.33584159  0.24779620  1
  Mn3.34+  Mn127  1  0.24605509  0.33719865  0.58038077  1
  Mn3.34+  Mn128  1  0.25258443  0.34211491  0.91408241  1
  Mn3.34+  Mn129  1  0.25194363  0.83335573  0.24656689  1
  Mn3.34+  Mn130  1  0.25020533  0.82961088  0.58015714  1
  Mn3.34+  Mn131  1  0.24747079  0.83563169  0.91883180  1
  Mn3.34+  Mn132  1  0.57952274  0.33607338  0.25176877  1
  Mn3.34+  Mn133  1  0.58417525  0.33621879  0.58226192  1
  Mn3.34+  Mn134  1  0.57997431  0.33852421  0.91686029  1
  Mn3.34+  Mn135  1  0.58025965  0.83432220  0.25557492  1
  Mn3.34+  Mn136  1  0.60855539  0.84153581  0.55913481  1
  Mn3.34+  Mn137  1  0.58052941  0.83243844  0.91055477  1
  Mn3.34+  Mn138  1  0.92094692  0.33285586  0.25435891  1
  Mn3.34+  Mn139  1  0.91669989  0.33776364  0.57876238  1
  Mn3.34+  Mn140  1  0.91886533  0.33110569  0.91144996  1
  Mn3.34+  Mn141  1  0.91777347  0.83380256  0.25019464  1
  Mn3.34+  Mn142  1  0.90803978  0.83399219  0.58122738  1
  Mn3.34+  Mn143  1  0.92208679  0.83800521  0.91906357  1
  Mn3.34+  Mn144  1  0.41829107  0.16452584  0.74713567  1
  Mn3.34+  Mn145  1  0.57611765  0.16693514  0.91737982  1
  Mn3.34+  Mn146  1  0.57940315  0.16397999  0.25531807  1
  Mn3.34+  Mn147  1  0.74140233  0.15733448  0.74442856  1
  Mn3.34+  Mn148  1  0.24639055  0.17565756  0.58063101  1
  Mn3.34+  Mn149  1  0.25116426  0.16253057  0.91476753  1
  Mn3.34+  Mn150  1  0.58982205  0.16847292  0.25609350  1
  Mn3.34+  Mn151  1  0.41235703  0.16470615  0.08684643  1
  Mn3.34+  Mn152  1  0.58702540  0.66823715  0.90698268  1
  Mn3.34+  Mn153  1  0.57115857  0.66035873  0.24829628  1
  Mn3.34+  Mn154  1  0.75150639  0.66914340  0.75082866  1
  Mn3.34+  Mn155  1  0.91808856  0.66599762  0.58178422  1
  Mn3.34+  Mn156  1  0.91754564  0.66997792  0.24881249  1
  Mn3.34+  Mn157  1  0.42399766  0.15750873  0.08959750  1
  Mn3.34+  Mn158  1  0.26016499  0.66387833  0.24824424  1
  Mn3.34+  Mn159  1  0.91918959  0.66640003  0.91361342  1
  Mn3.34+  Mn160  1  0.08577808  0.16517968  0.08058593  1
  Mn3.34+  Mn161  1  0.24589007  0.16427289  0.25302218  1
  Mn3.34+  Mn162  1  0.75545070  0.67051304  0.08355130  1
  Mn3.34+  Mn163  1  0.90877868  0.16292195  0.57504765  1
  Mn3.34+  Mn164  1  0.58608472  0.16177857  0.91570254  1
  Mn3.34+  Mn165  1  0.24761657  0.66657156  0.57935908  1
  Mn3.34+  Mn166  1  0.91805084  0.16714769  0.91050447  1
  Mn3.34+  Mn167  1  0.23615734  0.15906468  0.25142336  1
  Mn3.34+  Mn168  1  0.07678297  0.16423072  0.41742339  1
  Mn3.34+  Mn169  1  0.57791172  0.67404352  0.90927032  1
  Mn3.34+  Mn170  1  0.74656680  0.16304401  0.42470603  1
  Mn3.34+  Mn171  1  0.07998234  0.67211551  0.08397852  1
  Mn3.34+  Mn172  1  0.41362226  0.67661206  0.75007594  1
  Mn3.34+  Mn173  1  0.25530249  0.16996727  0.57855965  1
  Mn3.34+  Mn174  1  0.41295120  0.66966857  0.08490616  1
  Mn3.34+  Mn175  1  0.58161502  0.66499188  0.25078976  1
  Mn3.34+  Mn176  1  0.75434601  0.67498085  0.42104625  1
  Mn3.34+  Mn177  1  0.75051129  0.16360145  0.74475753  1
  Mn3.34+  Mn178  1  0.57587149  0.14308546  0.57347371  1
  Mn3.34+  Mn179  1  0.74496287  0.66788891  0.42306709  1
  Mn3.34+  Mn180  1  0.75838285  0.00305350  0.72794850  1
  Mn3.34+  Mn181  1  0.75797196  -0.00607650  0.08106366  1
  Mn3.34+  Mn182  1  0.09347577  0.49469050  0.41368033  1
  Mn3.34+  Mn183  1  0.57815069  0.50017486  0.58983057  1
  Mn3.34+  Mn184  1  0.40731271  0.49910869  0.41448281  1
  Mn3.34+  Mn185  1  0.24896642  0.00034654  0.57670173  1
  Mn3.34+  Mn186  1  0.75074765  0.50417920  0.74561951  1
  Mn3.34+  Mn187  1  0.08210044  0.49888918  0.08098102  1
  Mn3.34+  Mn188  1  0.76197876  0.49896301  0.08510615  1
  Mn3.34+  Mn189  1  0.56809101  0.49561400  0.26230114  1
  Mn3.34+  Mn190  1  0.42722978  0.00329075  0.42326100  1
  Mn3.34+  Mn191  1  0.26395320  0.00566093  0.57760111  1
  Mn3.34+  Mn192  1  0.58121116  0.50211688  0.26206965  1
  Mn3.34+  Mn193  1  0.75003086  0.49915795  0.42123407  1
  Mn3.34+  Mn194  1  0.90845805  -0.00506435  0.25445598  1
  Mn3.34+  Mn195  1  0.07478249  -0.00221427  0.07151273  1
  Mn3.34+  Mn196  1  0.91829428  0.00093305  0.91450872  1
  Mn3.34+  Mn197  1  0.75030805  0.50297668  0.08526699  1
  Mn3.34+  Mn198  1  0.74543592  0.00337597  0.42279142  1
  Mn3.34+  Mn199  1  0.41385568  0.00896316  0.42110032  1
  Mn3.34+  Mn200  1  0.25238921  0.50329647  0.58674009  1
  Mn3.34+  Mn201  1  0.40986546  0.50076047  0.74716123  1
  Mn3.34+  Mn202  1  0.40613963  0.50114267  0.09626771  1
  Mn3.34+  Mn203  1  0.08748136  0.49343222  0.73991585  1
  Mn3.34+  Mn204  1  0.26022921  0.49853792  0.25764877  1
  Mn3.34+  Mn205  1  0.92201291  0.00052517  0.25221905  1
  Mn3.34+  Mn206  1  0.59330087  0.00510991  0.24823515  1
  Mn3.34+  Mn207  1  0.41836946  0.00072805  0.75199373  1
  Mn3.34+  Mn208  1  0.58353614  -0.00055276  0.24922015  1
  Mn3.34+  Mn209  1  0.92616963  0.49870886  0.91365813  1
  Mn3.34+  Mn210  1  0.41599552  0.49566754  0.09778240  1
  Mn3.34+  Mn211  1  0.58853316  0.00233663  0.91604208  1
  Mn3.34+  Mn212  1  0.07902102  -0.00156418  0.74651601  1
  Mn3.34+  Mn213  1  0.57814748  -0.00256220  0.91748749  1
  Mn3.34+  Mn214  1  0.92641233  0.49759312  0.25043979  1
  Mn3.34+  Mn215  1  0.91103079  0.50229556  0.25189865  1
  O2-  O216  1  0.00282322  0.15307300  -0.00296285  1
  O2-  O217  1  -0.00403382  0.15952610  0.34568962  1
  O2-  O218  1  -0.00706396  0.16405282  0.65540979  1
  O2-  O219  1  0.00519747  0.65164150  -0.00541388  1
  O2-  O220  1  -0.00413112  0.64865513  0.32601471  1
  O2-  O221  1  0.00154506  0.65505879  0.65709410  1
  O2-  O222  1  0.33236191  0.15040969  0.00253376  1
  O2-  O223  1  0.32733260  0.16242372  0.32800446  1
  O2-  O224  1  0.32011954  0.16827792  0.67338901  1
  O2-  O225  1  0.33412618  0.65312193  0.00178391  1
  O2-  O226  1  0.32867659  0.69438790  0.31930455  1
  O2-  O227  1  0.32306010  0.66605769  0.67597673  1
  O2-  O228  1  0.66814009  0.15538240  -0.00785858  1
  O2-  O229  1  0.66509433  0.14427124  0.33787262  1
  O2-  O230  1  0.66500731  0.15386720  0.66203772  1
  O2-  O231  1  0.66100375  0.65267466  0.00002885  1
  O2-  O232  1  0.67140824  0.65215021  0.33104339  1
  O2-  O233  1  0.67123155  0.66745296  0.67287398  1
  O2-  O234  1  0.17673545  0.15273798  0.00554587  1
  O2-  O235  1  0.16221849  0.15164798  0.33725925  1
  O2-  O236  1  0.16492252  0.15357754  0.65645701  1
  O2-  O237  1  0.16657475  0.66330903  0.00810170  1
  O2-  O238  1  0.17269342  0.66752055  0.32308612  1
  O2-  O239  1  0.16885426  0.66708974  0.66414783  1
  O2-  O240  1  0.49692853  0.13960743  -0.00406441  1
  O2-  O241  1  0.49277844  0.15893195  0.32226969  1
  O2-  O242  1  0.50240384  0.16210275  0.66540047  1
  O2-  O243  1  0.49421154  0.65144038  -0.00664096  1
  O2-  O244  1  0.49887723  0.65018164  0.33302059  1
  O2-  O245  1  0.49350130  0.68285999  0.67041705  1
  O2-  O246  1  0.83953081  0.16489193  -0.00613090  1
  O2-  O247  1  0.82863056  0.16095439  0.34602268  1
  O2-  O248  1  0.83936366  0.16464048  0.66933329  1
  O2-  O249  1  0.83502311  0.64858041  -0.00207556  1
  O2-  O250  1  0.83448983  0.65966608  0.33908219  1
  O2-  O251  1  0.83533375  0.64871230  0.67332717  1
  O2-  O252  1  0.00235317  0.33868247  -0.00552753  1
  O2-  O253  1  0.00328438  0.35126000  0.33302045  1
  O2-  O254  1  -0.00401514  0.33272022  0.66555571  1
  O2-  O255  1  0.00205689  0.85033730  0.00004652  1
  O2-  O256  1  0.00356632  0.85693816  0.33467397  1
  O2-  O257  1  0.00134218  0.85336375  0.66853928  1
  O2-  O258  1  0.32553459  0.32157773  -0.00081263  1
  O2-  O259  1  0.33018666  0.33839293  0.33758260  1
  O2-  O260  1  0.33053092  0.34042320  0.66738134  1
  O2-  O261  1  0.32895823  0.82974385  -0.00046009  1
  O2-  O262  1  0.32838192  0.84373977  0.33619242  1
  O2-  O263  1  0.33589519  0.84388125  0.66962001  1
  O2-  O264  1  0.67173857  0.35242971  0.00072691  1
  O2-  O265  1  0.66448043  0.35408108  0.33611130  1
  O2-  O266  1  0.66272096  0.35659848  0.67059866  1
  O2-  O267  1  0.66192237  0.84360395  -0.00383979  1
  O2-  O268  1  0.67147817  0.82850181  0.33254853  1
  O2-  O269  1  0.66541742  0.83143591  0.66355960  1
  O2-  O270  1  0.16867031  0.33986478  -0.00129194  1
  O2-  O271  1  0.17053181  0.34798941  0.33574746  1
  O2-  O272  1  0.17325996  0.33715829  0.67227250  1
  O2-  O273  1  0.16295596  0.82550329  -0.00510966  1
  O2-  O274  1  0.16665867  0.83856578  0.33075887  1
  O2-  O275  1  0.16938550  0.85130137  0.66707858  1
  O2-  O276  1  0.49715284  0.34294805  -0.00284673  1
  O2-  O277  1  0.49755520  0.35150960  0.33273941  1
  O2-  O278  1  0.49947250  0.34916806  0.66630566  1
  O2-  O279  1  0.49970469  0.83736876  -0.00193880  1
  O2-  O280  1  0.48885184  0.85113886  0.32433923  1
  O2-  O281  1  0.49982043  0.83143366  0.67305744  1
  O2-  O282  1  0.83554670  0.34254862  -0.00028204  1
  O2-  O283  1  0.83764578  0.34702990  0.33717614  1
  O2-  O284  1  0.83513114  0.33505885  0.66621448  1
  O2-  O285  1  0.83162234  0.84260261  -0.00405400  1
  O2-  O286  1  0.83227184  0.83506553  0.33233874  1
  O2-  O287  1  0.83197639  0.84710642  0.66665189  1
  O2-  O288  1  -0.00085881  0.17644914  0.15072228  1
  O2-  O289  1  -0.00236228  0.18700232  0.50581824  1
  O2-  O290  1  -0.00269358  0.18305156  0.83781315  1
  O2-  O291  1  0.00036187  0.67087165  0.16848954  1
  O2-  O292  1  -0.00541358  0.67646515  0.50184254  1
  O2-  O293  1  -0.00505399  0.67231412  0.83121382  1
  O2-  O294  1  0.33116022  0.18690331  0.17172131  1
  O2-  O295  1  0.33158854  0.19756255  0.50690438  1
  O2-  O296  1  0.33291839  0.18717205  0.84154317  1
  O2-  O297  1  0.32423075  0.68062938  0.15355576  1
  O2-  O298  1  0.33013183  0.68710626  0.51530252  1
  O2-  O299  1  0.34018274  0.67829379  0.83864748  1
  O2-  O300  1  0.67085629  0.17945124  0.18217587  1
  O2-  O301  1  0.66082930  0.17638311  0.50406752  1
  O2-  O302  1  0.66415185  0.18162443  0.83061135  1
  O2-  O303  1  0.66427508  0.67859009  0.17101804  1
  O2-  O304  1  0.66268025  0.68029024  0.49639460  1
  O2-  O305  1  0.67495389  0.69187191  0.83810612  1
  O2-  O306  1  0.16512456  0.17892188  0.16691168  1
  O2-  O307  1  0.16227939  0.18516382  0.50446037  1
  O2-  O308  1  0.17150121  0.18274744  0.84467505  1
  O2-  O309  1  0.16378464  0.67916237  0.16630807  1
  O2-  O310  1  0.16627876  0.68644568  0.51406804  1
  O2-  O311  1  0.17093680  0.67443490  0.83820867  1
  O2-  O312  1  0.50601724  0.18455218  0.16618521  1
  O2-  O313  1  0.50538050  0.17328822  0.50791911  1
  O2-  O314  1  0.49801024  0.18225084  0.83997974  1
  O2-  O315  1  0.51060597  0.67863759  0.14882519  1
  O2-  O316  1  0.50219893  0.68134078  0.50610956  1
  O2-  O317  1  0.50021531  0.69244226  0.82848250  1
  O2-  O318  1  0.83714233  0.17739039  0.16514155  1
  O2-  O319  1  0.82943226  0.18869781  0.50179496  1
  O2-  O320  1  0.82725277  0.18337910  0.83018854  1
  O2-  O321  1  0.83192321  0.68330270  0.17360984  1
  O2-  O322  1  0.83030872  0.68845411  0.50513940  1
  O2-  O323  1  0.83446906  0.67595378  0.83554148  1
  O2-  O324  1  -0.00039171  0.32182073  0.16353453  1
  O2-  O325  1  -0.00597454  0.31764529  0.49566411  1
  O2-  O326  1  0.00020518  0.31800943  0.83155994  1
  O2-  O327  1  0.00914896  0.82948214  0.17886343  1
  O2-  O328  1  0.00404887  0.82422800  0.50438812  1
  O2-  O329  1  0.00077220  0.82564005  0.83357325  1
  O2-  O330  1  0.33153876  0.31370431  0.16424907  1
  O2-  O331  1  0.33404891  0.32278000  0.50320332  1
  O2-  O332  1  0.32690425  0.31964699  0.82945356  1
  O2-  O333  1  0.33740318  0.81325960  0.17336839  1
  O2-  O334  1  0.34554380  0.82317147  0.51170807  1
  O2-  O335  1  0.32358409  0.81009525  0.82887189  1
  O2-  O336  1  0.66784111  0.32638353  0.16791926  1
  O2-  O337  1  0.66786870  0.32849337  0.50311513  1
  O2-  O338  1  0.66911451  0.33001961  0.83306568  1
  O2-  O339  1  0.66680986  0.81847738  0.16990929  1
  O2-  O340  1  0.67531168  0.79376951  0.49361445  1
  O2-  O341  1  0.66597833  0.81578192  0.82988208  1
  O2-  O342  1  0.16566486  0.32526602  0.16346602  1
  O2-  O343  1  0.16881057  0.31013226  0.50018706  1
  O2-  O344  1  0.16506412  0.31979094  0.83934055  1
  O2-  O345  1  0.16738950  0.81132954  0.17229090  1
  O2-  O346  1  0.16539377  0.81296807  0.50566956  1
  O2-  O347  1  0.16797463  0.82095954  0.83297274  1
  O2-  O348  1  0.50482593  0.31901332  0.16034254  1
  O2-  O349  1  0.50237167  0.32611455  0.50120177  1
  O2-  O350  1  0.50571403  0.32860872  0.82381278  1
  O2-  O351  1  0.50289195  0.82277791  0.16308200  1
  O2-  O352  1  0.50481236  0.82778620  0.50348910  1
  O2-  O353  1  0.49912148  0.80394050  0.83531778  1
  O2-  O354  1  0.83267574  0.32338401  0.17192293  1
  O2-  O355  1  0.83252377  0.31553803  0.50253566  1
  O2-  O356  1  0.82669614  0.31266739  0.84377364  1
  O2-  O357  1  0.83487879  0.81891222  0.16745928  1
  O2-  O358  1  0.83871619  0.81382730  0.49302061  1
  O2-  O359  1  0.83437455  0.82867168  0.83413337  1
  O2-  O360  1  0.09118726  0.07843853  0.10340054  1
  O2-  O361  1  0.06849042  0.08440556  0.45527866  1
  O2-  O362  1  0.07723915  0.07850620  0.76658987  1
  O2-  O363  1  0.08518195  0.57894241  0.12180613  1
  O2-  O364  1  0.08428643  0.57431808  0.43312796  1
  O2-  O365  1  0.08405308  0.57274770  0.77917094  1
  O2-  O366  1  0.40028552  0.08112434  0.12668506  1
  O2-  O367  1  0.40784704  0.08635773  0.42405573  1
  O2-  O368  1  0.39379067  0.08134869  0.77471877  1
  O2-  O369  1  0.42663150  0.58351949  0.12419081  1
  O2-  O370  1  0.42455791  0.56694398  0.46451903  1
  O2-  O371  1  0.42404206  0.58329989  0.77412399  1
  O2-  O372  1  0.77748859  0.07134212  0.11281727  1
  O2-  O373  1  0.76534435  0.08185581  0.45039942  1
  O2-  O374  1  0.75728775  0.07953895  0.78865153  1
  O2-  O375  1  0.74009152  0.58350391  0.11968111  1
  O2-  O376  1  0.74954793  0.58078225  0.45375551  1
  O2-  O377  1  0.72980501  0.58376551  0.77741725  1
  O2-  O378  1  0.25636059  0.08055915  0.21060577  1
  O2-  O379  1  0.25339940  0.08622976  0.54989046  1
  O2-  O380  1  0.24182083  0.08360054  0.89144221  1
  O2-  O381  1  0.23745424  0.57862108  0.20907527  1
  O2-  O382  1  0.24083344  0.58457831  0.56337889  1
  O2-  O383  1  0.26103302  0.56363138  0.86746931  1
  O2-  O384  1  0.57443452  0.08309490  0.20961810  1
  O2-  O385  1  0.57282047  0.07066151  0.55850924  1
  O2-  O386  1  0.58232158  0.08095788  0.87389994  1
  O2-  O387  1  0.58196461  0.57541435  0.20125438  1
  O2-  O388  1  0.58361377  0.57953708  0.57931665  1
  O2-  O389  1  0.57010145  0.58433067  0.88398750  1
  O2-  O390  1  0.91343955  0.07927687  0.22484118  1
  O2-  O391  1  0.92537696  0.08391117  0.55731843  1
  O2-  O392  1  0.91416664  0.08010998  0.88335821  1
  O2-  O393  1  0.90155670  0.58081078  0.21203406  1
  O2-  O394  1  0.91113854  0.58487549  0.56114201  1
  O2-  O395  1  0.91209415  0.58083177  0.87958830  1
  O2-  O396  1  0.08001243  0.41683783  0.10019803  1
  O2-  O397  1  0.08846896  0.41522094  0.44214686  1
  O2-  O398  1  0.08494707  0.41536579  0.77646500  1
  O2-  O399  1  0.08875653  0.92080351  0.11571253  1
  O2-  O400  1  0.09966008  0.91640286  0.44746583  1
  O2-  O401  1  0.10492985  0.92070898  0.78324258  1
  O2-  O402  1  0.39956689  0.41346143  0.09609924  1
  O2-  O403  1  0.41519643  0.42109495  0.44941009  1
  O2-  O404  1  0.41740775  0.41820396  0.77050048  1
  O2-  O405  1  0.42122943  0.91428588  0.10183436  1
  O2-  O406  1  0.41307787  0.92397892  0.45548561  1
  O2-  O407  1  0.39752688  0.92068222  0.79476316  1
  O2-  O408  1  0.76567608  0.41791094  0.11140008  1
  O2-  O409  1  0.75948918  0.41826219  0.44599525  1
  O2-  O410  1  0.76506812  0.42310024  0.77635286  1
  O2-  O411  1  0.73071678  0.91761071  0.11429817  1
  O2-  O412  1  0.75982865  0.92156028  0.43652497  1
  O2-  O413  1  0.73864995  0.92043864  0.77383120  1
  O2-  O414  1  0.24529255  0.42025839  0.21306030  1
  O2-  O415  1  0.25641522  0.42460093  0.55430892  1
  O2-  O416  1  0.23609682  0.42002273  0.89489542  1
  O2-  O417  1  0.24399878  0.91227943  0.22432584  1
  O2-  O418  1  0.25478843  0.91978226  0.54504711  1
  O2-  O419  1  0.24845023  0.91972913  0.89121990  1
  O2-  O420  1  0.58583286  0.42285732  0.20956472  1
  O2-  O421  1  0.57744218  0.42157064  0.55652050  1
  O2-  O422  1  0.61002600  0.42778724  0.88367082  1
  O2-  O423  1  0.59151422  0.91813844  0.22060416  1
  O2-  O424  1  0.57373550  0.91752598  0.58258581  1
  O2-  O425  1  0.58290848  0.92053662  0.86566246  1
  O2-  O426  1  0.91833143  0.41812249  0.21643670  1
  O2-  O427  1  0.90321282  0.41754531  0.56664374  1
  O2-  O428  1  0.90089022  0.41833382  0.88045734  1
  O2-  O429  1  0.89179215  0.91744034  0.22468501  1
  O2-  O430  1  0.92506358  0.91647946  0.55457975  1
  O2-  O431  1  0.91638384  0.92125397  0.88455658  1
  O2-  O432  1  0.01614114  0.00620413  -0.02803373  1
  O2-  O433  1  0.01211119  -0.01857919  0.31610657  1
  O2-  O434  1  0.03004040  -0.00102508  0.63561389  1
  O2-  O435  1  -0.01400059  0.50296681  0.01808915  1
  O2-  O436  1  -0.00884049  0.50178736  0.34787911  1
  O2-  O437  1  -0.01832054  0.50047260  0.70674510  1
  O2-  O438  1  0.32625675  0.01804889  -0.00395890  1
  O2-  O439  1  0.34438369  -0.00908224  0.33310567  1
  O2-  O440  1  0.33224404  -0.02027828  0.66824516  1
  O2-  O441  1  0.33703283  0.53061079  0.00794100  1
  O2-  O442  1  0.30885714  0.49001461  0.36293572  1
  O2-  O443  1  0.35349865  0.49983984  0.64572036  1
  O2-  O444  1  0.67251069  -0.00016002  -0.00459306  1
  O2-  O445  1  0.68934951  -0.00300715  0.31410884  1
  O2-  O446  1  0.65061240  0.00283392  0.69891856  1
  O2-  O447  1  0.66232543  0.51525735  0.01058900  1
  O2-  O448  1  0.67642089  0.50069146  0.32594450  1
  O2-  O449  1  0.67656023  0.49324652  0.65845125  1
  O2-  O450  1  0.16459877  -0.00556707  0.01100475  1
  O2-  O451  1  0.17215596  -0.02216958  0.32258047  1
  O2-  O452  1  0.18159218  0.00410874  0.67771879  1
  O2-  O453  1  0.18377368  0.50579970  0.03275691  1
  O2-  O454  1  0.14430600  0.50221471  0.30315659  1
  O2-  O455  1  0.19374140  0.50427767  0.69510401  1
  O2-  O456  1  0.47846151  -0.00053982  -0.03040379  1
  O2-  O457  1  0.50483002  0.00441298  0.33417302  1
  O2-  O458  1  0.48919030  -0.03034254  0.67609224  1
  O2-  O459  1  0.50846523  0.50369987  0.02546783  1
  O2-  O460  1  0.51190330  0.49911009  0.36224718  1
  O2-  O461  1  0.51978547  0.49612754  0.69478531  1
  O2-  O462  1  0.82865279  0.00038483  -0.01425634  1
  O2-  O463  1  0.85285429  0.00575730  0.35677580  1
  O2-  O464  1  0.87216332  0.00307484  0.72051350  1
  O2-  O465  1  0.81885299  0.50064425  -0.01999166  1
  O2-  O466  1  0.83155239  0.50748516  0.33628663  1
  O2-  O467  1  0.83592664  0.51495684  0.68541428  1
  O2-  O468  1  0.43149262  0.24180518  0.05316224  1
  O2-  O469  1  0.91950856  0.25467797  0.26863015  1
  O2-  O470  1  0.23744818  0.24764636  0.27011308  1
  O2-  O471  1  0.93028434  0.75145003  0.27449943  1
  O2-  O472  1  0.08817478  0.25165886  0.72951691  1
  O2-  O473  1  0.42266346  0.74774216  0.05796977  1
  O2-  O474  1  0.74694880  0.75077469  0.05695748  1
  O2-  O475  1  0.06347521  0.75137955  0.06369744  1
  O2-  O476  1  0.73060361  0.24557610  0.72102573  1
  O2-  O477  1  0.77010288  0.75060838  0.73175699  1
  O2-  O478  1  0.58221929  0.25142809  0.28096480  1
  O2-  O479  1  0.42590487  0.25621003  0.40130978  1
  O2-  O480  1  0.91708913  0.75150525  0.61291214  1
  O2-  O481  1  0.07809411  0.75721877  0.72978299  1
  O2-  O482  1  0.42624360  0.25042249  0.72921933  1
  O2-  O483  1  0.42410708  0.75666859  0.40232254  1
  O2-  O484  1  0.58739865  0.25068691  0.94157675  1
  O2-  O485  1  0.57068965  0.74858123  0.27362396  1
  O2-  O486  1  0.73431892  0.24963561  0.39233770  1
  O2-  O487  1  0.91980371  0.75011109  0.93725956  1
  O2-  O488  1  0.07789379  0.75432859  0.39269402  1
  O2-  O489  1  0.58699487  0.25711590  0.60034972  1
  O2-  O490  1  0.09180639  0.24744624  0.05525368  1
  O2-  O491  1  0.74656811  0.25440561  0.06729198  1
  O2-  O492  1  0.08240655  0.25000463  0.38800739  1
