# generated using pymatgen
data_Ca108Mn108O277
_symmetry_space_group_name_H-M   'P 1'
_cell_length_a   16.02966800
_cell_length_b   22.30850751
_cell_length_c   16.38902181
_cell_angle_alpha   89.99941498
_cell_angle_beta   89.99748628
_cell_angle_gamma   90.00754388
_symmetry_Int_Tables_number   1
_chemical_formula_structural   Ca108Mn108O277
_chemical_formula_sum   'Ca108 Mn108 O277'
_cell_volume   5860.68085612
_cell_formula_units_Z   1
loop_
 _symmetry_equiv_pos_site_id
 _symmetry_equiv_pos_as_xyz
  1  'x, y, z'
loop_
 _atom_type_symbol
 _atom_type_oxidation_number
  Ca2+  2.0
  Mn3.34+  3.34
  O2-  -2.0
loop_
 _atom_site_type_symbol
 _atom_site_label
 _atom_site_symmetry_multiplicity
 _atom_site_fract_x
 _atom_site_fract_y
 _atom_site_fract_z
 _atom_site_occupancy
  Ca2+  Ca0  1  0.09180053  0.25361848  0.24594867  1
  Ca2+  Ca1  1  0.09212603  0.25370103  0.60006437  1
  Ca2+  Ca2  1  0.07080991  0.25081824  0.90695842  1
  Ca2+  Ca3  1  0.08303270  0.75378780  0.25989566  1
  Ca2+  Ca4  1  0.08225726  0.74757974  0.55946064  1
  Ca2+  Ca5  1  0.10351204  0.74067505  0.92130278  1
  Ca2+  Ca6  1  0.40873456  0.26181991  0.25274475  1
  Ca2+  Ca7  1  0.41984479  0.25221207  0.59561993  1
  Ca2+  Ca8  1  0.41623140  0.25878759  0.89767082  1
  Ca2+  Ca9  1  0.41018694  0.75067740  0.23896860  1
  Ca2+  Ca10  1  0.40780397  0.76339355  0.58640220  1
  Ca2+  Ca11  1  0.39210934  0.74442833  0.92646274  1
  Ca2+  Ca12  1  0.74963288  0.24685087  0.23567965  1
  Ca2+  Ca13  1  0.73769132  0.23897421  0.60415314  1
  Ca2+  Ca14  1  0.76410379  0.24876900  0.91135696  1
  Ca2+  Ca15  1  0.75458333  0.75229866  0.26093073  1
  Ca2+  Ca16  1  0.76040192  0.74085350  0.56506896  1
  Ca2+  Ca17  1  0.76206361  0.76635610  0.91335763  1
  Ca2+  Ca18  1  0.23956845  0.25075217  0.09192400  1
  Ca2+  Ca19  1  0.25076883  0.26011760  0.42021766  1
  Ca2+  Ca20  1  0.24562094  0.23540256  0.73253109  1
  Ca2+  Ca21  1  0.24986440  0.73038645  0.07397719  1
  Ca2+  Ca22  1  0.22820867  0.74648486  0.41575880  1
  Ca2+  Ca23  1  0.25295187  0.74897943  0.75986820  1
  Ca2+  Ca24  1  0.60055218  0.24974158  0.08705117  1
  Ca2+  Ca25  1  0.58555723  0.26352393  0.43049175  1
  Ca2+  Ca26  1  0.57819544  0.23604132  0.73478427  1
  Ca2+  Ca27  1  0.57198667  0.75848616  0.09981960  1
  Ca2+  Ca28  1  0.60380796  0.74906028  0.41321035  1
  Ca2+  Ca29  1  0.58977983  0.75890876  0.74217949  1
  Ca2+  Ca30  1  0.90556331  0.24140786  0.07630322  1
  Ca2+  Ca31  1  0.91278078  0.25825591  0.42092462  1
  Ca2+  Ca32  1  0.91920395  0.23324236  0.75319874  1
  Ca2+  Ca33  1  0.92476742  0.75452330  0.08435001  1
  Ca2+  Ca34  1  0.92186577  0.74491307  0.41737024  1
  Ca2+  Ca35  1  0.90942159  0.75318783  0.74711961  1
  Ca2+  Ca36  1  0.74330519  0.59837420  0.26740367  1
  Ca2+  Ca37  1  0.12178808  0.59785151  0.91841798  1
  Ca2+  Ca38  1  0.61206794  0.09107277  0.08754578  1
  Ca2+  Ca39  1  0.92058143  0.58958563  0.74057812  1
  Ca2+  Ca40  1  0.09097382  0.59086782  0.57196585  1
  Ca2+  Ca41  1  0.23459050  0.58592437  0.74015352  1
  Ca2+  Ca42  1  0.24470701  0.08829192  0.40901680  1
  Ca2+  Ca43  1  0.57891758  0.09283318  0.42630875  1
  Ca2+  Ca44  1  0.42479948  0.09554201  0.62044096  1
  Ca2+  Ca45  1  0.10114694  0.58849220  0.25541561  1
  Ca2+  Ca46  1  0.75187569  0.10341090  0.21553793  1
  Ca2+  Ca47  1  0.74005588  0.57830232  0.91057655  1
  Ca2+  Ca48  1  0.23439428  0.08495573  0.41440172  1
  Ca2+  Ca49  1  0.75502785  0.09352734  0.94409948  1
  Ca2+  Ca50  1  0.93443411  0.58842407  0.07394449  1
  Ca2+  Ca51  1  0.07315695  0.11094159  0.89080450  1
  Ca2+  Ca52  1  0.08583778  0.10098927  0.62226096  1
  Ca2+  Ca53  1  0.22716610  0.57360144  0.41103715  1
  Ca2+  Ca54  1  0.09253725  0.59098547  0.26025558  1
  Ca2+  Ca55  1  0.93129053  0.58662609  0.74272939  1
  Ca2+  Ca56  1  0.59762649  0.57448939  0.72059520  1
  Ca2+  Ca57  1  0.37657042  0.57370249  0.23269759  1
  Ca2+  Ca58  1  0.08282086  0.59366273  0.56671400  1
  Ca2+  Ca59  1  0.41293870  0.10391303  0.88478498  1
  Ca2+  Ca60  1  0.55745852  0.57204121  0.06731618  1
  Ca2+  Ca61  1  0.08441982  0.11097747  0.22735414  1
  Ca2+  Ca62  1  0.91648327  0.10377053  0.08331297  1
  Ca2+  Ca63  1  0.75280426  0.57829821  0.91035385  1
  Ca2+  Ca64  1  0.76073900  0.09951610  0.94653022  1
  Ca2+  Ca65  1  0.60059090  0.60246271  0.43719197  1
  Ca2+  Ca66  1  0.09616407  0.10564592  0.62588917  1
  Ca2+  Ca67  1  0.58310863  0.57422731  0.72126538  1
  Ca2+  Ca68  1  0.93274103  0.60507861  0.41995661  1
  Ca2+  Ca69  1  0.75174864  0.60132703  0.27570837  1
  Ca2+  Ca70  1  0.22106829  0.57960545  0.40969613  1
  Ca2+  Ca71  1  0.39023320  0.58023317  0.94529023  1
  Ca2+  Ca72  1  0.26000452  0.41556099  0.41641352  1
  Ca2+  Ca73  1  0.91789419  0.90729453  0.73859843  1
  Ca2+  Ca74  1  0.41592583  0.91144360  0.25943716  1
  Ca2+  Ca75  1  0.74354176  0.91203227  0.24131768  1
  Ca2+  Ca76  1  0.94716895  0.91302957  0.41440325  1
  Ca2+  Ca77  1  0.74858640  0.39856166  0.58457159  1
  Ca2+  Ca78  1  0.24931518  0.89722953  0.08780813  1
  Ca2+  Ca79  1  0.73727058  0.90499744  0.59096506  1
  Ca2+  Ca80  1  0.23172991  0.91110215  0.41054107  1
  Ca2+  Ca81  1  0.27897006  0.41295629  0.08792761  1
  Ca2+  Ca82  1  0.11348326  0.42280879  0.26708864  1
  Ca2+  Ca83  1  0.90351936  0.91029403  0.07995322  1
  Ca2+  Ca84  1  0.08309149  0.90533603  0.58540356  1
  Ca2+  Ca85  1  0.73998932  0.40911447  0.91645284  1
  Ca2+  Ca86  1  0.75628427  0.91221629  0.24115257  1
  Ca2+  Ca87  1  0.75054345  0.40850181  0.91772674  1
  Ca2+  Ca88  1  0.41426996  0.41575608  0.92871610  1
  Ca2+  Ca89  1  0.74907303  0.39028056  0.24080009  1
  Ca2+  Ca90  1  0.93398641  0.40360014  0.41953292  1
  Ca2+  Ca91  1  0.10182422  0.42033826  0.27086537  1
  Ca2+  Ca92  1  0.09405395  0.39955522  0.90827827  1
  Ca2+  Ca93  1  0.57252447  0.90827574  0.42023518  1
  Ca2+  Ca94  1  0.42535436  0.90379528  0.91729643  1
  Ca2+  Ca95  1  0.92129332  0.40254408  0.07651867  1
  Ca2+  Ca96  1  0.09832097  0.41168095  0.58594286  1
  Ca2+  Ca97  1  0.56734380  0.41300509  0.74096149  1
  Ca2+  Ca98  1  0.25587587  0.90256494  0.74606185  1
  Ca2+  Ca99  1  0.09436728  0.90259191  0.91103207  1
  Ca2+  Ca100  1  0.60334946  0.91506226  0.06736192  1
  Ca2+  Ca101  1  0.08179271  0.90141266  0.91200805  1
  Ca2+  Ca102  1  0.93688261  0.91237524  0.41635347  1
  Ca2+  Ca103  1  0.57453148  0.91290245  0.73011769  1
  Ca2+  Ca104  1  0.56510918  0.41731740  0.06394231  1
  Ca2+  Ca105  1  0.40387611  0.91184273  0.25947280  1
  Ca2+  Ca106  1  0.73811779  0.39848619  0.58537964  1
  Ca2+  Ca107  1  0.57614941  0.40854529  0.74379185  1
  Mn3.34+  Mn108  1  0.08530371  0.33551091  0.08663770  1
  Mn3.34+  Mn109  1  0.08804760  0.33465063  0.42375781  1
  Mn3.34+  Mn110  1  0.08709643  0.33193156  0.74852094  1
  Mn3.34+  Mn111  1  0.08477980  0.83107547  0.08909106  1
  Mn3.34+  Mn112  1  0.08637918  0.83201646  0.41581764  1
  Mn3.34+  Mn113  1  0.08372874  0.82795004  0.74776074  1
  Mn3.34+  Mn114  1  0.41987432  0.32958504  0.08374058  1
  Mn3.34+  Mn115  1  0.41795422  0.33907962  0.41713660  1
  Mn3.34+  Mn116  1  0.40593657  0.33241242  0.74708212  1
  Mn3.34+  Mn117  1  0.41683246  0.83365677  0.08300690  1
  Mn3.34+  Mn118  1  0.41346553  0.83109739  0.42231588  1
  Mn3.34+  Mn119  1  0.41862396  0.83341424  0.74920251  1
  Mn3.34+  Mn120  1  0.74945863  0.32966655  0.08321545  1
  Mn3.34+  Mn121  1  0.74914635  0.33398767  0.41348427  1
  Mn3.34+  Mn122  1  0.75318505  0.32644841  0.75564818  1
  Mn3.34+  Mn123  1  0.74971378  0.83478934  0.07899445  1
  Mn3.34+  Mn124  1  0.75149066  0.83255456  0.42042278  1
  Mn3.34+  Mn125  1  0.74921372  0.83540157  0.75141979  1
  Mn3.34+  Mn126  1  0.25736811  0.33525773  0.24858790  1
  Mn3.34+  Mn127  1  0.25669524  0.34767343  0.58335746  1
  Mn3.34+  Mn128  1  0.24981550  0.33088586  0.91411046  1
  Mn3.34+  Mn129  1  0.24531241  0.83175934  0.24968885  1
  Mn3.34+  Mn130  1  0.25110676  0.82845214  0.58239460  1
  Mn3.34+  Mn131  1  0.25307810  0.83212230  0.91551007  1
  Mn3.34+  Mn132  1  0.57729555  0.33488073  0.24738692  1
  Mn3.34+  Mn133  1  0.57405267  0.33617196  0.57961074  1
  Mn3.34+  Mn134  1  0.58071182  0.33537954  0.91408515  1
  Mn3.34+  Mn135  1  0.58348444  0.83473108  0.25052754  1
  Mn3.34+  Mn136  1  0.58070653  0.83767759  0.57703857  1
  Mn3.34+  Mn137  1  0.58508896  0.83646366  0.91135732  1
  Mn3.34+  Mn138  1  0.92274033  0.32739919  0.24461230  1
  Mn3.34+  Mn139  1  0.91912696  0.33385383  0.58714561  1
  Mn3.34+  Mn140  1  0.92069745  0.33540466  0.91227920  1
  Mn3.34+  Mn141  1  0.92068970  0.83653576  0.24738699  1
  Mn3.34+  Mn142  1  0.91438452  0.83259519  0.58282128  1
  Mn3.34+  Mn143  1  0.91751111  0.83037688  0.91516649  1
  Mn3.34+  Mn144  1  0.92225560  0.67043137  0.24841860  1
  Mn3.34+  Mn145  1  0.74718493  0.66275724  0.08669972  1
  Mn3.34+  Mn146  1  0.92147004  0.66551949  0.91333757  1
  Mn3.34+  Mn147  1  0.08464958  0.66881485  0.74879634  1
  Mn3.34+  Mn148  1  0.24428407  0.17502994  0.92338663  1
  Mn3.34+  Mn149  1  0.41754579  0.17494753  0.09318188  1
  Mn3.34+  Mn150  1  0.74776425  0.16989883  0.41778583  1
  Mn3.34+  Mn151  1  0.57517013  0.66694328  0.24936976  1
  Mn3.34+  Mn152  1  0.91269141  0.16311621  0.58458338  1
  Mn3.34+  Mn153  1  0.91872899  0.16738213  0.24687347  1
  Mn3.34+  Mn154  1  0.75833327  0.66733327  0.08452435  1
  Mn3.34+  Mn155  1  0.41279976  0.66262958  0.08751556  1
  Mn3.34+  Mn156  1  0.25173764  0.16798810  0.24098264  1
  Mn3.34+  Mn157  1  0.07105186  0.16450659  0.42320741  1
  Mn3.34+  Mn158  1  0.57801461  0.16617489  0.24661953  1
  Mn3.34+  Mn159  1  0.42122597  0.65911994  0.42355872  1
  Mn3.34+  Mn160  1  0.75092957  0.67150442  0.74692538  1
  Mn3.34+  Mn161  1  0.58510624  0.15840274  0.58960216  1
  Mn3.34+  Mn162  1  0.57700464  0.16774925  0.92030452  1
  Mn3.34+  Mn163  1  0.91903874  0.17067620  0.91540558  1
  Mn3.34+  Mn164  1  0.41998145  0.16432344  0.41746401  1
  Mn3.34+  Mn165  1  0.25348815  0.16968060  0.92257451  1
  Mn3.34+  Mn166  1  0.41027122  0.16961131  0.41532416  1
  Mn3.34+  Mn167  1  0.24955928  0.66725429  0.24847202  1
  Mn3.34+  Mn168  1  0.40737276  0.65716488  0.74927850  1
  Mn3.34+  Mn169  1  0.41655929  0.66313129  0.74790076  1
  Mn3.34+  Mn170  1  0.08064570  0.17006713  0.42003962  1
  Mn3.34+  Mn171  1  0.41225074  0.66687982  0.41981349  1
  Mn3.34+  Mn172  1  0.57716519  0.66628094  0.91086526  1
  Mn3.34+  Mn173  1  0.24922596  0.66428368  0.57935687  1
  Mn3.34+  Mn174  1  0.58634547  0.67202690  0.91380252  1
  Mn3.34+  Mn175  1  0.58384107  0.66404885  0.58318954  1
  Mn3.34+  Mn176  1  0.57933125  0.17433046  0.90978508  1
  Mn3.34+  Mn177  1  0.08534439  0.66626827  0.08462815  1
  Mn3.34+  Mn178  1  0.91525514  0.66761897  0.57800613  1
  Mn3.34+  Mn179  1  0.75848912  0.16539603  0.41860042  1
  Mn3.34+  Mn180  1  0.40389058  0.00589513  0.07885958  1
  Mn3.34+  Mn181  1  0.42802565  -0.00227921  0.74175935  1
  Mn3.34+  Mn182  1  0.74577215  0.00965283  0.73871466  1
  Mn3.34+  Mn183  1  0.57474588  0.49374860  0.25423781  1
  Mn3.34+  Mn184  1  0.58587885  0.00061953  0.91618062  1
  Mn3.34+  Mn185  1  0.74416696  -0.00294800  0.42701770  1
  Mn3.34+  Mn186  1  0.74696628  0.49908465  0.08158062  1
  Mn3.34+  Mn187  1  0.75447079  0.50566025  0.42770646  1
  Mn3.34+  Mn188  1  0.73305881  0.00320221  0.74007947  1
  Mn3.34+  Mn189  1  0.26518019  -0.00746440  0.58894837  1
  Mn3.34+  Mn190  1  0.91781103  0.50159072  0.23813912  1
  Mn3.34+  Mn191  1  0.91378924  0.50162230  0.58163659  1
  Mn3.34+  Mn192  1  0.56268088  0.49840285  0.25171235  1
  Mn3.34+  Mn193  1  0.24040553  0.00236064  0.25924481  1
  Mn3.34+  Mn194  1  0.91722583  0.00064438  0.91028363  1
  Mn3.34+  Mn195  1  0.09580081  0.00396061  0.08573554  1
  Mn3.34+  Mn196  1  0.24933149  0.00069362  0.90824002  1
  Mn3.34+  Mn197  1  0.40279416  0.49676101  0.73569679  1
  Mn3.34+  Mn198  1  0.24968056  0.49496834  0.92416283  1
  Mn3.34+  Mn199  1  0.25393826  -0.00284061  0.58660482  1
  Mn3.34+  Mn200  1  0.41490242  0.00981064  0.07628192  1
  Mn3.34+  Mn201  1  0.57871444  0.00222158  0.25174720  1
  Mn3.34+  Mn202  1  0.08329502  -0.00308764  0.08884567  1
  Mn3.34+  Mn203  1  0.76030186  0.49592970  0.74618377  1
  Mn3.34+  Mn204  1  0.74143716  0.49882254  0.42679689  1
  Mn3.34+  Mn205  1  0.07907986  -0.00012347  0.75095859  1
  Mn3.34+  Mn206  1  0.75574575  0.00222095  0.42588507  1
  Mn3.34+  Mn207  1  0.90292748  0.49580568  0.23840949  1
  Mn3.34+  Mn208  1  0.09201205  0.49892344  0.08056974  1
  Mn3.34+  Mn209  1  0.08946878  0.49653983  0.73953278  1
  Mn3.34+  Mn210  1  0.92969218  0.49890212  0.92133043  1
  Mn3.34+  Mn211  1  0.93052197  0.00302936  0.25565888  1
  Mn3.34+  Mn212  1  0.41866052  -0.00400372  0.42372862  1
  Mn3.34+  Mn213  1  0.90527655  -0.00397275  0.91023064  1
  Mn3.34+  Mn214  1  0.41679761  0.49997856  0.42804303  1
  Mn3.34+  Mn215  1  0.91896879  0.00448566  0.58645305  1
  O2-  O216  1  -0.00128308  0.16466320  -0.00471416  1
  O2-  O217  1  -0.00219527  0.16234396  0.33548122  1
  O2-  O218  1  -0.00071863  0.17544328  0.65343809  1
  O2-  O219  1  0.00774796  0.64905612  -0.00849085  1
  O2-  O220  1  0.00680481  0.64946793  0.31904851  1
  O2-  O221  1  0.00297011  0.65191662  0.66515063  1
  O2-  O222  1  0.33595229  0.18351416  0.00163759  1
  O2-  O223  1  0.33050983  0.14457941  0.33357085  1
  O2-  O224  1  0.33574034  0.17700939  0.65161098  1
  O2-  O225  1  0.33950300  0.66113140  0.00500475  1
  O2-  O226  1  0.33456795  0.64293704  0.33537734  1
  O2-  O227  1  0.32619280  0.64665714  0.66637710  1
  O2-  O228  1  0.66051353  0.16278087  -0.00133007  1
  O2-  O229  1  0.66766362  0.15377878  0.33372113  1
  O2-  O230  1  0.66279645  0.15971837  0.66044154  1
  O2-  O231  1  0.66578886  0.64479161  -0.00256876  1
  O2-  O232  1  0.65757844  0.65809166  0.32921816  1
  O2-  O233  1  0.65427336  0.66749991  0.67714042  1
  O2-  O234  1  0.16487463  0.18778056  -0.00080665  1
  O2-  O235  1  0.16390545  0.14988308  0.33478226  1
  O2-  O236  1  0.17346886  0.17671223  0.64864041  1
  O2-  O237  1  0.16667454  0.66172689  0.01028211  1
  O2-  O238  1  0.17368070  0.65438890  0.33634734  1
  O2-  O239  1  0.16089805  0.65436318  0.65923460  1
  O2-  O240  1  0.49907818  0.18377875  0.00276640  1
  O2-  O241  1  0.50261276  0.16061768  0.33824499  1
  O2-  O242  1  0.50092188  0.16892466  0.65794613  1
  O2-  O243  1  0.50113978  0.65733121  -0.00022053  1
  O2-  O244  1  0.50157217  0.64356775  0.34269074  1
  O2-  O245  1  0.49976911  0.65746399  0.67007032  1
  O2-  O246  1  0.83998782  0.16020573  0.00137821  1
  O2-  O247  1  0.83349595  0.17103081  0.33108384  1
  O2-  O248  1  0.84068294  0.18150606  0.65864932  1
  O2-  O249  1  0.83324931  0.63812632  -0.00166830  1
  O2-  O250  1  0.84436307  0.65546219  0.32969022  1
  O2-  O251  1  0.83925256  0.65139012  0.67041883  1
  O2-  O252  1  0.00492268  0.34430808  -0.00230255  1
  O2-  O253  1  0.01088751  0.34602086  0.32384937  1
  O2-  O254  1  0.00802863  0.33871676  0.65870131  1
  O2-  O255  1  0.00144009  0.85223182  0.00130894  1
  O2-  O256  1  0.00038067  0.84508776  0.33381418  1
  O2-  O257  1  -0.00181887  0.84007170  0.66717913  1
  O2-  O258  1  0.33660321  0.32462851  -0.00137846  1
  O2-  O259  1  0.33315399  0.34715249  0.33380683  1
  O2-  O260  1  0.32798591  0.32437028  0.66376614  1
  O2-  O261  1  0.33459332  0.85020686  -0.00207617  1
  O2-  O262  1  0.33227129  0.85058860  0.33594539  1
  O2-  O263  1  0.33345324  0.84466909  0.66416349  1
  O2-  O264  1  0.66196916  0.35049401  0.00175122  1
  O2-  O265  1  0.66738419  0.33453190  0.32413467  1
  O2-  O266  1  0.66476580  0.34216576  0.67825733  1
  O2-  O267  1  0.66185392  0.83060479  0.00130646  1
  O2-  O268  1  0.66944324  0.85343989  0.33310093  1
  O2-  O269  1  0.65991561  0.83907630  0.66892692  1
  O2-  O270  1  0.16794133  0.32476884  0.00283722  1
  O2-  O271  1  0.17270030  0.34888563  0.33817842  1
  O2-  O272  1  0.16824875  0.33450816  0.66067033  1
  O2-  O273  1  0.16431410  0.84585204  -0.00431264  1
  O2-  O274  1  0.16631369  0.84202480  0.33353502  1
  O2-  O275  1  0.16692313  0.84062739  0.66707688  1
  O2-  O276  1  0.50177587  0.31782577  -0.00224343  1
  O2-  O277  1  0.50331447  0.32227235  0.33328094  1
  O2-  O278  1  0.49683377  0.34512983  0.66767757  1
  O2-  O279  1  0.50471849  0.84299300  0.00364550  1
  O2-  O280  1  0.49755223  0.85049348  0.33138036  1
  O2-  O281  1  0.50446323  0.82900190  0.66511906  1
  O2-  O282  1  0.82969313  0.34836136  -0.00132004  1
  O2-  O283  1  0.84397392  0.33656149  0.33393736  1
  O2-  O284  1  0.82624600  0.33939521  0.66423628  1
  O2-  O285  1  0.83518153  0.84674934  -0.00026912  1
  O2-  O286  1  0.83539862  0.86019021  0.33652994  1
  O2-  O287  1  0.83047881  0.85105007  0.66333679  1
  O2-  O288  1  -0.00157412  0.18958147  0.17788157  1
  O2-  O289  1  -0.00671156  0.19383503  0.50073240  1
  O2-  O290  1  -0.00319654  0.18120600  0.83754894  1
  O2-  O291  1  -0.00633730  0.67927174  0.15986284  1
  O2-  O292  1  0.00555774  0.67169161  0.50791733  1
  O2-  O293  1  -0.00766562  0.68288379  0.81937870  1
  O2-  O294  1  0.33438033  0.19212379  0.16756492  1
  O2-  O295  1  0.32649257  0.17509828  0.48954531  1
  O2-  O296  1  0.33096888  0.18357626  0.84271435  1
  O2-  O297  1  0.33409554  0.67641623  0.17197656  1
  O2-  O298  1  0.32943347  0.68391688  0.49579295  1
  O2-  O299  1  0.33503500  0.66936617  0.83305348  1
  O2-  O300  1  0.66056224  0.18221553  0.17515814  1
  O2-  O301  1  0.66231165  0.17534639  0.49424568  1
  O2-  O302  1  0.66397929  0.18601747  0.84139263  1
  O2-  O303  1  0.67061041  0.68441083  0.17207623  1
  O2-  O304  1  0.65699085  0.68466528  0.50868477  1
  O2-  O305  1  0.67202084  0.69312833  0.83915616  1
  O2-  O306  1  0.16687261  0.18499770  0.17471645  1
  O2-  O307  1  0.16779064  0.18228582  0.48973147  1
  O2-  O308  1  0.16766486  0.18161703  0.84131478  1
  O2-  O309  1  0.15629040  0.68143966  0.17946426  1
  O2-  O310  1  0.16794689  0.67516982  0.50258088  1
  O2-  O311  1  0.16352181  0.68083553  0.82448692  1
  O2-  O312  1  0.49946882  0.19665839  0.16960330  1
  O2-  O313  1  0.50228890  0.18399931  0.49366515  1
  O2-  O314  1  0.49508709  0.18420573  0.83763372  1
  O2-  O315  1  0.49820262  0.68109414  0.16809801  1
  O2-  O316  1  0.49888805  0.68541512  0.50499308  1
  O2-  O317  1  0.49905082  0.69090187  0.83056387  1
  O2-  O318  1  0.83849966  0.18021036  0.17299513  1
  O2-  O319  1  0.83445413  0.18738954  0.50021158  1
  O2-  O320  1  0.82717282  0.17224206  0.85156130  1
  O2-  O321  1  0.83300916  0.68486073  0.17510540  1
  O2-  O322  1  0.84635332  0.67726698  0.49592943  1
  O2-  O323  1  0.82792377  0.66903481  0.83653389  1
  O2-  O324  1  -0.00312745  0.30995522  0.15768439  1
  O2-  O325  1  -0.00433179  0.32081457  0.49569150  1
  O2-  O326  1  0.00238035  0.32873891  0.83594734  1
  O2-  O327  1  -0.00544655  0.82424474  0.16027711  1
  O2-  O328  1  -0.00247526  0.82446928  0.49756946  1
  O2-  O329  1  0.00986089  0.81313919  0.83789277  1
  O2-  O330  1  0.33118185  0.32065830  0.15959324  1
  O2-  O331  1  0.32960665  0.32132230  0.50150571  1
  O2-  O332  1  0.33399080  0.32353701  0.83617962  1
  O2-  O333  1  0.33821719  0.82976846  0.17442892  1
  O2-  O334  1  0.32577577  0.81402044  0.49425143  1
  O2-  O335  1  0.33339533  0.82774539  0.83326820  1
  O2-  O336  1  0.66931380  0.31625731  0.16813855  1
  O2-  O337  1  0.67155208  0.32823511  0.50902436  1
  O2-  O338  1  0.67291032  0.31953753  0.84438339  1
  O2-  O339  1  0.66809581  0.82229162  0.16993865  1
  O2-  O340  1  0.67043788  0.81566179  0.50570110  1
  O2-  O341  1  0.66692574  0.81439054  0.83196510  1
  O2-  O342  1  0.16479335  0.31888605  0.17074666  1
  O2-  O343  1  0.16661749  0.31776896  0.50504364  1
  O2-  O344  1  0.16301694  0.31839103  0.84073435  1
  O2-  O345  1  0.17479807  0.81388901  0.15828291  1
  O2-  O346  1  0.16410703  0.81900142  0.50146183  1
  O2-  O347  1  0.16683833  0.81920057  0.83253152  1
  O2-  O348  1  0.50141533  0.31394054  0.16210977  1
  O2-  O349  1  0.49673935  0.32220520  0.49999443  1
  O2-  O350  1  0.50537079  0.32715384  0.82803036  1
  O2-  O351  1  0.49635070  0.82892351  0.17397085  1
  O2-  O352  1  0.50544663  0.81260348  0.49454302  1
  O2-  O353  1  0.49926149  0.81443830  0.83706459  1
  O2-  O354  1  0.83333285  0.31519380  0.16668594  1
  O2-  O355  1  0.83163079  0.31921693  0.50673112  1
  O2-  O356  1  0.82704190  0.32880313  0.84451782  1
  O2-  O357  1  0.82632305  0.82605288  0.17421790  1
  O2-  O358  1  0.83984717  0.82230200  0.49497513  1
  O2-  O359  1  0.84247151  0.82466977  0.82459651  1
  O2-  O360  1  0.06295908  0.08141457  0.10207835  1
  O2-  O361  1  0.09636994  0.08545833  0.46042223  1
  O2-  O362  1  0.07831571  0.08084173  0.75657951  1
  O2-  O363  1  0.07681972  0.58168913  0.12196620  1
  O2-  O364  1  0.08843025  0.56738792  0.44162584  1
  O2-  O365  1  0.07095242  0.57332702  0.78762143  1
  O2-  O366  1  0.43494668  0.08896443  0.10315541  1
  O2-  O367  1  0.41821157  0.07983435  0.44963738  1
  O2-  O368  1  0.41888759  0.07308750  0.76338244  1
  O2-  O369  1  0.42111131  0.58116605  0.10406355  1
  O2-  O370  1  0.42986410  0.58438870  0.46052139  1
  O2-  O371  1  0.43458254  0.57586354  0.78620658  1
  O2-  O372  1  0.74647895  0.08086920  0.09036068  1
  O2-  O373  1  0.74655995  0.08354235  0.44573882  1
  O2-  O374  1  0.75157831  0.07002717  0.81176892  1
  O2-  O375  1  0.75481136  0.57968564  0.13225970  1
  O2-  O376  1  0.74229470  0.58594515  0.42443602  1
  O2-  O377  1  0.73815978  0.57966210  0.77339986  1
  O2-  O378  1  0.23409756  0.08120498  0.22453088  1
  O2-  O379  1  0.25072688  0.07451015  0.54451932  1
  O2-  O380  1  0.25890546  0.08488031  0.90471226  1
  O2-  O381  1  0.23880739  0.58463651  0.23038896  1
  O2-  O382  1  0.23519820  0.58282542  0.54655011  1
  O2-  O383  1  0.25481671  0.56478803  0.87463874  1
  O2-  O384  1  0.59459370  0.08039644  0.22205702  1
  O2-  O385  1  0.56329397  0.08381598  0.55745685  1
  O2-  O386  1  0.56511230  0.08208283  0.89458320  1
  O2-  O387  1  0.59707496  0.57616990  0.20733051  1
  O2-  O388  1  0.59206077  0.58308658  0.57584387  1
  O2-  O389  1  0.60313459  0.58475272  0.86353894  1
  O2-  O390  1  0.92183125  0.08157772  0.22093181  1
  O2-  O391  1  0.94971435  0.08401592  0.56613339  1
  O2-  O392  1  0.92308806  0.08363674  0.89446303  1
  O2-  O393  1  0.90357377  0.58313652  0.21453338  1
  O2-  O394  1  0.93423854  0.58151534  0.55442704  1
  O2-  O395  1  0.90945377  0.57627099  0.87485516  1
  O2-  O396  1  0.07528251  0.42159664  0.13521400  1
  O2-  O397  1  0.07959773  0.41583740  0.43955782  1
  O2-  O398  1  0.09311016  0.41974389  0.76995798  1
  O2-  O399  1  0.10072544  0.91697419  0.11384975  1
  O2-  O400  1  0.07948649  0.91614153  0.44877365  1
  O2-  O401  1  0.08096572  0.91839085  0.77865805  1
  O2-  O402  1  0.42186710  0.40936338  0.08353172  1
  O2-  O403  1  0.40525652  0.42034051  0.44274570  1
  O2-  O404  1  0.42409352  0.42358457  0.78433046  1
  O2-  O405  1  0.41334967  0.92642969  0.12361660  1
  O2-  O406  1  0.42040267  0.91479712  0.44555018  1
  O2-  O407  1  0.42543942  0.92268028  0.78304275  1
  O2-  O408  1  0.75893437  0.41662659  0.10927211  1
  O2-  O409  1  0.75979901  0.41842571  0.44372967  1
  O2-  O410  1  0.75015134  0.41655713  0.77903335  1
  O2-  O411  1  0.74502911  0.91777076  0.10709378  1
  O2-  O412  1  0.74636356  0.91699610  0.45618807  1
  O2-  O413  1  0.74666072  0.92330627  0.77919605  1
  O2-  O414  1  0.24225471  0.41702165  0.21989786  1
  O2-  O415  1  0.23548230  0.42235340  0.55343548  1
  O2-  O416  1  0.24691131  0.41698905  0.90491007  1
  O2-  O417  1  0.26400061  0.92379231  0.22195848  1
  O2-  O418  1  0.24020139  0.91364874  0.55201172  1
  O2-  O419  1  0.23083278  0.91937090  0.87941541  1
  O2-  O420  1  0.59563026  0.42042168  0.20305919  1
  O2-  O421  1  0.60712241  0.41807401  0.58379526  1
  O2-  O422  1  0.60471379  0.42236450  0.87876437  1
  O2-  O423  1  0.59548394  0.92236436  0.21374037  1
  O2-  O424  1  0.59150122  0.91474952  0.55384342  1
  O2-  O425  1  0.57752314  0.92366289  0.87871209  1
  O2-  O426  1  0.91144683  0.41521042  0.21682146  1
  O2-  O427  1  0.88950957  0.42240440  0.55476315  1
  O2-  O428  1  0.90488685  0.41919000  0.90307032  1
  O2-  O429  1  0.90163434  0.92516803  0.21559523  1
  O2-  O430  1  0.91588984  0.92213472  0.55071991  1
  O2-  O431  1  0.94119945  0.91684593  0.87795254  1
  O2-  O432  1  -0.00380516  -0.01236903  0.00437913  1
  O2-  O433  1  -0.00889400  -0.00981486  0.34484301  1
  O2-  O434  1  0.00691222  -0.01316573  0.65786010  1
  O2-  O435  1  -0.01792503  0.49835422  0.02586368  1
  O2-  O436  1  0.00048029  0.49878332  0.31869139  1
  O2-  O437  1  -0.00086917  0.51075366  0.66689097  1
  O2-  O438  1  0.33683836  -0.01639465  -0.01316093  1
  O2-  O439  1  0.33594275  -0.00642150  0.33635451  1
  O2-  O440  1  0.33142053  -0.00975381  0.68435188  1
  O2-  O441  1  0.33368895  0.49187370  -0.00869954  1
  O2-  O442  1  0.31459800  0.50796984  0.37381172  1
  O2-  O443  1  0.31186418  0.51162449  0.68917133  1
  O2-  O444  1  0.66621438  0.01368997  -0.01370687  1
  O2-  O445  1  0.66605760  -0.00830329  0.33457353  1
  O2-  O446  1  0.66651153  -0.01738376  0.65735718  1
  O2-  O447  1  0.67127069  0.51113505  -0.00923845  1
  O2-  O448  1  0.67057710  0.50576122  0.32717216  1
  O2-  O449  1  0.65697717  0.48927529  0.69874158  1
  O2-  O450  1  0.15905419  -0.01070793  -0.01339123  1
  O2-  O451  1  0.18085276  0.00728477  0.35658188  1
  O2-  O452  1  0.16599616  -0.00163154  0.66532638  1
  O2-  O453  1  0.15085744  0.50051219  -0.02432799  1
  O2-  O454  1  0.15716270  0.50765033  0.31179496  1
  O2-  O455  1  0.15091473  0.52196032  0.65361095  1
  O2-  O456  1  0.50663967  -0.01347803  0.00639575  1
  O2-  O457  1  0.50021896  -0.01450782  0.33589851  1
  O2-  O458  1  0.50158028  -0.00525900  0.67051933  1
  O2-  O459  1  0.50421570  0.49568262  0.00264586  1
  O2-  O460  1  0.49172901  0.51279051  0.33877504  1
  O2-  O461  1  0.50708954  0.49618537  0.69398769  1
  O2-  O462  1  0.83396666  0.00908611  -0.00299723  1
  O2-  O463  1  0.82332499  -0.01009116  0.32566020  1
  O2-  O464  1  0.83591926  -0.01004012  0.67005766  1
  O2-  O465  1  0.82259068  0.50726899  -0.02243385  1
  O2-  O466  1  0.83290895  0.50466560  0.33452717  1
  O2-  O467  1  0.84452999  0.51630861  0.67608154  1
  O2-  O468  1  0.90689929  0.74690497  0.94486906  1
  O2-  O469  1  0.08108303  0.25416639  0.74094110  1
  O2-  O470  1  0.57995435  0.75467548  0.27436879  1
  O2-  O471  1  0.75262292  0.24999820  0.74094780  1
  O2-  O472  1  0.41383017  0.74406142  0.38297050  1
  O2-  O473  1  0.40078521  0.74575888  0.72574968  1
  O2-  O474  1  0.58733891  0.25315534  0.59473604  1
  O2-  O475  1  0.25279960  0.75439165  0.93598734  1
  O2-  O476  1  0.41940243  0.25448378  0.73778242  1
  O2-  O477  1  0.91364795  0.25462121  0.93511189  1
  O2-  O478  1  0.25325642  0.74713049  0.61150063  1
  O2-  O479  1  0.07885368  0.75274452  0.39948070  1
  O2-  O480  1  0.74009954  0.25168289  0.39569387  1
  O2-  O481  1  0.25817938  0.74898169  0.27748648  1
  O2-  O482  1  0.25335785  0.24961553  0.27960011  1
  O2-  O483  1  0.41549123  0.75062293  0.06891634  1
  O2-  O484  1  0.74831518  0.25425212  0.05503013  1
  O2-  O485  1  0.08731384  0.25070231  0.38736684  1
  O2-  O486  1  0.40175721  0.25145315  0.39435841  1
  O2-  O487  1  0.75436016  0.75578967  0.39516254  1
  O2-  O488  1  0.75927905  0.74954028  0.05507716  1
  O2-  O489  1  0.91458638  0.74959490  0.60679479  1
  O2-  O490  1  0.76383165  0.75168201  0.72109090  1
  O2-  O491  1  0.07419945  0.75057871  0.05861929  1
  O2-  O492  1  0.91983166  0.75188902  0.27563934  1
