# generated using pymatgen
data_Ca108Mn108O277
_symmetry_space_group_name_H-M   'P 1'
_cell_length_a   16.02503422
_cell_length_b   22.30323632
_cell_length_c   16.38817659
_cell_angle_alpha   90.00122880
_cell_angle_beta   90.00295238
_cell_angle_gamma   89.99639947
_symmetry_Int_Tables_number   1
_chemical_formula_structural   Ca108Mn108O277
_chemical_formula_sum   'Ca108 Mn108 O277'
_cell_volume   5857.30022736
_cell_formula_units_Z   1
loop_
 _symmetry_equiv_pos_site_id
 _symmetry_equiv_pos_as_xyz
  1  'x, y, z'
loop_
 _atom_type_symbol
 _atom_type_oxidation_number
  Ca2+  2.0
  Mn3.34+  3.34
  O2-  -2.0
loop_
 _atom_site_type_symbol
 _atom_site_label
 _atom_site_symmetry_multiplicity
 _atom_site_fract_x
 _atom_site_fract_y
 _atom_site_fract_z
 _atom_site_occupancy
  Ca2+  Ca0  1  0.08229786  0.26738924  0.25121626  1
  Ca2+  Ca1  1  0.06991897  0.23744467  0.59156293  1
  Ca2+  Ca2  1  0.07928510  0.24760160  0.91533390  1
  Ca2+  Ca3  1  0.09336456  0.73935349  0.25176690  1
  Ca2+  Ca4  1  0.08570672  0.75636033  0.57373021  1
  Ca2+  Ca5  1  0.10445419  0.74873370  0.92371254  1
  Ca2+  Ca6  1  0.42536719  0.25605299  0.23229112  1
  Ca2+  Ca7  1  0.42349240  0.24658559  0.58692217  1
  Ca2+  Ca8  1  0.41482279  0.24142895  0.93151677  1
  Ca2+  Ca9  1  0.41428282  0.72834986  0.27255202  1
  Ca2+  Ca10  1  0.41448115  0.73538309  0.54887913  1
  Ca2+  Ca11  1  0.39288870  0.76031486  0.91707322  1
  Ca2+  Ca12  1  0.73905280  0.25435739  0.26150776  1
  Ca2+  Ca13  1  0.76047627  0.22917309  0.57397524  1
  Ca2+  Ca14  1  0.75115637  0.26471786  0.91429755  1
  Ca2+  Ca15  1  0.74452440  0.75627013  0.25863061  1
  Ca2+  Ca16  1  0.75707562  0.75460628  0.57855025  1
  Ca2+  Ca17  1  0.76353180  0.76207543  0.90499555  1
  Ca2+  Ca18  1  0.23194064  0.24018649  0.07493566  1
  Ca2+  Ca19  1  0.23735651  0.25570516  0.42070072  1
  Ca2+  Ca20  1  0.23316762  0.24163936  0.74687047  1
  Ca2+  Ca21  1  0.24303766  0.75282514  0.07626671  1
  Ca2+  Ca22  1  0.25545002  0.74105981  0.41569871  1
  Ca2+  Ca23  1  0.24509769  0.76534025  0.75359328  1
  Ca2+  Ca24  1  0.57603022  0.24017863  0.09063628  1
  Ca2+  Ca25  1  0.60078477  0.25329900  0.42072469  1
  Ca2+  Ca26  1  0.59128741  0.23464807  0.73890847  1
  Ca2+  Ca27  1  0.58245205  0.75152285  0.09960819  1
  Ca2+  Ca28  1  0.57512362  0.73908825  0.41697024  1
  Ca2+  Ca29  1  0.59880361  0.75508621  0.73460064  1
  Ca2+  Ca30  1  0.92267295  0.25876185  0.07771867  1
  Ca2+  Ca31  1  0.90767648  0.25395371  0.42587667  1
  Ca2+  Ca32  1  0.92164616  0.24578474  0.74387267  1
  Ca2+  Ca33  1  0.92946007  0.75870266  0.08604772  1
  Ca2+  Ca34  1  0.92063589  0.75117009  0.42475114  1
  Ca2+  Ca35  1  0.91925759  0.77289922  0.73981774  1
  Ca2+  Ca36  1  0.91604667  0.58844704  0.72821338  1
  Ca2+  Ca37  1  0.25323536  0.09506650  0.07138617  1
  Ca2+  Ca38  1  0.59271928  0.58804908  0.73282357  1
  Ca2+  Ca39  1  0.88552072  0.09984920  0.44777655  1
  Ca2+  Ca40  1  0.21508618  0.61082944  0.08211938  1
  Ca2+  Ca41  1  0.97679338  0.58293860  0.08998521  1
  Ca2+  Ca42  1  0.20719321  0.09732096  0.74480636  1
  Ca2+  Ca43  1  0.92627605  0.07268701  0.08321686  1
  Ca2+  Ca44  1  0.07859053  0.07860947  0.25783005  1
  Ca2+  Ca45  1  0.77043880  0.08010711  0.26176056  1
  Ca2+  Ca46  1  0.75992270  0.08372784  0.26687560  1
  Ca2+  Ca47  1  0.08109585  0.59496038  0.56762999  1
  Ca2+  Ca48  1  0.74290469  0.57004762  0.28890872  1
  Ca2+  Ca49  1  0.38379258  0.60888050  0.93045479  1
  Ca2+  Ca50  1  0.75345144  0.59113069  0.92212928  1
  Ca2+  Ca51  1  0.41194403  0.10476042  0.59947113  1
  Ca2+  Ca52  1  0.39944117  0.10428840  0.91532632  1
  Ca2+  Ca53  1  0.96703574  0.09430283  0.72381014  1
  Ca2+  Ca54  1  0.39625029  0.60751775  0.93130813  1
  Ca2+  Ca55  1  0.54739904  0.58447088  0.40913447  1
  Ca2+  Ca56  1  0.41612189  0.10068369  0.24015737  1
  Ca2+  Ca57  1  0.75629379  0.59506414  0.56277380  1
  Ca2+  Ca58  1  0.87541332  0.10124039  0.44657397  1
  Ca2+  Ca59  1  0.27773309  0.59068013  0.41074905  1
  Ca2+  Ca60  1  0.40898248  0.09464778  0.23858228  1
  Ca2+  Ca61  1  0.62366510  0.09995007  0.42819169  1
  Ca2+  Ca62  1  0.21731018  0.09714649  0.74204482  1
  Ca2+  Ca63  1  0.61231832  0.10073056  0.42312084  1
  Ca2+  Ca64  1  0.91331918  0.07172924  0.08421451  1
  Ca2+  Ca65  1  0.75320173  0.08047844  0.92132114  1
  Ca2+  Ca66  1  0.74023759  0.59128528  0.92287531  1
  Ca2+  Ca67  1  0.58624130  0.60106267  0.10075532  1
  Ca2+  Ca68  1  0.24487894  0.08877286  0.42340163  1
  Ca2+  Ca69  1  0.09138838  0.07826442  0.25693914  1
  Ca2+  Ca70  1  0.09130220  0.09612460  0.91478750  1
  Ca2+  Ca71  1  0.73252644  0.56912139  0.28723956  1
  Ca2+  Ca72  1  0.76879579  0.91142832  0.93042419  1
  Ca2+  Ca73  1  0.89794769  0.42592606  0.39680587  1
  Ca2+  Ca74  1  0.59974540  0.90555037  0.41403182  1
  Ca2+  Ca75  1  0.62097110  0.42760240  0.41118360  1
  Ca2+  Ca76  1  0.75634553  0.41380573  0.26433225  1
  Ca2+  Ca77  1  0.08767157  0.92141088  0.61360029  1
  Ca2+  Ca78  1  0.61030967  0.42478019  0.40934373  1
  Ca2+  Ca79  1  0.58976175  0.39888690  0.09621084  1
  Ca2+  Ca80  1  0.41238557  0.39995090  0.91352050  1
  Ca2+  Ca81  1  0.40073899  0.90041826  0.57830644  1
  Ca2+  Ca82  1  0.25311062  0.39760388  0.74003067  1
  Ca2+  Ca83  1  0.08178660  0.91094615  0.25089398  1
  Ca2+  Ca84  1  0.23919377  0.90741061  0.41376910  1
  Ca2+  Ca85  1  0.41413954  0.40616139  0.56736339  1
  Ca2+  Ca86  1  0.42500114  0.40042737  0.91238144  1
  Ca2+  Ca87  1  0.59756085  0.90481836  0.07805122  1
  Ca2+  Ca88  1  0.91442343  0.39206480  0.75052431  1
  Ca2+  Ca89  1  0.07078653  0.90969759  0.24991795  1
  Ca2+  Ca90  1  0.43576614  0.42899497  0.29159192  1
  Ca2+  Ca91  1  0.21939681  0.40400012  0.09670942  1
  Ca2+  Ca92  1  0.76175464  0.90880824  0.57641020  1
  Ca2+  Ca93  1  0.38251364  0.91323381  0.24904337  1
  Ca2+  Ca94  1  0.90545078  0.92225192  0.40243453  1
  Ca2+  Ca95  1  0.59163169  0.89940322  0.75675467  1
  Ca2+  Ca96  1  0.41225634  0.90058848  0.57913697  1
  Ca2+  Ca97  1  0.06656674  0.41516111  0.95099288  1
  Ca2+  Ca98  1  0.59539004  0.39788707  0.74582621  1
  Ca2+  Ca99  1  0.58412345  0.39768224  0.74476536  1
  Ca2+  Ca100  1  0.23004894  0.40308131  0.09318041  1
  Ca2+  Ca101  1  0.78006700  0.92411390  0.25541654  1
  Ca2+  Ca102  1  0.24026454  0.39752964  0.74063847  1
  Ca2+  Ca103  1  0.42716084  0.43308893  0.29310934  1
  Ca2+  Ca104  1  0.23484713  0.40965654  0.41801254  1
  Ca2+  Ca105  1  0.39332960  0.91233482  0.25414407  1
  Ca2+  Ca106  1  0.58712348  0.90060136  0.07317118  1
  Ca2+  Ca107  1  0.08547534  0.90541644  0.89884195  1
  Mn3.34+  Mn108  1  0.07098906  0.32902937  0.08728532  1
  Mn3.34+  Mn109  1  0.07426243  0.33345219  0.42106541  1
  Mn3.34+  Mn110  1  0.07809298  0.32556427  0.74979551  1
  Mn3.34+  Mn111  1  0.08509729  0.83736747  0.08260061  1
  Mn3.34+  Mn112  1  0.08189945  0.83285204  0.41948269  1
  Mn3.34+  Mn113  1  0.08344027  0.84052331  0.75007251  1
  Mn3.34+  Mn114  1  0.41523914  0.33110350  0.08784577  1
  Mn3.34+  Mn115  1  0.41471735  0.32913192  0.42085550  1
  Mn3.34+  Mn116  1  0.41734780  0.30842738  0.74928933  1
  Mn3.34+  Mn117  1  0.41298598  0.83470055  0.08516540  1
  Mn3.34+  Mn118  1  0.41705473  0.83406540  0.41402973  1
  Mn3.34+  Mn119  1  0.41599735  0.83515461  0.75495400  1
  Mn3.34+  Mn120  1  0.75308693  0.32701405  0.08660445  1
  Mn3.34+  Mn121  1  0.75631113  0.33189766  0.42190842  1
  Mn3.34+  Mn122  1  0.75489435  0.32467861  0.74449300  1
  Mn3.34+  Mn123  1  0.75969084  0.83975318  0.09080783  1
  Mn3.34+  Mn124  1  0.75308010  0.83596531  0.41623883  1
  Mn3.34+  Mn125  1  0.75659891  0.84085131  0.75033549  1
  Mn3.34+  Mn126  1  0.25052431  0.33513116  0.25243601  1
  Mn3.34+  Mn127  1  0.24563068  0.33022446  0.57624998  1
  Mn3.34+  Mn128  1  0.24661916  0.32627746  0.91643683  1
  Mn3.34+  Mn129  1  0.24452717  0.82971417  0.24615082  1
  Mn3.34+  Mn130  1  0.24515830  0.82999158  0.58408112  1
  Mn3.34+  Mn131  1  0.24934102  0.83651245  0.91790877  1
  Mn3.34+  Mn132  1  0.58358011  0.33424418  0.24978915  1
  Mn3.34+  Mn133  1  0.58506612  0.33453087  0.57504217  1
  Mn3.34+  Mn134  1  0.59112096  0.33503544  0.92105711  1
  Mn3.34+  Mn135  1  0.58528501  0.83183191  0.25086500  1
  Mn3.34+  Mn136  1  0.58681274  0.83157067  0.58024916  1
  Mn3.34+  Mn137  1  0.58187152  0.82429866  0.91351784  1
  Mn3.34+  Mn138  1  0.91497239  0.34250694  0.24670142  1
  Mn3.34+  Mn139  1  0.91635769  0.34091061  0.57747836  1
  Mn3.34+  Mn140  1  0.91222471  0.33819639  0.91917166  1
  Mn3.34+  Mn141  1  0.91795919  0.83305319  0.24932655  1
  Mn3.34+  Mn142  1  0.92054432  0.83696471  0.58061541  1
  Mn3.34+  Mn143  1  0.92335961  0.83446769  0.91701622  1
  Mn3.34+  Mn144  1  0.75420802  0.15977564  0.74230961  1
  Mn3.34+  Mn145  1  0.08635547  0.66157382  0.41374288  1
  Mn3.34+  Mn146  1  0.91862297  0.66776759  0.57541328  1
  Mn3.34+  Mn147  1  0.57740867  0.16260730  0.91340377  1
  Mn3.34+  Mn148  1  0.07962745  0.16844665  0.42672382  1
  Mn3.34+  Mn149  1  0.58377065  0.17112713  0.58614805  1
  Mn3.34+  Mn150  1  0.24587516  0.17783971  0.24896060  1
  Mn3.34+  Mn151  1  0.24672972  0.17032122  0.25528815  1
  Mn3.34+  Mn152  1  0.91768642  0.66770671  0.91774118  1
  Mn3.34+  Mn153  1  0.40713048  0.66377063  0.73980174  1
  Mn3.34+  Mn154  1  0.75515289  0.67161658  0.74276099  1
  Mn3.34+  Mn155  1  0.58477868  0.66429038  0.57438067  1
  Mn3.34+  Mn156  1  0.41966256  0.67051805  0.73695764  1
  Mn3.34+  Mn157  1  0.58190674  0.16747734  0.24613447  1
  Mn3.34+  Mn158  1  0.58355052  0.66585190  0.25326957  1
  Mn3.34+  Mn159  1  0.91879844  0.17900429  0.25038334  1
  Mn3.34+  Mn160  1  0.58819718  0.16617890  0.91291584  1
  Mn3.34+  Mn161  1  0.08542369  0.66884633  0.74653310  1
  Mn3.34+  Mn162  1  0.92737957  0.17283197  0.24793541  1
  Mn3.34+  Mn163  1  0.91928258  0.15881463  0.91236640  1
  Mn3.34+  Mn164  1  0.74711987  0.16316106  0.08729269  1
  Mn3.34+  Mn165  1  0.25001734  0.16980210  0.57788271  1
  Mn3.34+  Mn166  1  0.41319992  0.67554044  0.09571045  1
  Mn3.34+  Mn167  1  0.92366494  0.65921735  0.24969221  1
  Mn3.34+  Mn168  1  0.58754105  0.68449575  0.91487246  1
  Mn3.34+  Mn169  1  0.74964595  0.66859267  0.41930796  1
  Mn3.34+  Mn170  1  0.57893578  0.67845810  0.91396209  1
  Mn3.34+  Mn171  1  0.41820354  0.16885681  0.42242587  1
  Mn3.34+  Mn172  1  0.24846688  0.16673472  0.91233749  1
  Mn3.34+  Mn173  1  0.09546060  0.66380850  0.74771427  1
  Mn3.34+  Mn174  1  0.91429599  0.66482775  0.25065548  1
  Mn3.34+  Mn175  1  0.93125521  0.66160227  0.91710676  1
  Mn3.34+  Mn176  1  0.24749381  0.66655669  0.24797506  1
  Mn3.34+  Mn177  1  0.90910845  0.16378630  0.91338907  1
  Mn3.34+  Mn178  1  0.75393646  0.66959771  0.09373249  1
  Mn3.34+  Mn179  1  0.25027661  0.66243380  0.57410536  1
  Mn3.34+  Mn180  1  0.41146084  0.00425438  0.41282086  1
  Mn3.34+  Mn181  1  0.76447309  0.49322961  0.75271559  1
  Mn3.34+  Mn182  1  0.07643781  0.49488658  0.75294243  1
  Mn3.34+  Mn183  1  0.22633055  0.50936127  0.91857451  1
  Mn3.34+  Mn184  1  0.40502333  -0.00464900  0.75634176  1
  Mn3.34+  Mn185  1  0.40361384  0.50676788  0.74716710  1
  Mn3.34+  Mn186  1  0.42225671  0.50402728  0.09123173  1
  Mn3.34+  Mn187  1  0.58569712  0.00136298  0.91173069  1
  Mn3.34+  Mn188  1  0.91851983  -0.00134408  0.91315157  1
  Mn3.34+  Mn189  1  0.57541644  -0.00393709  0.91251788  1
  Mn3.34+  Mn190  1  0.58603711  0.50209274  0.91718971  1
  Mn3.34+  Mn191  1  0.75961396  -0.00128332  0.75164536  1
  Mn3.34+  Mn192  1  0.76891922  0.49507349  0.08718594  1
  Mn3.34+  Mn193  1  0.41595497  0.49904421  0.74960392  1
  Mn3.34+  Mn194  1  0.23871183  0.50220651  0.91271903  1
  Mn3.34+  Mn195  1  0.07697654  0.49800571  0.39839756  1
  Mn3.34+  Mn196  1  0.75788866  0.49842952  0.08829039  1
  Mn3.34+  Mn197  1  0.41644753  0.00363756  0.75827064  1
  Mn3.34+  Mn198  1  0.92297166  -0.00683148  0.60355485  1
  Mn3.34+  Mn199  1  0.91955912  0.50101219  0.57566669  1
  Mn3.34+  Mn200  1  0.40612525  -0.00427851  0.06653065  1
  Mn3.34+  Mn201  1  0.57560583  -0.00471790  0.24288357  1
  Mn3.34+  Mn202  1  0.40965456  0.49934004  0.09099274  1
  Mn3.34+  Mn203  1  0.24596894  0.50968893  0.25984714  1
  Mn3.34+  Mn204  1  0.24735026  0.49953636  0.58007446  1
  Mn3.34+  Mn205  1  0.92707165  0.50221996  0.92134818  1
  Mn3.34+  Mn206  1  0.08295857  0.00141033  0.41326968  1
  Mn3.34+  Mn207  1  0.09514352  -0.00439135  0.06523972  1
  Mn3.34+  Mn208  1  0.24871956  0.00167242  0.58732108  1
  Mn3.34+  Mn209  1  0.58678861  0.00233841  0.59165603  1
  Mn3.34+  Mn210  1  0.58914864  0.00227288  0.24033562  1
  Mn3.34+  Mn211  1  0.75329606  0.49765406  0.75307221  1
  Mn3.34+  Mn212  1  0.25083714  0.00012494  0.91303065  1
  Mn3.34+  Mn213  1  0.59835667  0.00726538  0.59293220  1
  Mn3.34+  Mn214  1  0.08915560  0.50185937  0.75282067  1
  Mn3.34+  Mn215  1  0.58291644  0.50178492  0.58285771  1
  O2-  O216  1  -0.00854217  0.14339841  -0.00057337  1
  O2-  O217  1  0.00407856  0.15093772  0.33232843  1
  O2-  O218  1  -0.01623418  0.18052682  0.66219460  1
  O2-  O219  1  -0.00177628  0.66750208  0.00571868  1
  O2-  O220  1  -0.00157707  0.65688639  0.33572766  1
  O2-  O221  1  0.00544015  0.65110714  0.66577532  1
  O2-  O222  1  0.32551053  0.16780466  -0.00339407  1
  O2-  O223  1  0.33511154  0.17176931  0.33331739  1
  O2-  O224  1  0.32706809  0.17719316  0.66069543  1
  O2-  O225  1  0.33664854  0.67356647  0.00935927  1
  O2-  O226  1  0.32863529  0.65960371  0.32717894  1
  O2-  O227  1  0.33092726  0.65043270  0.65898707  1
  O2-  O228  1  0.66550611  0.14228650  -0.00839787  1
  O2-  O229  1  0.67062748  0.14748151  0.31967773  1
  O2-  O230  1  0.66886408  0.15785293  0.66235602  1
  O2-  O231  1  0.66801166  0.66640767  0.00391851  1
  O2-  O232  1  0.66828368  0.65965732  0.33368460  1
  O2-  O233  1  0.66697798  0.65647374  0.66788134  1
  O2-  O234  1  0.16844098  0.16751619  -0.00732702  1
  O2-  O235  1  0.16776972  0.15343961  0.33633808  1
  O2-  O236  1  0.16887952  0.17031728  0.65791256  1
  O2-  O237  1  0.15858913  0.68610311  0.01409463  1
  O2-  O238  1  0.17068672  0.65542853  0.33707643  1
  O2-  O239  1  0.16429971  0.65246064  0.65842869  1
  O2-  O240  1  0.49941585  0.15717473  -0.00794321  1
  O2-  O241  1  0.50094292  0.14778912  0.33841143  1
  O2-  O242  1  0.49738027  0.17313615  0.65889620  1
  O2-  O243  1  0.49558923  0.67487712  -0.00027149  1
  O2-  O244  1  0.50581336  0.65871837  0.32838752  1
  O2-  O245  1  0.50234766  0.64788353  0.66429261  1
  O2-  O246  1  0.83560763  0.14513009  0.00065072  1
  O2-  O247  1  0.83592792  0.15846839  0.32664888  1
  O2-  O248  1  0.84219452  0.16644577  0.67777543  1
  O2-  O249  1  0.82916708  0.65122630  0.00131442  1
  O2-  O250  1  0.82754144  0.65200859  0.32472956  1
  O2-  O251  1  0.83510403  0.65213219  0.66239284  1
  O2-  O252  1  -0.00394485  0.34019856  0.00064213  1
  O2-  O253  1  -0.00920923  0.33030112  0.33211507  1
  O2-  O254  1  -0.00434153  0.33689848  0.66904873  1
  O2-  O255  1  0.00498123  0.82300578  0.00047617  1
  O2-  O256  1  -0.00046482  0.84965889  0.33655303  1
  O2-  O257  1  0.00251671  0.84445844  0.66134522  1
  O2-  O258  1  0.32806473  0.35055381  0.00120909  1
  O2-  O259  1  0.34055920  0.32173912  0.32913687  1
  O2-  O260  1  0.32817872  0.32803454  0.66602397  1
  O2-  O261  1  0.33269060  0.82718045  0.00555171  1
  O2-  O262  1  0.32732567  0.84734237  0.33765578  1
  O2-  O263  1  0.33349347  0.84835926  0.66651059  1
  O2-  O264  1  0.66667135  0.34777750  0.00569127  1
  O2-  O265  1  0.66561387  0.34837365  0.33078829  1
  O2-  O266  1  0.66567950  0.34436956  0.66289773  1
  O2-  O267  1  0.66750351  0.83063086  0.00205350  1
  O2-  O268  1  0.67264521  0.84802027  0.32738111  1
  O2-  O269  1  0.66790432  0.84527434  0.66595361  1
  O2-  O270  1  0.16750862  0.33821203  -0.00043550  1
  O2-  O271  1  0.17313772  0.33439514  0.33688616  1
  O2-  O272  1  0.16940809  0.33280998  0.66810761  1
  O2-  O273  1  0.16232101  0.83194682  -0.00143619  1
  O2-  O274  1  0.15880293  0.84961281  0.32883560  1
  O2-  O275  1  0.16371871  0.84017445  0.66217127  1
  O2-  O276  1  0.49781907  0.35320317  0.00052633  1
  O2-  O277  1  0.50019236  0.34283049  0.33711700  1
  O2-  O278  1  0.50001999  0.34637270  0.66480443  1
  O2-  O279  1  0.50492755  0.82130288  0.00522809  1
  O2-  O280  1  0.49347149  0.86027716  0.32624395  1
  O2-  O281  1  0.50130813  0.85228819  0.66391656  1
  O2-  O282  1  0.83084151  0.33187525  0.00306201  1
  O2-  O283  1  0.83406007  0.33313103  0.33193156  1
  O2-  O284  1  0.84003199  0.32322796  0.66809282  1
  O2-  O285  1  0.83095648  0.82940771  0.00023803  1
  O2-  O286  1  0.83528324  0.84783899  0.33146615  1
  O2-  O287  1  0.83355342  0.84663024  0.65982447  1
  O2-  O288  1  0.00580442  0.19011545  0.17280364  1
  O2-  O289  1  -0.00535055  0.17548603  0.49232017  1
  O2-  O290  1  -0.00188984  0.17414120  0.83454597  1
  O2-  O291  1  -0.00145297  0.67773071  0.16863235  1
  O2-  O292  1  0.00598131  0.67923251  0.50363986  1
  O2-  O293  1  -0.00692731  0.67880813  0.81852286  1
  O2-  O294  1  0.33064011  0.18657548  0.17314804  1
  O2-  O295  1  0.33560505  0.19054097  0.49739208  1
  O2-  O296  1  0.32554728  0.19984496  0.84269234  1
  O2-  O297  1  0.32986070  0.69051858  0.16755783  1
  O2-  O298  1  0.32431085  0.67069307  0.49414933  1
  O2-  O299  1  0.34963003  0.67502321  0.83846499  1
  O2-  O300  1  0.66695314  0.17566632  0.17132858  1
  O2-  O301  1  0.65902493  0.17568054  0.49806718  1
  O2-  O302  1  0.66569421  0.17120556  0.83394499  1
  O2-  O303  1  0.66826189  0.68770041  0.16604561  1
  O2-  O304  1  0.67333267  0.68539836  0.50320392  1
  O2-  O305  1  0.67529436  0.68586430  0.83518490  1
  O2-  O306  1  0.16271764  0.18601041  0.17453870  1
  O2-  O307  1  0.16991161  0.18297185  0.49483033  1
  O2-  O308  1  0.16861104  0.17576056  0.83234006  1
  O2-  O309  1  0.17063135  0.68407424  0.16583066  1
  O2-  O310  1  0.16260596  0.68018009  0.50088675  1
  O2-  O311  1  0.16853878  0.68420440  0.82634408  1
  O2-  O312  1  0.49176525  0.17701305  0.18090890  1
  O2-  O313  1  0.50389523  0.18553470  0.49414579  1
  O2-  O314  1  0.49903528  0.18747294  0.83749574  1
  O2-  O315  1  0.50532299  0.68133130  0.16548817  1
  O2-  O316  1  0.50883236  0.66955597  0.49578445  1
  O2-  O317  1  0.50374692  0.68099875  0.82388927  1
  O2-  O318  1  0.83896254  0.19216724  0.16901485  1
  O2-  O319  1  0.84270128  0.18228835  0.49450332  1
  O2-  O320  1  0.82411554  0.18125126  0.84357609  1
  O2-  O321  1  0.83903109  0.69321870  0.16552180  1
  O2-  O322  1  0.83191840  0.68019338  0.50055799  1
  O2-  O323  1  0.82921480  0.67052732  0.84170180  1
  O2-  O324  1  -0.00651071  0.31809123  0.17050723  1
  O2-  O325  1  -0.00374688  0.31064495  0.50462255  1
  O2-  O326  1  0.00264180  0.32556017  0.83569674  1
  O2-  O327  1  0.00800872  0.81753570  0.17444414  1
  O2-  O328  1  0.00072294  0.82262314  0.49777309  1
  O2-  O329  1  0.00453547  0.82326397  0.83595487  1
  O2-  O330  1  0.32346948  0.31818908  0.16101345  1
  O2-  O331  1  0.33317795  0.30984221  0.50024604  1
  O2-  O332  1  0.33732472  0.32254868  0.84356928  1
  O2-  O333  1  0.34258373  0.82299383  0.17865602  1
  O2-  O334  1  0.33806270  0.82545519  0.50377891  1
  O2-  O335  1  0.33222240  0.82588458  0.83223327  1
  O2-  O336  1  0.66367521  0.31979181  0.16912212  1
  O2-  O337  1  0.65650655  0.33450420  0.48659853  1
  O2-  O338  1  0.66152500  0.32861159  0.82474687  1
  O2-  O339  1  0.66787113  0.81619242  0.16196062  1
  O2-  O340  1  0.66609636  0.82111360  0.49590632  1
  O2-  O341  1  0.66500555  0.81520168  0.83269321  1
  O2-  O342  1  0.16807339  0.32098458  0.16529490  1
  O2-  O343  1  0.16531916  0.31996685  0.49787567  1
  O2-  O344  1  0.17451288  0.31769777  0.82674302  1
  O2-  O345  1  0.16334130  0.81623865  0.16793560  1
  O2-  O346  1  0.17204724  0.82477467  0.49238718  1
  O2-  O347  1  0.16204804  0.82483893  0.83510276  1
  O2-  O348  1  0.50455315  0.32226410  0.16436111  1
  O2-  O349  1  0.49490878  0.31432128  0.50113212  1
  O2-  O350  1  0.50156745  0.32582348  0.83634433  1
  O2-  O351  1  0.50708900  0.82472822  0.15983544  1
  O2-  O352  1  0.49710874  0.83137343  0.50093579  1
  O2-  O353  1  0.50439925  0.80532859  0.83084945  1
  O2-  O354  1  0.83234255  0.31150572  0.17481382  1
  O2-  O355  1  0.83083243  0.31550312  0.50598846  1
  O2-  O356  1  0.83770702  0.32134869  0.82830008  1
  O2-  O357  1  0.83534579  0.81700543  0.17109368  1
  O2-  O358  1  0.83423506  0.82486078  0.49946244  1
  O2-  O359  1  0.83531916  0.82972102  0.83603960  1
  O2-  O360  1  0.07035217  0.06725723  0.12562559  1
  O2-  O361  1  0.09199382  0.08176129  0.43791906  1
  O2-  O362  1  0.09430109  0.07026707  0.78663545  1
  O2-  O363  1  0.10157644  0.56866488  0.10672764  1
  O2-  O364  1  0.08689497  0.57273215  0.43877071  1
  O2-  O365  1  0.07244470  0.58116285  0.78475223  1
  O2-  O366  1  0.39190789  0.06971219  0.11781105  1
  O2-  O367  1  0.39981300  0.08321238  0.44706742  1
  O2-  O368  1  0.37939113  0.08077765  0.77416783  1
  O2-  O369  1  0.42811433  0.58642529  0.08381740  1
  O2-  O370  1  0.41263235  0.56721123  0.43853155  1
  O2-  O371  1  0.43415237  0.58111866  0.79448497  1
  O2-  O372  1  0.77827672  0.08122082  0.12960926  1
  O2-  O373  1  0.74825483  0.07673424  0.44220846  1
  O2-  O374  1  0.76320961  0.07878572  0.77919244  1
  O2-  O375  1  0.74363380  0.58003741  0.12473598  1
  O2-  O376  1  0.74163904  0.58600878  0.42898412  1
  O2-  O377  1  0.74682761  0.57858073  0.78826427  1
  O2-  O378  1  0.24482347  0.08580961  0.21963322  1
  O2-  O379  1  0.26571219  0.08109063  0.55969773  1
  O2-  O380  1  0.25455214  0.08166339  0.87784184  1
  O2-  O381  1  0.25380854  0.58283821  0.21376654  1
  O2-  O382  1  0.23003326  0.57840982  0.54929127  1
  O2-  O383  1  0.25635322  0.58838790  0.90619064  1
  O2-  O384  1  0.55983856  0.08136574  0.21782858  1
  O2-  O385  1  0.56419352  0.08495565  0.55347506  1
  O2-  O386  1  0.56704591  0.08071465  0.87703983  1
  O2-  O387  1  0.60277090  0.58457710  0.22903549  1
  O2-  O388  1  0.60645237  0.58170817  0.55353981  1
  O2-  O389  1  0.60122017  0.58780910  0.88704253  1
  O2-  O390  1  0.93266673  0.08415568  0.21678486  1
  O2-  O391  1  0.92368033  0.06524150  0.56478482  1
  O2-  O392  1  0.91525061  0.07774094  0.86882275  1
  O2-  O393  1  0.90083959  0.58297333  0.21181792  1
  O2-  O394  1  0.91997496  0.58301085  0.55854941  1
  O2-  O395  1  0.90545725  0.58034013  0.87956981  1
  O2-  O396  1  0.08990590  0.41114174  0.09645647  1
  O2-  O397  1  0.08354663  0.42159072  0.43751949  1
  O2-  O398  1  0.10350374  0.41532099  0.78242285  1
  O2-  O399  1  0.08340096  0.92315816  0.11731102  1
  O2-  O400  1  0.08634067  0.92281038  0.44543349  1
  O2-  O401  1  0.08544168  0.91809106  0.76390992  1
  O2-  O402  1  0.40724884  0.41834922  0.11722044  1
  O2-  O403  1  0.39853233  0.41051002  0.42957647  1
  O2-  O404  1  0.39244467  0.41824127  0.77982407  1
  O2-  O405  1  0.43923534  0.92566462  0.12421596  1
  O2-  O406  1  0.40839329  0.92299168  0.44449842  1
  O2-  O407  1  0.44149924  0.91869796  0.78153187  1
  O2-  O408  1  0.74715758  0.41412464  0.11893798  1
  O2-  O409  1  0.75643860  0.41668359  0.42752643  1
  O2-  O410  1  0.75415248  0.41063144  0.76285997  1
  O2-  O411  1  0.72556853  0.92236373  0.11714307  1
  O2-  O412  1  0.75025346  0.91725797  0.43739400  1
  O2-  O413  1  0.73715909  0.92222358  0.79490916  1
  O2-  O414  1  0.26165470  0.42726423  0.22224303  1
  O2-  O415  1  0.26557139  0.41827966  0.55431770  1
  O2-  O416  1  0.25495635  0.42261374  0.87573990  1
  O2-  O417  1  0.24674478  0.91422264  0.23046960  1
  O2-  O418  1  0.25716242  0.92110297  0.55379369  1
  O2-  O419  1  0.23070462  0.92121724  0.90681960  1
  O2-  O420  1  0.56213539  0.41717922  0.22917468  1
  O2-  O421  1  0.56506280  0.42004571  0.54575056  1
  O2-  O422  1  0.55474798  0.42602097  0.87098033  1
  O2-  O423  1  0.59242852  0.91577361  0.21516701  1
  O2-  O424  1  0.58625987  0.92291274  0.55001905  1
  O2-  O425  1  0.58296450  0.91239051  0.89927655  1
  O2-  O426  1  0.90399652  0.41725684  0.23775302  1
  O2-  O427  1  0.91502076  0.42248816  0.54348183  1
  O2-  O428  1  0.93065458  0.42467994  0.88422338  1
  O2-  O429  1  0.92814164  0.91441632  0.23337065  1
  O2-  O430  1  0.91950095  0.92564939  0.54570225  1
  O2-  O431  1  0.92243466  0.91770623  0.91051408  1
  O2-  O432  1  0.00201904  0.01422807  -0.00466694  1
  O2-  O433  1  0.01406848  -0.00117742  0.32262325  1
  O2-  O434  1  0.00411557  -0.00267324  0.66650386  1
  O2-  O435  1  0.00983445  0.50617943  -0.00885857  1
  O2-  O436  1  -0.01488617  0.49880110  0.35258057  1
  O2-  O437  1  -0.00063213  0.50447520  0.66611753  1
  O2-  O438  1  0.33896129  0.02156348  -0.01613972  1
  O2-  O439  1  0.35295937  0.00521708  0.30888659  1
  O2-  O440  1  0.35067129  -0.00950812  0.64844229  1
  O2-  O441  1  0.34649703  0.50066600  -0.01818796  1
  O2-  O442  1  0.33849334  0.49985216  0.32322315  1
  O2-  O443  1  0.33573204  0.48849658  0.65821076  1
  O2-  O444  1  0.67817266  -0.00950307  -0.01954077  1
  O2-  O445  1  0.67059077  0.00995407  0.32327384  1
  O2-  O446  1  0.66724071  -0.01523762  0.67950767  1
  O2-  O447  1  0.66719655  0.51619298  0.00794739  1
  O2-  O448  1  0.66798940  0.49245944  0.32940424  1
  O2-  O449  1  0.65421168  0.49630471  0.68868744  1
  O2-  O450  1  0.16849328  0.02580047  -0.00956291  1
  O2-  O451  1  0.16701788  0.00594750  0.33597152  1
  O2-  O452  1  0.17594498  0.01092640  0.66435473  1
  O2-  O453  1  0.18628970  0.48322527  0.01939340  1
  O2-  O454  1  0.18106163  0.49598462  0.35491124  1
  O2-  O455  1  0.17568124  0.48517399  0.67446829  1
  O2-  O456  1  0.51223191  -0.00768511  0.01368812  1
  O2-  O457  1  0.50921913  -0.00313477  0.34098248  1
  O2-  O458  1  0.50281982  0.00874788  0.67480833  1
  O2-  O459  1  0.50030439  0.48767195  0.00347731  1
  O2-  O460  1  0.51332633  0.48561221  0.36519411  1
  O2-  O461  1  0.50221829  0.49576252  0.67297249  1
  O2-  O462  1  0.83769635  0.01415103  -0.01251003  1
  O2-  O463  1  0.83787392  0.01676571  0.32866208  1
  O2-  O464  1  0.82951254  -0.01169743  0.65735832  1
  O2-  O465  1  0.82628365  0.51460515  -0.01426711  1
  O2-  O466  1  0.82113240  0.49416730  0.30581474  1
  O2-  O467  1  0.83314475  0.51094223  0.66102130  1
  O2-  O468  1  0.07922503  0.75168427  0.72317768  1
  O2-  O469  1  0.75823967  0.75136748  0.39442940  1
  O2-  O470  1  0.07979950  0.25363730  0.05947631  1
  O2-  O471  1  0.91071304  0.74952978  0.92430210  1
  O2-  O472  1  0.91794193  0.75043760  0.60267870  1
  O2-  O473  1  0.92070396  0.24611638  0.93777248  1
  O2-  O474  1  0.57432139  0.74854055  0.60107711  1
  O2-  O475  1  0.07653600  0.24894758  0.73753648  1
  O2-  O476  1  0.42634702  0.25536068  0.06583061  1
  O2-  O477  1  0.25214992  0.74786009  0.60301460  1
  O2-  O478  1  0.74119439  0.25370429  0.40038324  1
  O2-  O479  1  0.42255892  0.75503335  0.40397513  1
  O2-  O480  1  0.25036944  0.75544642  0.92057998  1
  O2-  O481  1  0.91780775  0.74699420  0.28110930  1
  O2-  O482  1  0.76101603  0.75520908  0.72774179  1
  O2-  O483  1  0.08200813  0.75133993  0.39537724  1
  O2-  O484  1  0.73692131  0.24551812  0.74207177  1
  O2-  O485  1  0.24488847  0.75032325  0.27898500  1
  O2-  O486  1  0.58024928  0.75274676  0.27768177  1
  O2-  O487  1  0.58365547  0.24900307  0.27649181  1
  O2-  O488  1  0.59387035  0.24769480  0.94417377  1
  O2-  O489  1  0.59418909  0.25389990  0.60043501  1
  O2-  O490  1  0.08354543  0.24765936  0.39140727  1
  O2-  O491  1  0.40940091  0.75287003  0.71942735  1
  O2-  O492  1  0.73615464  0.24440169  0.05585939  1
