# generated using pymatgen
data_Ca108Mn108O277
_symmetry_space_group_name_H-M   'P 1'
_cell_length_a   16.02112268
_cell_length_b   22.29726685
_cell_length_c   16.38380132
_cell_angle_alpha   89.99892758
_cell_angle_beta   90.00047420
_cell_angle_gamma   90.00101682
_symmetry_Int_Tables_number   1
_chemical_formula_structural   Ca108Mn108O277
_chemical_formula_sum   'Ca108 Mn108 O277'
_cell_volume   5852.74025028
_cell_formula_units_Z   1
loop_
 _symmetry_equiv_pos_site_id
 _symmetry_equiv_pos_as_xyz
  1  'x, y, z'
loop_
 _atom_type_symbol
 _atom_type_oxidation_number
  Ca2+  2.0
  Mn3.34+  3.34
  O2-  -2.0
loop_
 _atom_site_type_symbol
 _atom_site_label
 _atom_site_symmetry_multiplicity
 _atom_site_fract_x
 _atom_site_fract_y
 _atom_site_fract_z
 _atom_site_occupancy
  Ca2+  Ca0  1  0.06969360  0.24384241  0.24508039  1
  Ca2+  Ca1  1  0.06417306  0.24179557  0.58148487  1
  Ca2+  Ca2  1  0.06341988  0.25369225  0.92121558  1
  Ca2+  Ca3  1  0.09502278  0.74747003  0.24417208  1
  Ca2+  Ca4  1  0.08302944  0.73919956  0.57990117  1
  Ca2+  Ca5  1  0.07094683  0.75856660  0.92644564  1
  Ca2+  Ca6  1  0.42747896  0.25098136  0.25028540  1
  Ca2+  Ca7  1  0.40993917  0.24268509  0.58528243  1
  Ca2+  Ca8  1  0.43707621  0.24920217  0.91656913  1
  Ca2+  Ca9  1  0.40341753  0.75286853  0.25416124  1
  Ca2+  Ca10  1  0.39572850  0.75618952  0.57677508  1
  Ca2+  Ca11  1  0.42267019  0.76022666  0.91513196  1
  Ca2+  Ca12  1  0.76112476  0.23056085  0.25446450  1
  Ca2+  Ca13  1  0.76929210  0.24555146  0.58145986  1
  Ca2+  Ca14  1  0.74706608  0.25583011  0.91393356  1
  Ca2+  Ca15  1  0.73725424  0.73977107  0.24826993  1
  Ca2+  Ca16  1  0.77037179  0.75027228  0.59071760  1
  Ca2+  Ca17  1  0.75942634  0.75320035  0.91879082  1
  Ca2+  Ca18  1  0.25651145  0.24951309  0.09387463  1
  Ca2+  Ca19  1  0.26111527  0.25222543  0.42442958  1
  Ca2+  Ca20  1  0.25896069  0.24950488  0.73749108  1
  Ca2+  Ca21  1  0.22633490  0.75350209  0.09932429  1
  Ca2+  Ca22  1  0.23934021  0.75008746  0.40151871  1
  Ca2+  Ca23  1  0.22822131  0.75695923  0.74017253  1
  Ca2+  Ca24  1  0.58877766  0.25649372  0.08085059  1
  Ca2+  Ca25  1  0.58516631  0.25058945  0.41099372  1
  Ca2+  Ca26  1  0.59054086  0.24858127  0.75753367  1
  Ca2+  Ca27  1  0.60146808  0.75030435  0.09456781  1
  Ca2+  Ca28  1  0.59379919  0.74257342  0.39619903  1
  Ca2+  Ca29  1  0.59997724  0.76144060  0.76557197  1
  Ca2+  Ca30  1  0.90646664  0.25559451  0.07875820  1
  Ca2+  Ca31  1  0.90923131  0.25265870  0.42700794  1
  Ca2+  Ca32  1  0.90320236  0.24072855  0.73783714  1
  Ca2+  Ca33  1  0.92924577  0.75349076  0.07643451  1
  Ca2+  Ca34  1  0.91995068  0.74437913  0.42566575  1
  Ca2+  Ca35  1  0.91930516  0.74847383  0.75353920  1
  Ca2+  Ca36  1  0.93297901  0.60141598  0.09153625  1
  Ca2+  Ca37  1  0.60655601  0.57602767  0.73941562  1
  Ca2+  Ca38  1  0.24237948  0.08754043  0.42439156  1
  Ca2+  Ca39  1  0.77340626  0.57570069  0.58327459  1
  Ca2+  Ca40  1  0.91878308  0.10346179  0.09446774  1
  Ca2+  Ca41  1  0.75921082  0.59247485  0.91521021  1
  Ca2+  Ca42  1  0.07208638  0.09002125  0.27186743  1
  Ca2+  Ca43  1  0.23054321  0.60758866  0.41783533  1
  Ca2+  Ca44  1  0.75561545  0.09625058  0.91446669  1
  Ca2+  Ca45  1  0.06250199  0.59609472  0.92160019  1
  Ca2+  Ca46  1  0.89781433  0.11986046  0.42184349  1
  Ca2+  Ca47  1  0.61826632  0.57375059  0.74251862  1
  Ca2+  Ca48  1  0.76310211  0.11089224  0.57436324  1
  Ca2+  Ca49  1  0.42705953  0.09135978  0.25743781  1
  Ca2+  Ca50  1  0.90584209  0.11561088  0.41839387  1
  Ca2+  Ca51  1  0.08619048  0.61881008  0.25393553  1
  Ca2+  Ca52  1  0.28533070  0.07593676  0.73423518  1
  Ca2+  Ca53  1  0.92237635  0.60028917  0.09132964  1
  Ca2+  Ca54  1  0.41430962  0.59794288  0.26222113  1
  Ca2+  Ca55  1  0.94761346  0.60294467  0.42370147  1
  Ca2+  Ca56  1  0.07262945  0.08436095  0.92678318  1
  Ca2+  Ca57  1  0.74066878  0.59958479  0.25345365  1
  Ca2+  Ca58  1  0.42250433  0.58351235  0.91726001  1
  Ca2+  Ca59  1  0.57223110  0.10063623  0.75032927  1
  Ca2+  Ca60  1  0.59749612  0.57894790  0.41502414  1
  Ca2+  Ca61  1  0.90808927  0.10333744  0.09479803  1
  Ca2+  Ca62  1  0.58483102  0.58095054  0.41406593  1
  Ca2+  Ca63  1  0.25536015  0.08274490  0.07559674  1
  Ca2+  Ca64  1  0.43539090  0.58265523  0.91738056  1
  Ca2+  Ca65  1  0.89928076  0.58018922  0.73187928  1
  Ca2+  Ca66  1  0.22021359  0.60867517  0.41845629  1
  Ca2+  Ca67  1  0.61748434  0.11197419  0.41938821  1
  Ca2+  Ca68  1  0.21592328  0.60942300  0.10585278  1
  Ca2+  Ca69  1  0.58679174  0.10167794  0.08275192  1
  Ca2+  Ca70  1  0.42597278  0.59836856  0.26180842  1
  Ca2+  Ca71  1  0.39134702  0.57049575  0.57816129  1
  Ca2+  Ca72  1  0.25484791  0.41307017  0.72319213  1
  Ca2+  Ca73  1  0.74934580  0.89694121  0.24220097  1
  Ca2+  Ca74  1  0.92930948  0.90942151  0.41897517  1
  Ca2+  Ca75  1  0.90715111  0.40803328  0.08127665  1
  Ca2+  Ca76  1  0.24402198  0.40092461  0.08324628  1
  Ca2+  Ca77  1  0.75919677  0.90383827  0.91620212  1
  Ca2+  Ca78  1  0.08814840  0.91240068  0.58929325  1
  Ca2+  Ca79  1  0.07267958  0.39872294  0.25351647  1
  Ca2+  Ca80  1  0.42013240  0.40912770  0.57648957  1
  Ca2+  Ca81  1  0.75530742  0.42646359  0.59731533  1
  Ca2+  Ca82  1  0.26392422  0.41526179  0.72755451  1
  Ca2+  Ca83  1  0.89139319  0.41936373  0.73831826  1
  Ca2+  Ca84  1  0.90598477  0.41711443  0.42585347  1
  Ca2+  Ca85  1  0.41637862  0.91003682  0.91396970  1
  Ca2+  Ca86  1  0.76075444  0.89595569  0.24285868  1
  Ca2+  Ca87  1  0.60597189  0.41654091  0.73862467  1
  Ca2+  Ca88  1  0.40404170  0.91858252  0.60054501  1
  Ca2+  Ca89  1  0.89592494  0.41774366  0.42169502  1
  Ca2+  Ca90  1  0.91892837  0.90596628  0.75164381  1
  Ca2+  Ca91  1  0.59820519  0.41105719  0.73893008  1
  Ca2+  Ca92  1  0.40370377  0.90318796  0.24798731  1
  Ca2+  Ca93  1  0.75356566  0.39924395  0.25400566  1
  Ca2+  Ca94  1  0.08282905  0.40452974  0.57901102  1
  Ca2+  Ca95  1  0.40568435  0.91056044  0.91490586  1
  Ca2+  Ca96  1  0.07042898  0.40289875  0.91958845  1
  Ca2+  Ca97  1  0.94197442  0.90852967  0.41873568  1
  Ca2+  Ca98  1  0.42565088  0.40232293  0.91518925  1
  Ca2+  Ca99  1  0.58666832  0.90240788  0.41972852  1
  Ca2+  Ca100  1  0.25694150  0.40021034  0.08358099  1
  Ca2+  Ca101  1  0.42248247  0.40449239  0.26079847  1
  Ca2+  Ca102  1  0.57386241  0.90219004  0.41953972  1
  Ca2+  Ca103  1  0.75601129  0.90688526  0.59385490  1
  Ca2+  Ca104  1  0.26636066  0.41108900  0.42835930  1
  Ca2+  Ca105  1  0.58176793  0.40999776  0.42210452  1
  Ca2+  Ca106  1  0.25124650  0.91025455  0.74627865  1
  Ca2+  Ca107  1  0.23235869  0.91036518  0.40687112  1
  Mn3.34+  Mn108  1  0.07980314  0.32879621  0.08451648  1
  Mn3.34+  Mn109  1  0.08192267  0.32995139  0.41824518  1
  Mn3.34+  Mn110  1  0.07878498  0.33351490  0.75178617  1
  Mn3.34+  Mn111  1  0.08102536  0.83721435  0.08600094  1
  Mn3.34+  Mn112  1  0.08639040  0.83265254  0.41915987  1
  Mn3.34+  Mn113  1  0.08210573  0.83598129  0.75431955  1
  Mn3.34+  Mn114  1  0.42363796  0.33294521  0.08565358  1
  Mn3.34+  Mn115  1  0.42094472  0.33400553  0.41992222  1
  Mn3.34+  Mn116  1  0.42032938  0.33107975  0.75036760  1
  Mn3.34+  Mn117  1  0.41431029  0.83702819  0.08512665  1
  Mn3.34+  Mn118  1  0.41313217  0.83490532  0.42021659  1
  Mn3.34+  Mn119  1  0.42033293  0.83758476  0.74846994  1
  Mn3.34+  Mn120  1  0.74659841  0.33573970  0.08326084  1
  Mn3.34+  Mn121  1  0.74578176  0.33681207  0.42503391  1
  Mn3.34+  Mn122  1  0.75337159  0.33247901  0.74980568  1
  Mn3.34+  Mn123  1  0.75469504  0.83212846  0.07913226  1
  Mn3.34+  Mn124  1  0.75201387  0.82973055  0.42245113  1
  Mn3.34+  Mn125  1  0.75171030  0.83551718  0.75232634  1
  Mn3.34+  Mn126  1  0.25001941  0.33185600  0.25526089  1
  Mn3.34+  Mn127  1  0.24858615  0.33137654  0.57749671  1
  Mn3.34+  Mn128  1  0.24850397  0.32719848  0.91065160  1
  Mn3.34+  Mn129  1  0.24479515  0.83123738  0.24599731  1
  Mn3.34+  Mn130  1  0.24661390  0.83358911  0.57973376  1
  Mn3.34+  Mn131  1  0.24052542  0.83631013  0.91980859  1
  Mn3.34+  Mn132  1  0.58828555  0.33114391  0.24853913  1
  Mn3.34+  Mn133  1  0.58607303  0.33691427  0.57832044  1
  Mn3.34+  Mn134  1  0.59051023  0.33853052  0.91824606  1
  Mn3.34+  Mn135  1  0.57848346  0.82739387  0.24194399  1
  Mn3.34+  Mn136  1  0.57974798  0.82669051  0.58657290  1
  Mn3.34+  Mn137  1  0.58669186  0.83234323  0.92084135  1
  Mn3.34+  Mn138  1  0.91357179  0.32857252  0.25000523  1
  Mn3.34+  Mn139  1  0.91683978  0.33463373  0.58553628  1
  Mn3.34+  Mn140  1  0.90951759  0.33486730  0.91250023  1
  Mn3.34+  Mn141  1  0.92364188  0.82589739  0.24764105  1
  Mn3.34+  Mn142  1  0.92254483  0.83158890  0.58699855  1
  Mn3.34+  Mn143  1  0.92152120  0.83789678  0.91857690  1
  Mn3.34+  Mn144  1  0.91601667  0.66732087  0.91214048  1
  Mn3.34+  Mn145  1  0.25656664  0.15728231  0.24949605  1
  Mn3.34+  Mn146  1  0.23841289  0.66458565  0.91228115  1
  Mn3.34+  Mn147  1  0.41786325  0.67521712  0.74746536  1
  Mn3.34+  Mn148  1  0.24615637  0.16234916  0.25119378  1
  Mn3.34+  Mn149  1  0.75020003  0.16514765  0.74979325  1
  Mn3.34+  Mn150  1  0.07881667  0.66803226  0.74550991  1
  Mn3.34+  Mn151  1  0.25198294  0.16431991  0.58066404  1
  Mn3.34+  Mn152  1  0.41362570  0.67355692  0.08396009  1
  Mn3.34+  Mn153  1  0.25001709  0.67212858  0.91493107  1
  Mn3.34+  Mn154  1  0.08304259  0.16367734  0.42380294  1
  Mn3.34+  Mn155  1  0.91266899  0.16566663  0.91077924  1
  Mn3.34+  Mn156  1  0.41944391  0.66396709  0.42719164  1
  Mn3.34+  Mn157  1  0.74776423  0.66481985  0.08569271  1
  Mn3.34+  Mn158  1  0.42617475  0.66658056  0.08642505  1
  Mn3.34+  Mn159  1  0.57897308  0.66881626  0.57824003  1
  Mn3.34+  Mn160  1  0.24369089  0.66620790  0.58292815  1
  Mn3.34+  Mn161  1  0.58539525  0.16870018  0.91516182  1
  Mn3.34+  Mn162  1  0.24672739  0.16631130  0.91368561  1
  Mn3.34+  Mn163  1  0.08175895  0.16488512  0.08558473  1
  Mn3.34+  Mn164  1  0.58849230  0.67428846  0.58069949  1
  Mn3.34+  Mn165  1  0.75502303  0.66685389  0.75111242  1
  Mn3.34+  Mn166  1  0.92156148  0.66197377  0.58117190  1
  Mn3.34+  Mn167  1  0.42257741  0.16576364  0.08306310  1
  Mn3.34+  Mn168  1  0.91364527  0.67135459  0.25380004  1
  Mn3.34+  Mn169  1  0.58385775  0.17066528  0.58261631  1
  Mn3.34+  Mn170  1  0.40880758  0.66928061  0.74812370  1
  Mn3.34+  Mn171  1  0.59158679  0.66654206  0.91760430  1
  Mn3.34+  Mn172  1  0.75271815  0.66401099  0.42125925  1
  Mn3.34+  Mn173  1  0.41974741  0.16532132  0.74881251  1
  Mn3.34+  Mn174  1  0.58857669  0.16968064  0.25123603  1
  Mn3.34+  Mn175  1  0.42230077  0.16661960  0.42313045  1
  Mn3.34+  Mn176  1  0.25684723  0.16135370  0.91277366  1
  Mn3.34+  Mn177  1  0.74900498  0.16979373  0.08541283  1
  Mn3.34+  Mn178  1  0.08558959  0.16321281  0.74643682  1
  Mn3.34+  Mn179  1  0.07560238  0.15794038  0.74717765  1
  Mn3.34+  Mn180  1  0.41383919  0.50019404  0.74565896  1
  Mn3.34+  Mn181  1  0.43568337  0.49818822  0.08276827  1
  Mn3.34+  Mn182  1  0.23931138  -0.00289957  0.92361769  1
  Mn3.34+  Mn183  1  0.24936488  0.49968331  0.91214930  1
  Mn3.34+  Mn184  1  0.07894685  0.50134676  0.74182302  1
  Mn3.34+  Mn185  1  0.56889458  0.00688081  0.59269722  1
  Mn3.34+  Mn186  1  0.57821401  0.00354265  0.91131005  1
  Mn3.34+  Mn187  1  0.92201283  0.00424708  0.59521841  1
  Mn3.34+  Mn188  1  0.58163773  0.00041139  0.59422082  1
  Mn3.34+  Mn189  1  0.41570271  0.00382485  0.41755066  1
  Mn3.34+  Mn190  1  0.08219704  -0.00237382  0.74900586  1
  Mn3.34+  Mn191  1  0.75101189  -0.00102045  0.42058656  1
  Mn3.34+  Mn192  1  0.08852499  0.50930112  0.73611081  1
  Mn3.34+  Mn193  1  0.91087455  0.49924278  0.92224159  1
  Mn3.34+  Mn194  1  0.91956136  0.00069984  0.92525792  1
  Mn3.34+  Mn195  1  0.59162192  0.00155195  0.24428046  1
  Mn3.34+  Mn196  1  0.91396541  -0.00040146  0.24768152  1
  Mn3.34+  Mn197  1  0.74861682  0.50057811  0.08088649  1
  Mn3.34+  Mn198  1  0.24943818  0.00017923  0.59027883  1
  Mn3.34+  Mn199  1  0.24173291  -0.00473377  0.26297351  1
  Mn3.34+  Mn200  1  0.75683149  0.00250234  0.74608083  1
  Mn3.34+  Mn201  1  0.23796532  0.50495027  0.91298577  1
  Mn3.34+  Mn202  1  0.58801039  -0.00201443  0.91168142  1
  Mn3.34+  Mn203  1  0.92712252  -0.00733549  0.24873722  1
  Mn3.34+  Mn204  1  0.24220707  0.50038262  0.25065345  1
  Mn3.34+  Mn205  1  0.91257175  0.49898441  0.25984126  1
  Mn3.34+  Mn206  1  0.08137173  0.50007547  0.42353110  1
  Mn3.34+  Mn207  1  0.25375221  0.50437401  0.25148498  1
  Mn3.34+  Mn208  1  0.58074475  -0.00341728  0.24278913  1
  Mn3.34+  Mn209  1  0.75264485  0.00097509  0.08103909  1
  Mn3.34+  Mn210  1  0.59303827  0.49714615  0.23647082  1
  Mn3.34+  Mn211  1  0.08201329  -0.00319870  0.08171975  1
  Mn3.34+  Mn212  1  0.58029308  0.50264003  0.23448863  1
  Mn3.34+  Mn213  1  0.41368321  0.00027950  0.07932136  1
  Mn3.34+  Mn214  1  0.59468298  0.49548283  0.93529548  1
  Mn3.34+  Mn215  1  0.07746859  0.49808468  0.08656771  1
  O2-  O216  1  -0.00127766  0.15289541  0.00103264  1
  O2-  O217  1  0.01254883  0.17681684  0.33614216  1
  O2-  O218  1  -0.00237437  0.16063109  0.66880007  1
  O2-  O219  1  -0.00810863  0.65725711  -0.00318379  1
  O2-  O220  1  -0.00664778  0.68171101  0.33174427  1
  O2-  O221  1  -0.01050232  0.65702587  0.67623264  1
  O2-  O222  1  0.32975582  0.16256151  0.00443605  1
  O2-  O223  1  0.33430215  0.14811970  0.33506407  1
  O2-  O224  1  0.33072331  0.16061695  0.67073705  1
  O2-  O225  1  0.33633041  0.64872779  0.00029347  1
  O2-  O226  1  0.34203511  0.65856886  0.34139181  1
  O2-  O227  1  0.34006900  0.65909589  0.65561396  1
  O2-  O228  1  0.66953112  0.15309510  -0.00242979  1
  O2-  O229  1  0.66686501  0.17507355  0.32964893  1
  O2-  O230  1  0.66117411  0.15972022  0.67194364  1
  O2-  O231  1  0.67529087  0.65499646  -0.00620448  1
  O2-  O232  1  0.66460131  0.65281529  0.34745958  1
  O2-  O233  1  0.66650863  0.65290394  0.66619819  1
  O2-  O234  1  0.16716939  0.15138118  -0.00056773  1
  O2-  O235  1  0.16838707  0.15911651  0.33680758  1
  O2-  O236  1  0.17056076  0.15209092  0.67030351  1
  O2-  O237  1  0.16221691  0.65071618  -0.00659826  1
  O2-  O238  1  0.16678395  0.67090937  0.33957183  1
  O2-  O239  1  0.16486098  0.66483390  0.66644719  1
  O2-  O240  1  0.50625878  0.16136581  0.00312720  1
  O2-  O241  1  0.50468277  0.15385642  0.33576466  1
  O2-  O242  1  0.50312591  0.17274096  0.66742660  1
  O2-  O243  1  0.49435447  0.65499194  -0.00530391  1
  O2-  O244  1  0.50168983  0.65840853  0.34698509  1
  O2-  O245  1  0.50427094  0.66452514  0.66935960  1
  O2-  O246  1  0.83557375  0.15494405  0.00091981  1
  O2-  O247  1  0.84817290  0.18755092  0.33958757  1
  O2-  O248  1  0.82633617  0.16326975  0.67188309  1
  O2-  O249  1  0.83839511  0.64941095  0.00158518  1
  O2-  O250  1  0.82989809  0.65589674  0.33482020  1
  O2-  O251  1  0.82821718  0.65521169  0.66380484  1
  O2-  O252  1  -0.00280812  0.34347028  0.00422551  1
  O2-  O253  1  -0.00119068  0.32248930  0.33238952  1
  O2-  O254  1  -0.00085966  0.35328989  0.66748747  1
  O2-  O255  1  -0.00124525  0.83434940  0.00102272  1
  O2-  O256  1  -0.00500234  0.82537634  0.34266312  1
  O2-  O257  1  0.00362271  0.84908554  0.66597129  1
  O2-  O258  1  0.32693466  0.33790635  0.00013919  1
  O2-  O259  1  0.33372796  0.34830005  0.33701652  1
  O2-  O260  1  0.33681011  0.34435984  0.66387795  1
  O2-  O261  1  0.34027363  0.84127894  -0.00989553  1
  O2-  O262  1  0.33619057  0.83423800  0.33380988  1
  O2-  O263  1  0.33653348  0.84262232  0.66361189  1
  O2-  O264  1  0.66600701  0.33819367  0.00296847  1
  O2-  O265  1  0.66727764  0.33786055  0.34028723  1
  O2-  O266  1  0.66452517  0.33664370  0.66435956  1
  O2-  O267  1  0.66714257  0.84437093  0.00038505  1
  O2-  O268  1  0.66705847  0.84834671  0.33352143  1
  O2-  O269  1  0.66920634  0.83183607  0.66087258  1
  O2-  O270  1  0.16740454  0.34336903  -0.00146999  1
  O2-  O271  1  0.16308444  0.33875706  0.33342126  1
  O2-  O272  1  0.16980928  0.34699909  0.66979771  1
  O2-  O273  1  0.16563721  0.83713951  0.00240606  1
  O2-  O274  1  0.16854393  0.83284877  0.33924499  1
  O2-  O275  1  0.16931333  0.84752852  0.66735481  1
  O2-  O276  1  0.49661979  0.34004874  -0.00479577  1
  O2-  O277  1  0.50460718  0.34437596  0.33884519  1
  O2-  O278  1  0.50617161  0.34949241  0.66984484  1
  O2-  O279  1  0.49168301  0.83449873  -0.00619232  1
  O2-  O280  1  0.49965090  0.84078642  0.33433482  1
  O2-  O281  1  0.49598672  0.80296758  0.66646451  1
  O2-  O282  1  0.83608298  0.34200919  0.00539146  1
  O2-  O283  1  0.83413270  0.33627174  0.34020241  1
  O2-  O284  1  0.82966687  0.34506543  0.66113788  1
  O2-  O285  1  0.83192643  0.84018358  -0.00515539  1
  O2-  O286  1  0.83715082  0.84813180  0.33799455  1
  O2-  O287  1  0.83651260  0.84566179  0.66603270  1
  O2-  O288  1  -0.00159429  0.17957029  0.15730033  1
  O2-  O289  1  0.00068236  0.18242126  0.48954806  1
  O2-  O290  1  0.00556811  0.17714937  0.83808390  1
  O2-  O291  1  -0.01085029  0.67704589  0.17005526  1
  O2-  O292  1  -0.00364506  0.68019729  0.50363427  1
  O2-  O293  1  0.00191357  0.68075740  0.83795930  1
  O2-  O294  1  0.33362152  0.17448609  0.16649260  1
  O2-  O295  1  0.33241468  0.17906178  0.49584857  1
  O2-  O296  1  0.33522004  0.18649402  0.83400348  1
  O2-  O297  1  0.33370412  0.68372759  0.16053310  1
  O2-  O298  1  0.32887533  0.68383509  0.49314411  1
  O2-  O299  1  0.33473811  0.68213758  0.83815573  1
  O2-  O300  1  0.66093810  0.17972184  0.15929506  1
  O2-  O301  1  0.66525481  0.18740555  0.50944900  1
  O2-  O302  1  0.66733688  0.18034614  0.83664434  1
  O2-  O303  1  0.67397622  0.67513061  0.16440121  1
  O2-  O304  1  0.66977532  0.69170279  0.50177105  1
  O2-  O305  1  0.66016681  0.67150578  0.82196345  1
  O2-  O306  1  0.16859284  0.17555421  0.16617595  1
  O2-  O307  1  0.17055523  0.18301766  0.49417591  1
  O2-  O308  1  0.16499714  0.18338113  0.83102574  1
  O2-  O309  1  0.15919084  0.67957305  0.16889362  1
  O2-  O310  1  0.17176174  0.68129917  0.50044054  1
  O2-  O311  1  0.16315018  0.68038416  0.82797118  1
  O2-  O312  1  0.49717012  0.17377351  0.16965718  1
  O2-  O313  1  0.50424636  0.18738483  0.49773922  1
  O2-  O314  1  0.50512542  0.18109922  0.83067971  1
  O2-  O315  1  0.49083709  0.68477902  0.17403167  1
  O2-  O316  1  0.49703263  0.69850026  0.50358573  1
  O2-  O317  1  0.49395410  0.68212094  0.83789575  1
  O2-  O318  1  0.83781645  0.18061328  0.15449530  1
  O2-  O319  1  0.83368051  0.17955585  0.49685033  1
  O2-  O320  1  0.82705211  0.17877265  0.83873226  1
  O2-  O321  1  0.83560788  0.67896532  0.16334001  1
  O2-  O322  1  0.83486080  0.67866799  0.50057663  1
  O2-  O323  1  0.82899336  0.67863597  0.83615180  1
  O2-  O324  1  0.00099543  0.31705896  0.17007414  1
  O2-  O325  1  -0.00106823  0.32106867  0.49943864  1
  O2-  O326  1  0.00361132  0.32418281  0.83986663  1
  O2-  O327  1  0.00044192  0.80969519  0.16993465  1
  O2-  O328  1  -0.00057045  0.81754019  0.49824490  1
  O2-  O329  1  -0.00370062  0.82270536  0.82904723  1
  O2-  O330  1  0.32867946  0.32547175  0.16510088  1
  O2-  O331  1  0.33455879  0.32305235  0.49985567  1
  O2-  O332  1  0.33339961  0.32150368  0.83048215  1
  O2-  O333  1  0.33414366  0.81911778  0.16601899  1
  O2-  O334  1  0.32879040  0.82174516  0.49625435  1
  O2-  O335  1  0.33751391  0.81358671  0.82702378  1
  O2-  O336  1  0.67306809  0.31943608  0.17387620  1
  O2-  O337  1  0.66500174  0.31226804  0.50035447  1
  O2-  O338  1  0.66173904  0.32809913  0.82364951  1
  O2-  O339  1  0.67443313  0.82430359  0.17217048  1
  O2-  O340  1  0.65974499  0.82237254  0.49522500  1
  O2-  O341  1  0.67400795  0.82725059  0.84242632  1
  O2-  O342  1  0.17005866  0.32434966  0.16213698  1
  O2-  O343  1  0.16427312  0.31835253  0.49929977  1
  O2-  O344  1  0.16638133  0.31606362  0.83273733  1
  O2-  O345  1  0.16185325  0.82509196  0.17055598  1
  O2-  O346  1  0.16490248  0.81689134  0.49993876  1
  O2-  O347  1  0.16907664  0.82263008  0.82978569  1
  O2-  O348  1  0.49520757  0.32866164  0.17538932  1
  O2-  O349  1  0.49933261  0.31677290  0.50651551  1
  O2-  O350  1  0.49971003  0.32624396  0.83230469  1
  O2-  O351  1  0.49494070  0.81176660  0.16501909  1
  O2-  O352  1  0.50294563  0.81738137  0.49396808  1
  O2-  O353  1  0.49878242  0.81885272  0.83194622  1
  O2-  O354  1  0.83328704  0.31837461  0.17040074  1
  O2-  O355  1  0.83396521  0.32175338  0.49730620  1
  O2-  O356  1  0.83660653  0.32080105  0.82658024  1
  O2-  O357  1  0.82779504  0.81397050  0.18016696  1
  O2-  O358  1  0.83861858  0.82917881  0.50045553  1
  O2-  O359  1  0.83610433  0.82381184  0.83177463  1
  O2-  O360  1  0.07649848  0.07781323  0.12396480  1
  O2-  O361  1  0.06892530  0.08705125  0.42408354  1
  O2-  O362  1  0.08815787  0.07792174  0.78645091  1
  O2-  O363  1  0.06931978  0.57640520  0.12098728  1
  O2-  O364  1  0.08971166  0.58043931  0.42636216  1
  O2-  O365  1  0.07504455  0.58413132  0.78218382  1
  O2-  O366  1  0.41116916  0.07977803  0.11388552  1
  O2-  O367  1  0.41605065  0.08308320  0.44073413  1
  O2-  O368  1  0.42405824  0.08711098  0.76637594  1
  O2-  O369  1  0.41425496  0.58070305  0.12263784  1
  O2-  O370  1  0.43920439  0.58259451  0.44891834  1
  O2-  O371  1  0.41813733  0.58134926  0.78127244  1
  O2-  O372  1  0.76580967  0.08311771  0.11036970  1
  O2-  O373  1  0.75989629  0.07899405  0.43735937  1
  O2-  O374  1  0.73637401  0.08110792  0.77737420  1
  O2-  O375  1  0.76649979  0.58007961  0.11840513  1
  O2-  O376  1  0.73258537  0.58380886  0.45140332  1
  O2-  O377  1  0.74814824  0.58324091  0.77550292  1
  O2-  O378  1  0.24624492  0.07307082  0.21347734  1
  O2-  O379  1  0.24948016  0.07903529  0.55920534  1
  O2-  O380  1  0.24313071  0.07682318  0.87598984  1
  O2-  O381  1  0.26708265  0.58547598  0.22932570  1
  O2-  O382  1  0.25871794  0.58493473  0.54816780  1
  O2-  O383  1  0.27503505  0.58343897  0.88513553  1
  O2-  O384  1  0.58284333  0.08367495  0.22433561  1
  O2-  O385  1  0.59392470  0.08130926  0.54973932  1
  O2-  O386  1  0.59234795  0.08430256  0.88521451  1
  O2-  O387  1  0.57119195  0.58299913  0.22194928  1
  O2-  O388  1  0.57824730  0.58189129  0.55019380  1
  O2-  O389  1  0.56835276  0.57470414  0.87516761  1
  O2-  O390  1  0.93388334  0.08016782  0.22790092  1
  O2-  O391  1  0.89937186  0.07064399  0.54272306  1
  O2-  O392  1  0.91656728  0.08026832  0.89031301  1
  O2-  O393  1  0.91478244  0.57844775  0.22822477  1
  O2-  O394  1  0.91331512  0.58264132  0.55701128  1
  O2-  O395  1  0.91227239  0.57942043  0.88219352  1
  O2-  O396  1  0.09336973  0.41620368  0.10909689  1
  O2-  O397  1  0.06667833  0.41878756  0.44223102  1
  O2-  O398  1  0.09857846  0.42546482  0.78854963  1
  O2-  O399  1  0.07474259  0.92092072  0.11136867  1
  O2-  O400  1  0.07360910  0.91711513  0.44784130  1
  O2-  O401  1  0.08497225  0.91918910  0.77875354  1
  O2-  O402  1  0.39409350  0.41867509  0.10739535  1
  O2-  O403  1  0.42233737  0.41596370  0.44097215  1
  O2-  O404  1  0.40196191  0.41960912  0.77588127  1
  O2-  O405  1  0.42100705  0.92308173  0.11463766  1
  O2-  O406  1  0.43593218  0.92356944  0.45261924  1
  O2-  O407  1  0.40549043  0.91752259  0.78068850  1
  O2-  O408  1  0.75987707  0.42036861  0.11676305  1
  O2-  O409  1  0.75604689  0.41853788  0.44799779  1
  O2-  O410  1  0.74621019  0.41393819  0.75610005  1
  O2-  O411  1  0.75546932  0.91866435  0.11135925  1
  O2-  O412  1  0.73526646  0.91803253  0.45045949  1
  O2-  O413  1  0.75966503  0.92131531  0.77603209  1
  O2-  O414  1  0.24454014  0.41928034  0.21869680  1
  O2-  O415  1  0.24876916  0.41363947  0.56358457  1
  O2-  O416  1  0.24825627  0.41819132  0.88612892  1
  O2-  O417  1  0.25990145  0.91692602  0.24657939  1
  O2-  O418  1  0.24974803  0.92134951  0.54830466  1
  O2-  O419  1  0.26659917  0.91858629  0.88523899  1
  O2-  O420  1  0.59171534  0.41555112  0.23578807  1
  O2-  O421  1  0.58674897  0.41760793  0.56171792  1
  O2-  O422  1  0.57595199  0.42335745  0.87713919  1
  O2-  O423  1  0.58608325  0.91419385  0.22614285  1
  O2-  O424  1  0.57556812  0.92035642  0.55360449  1
  O2-  O425  1  0.56040110  0.91626610  0.89515308  1
  O2-  O426  1  0.92551719  0.41987339  0.22424988  1
  O2-  O427  1  0.91485411  0.41957288  0.55425790  1
  O2-  O428  1  0.92358939  0.42010029  0.88762800  1
  O2-  O429  1  0.90355739  0.91348335  0.22447979  1
  O2-  O430  1  0.92046875  0.92481502  0.55105681  1
  O2-  O431  1  0.90754989  0.92218787  0.88988172  1
  O2-  O432  1  -0.00702442  0.02061058  0.01292123  1
  O2-  O433  1  -0.01392253  -0.00359722  0.34866727  1
  O2-  O434  1  -0.00053227  -0.01572997  0.66898836  1
  O2-  O435  1  0.00930108  0.50626948  -0.00938940  1
  O2-  O436  1  -0.00716351  0.49593959  0.34537470  1
  O2-  O437  1  -0.02214257  0.49531532  0.69037770  1
  O2-  O438  1  0.33617148  -0.00506386  -0.01028899  1
  O2-  O439  1  0.33782348  0.00270374  0.32744434  1
  O2-  O440  1  0.32630664  -0.00970180  0.66449927  1
  O2-  O441  1  0.33449091  0.50598580  -0.00468396  1
  O2-  O442  1  0.34399753  0.50882463  0.32342360  1
  O2-  O443  1  0.33987012  0.48913953  0.66151249  1
  O2-  O444  1  0.66736449  0.00729209  -0.00315812  1
  O2-  O445  1  0.65731153  -0.00887769  0.34475356  1
  O2-  O446  1  0.66992911  -0.00098352  0.66544464  1
  O2-  O447  1  0.69102763  0.51855530  -0.01635134  1
  O2-  O448  1  0.66231327  0.51045496  0.33038039  1
  O2-  O449  1  0.66422337  0.49671954  0.68604256  1
  O2-  O450  1  0.16465327  0.02064870  0.00608434  1
  O2-  O451  1  0.17410835  0.01060204  0.34324107  1
  O2-  O452  1  0.17044420  -0.00780180  0.67279243  1
  O2-  O453  1  0.17208049  0.50172689  0.01037417  1
  O2-  O454  1  0.17127623  0.49222097  0.34353155  1
  O2-  O455  1  0.17435803  0.48496588  0.67037845  1
  O2-  O456  1  0.49691148  0.00111245  -0.00429991  1
  O2-  O457  1  0.49865798  -0.00558271  0.32919301  1
  O2-  O458  1  0.48711387  -0.00859765  0.66464559  1
  O2-  O459  1  0.48107781  0.49964397  -0.03360691  1
  O2-  O460  1  0.49930867  0.50727814  0.32101742  1
  O2-  O461  1  0.51709491  0.50323948  0.69892288  1
  O2-  O462  1  0.82779799  0.00783330  -0.00890308  1
  O2-  O463  1  0.82200972  -0.01426702  0.32619145  1
  O2-  O464  1  0.83029450  -0.00961729  0.65581238  1
  O2-  O465  1  0.85516730  0.50610007  0.02721158  1
  O2-  O466  1  0.83423477  0.48283286  0.33266229  1
  O2-  O467  1  0.82332809  0.50199193  0.66370960  1
  O2-  O468  1  0.07918695  0.75257244  0.72632248  1
  O2-  O469  1  0.41542567  0.24989068  0.06980057  1
  O2-  O470  1  0.57103390  0.25124917  0.26505006  1
  O2-  O471  1  0.41567600  0.25252260  0.72852549  1
  O2-  O472  1  0.25139594  0.75173683  0.94200019  1
  O2-  O473  1  0.91372324  0.75045385  0.60747725  1
  O2-  O474  1  0.59269556  0.75166498  0.26367109  1
  O2-  O475  1  0.25188141  0.75212042  0.60640706  1
  O2-  O476  1  0.91249846  0.74930610  0.93369913  1
  O2-  O477  1  0.25440883  0.24884201  0.60198591  1
  O2-  O478  1  0.91951298  0.25615307  0.60372605  1
  O2-  O479  1  0.08445211  0.24680179  0.72490094  1
  O2-  O480  1  0.74757894  0.25054321  0.05786025  1
  O2-  O481  1  0.09434750  0.24757704  0.05970169  1
  O2-  O482  1  0.75415857  0.74985140  0.39163579  1
  O2-  O483  1  0.75123239  0.74956329  0.73275247  1
  O2-  O484  1  0.08501602  0.75477096  0.06700167  1
  O2-  O485  1  0.74812766  0.24940480  0.73410430  1
  O2-  O486  1  0.25047575  0.75365831  0.25994270  1
  O2-  O487  1  0.58562956  0.25120350  0.93250594  1
  O2-  O488  1  0.58767358  0.75060532  0.93518613  1
  O2-  O489  1  0.91740326  0.24945049  0.93743173  1
  O2-  O490  1  0.74840086  0.74821829  0.05946792  1
  O2-  O491  1  0.41136943  0.24912838  0.39037303  1
  O2-  O492  1  0.25674492  0.24712047  0.26617190  1
