# generated using pymatgen
data_Ca108Mn108O277
_symmetry_space_group_name_H-M   'P 1'
_cell_length_a   16.01503496
_cell_length_b   22.28866836
_cell_length_c   16.37856591
_cell_angle_alpha   89.99947008
_cell_angle_beta   89.99894898
_cell_angle_gamma   90.00108914
_symmetry_Int_Tables_number   1
_chemical_formula_structural   Ca108Mn108O277
_chemical_formula_sum   'Ca108 Mn108 O277'
_cell_volume   5846.39138644
_cell_formula_units_Z   1
loop_
 _symmetry_equiv_pos_site_id
 _symmetry_equiv_pos_as_xyz
  1  'x, y, z'
loop_
 _atom_type_symbol
 _atom_type_oxidation_number
  Ca2+  2.0
  Mn3.34+  3.34
  O2-  -2.0
loop_
 _atom_site_type_symbol
 _atom_site_label
 _atom_site_symmetry_multiplicity
 _atom_site_fract_x
 _atom_site_fract_y
 _atom_site_fract_z
 _atom_site_occupancy
  Ca2+  Ca0  1  0.07427733  0.24317479  0.22620612  1
  Ca2+  Ca1  1  0.08512156  0.24587512  0.58416528  1
  Ca2+  Ca2  1  0.07627534  0.24366830  0.93872088  1
  Ca2+  Ca3  1  0.07314154  0.75738764  0.24464374  1
  Ca2+  Ca4  1  0.07624704  0.75236393  0.58872357  1
  Ca2+  Ca5  1  0.06433091  0.75706871  0.91710045  1
  Ca2+  Ca6  1  0.40584231  0.23981068  0.23699166  1
  Ca2+  Ca7  1  0.40909676  0.25953215  0.59140260  1
  Ca2+  Ca8  1  0.42990647  0.25033849  0.91756991  1
  Ca2+  Ca9  1  0.43571585  0.75014340  0.24023599  1
  Ca2+  Ca10  1  0.42526848  0.75978031  0.58006324  1
  Ca2+  Ca11  1  0.43575895  0.74786502  0.93740147  1
  Ca2+  Ca12  1  0.77120420  0.23303660  0.26293348  1
  Ca2+  Ca13  1  0.75715621  0.24785585  0.57266608  1
  Ca2+  Ca14  1  0.74113281  0.24291747  0.90996349  1
  Ca2+  Ca15  1  0.73917059  0.76044095  0.25119782  1
  Ca2+  Ca16  1  0.75039444  0.76329208  0.59924116  1
  Ca2+  Ca17  1  0.74987690  0.74638283  0.90188923  1
  Ca2+  Ca18  1  0.23887301  0.25422659  0.09387349  1
  Ca2+  Ca19  1  0.25024651  0.24913455  0.41348585  1
  Ca2+  Ca20  1  0.25980445  0.25084957  0.73966594  1
  Ca2+  Ca21  1  0.25854492  0.75575903  0.09071758  1
  Ca2+  Ca22  1  0.24896370  0.75838064  0.41573815  1
  Ca2+  Ca23  1  0.23997076  0.75862078  0.74582702  1
  Ca2+  Ca24  1  0.57426626  0.25289207  0.07210831  1
  Ca2+  Ca25  1  0.60268299  0.25023453  0.41762513  1
  Ca2+  Ca26  1  0.58314036  0.25550667  0.76075409  1
  Ca2+  Ca27  1  0.57643527  0.73286229  0.09141469  1
  Ca2+  Ca28  1  0.58556765  0.75302768  0.39968626  1
  Ca2+  Ca29  1  0.60503408  0.74935138  0.76619085  1
  Ca2+  Ca30  1  0.93239305  0.24786331  0.09904221  1
  Ca2+  Ca31  1  0.89899680  0.23581417  0.40853437  1
  Ca2+  Ca32  1  0.90797235  0.25057873  0.74625685  1
  Ca2+  Ca33  1  0.91971732  0.75192366  0.07420808  1
  Ca2+  Ca34  1  0.91536022  0.75536381  0.40909055  1
  Ca2+  Ca35  1  0.90011140  0.74880965  0.76497177  1
  Ca2+  Ca36  1  0.90653792  0.11464309  0.42625630  1
  Ca2+  Ca37  1  0.91353619  0.59058713  0.41329203  1
  Ca2+  Ca38  1  0.39459822  0.08554463  0.59415381  1
  Ca2+  Ca39  1  0.07493475  0.10151675  0.58977164  1
  Ca2+  Ca40  1  0.22789139  0.58218122  0.73513573  1
  Ca2+  Ca41  1  0.74387138  0.60073661  0.91262193  1
  Ca2+  Ca42  1  0.76882395  0.10234612  0.25603375  1
  Ca2+  Ca43  1  0.44052071  0.60972649  0.23650517  1
  Ca2+  Ca44  1  0.59392554  0.59221396  0.40916039  1
  Ca2+  Ca45  1  0.07006233  0.10183251  0.24515093  1
  Ca2+  Ca46  1  0.73056711  0.61084498  0.23751250  1
  Ca2+  Ca47  1  0.59114623  0.09485823  0.39457291  1
  Ca2+  Ca48  1  0.92919884  0.10226314  0.08276882  1
  Ca2+  Ca49  1  0.25469202  0.59516989  0.08228388  1
  Ca2+  Ca50  1  0.57625797  0.09555893  0.08685814  1
  Ca2+  Ca51  1  0.60082420  0.59276114  0.76585964  1
  Ca2+  Ca52  1  0.91604808  0.59404472  0.75679806  1
  Ca2+  Ca53  1  0.23866384  0.08923576  0.08961593  1
  Ca2+  Ca54  1  0.58291313  0.59007999  0.40905244  1
  Ca2+  Ca55  1  0.08008800  0.10358531  0.24213588  1
  Ca2+  Ca56  1  0.41930350  0.57845654  0.59060468  1
  Ca2+  Ca57  1  0.07564736  0.59535199  0.24627867  1
  Ca2+  Ca58  1  0.92374219  0.09619748  0.75191664  1
  Ca2+  Ca59  1  0.78174089  0.10980902  0.57674575  1
  Ca2+  Ca60  1  0.91305004  0.09499562  0.75103665  1
  Ca2+  Ca61  1  0.24208689  0.58783584  0.42279509  1
  Ca2+  Ca62  1  0.74166683  0.60995035  0.23867948  1
  Ca2+  Ca63  1  0.24931048  0.08810479  0.09259906  1
  Ca2+  Ca64  1  0.60328463  0.09514328  0.39509065  1
  Ca2+  Ca65  1  0.24936730  0.08037684  0.73313503  1
  Ca2+  Ca66  1  0.24698698  0.09923365  0.41795190  1
  Ca2+  Ca67  1  0.93713229  0.10634840  0.07885651  1
  Ca2+  Ca68  1  0.58186180  0.09246295  0.76206193  1
  Ca2+  Ca69  1  0.07318496  0.57545125  0.60591829  1
  Ca2+  Ca70  1  0.06691323  0.59110894  0.91215745  1
  Ca2+  Ca71  1  0.25475066  0.58791973  0.42224254  1
  Ca2+  Ca72  1  0.40306510  0.39603618  0.25135836  1
  Ca2+  Ca73  1  0.24997749  0.91433170  0.07394539  1
  Ca2+  Ca74  1  0.75782365  0.90222525  0.91312554  1
  Ca2+  Ca75  1  0.75456260  0.39607691  0.24008056  1
  Ca2+  Ca76  1  0.43802859  0.40617155  0.91323065  1
  Ca2+  Ca77  1  0.91543543  0.90658203  0.76151920  1
  Ca2+  Ca78  1  0.58742122  0.90311151  0.41296885  1
  Ca2+  Ca79  1  0.92250993  0.40597621  0.42357836  1
  Ca2+  Ca80  1  0.24957881  0.40239932  0.74695042  1
  Ca2+  Ca81  1  0.07978654  0.90624752  0.24413948  1
  Ca2+  Ca82  1  0.92931975  0.41452240  0.74332252  1
  Ca2+  Ca83  1  0.73157257  0.41046286  0.92166511  1
  Ca2+  Ca84  1  0.08140142  0.41894845  0.60127845  1
  Ca2+  Ca85  1  0.07264704  0.40317946  0.91577974  1
  Ca2+  Ca86  1  0.08477082  0.91223502  0.59682324  1
  Ca2+  Ca87  1  0.41689626  0.90754585  0.91524924  1
  Ca2+  Ca88  1  0.41704223  0.91010809  0.24659022  1
  Ca2+  Ca89  1  0.42693844  0.91224373  0.24331306  1
  Ca2+  Ca90  1  0.57287344  0.41373203  0.73943712  1
  Ca2+  Ca91  1  0.57556310  0.40212267  0.42896734  1
  Ca2+  Ca92  1  0.58523977  0.90201747  0.08766235  1
  Ca2+  Ca93  1  0.73719195  0.40496416  0.58181020  1
  Ca2+  Ca94  1  0.41587882  0.39605226  0.25153661  1
  Ca2+  Ca95  1  0.24831257  0.91008597  0.41360585  1
  Ca2+  Ca96  1  0.91013476  0.40413031  0.42545483  1
  Ca2+  Ca97  1  0.08767357  0.39816914  0.24136410  1
  Ca2+  Ca98  1  0.25216670  0.40090308  0.41531145  1
  Ca2+  Ca99  1  0.41654525  0.90968857  0.59450640  1
  Ca2+  Ca100  1  0.74322164  0.40969385  0.92174510  1
  Ca2+  Ca101  1  0.25089697  0.91460781  0.75628124  1
  Ca2+  Ca102  1  0.58706067  0.90442737  0.75115424  1
  Ca2+  Ca103  1  0.07012921  0.41921185  0.60155273  1
  Ca2+  Ca104  1  0.23873569  0.91408919  0.07389603  1
  Ca2+  Ca105  1  0.74172752  0.39563751  0.24017410  1
  Ca2+  Ca106  1  0.91333830  0.89802253  0.41276748  1
  Ca2+  Ca107  1  0.09721089  0.91350328  0.59664795  1
  Mn3.34+  Mn108  1  0.08301483  0.33396520  0.07984592  1
  Mn3.34+  Mn109  1  0.08142222  0.32810629  0.41891698  1
  Mn3.34+  Mn110  1  0.08364146  0.33111392  0.75733389  1
  Mn3.34+  Mn111  1  0.07665128  0.83401904  0.08041194  1
  Mn3.34+  Mn112  1  0.08346751  0.83044002  0.41751510  1
  Mn3.34+  Mn113  1  0.08039025  0.83145189  0.75727423  1
  Mn3.34+  Mn114  1  0.41415372  0.33267442  0.07863989  1
  Mn3.34+  Mn115  1  0.41854740  0.32650981  0.42110168  1
  Mn3.34+  Mn116  1  0.41526258  0.33315466  0.74947209  1
  Mn3.34+  Mn117  1  0.41936867  0.83087542  0.08222079  1
  Mn3.34+  Mn118  1  0.41773351  0.83167779  0.41779821  1
  Mn3.34+  Mn119  1  0.41750194  0.83369957  0.75366121  1
  Mn3.34+  Mn120  1  0.75021213  0.32688557  0.08146830  1
  Mn3.34+  Mn121  1  0.74869162  0.32993121  0.41949597  1
  Mn3.34+  Mn122  1  0.74998963  0.33045514  0.74905596  1
  Mn3.34+  Mn123  1  0.75150056  0.83131929  0.08351330  1
  Mn3.34+  Mn124  1  0.75028454  0.83021062  0.41771858  1
  Mn3.34+  Mn125  1  0.75105564  0.83508539  0.74971642  1
  Mn3.34+  Mn126  1  0.24511736  0.32868136  0.24813235  1
  Mn3.34+  Mn127  1  0.24982889  0.33099418  0.58073711  1
  Mn3.34+  Mn128  1  0.24990613  0.32918662  0.91506896  1
  Mn3.34+  Mn129  1  0.24901798  0.84137422  0.24730687  1
  Mn3.34+  Mn130  1  0.25147784  0.83837034  0.58053043  1
  Mn3.34+  Mn131  1  0.24845869  0.83988666  0.91296524  1
  Mn3.34+  Mn132  1  0.58255059  0.32170291  0.24722641  1
  Mn3.34+  Mn133  1  0.57947988  0.33816855  0.58471943  1
  Mn3.34+  Mn134  1  0.58268881  0.33443468  0.91410648  1
  Mn3.34+  Mn135  1  0.58833097  0.83580797  0.24633228  1
  Mn3.34+  Mn136  1  0.58648188  0.83655437  0.58210218  1
  Mn3.34+  Mn137  1  0.58523213  0.83360942  0.91731871  1
  Mn3.34+  Mn138  1  0.91975055  0.32832929  0.24690349  1
  Mn3.34+  Mn139  1  0.91807505  0.32899769  0.58328999  1
  Mn3.34+  Mn140  1  0.91518946  0.33232899  0.91562432  1
  Mn3.34+  Mn141  1  0.90938886  0.83300675  0.24292965  1
  Mn3.34+  Mn142  1  0.91355716  0.83653940  0.58348780  1
  Mn3.34+  Mn143  1  0.91541781  0.84045454  0.91999874  1
  Mn3.34+  Mn144  1  0.91570007  0.16285802  0.91419196  1
  Mn3.34+  Mn145  1  0.41652847  0.16571092  0.75413569  1
  Mn3.34+  Mn146  1  0.25596170  0.66497820  0.24635217  1
  Mn3.34+  Mn147  1  0.91609211  0.66486304  0.58429549  1
  Mn3.34+  Mn148  1  0.59528366  0.65883597  0.58459240  1
  Mn3.34+  Mn149  1  0.58265920  0.16474946  0.91687084  1
  Mn3.34+  Mn150  1  0.24260715  0.67352792  0.91707004  1
  Mn3.34+  Mn151  1  0.91798531  0.67027811  0.24625642  1
  Mn3.34+  Mn152  1  0.24459373  0.15701005  0.91295951  1
  Mn3.34+  Mn153  1  0.75044921  0.16595497  0.75609731  1
  Mn3.34+  Mn154  1  0.41903227  0.16669016  0.08332352  1
  Mn3.34+  Mn155  1  0.07437055  0.66528415  0.08247485  1
  Mn3.34+  Mn156  1  0.24806610  0.66995544  0.58260678  1
  Mn3.34+  Mn157  1  0.58531526  0.66433185  0.58546288  1
  Mn3.34+  Mn158  1  0.41054208  0.66722969  0.75358563  1
  Mn3.34+  Mn159  1  0.25413835  0.16257180  0.91297053  1
  Mn3.34+  Mn160  1  0.41609682  0.66799734  0.42198485  1
  Mn3.34+  Mn161  1  0.08105406  0.66781231  0.41904039  1
  Mn3.34+  Mn162  1  0.58413126  0.16548072  0.24240846  1
  Mn3.34+  Mn163  1  0.25050778  0.16321908  0.24882896  1
  Mn3.34+  Mn164  1  0.08246818  0.17331667  0.42014867  1
  Mn3.34+  Mn165  1  0.90349336  0.65726148  0.58376827  1
  Mn3.34+  Mn166  1  0.42047983  0.66209591  0.75589704  1
  Mn3.34+  Mn167  1  0.08416566  0.17086880  0.75625419  1
  Mn3.34+  Mn168  1  0.41616977  0.17322019  0.41434373  1
  Mn3.34+  Mn169  1  0.25075876  0.16641429  0.58048206  1
  Mn3.34+  Mn170  1  0.58370778  0.65897246  0.92472230  1
  Mn3.34+  Mn171  1  0.57669216  0.16730653  0.58397658  1
  Mn3.34+  Mn172  1  0.75303917  0.66695865  0.07908642  1
  Mn3.34+  Mn173  1  0.24599679  0.67031756  0.24745027  1
  Mn3.34+  Mn174  1  0.25207231  0.67321855  0.92373805  1
  Mn3.34+  Mn175  1  0.91271811  0.66782072  0.91630303  1
  Mn3.34+  Mn176  1  0.75149573  0.66804136  0.41599250  1
  Mn3.34+  Mn177  1  0.74796453  0.17021656  0.08166036  1
  Mn3.34+  Mn178  1  0.58818380  0.16136393  0.58211453  1
  Mn3.34+  Mn179  1  0.08181521  0.66627346  0.75325372  1
  Mn3.34+  Mn180  1  0.58423759  0.00156280  0.92212971  1
  Mn3.34+  Mn181  1  0.91501798  -0.00002350  0.58567343  1
  Mn3.34+  Mn182  1  0.41529751  0.49847346  0.41923241  1
  Mn3.34+  Mn183  1  0.25790769  0.50247428  0.91454326  1
  Mn3.34+  Mn184  1  0.40495128  0.00475463  0.42020085  1
  Mn3.34+  Mn185  1  0.75054227  0.00216410  0.74434972  1
  Mn3.34+  Mn186  1  0.75858821  0.00004352  0.42098370  1
  Mn3.34+  Mn187  1  0.25363181  0.49497590  0.58732682  1
  Mn3.34+  Mn188  1  0.58902750  0.49704602  0.23841777  1
  Mn3.34+  Mn189  1  0.91658643  0.50021617  0.92737657  1
  Mn3.34+  Mn190  1  0.41790789  0.49909255  0.74373227  1
  Mn3.34+  Mn191  1  0.07450432  -0.00313840  0.05889162  1
  Mn3.34+  Mn192  1  0.57777353  0.50248077  0.23806731  1
  Mn3.34+  Mn193  1  0.08699121  0.00053090  0.75185176  1
  Mn3.34+  Mn194  1  0.08877759  0.00381215  0.41685427  1
  Mn3.34+  Mn195  1  0.76048783  0.50466316  0.73710953  1
  Mn3.34+  Mn196  1  0.75055721  0.50111311  0.42691422  1
  Mn3.34+  Mn197  1  0.90933623  0.50340754  0.23713655  1
  Mn3.34+  Mn198  1  0.42629667  0.49831798  0.07160837  1
  Mn3.34+  Mn199  1  0.43803627  0.50619151  0.06875414  1
  Mn3.34+  Mn200  1  0.42000645  0.00369527  0.07623916  1
  Mn3.34+  Mn201  1  0.76172775  -0.00263506  0.07829112  1
  Mn3.34+  Mn202  1  0.08074416  0.50135667  0.41977553  1
  Mn3.34+  Mn203  1  0.92052379  0.49795025  0.23646776  1
  Mn3.34+  Mn204  1  0.07798957  -0.00103971  0.41633032  1
  Mn3.34+  Mn205  1  0.24762708  0.49804597  0.25105504  1
  Mn3.34+  Mn206  1  0.74872654  0.00288614  0.07930607  1
  Mn3.34+  Mn207  1  0.41941332  -0.00016317  0.41660909  1
  Mn3.34+  Mn208  1  0.74914330  0.49866085  0.73207130  1
  Mn3.34+  Mn209  1  0.24352205  0.49702636  0.91724770  1
  Mn3.34+  Mn210  1  0.41285738  0.00190495  0.74500728  1
  Mn3.34+  Mn211  1  0.74868190  -0.00539235  0.41982215  1
  Mn3.34+  Mn212  1  0.73725567  0.50097996  0.06865111  1
  Mn3.34+  Mn213  1  0.58838764  -0.00118248  0.59056134  1
  Mn3.34+  Mn214  1  0.91092938  -0.00512690  0.24651820  1
  Mn3.34+  Mn215  1  0.07666849  0.50008789  0.07492349  1
  O2-  O216  1  -0.00846609  0.17203959  -0.00318560  1
  O2-  O217  1  0.00780732  0.16300598  0.33667786  1
  O2-  O218  1  0.00226219  0.17275998  0.67646715  1
  O2-  O219  1  0.00334241  0.66283365  -0.00543569  1
  O2-  O220  1  -0.00263474  0.65179429  0.33561238  1
  O2-  O221  1  -0.00114710  0.65350234  0.66511106  1
  O2-  O222  1  0.33085651  0.16436892  -0.00106885  1
  O2-  O223  1  0.32984328  0.17031293  0.33793307  1
  O2-  O224  1  0.33024662  0.15710589  0.66896551  1
  O2-  O225  1  0.32527778  0.67532918  0.00450437  1
  O2-  O226  1  0.33034507  0.65038769  0.33749595  1
  O2-  O227  1  0.33255153  0.66032032  0.66735312  1
  O2-  O228  1  0.66138357  0.17262408  0.00492745  1
  O2-  O229  1  0.66125450  0.16768470  0.32646750  1
  O2-  O230  1  0.66991940  0.15099351  0.66766754  1
  O2-  O231  1  0.67202909  0.67400815  -0.00044826  1
  O2-  O232  1  0.66689508  0.65874608  0.33711035  1
  O2-  O233  1  0.66151756  0.66088599  0.67427601  1
  O2-  O234  1  0.17459687  0.16253668  0.00342353  1
  O2-  O235  1  0.16604639  0.16127327  0.33320446  1
  O2-  O236  1  0.16533250  0.16398181  0.66766687  1
  O2-  O237  1  0.16334823  0.65574698  0.00174353  1
  O2-  O238  1  0.17048366  0.65239092  0.33179989  1
  O2-  O239  1  0.16684242  0.66512719  0.66644432  1
  O2-  O240  1  0.50350203  0.16312240  0.00468604  1
  O2-  O241  1  0.50573184  0.17663294  0.33418608  1
  O2-  O242  1  0.49895247  0.15140383  0.66348261  1
  O2-  O243  1  0.50458455  0.66929798  -0.00297666  1
  O2-  O244  1  0.50047471  0.65304162  0.34854090  1
  O2-  O245  1  0.49587891  0.64891518  0.66229782  1
  O2-  O246  1  0.83568665  0.17621673  -0.00117405  1
  O2-  O247  1  0.83409133  0.16143614  0.33509314  1
  O2-  O248  1  0.83801292  0.16281924  0.68079825  1
  O2-  O249  1  0.83296003  0.67288236  -0.00193088  1
  O2-  O250  1  0.83119819  0.65274383  0.32962822  1
  O2-  O251  1  0.83663345  0.66244207  0.67114501  1
  O2-  O252  1  0.00024993  0.33021527  -0.00468020  1
  O2-  O253  1  -0.00381318  0.34598781  0.33769782  1
  O2-  O254  1  0.00284498  0.32632696  0.66709856  1
  O2-  O255  1  -0.00181866  0.83130160  -0.00077529  1
  O2-  O256  1  0.00276562  0.84093771  0.33683197  1
  O2-  O257  1  0.00554346  0.84507186  0.66296898  1
  O2-  O258  1  0.33414666  0.32632860  -0.00653111  1
  O2-  O259  1  0.33600891  0.32938502  0.33323699  1
  O2-  O260  1  0.32870519  0.33933132  0.66951057  1
  O2-  O261  1  0.33060083  0.83815664  0.00257930  1
  O2-  O262  1  0.33612863  0.85098727  0.32972626  1
  O2-  O263  1  0.33125430  0.83449812  0.66647971  1
  O2-  O264  1  0.67007669  0.33346185  -0.00425248  1
  O2-  O265  1  0.66628486  0.34113815  0.33316987  1
  O2-  O266  1  0.66633921  0.34612791  0.66975731  1
  O2-  O267  1  0.66644987  0.83815554  -0.00082483  1
  O2-  O268  1  0.66331766  0.83724709  0.33558737  1
  O2-  O269  1  0.66357182  0.83798448  0.67083517  1
  O2-  O270  1  0.16262149  0.32823477  -0.00692047  1
  O2-  O271  1  0.16642964  0.33611940  0.33704120  1
  O2-  O272  1  0.16104551  0.33830138  0.66666772  1
  O2-  O273  1  0.17438363  0.83484444  0.00448326  1
  O2-  O274  1  0.16883768  0.84569629  0.33538633  1
  O2-  O275  1  0.16825650  0.83421460  0.66447917  1
  O2-  O276  1  0.50001696  0.33736599  -0.00404811  1
  O2-  O277  1  0.49900617  0.32402122  0.33185348  1
  O2-  O278  1  0.50163660  0.33775580  0.67076824  1
  O2-  O279  1  0.49804487  0.84534039  -0.00155864  1
  O2-  O280  1  0.49802842  0.84653099  0.33109644  1
  O2-  O281  1  0.49704660  0.84515663  0.66388767  1
  O2-  O282  1  0.82686490  0.32408788  -0.00615323  1
  O2-  O283  1  0.83151796  0.34516435  0.33300092  1
  O2-  O284  1  0.83449843  0.33544197  0.66501058  1
  O2-  O285  1  0.82728748  0.82408430  -0.00378779  1
  O2-  O286  1  0.83586592  0.83422169  0.33600757  1
  O2-  O287  1  0.83855812  0.83901443  0.67244463  1
  O2-  O288  1  0.00341659  0.16543728  0.16407144  1
  O2-  O289  1  0.00564322  0.18838454  0.49583953  1
  O2-  O290  1  -0.00577753  0.18685086  0.83343937  1
  O2-  O291  1  0.00579123  0.67705963  0.17360998  1
  O2-  O292  1  -0.00344925  0.67396100  0.50472619  1
  O2-  O293  1  -0.00103670  0.67115689  0.83220552  1
  O2-  O294  1  0.32501130  0.17025610  0.15873683  1
  O2-  O295  1  0.33772010  0.18231549  0.50028252  1
  O2-  O296  1  0.32915938  0.18396262  0.83483898  1
  O2-  O297  1  0.33429983  0.67713842  0.16853952  1
  O2-  O298  1  0.33014904  0.68074717  0.50009197  1
  O2-  O299  1  0.32932556  0.68713353  0.83571486  1
  O2-  O300  1  0.66694223  0.18749910  0.16790045  1
  O2-  O301  1  0.66110920  0.17214860  0.49712376  1
  O2-  O302  1  0.66165667  0.17391214  0.82982741  1
  O2-  O303  1  0.68031452  0.68347297  0.16457405  1
  O2-  O304  1  0.66086970  0.67547339  0.48993780  1
  O2-  O305  1  0.66183263  0.67431136  0.84117612  1
  O2-  O306  1  0.16740043  0.16826840  0.17065255  1
  O2-  O307  1  0.17112040  0.18321192  0.49654055  1
  O2-  O308  1  0.16675769  0.18902153  0.83751460  1
  O2-  O309  1  0.16645171  0.67465280  0.16219034  1
  O2-  O310  1  0.17314471  0.68019498  0.49446578  1
  O2-  O311  1  0.16547891  0.68569742  0.83481777  1
  O2-  O312  1  0.50208126  0.18021421  0.16472832  1
  O2-  O313  1  0.50239018  0.18151214  0.49310874  1
  O2-  O314  1  0.50362600  0.17621590  0.82951363  1
  O2-  O315  1  0.49885496  0.68001950  0.17271315  1
  O2-  O316  1  0.50216508  0.67236601  0.50585637  1
  O2-  O317  1  0.50248916  0.67094137  0.83273136  1
  O2-  O318  1  0.83321869  0.17255594  0.15464985  1
  O2-  O319  1  0.83878747  0.18366572  0.51051693  1
  O2-  O320  1  0.83621670  0.18296175  0.83349848  1
  O2-  O321  1  0.83082513  0.67948682  0.17086434  1
  O2-  O322  1  0.83787483  0.67410797  0.49241784  1
  O2-  O323  1  0.83578699  0.67032414  0.83854419  1
  O2-  O324  1  0.00467104  0.32741246  0.17163643  1
  O2-  O325  1  -0.00346866  0.31252989  0.49774612  1
  O2-  O326  1  -0.00091926  0.31448782  0.83315164  1
  O2-  O327  1  0.00387746  0.82750867  0.17096237  1
  O2-  O328  1  0.00484940  0.82585154  0.50254155  1
  O2-  O329  1  -0.00706820  0.82893781  0.82863534  1
  O2-  O330  1  0.33535736  0.32673151  0.17285900  1
  O2-  O331  1  0.32846951  0.31986076  0.49306274  1
  O2-  O332  1  0.33332702  0.31898822  0.83222633  1
  O2-  O333  1  0.33506462  0.82929774  0.16684346  1
  O2-  O334  1  0.33200726  0.82218210  0.49963484  1
  O2-  O335  1  0.33054039  0.81773112  0.83642825  1
  O2-  O336  1  0.66985364  0.31488096  0.16887088  1
  O2-  O337  1  0.66821818  0.32688548  0.50080998  1
  O2-  O338  1  0.67175799  0.32640331  0.83616078  1
  O2-  O339  1  0.66114527  0.82074797  0.15920979  1
  O2-  O340  1  0.66400668  0.82101290  0.49567258  1
  O2-  O341  1  0.66773884  0.83100776  0.83479081  1
  O2-  O342  1  0.16346293  0.32825937  0.17014993  1
  O2-  O343  1  0.16334278  0.31888594  0.49924114  1
  O2-  O344  1  0.16894402  0.31201355  0.82874129  1
  O2-  O345  1  0.16930619  0.83063552  0.16490211  1
  O2-  O346  1  0.16627115  0.81677960  0.50350688  1
  O2-  O347  1  0.16746871  0.81816663  0.83516866  1
  O2-  O348  1  0.49182636  0.32358854  0.17496362  1
  O2-  O349  1  0.50439458  0.31636488  0.49632534  1
  O2-  O350  1  0.50040826  0.32841335  0.83266573  1
  O2-  O351  1  0.49419549  0.83179470  0.17050244  1
  O2-  O352  1  0.49998704  0.82404127  0.49863054  1
  O2-  O353  1  0.50004303  0.83163024  0.83388363  1
  O2-  O354  1  0.82661257  0.32060102  0.17165432  1
  O2-  O355  1  0.83742989  0.32513278  0.49801801  1
  O2-  O356  1  0.83101407  0.32284833  0.83422776  1
  O2-  O357  1  0.83148354  0.80946992  0.16269173  1
  O2-  O358  1  0.83777249  0.82220540  0.49589516  1
  O2-  O359  1  0.83104015  0.82775416  0.83397999  1
  O2-  O360  1  0.08525739  0.06851761  0.11567172  1
  O2-  O361  1  0.08571691  0.08397730  0.45000146  1
  O2-  O362  1  0.06782241  0.08160886  0.76756582  1
  O2-  O363  1  0.08569790  0.57913669  0.11112181  1
  O2-  O364  1  0.09848643  0.58334220  0.44813611  1
  O2-  O365  1  0.09009428  0.58441816  0.77006642  1
  O2-  O366  1  0.41048330  0.08310623  0.10156499  1
  O2-  O367  1  0.41642879  0.08380288  0.44111183  1
  O2-  O368  1  0.41385338  0.08139650  0.76897291  1
  O2-  O369  1  0.40215534  0.57619682  0.11488696  1
  O2-  O370  1  0.40313733  0.57998594  0.45174348  1
  O2-  O371  1  0.40500009  0.58056414  0.77543072  1
  O2-  O372  1  0.73977846  0.07863684  0.11122822  1
  O2-  O373  1  0.73900264  0.08077329  0.44682013  1
  O2-  O374  1  0.76749174  0.08240108  0.77505199  1
  O2-  O375  1  0.74967233  0.57724944  0.11086433  1
  O2-  O376  1  0.73892223  0.58447554  0.43358254  1
  O2-  O377  1  0.74867735  0.57894592  0.77704829  1
  O2-  O378  1  0.23105190  0.08069100  0.22848282  1
  O2-  O379  1  0.25186694  0.08589707  0.55740905  1
  O2-  O380  1  0.24635424  0.07673910  0.88590859  1
  O2-  O381  1  0.24143594  0.58041891  0.21867867  1
  O2-  O382  1  0.25601344  0.57700360  0.55672481  1
  O2-  O383  1  0.24536890  0.58330550  0.88310237  1
  O2-  O384  1  0.59238870  0.08629331  0.23463380  1
  O2-  O385  1  0.57293077  0.07884497  0.54188096  1
  O2-  O386  1  0.58405064  0.08169848  0.89844556  1
  O2-  O387  1  0.59188851  0.58512854  0.23424795  1
  O2-  O388  1  0.57697409  0.57742264  0.54594072  1
  O2-  O389  1  0.59896513  0.58259161  0.90121851  1
  O2-  O390  1  0.92241443  0.07199762  0.21136492  1
  O2-  O391  1  0.92196611  0.07795430  0.55847850  1
  O2-  O392  1  0.91930057  0.08539953  0.88743229  1
  O2-  O393  1  0.91518293  0.58508311  0.22539346  1
  O2-  O394  1  0.92201870  0.57897442  0.55568888  1
  O2-  O395  1  0.91737923  0.58025049  0.89588140  1
  O2-  O396  1  0.08080000  0.42035306  0.10359880  1
  O2-  O397  1  0.06647469  0.41904074  0.44994074  1
  O2-  O398  1  0.08170135  0.41279635  0.76904246  1
  O2-  O399  1  0.09545552  0.92211770  0.10402388  1
  O2-  O400  1  0.08717290  0.91698156  0.44507555  1
  O2-  O401  1  0.09415518  0.91667408  0.75503812  1
  O2-  O402  1  0.41787973  0.42305984  0.11713172  1
  O2-  O403  1  0.42206097  0.41581362  0.40825771  1
  O2-  O404  1  0.41311104  0.41965949  0.77601877  1
  O2-  O405  1  0.41183612  0.92217315  0.10676606  1
  O2-  O406  1  0.41782068  0.92047758  0.44396914  1
  O2-  O407  1  0.40764310  0.92098115  0.77358749  1
  O2-  O408  1  0.74519756  0.42188901  0.11052298  1
  O2-  O409  1  0.76652030  0.41746774  0.44266413  1
  O2-  O410  1  0.75314905  0.42029104  0.77576353  1
  O2-  O411  1  0.74581412  0.91918865  0.09888220  1
  O2-  O412  1  0.75640468  0.91318934  0.43290328  1
  O2-  O413  1  0.74867406  0.92231070  0.77333111  1
  O2-  O414  1  0.26414713  0.41381635  0.24864293  1
  O2-  O415  1  0.23290623  0.41576153  0.55770360  1
  O2-  O416  1  0.24250808  0.41716445  0.88605087  1
  O2-  O417  1  0.26097218  0.92268371  0.21368218  1
  O2-  O418  1  0.23008868  0.92137942  0.55408314  1
  O2-  O419  1  0.26367652  0.91947648  0.90167498  1
  O2-  O420  1  0.58436349  0.41486273  0.23466462  1
  O2-  O421  1  0.59053201  0.41785456  0.56076721  1
  O2-  O422  1  0.59687426  0.41502388  0.88697116  1
  O2-  O423  1  0.56221766  0.92056010  0.22462807  1
  O2-  O424  1  0.57237016  0.91983473  0.55438171  1
  O2-  O425  1  0.58351023  0.92155536  0.89293141  1
  O2-  O426  1  0.90270359  0.41528067  0.23056740  1
  O2-  O427  1  0.93519263  0.41741229  0.55520131  1
  O2-  O428  1  0.91427432  0.42216736  0.88489077  1
  O2-  O429  1  0.92741062  0.91560520  0.24392565  1
  O2-  O430  1  0.93874835  0.92210377  0.55385137  1
  O2-  O431  1  0.90060983  0.91833534  0.89810121  1
  O2-  O432  1  -0.01752871  0.01737856  0.01635974  1
  O2-  O433  1  0.00287101  0.00891069  0.32458649  1
  O2-  O434  1  0.00508654  -0.00107937  0.66417907  1
  O2-  O435  1  0.02275117  0.49777049  -0.03166385  1
  O2-  O436  1  0.00001543  0.50350968  0.32835942  1
  O2-  O437  1  0.01501724  0.49352386  0.65239548  1
  O2-  O438  1  0.31879001  -0.00063199  0.03284624  1
  O2-  O439  1  0.33185134  -0.00976415  0.33616905  1
  O2-  O440  1  0.32848922  -0.00003516  0.67709492  1
  O2-  O441  1  0.33372844  0.50108337  0.00145578  1
  O2-  O442  1  0.33314374  0.50944685  0.33771997  1
  O2-  O443  1  0.32398543  0.50699410  0.67837758  1
  O2-  O444  1  0.66740803  0.00103326  0.00829075  1
  O2-  O445  1  0.65758776  0.01009354  0.35087416  1
  O2-  O446  1  0.65366795  0.00986898  0.68764688  1
  O2-  O447  1  0.67354863  0.49130934  -0.01555760  1
  O2-  O448  1  0.66627064  0.50166741  0.33388168  1
  O2-  O449  1  0.65471769  0.49630514  0.67775005  1
  O2-  O450  1  0.18009487  0.00364554  0.02837173  1
  O2-  O451  1  0.16854465  -0.00275808  0.33679365  1
  O2-  O452  1  0.16453854  0.00083375  0.67431509  1
  O2-  O453  1  0.17343408  0.51166843  0.00620251  1
  O2-  O454  1  0.17451466  0.50560467  0.34763800  1
  O2-  O455  1  0.16553253  0.49942187  0.65133826  1
  O2-  O456  1  0.50961194  -0.00538634  0.01186011  1
  O2-  O457  1  0.50655182  -0.00599248  0.35023256  1
  O2-  O458  1  0.49236760  0.00013813  0.66347171  1
  O2-  O459  1  0.49616586  0.48822296  -0.02164598  1
  O2-  O460  1  0.50856130  0.51173458  0.34028559  1
  O2-  O461  1  0.50295886  0.51014575  0.68250879  1
  O2-  O462  1  0.83747257  0.00952513  0.00589631  1
  O2-  O463  1  0.83265591  0.01016425  0.33174545  1
  O2-  O464  1  0.84837659  0.00898387  0.68281437  1
  O2-  O465  1  0.82060271  0.49225642  -0.01461826  1
  O2-  O466  1  0.83938572  0.49858184  0.33859807  1
  O2-  O467  1  0.85845506  0.49498287  0.68456704  1
  O2-  O468  1  0.58050481  0.74782289  0.59980437  1
  O2-  O469  1  0.92204430  0.75029161  0.91843049  1
  O2-  O470  1  0.25282149  0.25061402  0.60147222  1
  O2-  O471  1  0.92034636  0.25164040  0.26125181  1
  O2-  O472  1  0.08399308  0.25382525  0.08219563  1
  O2-  O473  1  0.57996799  0.25015254  0.92190591  1
  O2-  O474  1  0.08213786  0.74936123  0.39484599  1
  O2-  O475  1  0.25011334  0.75417970  0.26734690  1
  O2-  O476  1  0.41995931  0.24894532  0.73198408  1
  O2-  O477  1  0.42085753  0.75303789  0.07809375  1
  O2-  O478  1  0.41692290  0.74916857  0.39543929  1
  O2-  O479  1  0.07653129  0.75022704  0.73301748  1
  O2-  O480  1  0.92476009  0.74942038  0.27013934  1
  O2-  O481  1  0.08448501  0.74944564  0.07511161  1
  O2-  O482  1  0.59224914  0.25025555  0.60136452  1
  O2-  O483  1  0.74174860  0.24877461  0.73469750  1
  O2-  O484  1  0.42582980  0.74788079  0.73098462  1
  O2-  O485  1  0.91781594  0.74722559  0.59615849  1
  O2-  O486  1  0.75180020  0.74846200  0.39747504  1
  O2-  O487  1  0.75008613  0.75516164  0.74291284  1
  O2-  O488  1  0.57802630  0.75288293  0.91925392  1
  O2-  O489  1  0.41736148  0.24816732  0.07536980  1
  O2-  O490  1  0.24932468  0.24778121  0.25441157  1
  O2-  O491  1  0.74885154  0.25268280  0.40529693  1
  O2-  O492  1  0.57872299  0.75492946  0.26190768  1
