# generated using pymatgen
data_Ca108Mn108O277
_symmetry_space_group_name_H-M   'P 1'
_cell_length_a   16.03103056
_cell_length_b   22.31019841
_cell_length_c   16.39284740
_cell_angle_alpha   89.99712646
_cell_angle_beta   90.00539624
_cell_angle_gamma   89.99552102
_symmetry_Int_Tables_number   1
_chemical_formula_structural   Ca108Mn108O277
_chemical_formula_sum   'Ca108 Mn108 O277'
_cell_volume   5862.99153220
_cell_formula_units_Z   1
loop_
 _symmetry_equiv_pos_site_id
 _symmetry_equiv_pos_as_xyz
  1  'x, y, z'
loop_
 _atom_type_symbol
 _atom_type_oxidation_number
  Ca2+  2.0
  Mn3.34+  3.34
  O2-  -2.0
loop_
 _atom_site_type_symbol
 _atom_site_label
 _atom_site_symmetry_multiplicity
 _atom_site_fract_x
 _atom_site_fract_y
 _atom_site_fract_z
 _atom_site_occupancy
  Ca2+  Ca0  1  0.08541462  0.24885811  0.22423694  1
  Ca2+  Ca1  1  0.07706779  0.25307363  0.58875227  1
  Ca2+  Ca2  1  0.08944978  0.22874535  0.94159139  1
  Ca2+  Ca3  1  0.08272554  0.75138564  0.24679044  1
  Ca2+  Ca4  1  0.08802294  0.74765423  0.57230635  1
  Ca2+  Ca5  1  0.07466338  0.76226910  0.92436022  1
  Ca2+  Ca6  1  0.41330902  0.25096822  0.25200034  1
  Ca2+  Ca7  1  0.43036874  0.24253373  0.59952295  1
  Ca2+  Ca8  1  0.41079043  0.24212803  0.90744460  1
  Ca2+  Ca9  1  0.41119041  0.75133686  0.25265966  1
  Ca2+  Ca10  1  0.40776531  0.75406605  0.57809629  1
  Ca2+  Ca11  1  0.42800070  0.75662928  0.91161172  1
  Ca2+  Ca12  1  0.75972565  0.26264847  0.23926498  1
  Ca2+  Ca13  1  0.74875478  0.25240152  0.59943307  1
  Ca2+  Ca14  1  0.75589297  0.26059687  0.91658767  1
  Ca2+  Ca15  1  0.75723614  0.76311921  0.24888975  1
  Ca2+  Ca16  1  0.74660597  0.74715135  0.59356476  1
  Ca2+  Ca17  1  0.74512827  0.75355909  0.90831476  1
  Ca2+  Ca18  1  0.24352079  0.21977920  0.08617065  1
  Ca2+  Ca19  1  0.26031799  0.24189466  0.39737033  1
  Ca2+  Ca20  1  0.27601438  0.24076868  0.75789370  1
  Ca2+  Ca21  1  0.23114835  0.75522606  0.08693583  1
  Ca2+  Ca22  1  0.23132930  0.73250102  0.42273602  1
  Ca2+  Ca23  1  0.25635484  0.76388055  0.73801498  1
  Ca2+  Ca24  1  0.58971462  0.25566041  0.08392956  1
  Ca2+  Ca25  1  0.57747763  0.26361323  0.42084631  1
  Ca2+  Ca26  1  0.57692476  0.25371673  0.74819093  1
  Ca2+  Ca27  1  0.57429253  0.74617609  0.06114200  1
  Ca2+  Ca28  1  0.57409479  0.75299396  0.42370310  1
  Ca2+  Ca29  1  0.58950986  0.75429197  0.76961869  1
  Ca2+  Ca30  1  0.92801262  0.23644681  0.08145182  1
  Ca2+  Ca31  1  0.92203538  0.26362074  0.40982110  1
  Ca2+  Ca32  1  0.90290319  0.24785307  0.75797737  1
  Ca2+  Ca33  1  0.94295381  0.75071225  0.07792217  1
  Ca2+  Ca34  1  0.93643244  0.74759934  0.41821723  1
  Ca2+  Ca35  1  0.90971652  0.74613555  0.76021772  1
  Ca2+  Ca36  1  0.55108256  0.09944975  0.73985116  1
  Ca2+  Ca37  1  0.71967459  0.60502896  0.90609983  1
  Ca2+  Ca38  1  0.90874829  0.09918929  0.42584139  1
  Ca2+  Ca39  1  0.91057475  0.58373878  0.43471368  1
  Ca2+  Ca40  1  0.91992849  0.58575907  0.43133663  1
  Ca2+  Ca41  1  0.76417362  0.57213648  0.60082137  1
  Ca2+  Ca42  1  0.23871990  0.57028868  0.70851222  1
  Ca2+  Ca43  1  0.09041176  0.60352532  0.26468530  1
  Ca2+  Ca44  1  0.54388178  0.10280301  0.42491506  1
  Ca2+  Ca45  1  0.22489124  0.60602517  0.09444878  1
  Ca2+  Ca46  1  0.46281888  0.59214486  0.91055909  1
  Ca2+  Ca47  1  0.59872609  0.57704883  0.72868357  1
  Ca2+  Ca48  1  0.59560440  0.58861543  0.41762990  1
  Ca2+  Ca49  1  0.92785107  0.59058756  0.08143104  1
  Ca2+  Ca50  1  0.41004804  0.59317979  0.27088275  1
  Ca2+  Ca51  1  0.72742806  0.59993768  0.90166487  1
  Ca2+  Ca52  1  0.75968206  0.09453467  0.24303317  1
  Ca2+  Ca53  1  0.55587196  0.10299185  0.42102837  1
  Ca2+  Ca54  1  0.38971021  0.57315732  0.58231517  1
  Ca2+  Ca55  1  0.38370688  0.12131033  0.23104674  1
  Ca2+  Ca56  1  0.09050832  0.60208836  0.57029000  1
  Ca2+  Ca57  1  0.07498162  0.59623988  0.91906800  1
  Ca2+  Ca58  1  0.45091394  0.59108906  0.91452519  1
  Ca2+  Ca59  1  0.74730026  0.09250517  0.24385635  1
  Ca2+  Ca60  1  0.08755989  0.59925140  0.25673140  1
  Ca2+  Ca61  1  0.90644994  0.57589970  0.72035898  1
  Ca2+  Ca62  1  0.06655736  0.08794971  0.60415486  1
  Ca2+  Ca63  1  0.39381991  0.12085165  0.23074219  1
  Ca2+  Ca64  1  0.06356379  0.59620046  0.91736927  1
  Ca2+  Ca65  1  0.77691272  0.55952595  0.27714105  1
  Ca2+  Ca66  1  0.28675506  0.10417038  0.40332170  1
  Ca2+  Ca67  1  0.76391164  0.09257012  0.92112330  1
  Ca2+  Ca68  1  0.59474561  0.59349761  0.07386197  1
  Ca2+  Ca69  1  0.56746967  0.09903926  0.08849880  1
  Ca2+  Ca70  1  0.91216897  0.10053040  0.74478567  1
  Ca2+  Ca71  1  0.10298469  0.09975381  0.22316101  1
  Ca2+  Ca72  1  0.59631090  0.91411188  0.07672582  1
  Ca2+  Ca73  1  0.42995778  0.41947563  0.61091767  1
  Ca2+  Ca74  1  0.07853081  0.39406944  0.91214705  1
  Ca2+  Ca75  1  0.92969126  0.91205806  0.07709830  1
  Ca2+  Ca76  1  0.25681636  0.40755470  0.43008543  1
  Ca2+  Ca77  1  0.90059021  0.90069250  0.41257944  1
  Ca2+  Ca78  1  0.07184930  0.41929136  0.58867445  1
  Ca2+  Ca79  1  0.07503679  0.91062315  0.24271642  1
  Ca2+  Ca80  1  0.24437310  0.40880598  0.42947433  1
  Ca2+  Ca81  1  0.42829213  0.91314340  0.25580918  1
  Ca2+  Ca82  1  0.73905412  0.89892195  0.58024071  1
  Ca2+  Ca83  1  0.41574043  0.91318152  0.25617693  1
  Ca2+  Ca84  1  0.25116076  0.38748473  0.07940016  1
  Ca2+  Ca85  1  0.74389551  0.42200292  0.59854731  1
  Ca2+  Ca86  1  0.23867667  0.38885901  0.08038391  1
  Ca2+  Ca87  1  0.92768387  0.90819326  0.75417498  1
  Ca2+  Ca88  1  0.23086743  0.91836388  0.07058413  1
  Ca2+  Ca89  1  0.41772669  0.90786963  0.58866919  1
  Ca2+  Ca90  1  0.42060423  0.39464950  0.24965256  1
  Ca2+  Ca91  1  0.08698573  0.91116871  0.24274166  1
  Ca2+  Ca92  1  0.90444126  0.41105660  0.73486971  1
  Ca2+  Ca93  1  0.27339183  0.41422004  0.73223246  1
  Ca2+  Ca94  1  0.25446702  0.90008783  0.42176470  1
  Ca2+  Ca95  1  0.75296003  0.90787125  0.92061224  1
  Ca2+  Ca96  1  0.89462542  0.41317803  0.73714894  1
  Ca2+  Ca97  1  0.93972670  0.90599266  0.75600861  1
  Ca2+  Ca98  1  0.89072261  0.42654456  0.37699450  1
  Ca2+  Ca99  1  0.08343724  0.41756404  0.58970260  1
  Ca2+  Ca100  1  0.26369119  0.41250484  0.72911283  1
  Ca2+  Ca101  1  0.90648839  0.39921992  0.10029159  1
  Ca2+  Ca102  1  0.43210658  0.39458701  0.24799122  1
  Ca2+  Ca103  1  0.41533350  0.91358715  0.90984798  1
  Ca2+  Ca104  1  0.58976338  0.90801213  0.41305405  1
  Ca2+  Ca105  1  0.40252991  0.91364240  0.90931389  1
  Ca2+  Ca106  1  0.58407172  0.91689323  0.07366222  1
  Ca2+  Ca107  1  0.09325964  0.90511889  0.60186379  1
  Mn3.34+  Mn108  1  0.07542340  0.33044156  0.08157360  1
  Mn3.34+  Mn109  1  0.07870466  0.33614249  0.41289250  1
  Mn3.34+  Mn110  1  0.08227863  0.33122890  0.75397891  1
  Mn3.34+  Mn111  1  0.08489209  0.83451153  0.08049847  1
  Mn3.34+  Mn112  1  0.08272936  0.83208729  0.41895289  1
  Mn3.34+  Mn113  1  0.09096217  0.83257975  0.75404038  1
  Mn3.34+  Mn114  1  0.42050594  0.32217300  0.07992332  1
  Mn3.34+  Mn115  1  0.41892948  0.33432278  0.42946493  1
  Mn3.34+  Mn116  1  0.43176102  0.33594257  0.76002683  1
  Mn3.34+  Mn117  1  0.41034339  0.83279934  0.08550316  1
  Mn3.34+  Mn118  1  0.41767843  0.83083670  0.42080323  1
  Mn3.34+  Mn119  1  0.41628772  0.83958422  0.74662879  1
  Mn3.34+  Mn120  1  0.74742116  0.33741197  0.07969222  1
  Mn3.34+  Mn121  1  0.74721959  0.34388649  0.42317209  1
  Mn3.34+  Mn122  1  0.73648135  0.33915037  0.75672760  1
  Mn3.34+  Mn123  1  0.75347051  0.83284250  0.08681969  1
  Mn3.34+  Mn124  1  0.74705056  0.82738830  0.42005131  1
  Mn3.34+  Mn125  1  0.74924619  0.83495654  0.75122111  1
  Mn3.34+  Mn126  1  0.24194732  0.32793390  0.25090293  1
  Mn3.34+  Mn127  1  0.24800651  0.33002203  0.58142786  1
  Mn3.34+  Mn128  1  0.25192795  0.32633516  0.91061074  1
  Mn3.34+  Mn129  1  0.24943140  0.83427595  0.24866183  1
  Mn3.34+  Mn130  1  0.25035615  0.83292995  0.58244363  1
  Mn3.34+  Mn131  1  0.24239205  0.83975571  0.91155074  1
  Mn3.34+  Mn132  1  0.59576039  0.32880961  0.25168982  1
  Mn3.34+  Mn133  1  0.58556877  0.33539291  0.58488473  1
  Mn3.34+  Mn134  1  0.58194110  0.33490573  0.92080571  1
  Mn3.34+  Mn135  1  0.58841608  0.83100901  0.24554407  1
  Mn3.34+  Mn136  1  0.58167869  0.83510597  0.58540460  1
  Mn3.34+  Mn137  1  0.58370609  0.83493094  0.91239910  1
  Mn3.34+  Mn138  1  0.91570857  0.33759502  0.24979685  1
  Mn3.34+  Mn139  1  0.91109683  0.33822208  0.56957500  1
  Mn3.34+  Mn140  1  0.91249818  0.33024663  0.91633325  1
  Mn3.34+  Mn141  1  0.91229983  0.83612737  0.24747218  1
  Mn3.34+  Mn142  1  0.91551466  0.82868210  0.58179291  1
  Mn3.34+  Mn143  1  0.91861389  0.83722834  0.91948015  1
  Mn3.34+  Mn144  1  0.75563849  0.17849959  0.42184839  1
  Mn3.34+  Mn145  1  0.41715453  0.66725279  0.42410794  1
  Mn3.34+  Mn146  1  0.91517020  0.66855524  0.58411504  1
  Mn3.34+  Mn147  1  0.91510362  0.66867442  0.24750076  1
  Mn3.34+  Mn148  1  0.25305745  0.67481708  0.25121881  1
  Mn3.34+  Mn149  1  0.75054852  0.16967868  0.74788730  1
  Mn3.34+  Mn150  1  0.08196086  0.67017745  0.74912353  1
  Mn3.34+  Mn151  1  0.91851170  0.16336035  0.92042044  1
  Mn3.34+  Mn152  1  0.58723186  0.16683427  0.91586788  1
  Mn3.34+  Mn153  1  0.07698862  0.17002086  0.41650853  1
  Mn3.34+  Mn154  1  0.59658621  0.66783630  0.24702748  1
  Mn3.34+  Mn155  1  0.58687554  0.67323546  0.24905963  1
  Mn3.34+  Mn156  1  0.08196987  0.16039050  0.75501709  1
  Mn3.34+  Mn157  1  0.08837455  0.16405857  0.41774897  1
  Mn3.34+  Mn158  1  0.58621719  0.66227361  0.57687876  1
  Mn3.34+  Mn159  1  0.74788341  0.66688571  0.74722022  1
  Mn3.34+  Mn160  1  0.74660012  0.16956416  0.42624607  1
  Mn3.34+  Mn161  1  0.24389815  0.66739804  0.91283493  1
  Mn3.34+  Mn162  1  0.75469537  0.16899193  0.08155304  1
  Mn3.34+  Mn163  1  0.42496347  0.66634161  0.74402303  1
  Mn3.34+  Mn164  1  0.75179638  0.66140776  0.08620022  1
  Mn3.34+  Mn165  1  0.24749622  0.66416273  0.57879082  1
  Mn3.34+  Mn166  1  0.25836231  0.67193355  0.91810901  1
  Mn3.34+  Mn167  1  0.25284705  0.16394894  0.58614418  1
  Mn3.34+  Mn168  1  0.09506060  0.16374906  0.75874197  1
  Mn3.34+  Mn169  1  0.58508590  0.16891862  0.24307371  1
  Mn3.34+  Mn170  1  0.26244227  0.15534807  0.92252547  1
  Mn3.34+  Mn171  1  0.26363572  0.15966067  0.58438174  1
  Mn3.34+  Mn172  1  0.90049427  0.66375016  0.24490849  1
  Mn3.34+  Mn173  1  0.41332995  0.66936029  0.08696690  1
  Mn3.34+  Mn174  1  0.57691675  0.16233780  0.91521793  1
  Mn3.34+  Mn175  1  0.75067705  0.66803988  0.42886587  1
  Mn3.34+  Mn176  1  0.92299161  0.16829263  0.24425100  1
  Mn3.34+  Mn177  1  0.41246372  0.65934724  0.74570129  1
  Mn3.34+  Mn178  1  0.58524481  0.17034952  0.58705249  1
  Mn3.34+  Mn179  1  0.91091240  0.66868570  0.91546289  1
  Mn3.34+  Mn180  1  0.24922353  0.50465579  0.90999155  1
  Mn3.34+  Mn181  1  0.58265348  0.49803157  0.58593804  1
  Mn3.34+  Mn182  1  0.58859187  0.00114832  0.25804932  1
  Mn3.34+  Mn183  1  0.41694407  0.50468506  0.08537301  1
  Mn3.34+  Mn184  1  0.89295987  0.49626315  0.92177055  1
  Mn3.34+  Mn185  1  0.58962852  0.50028525  0.24841515  1
  Mn3.34+  Mn186  1  0.24118106  -0.00027082  0.59877161  1
  Mn3.34+  Mn187  1  0.91853501  0.00239269  0.58266871  1
  Mn3.34+  Mn188  1  0.57956295  0.00133607  0.91848538  1
  Mn3.34+  Mn189  1  0.75088234  0.00212576  0.42316514  1
  Mn3.34+  Mn190  1  0.09641719  -0.00242610  0.42628849  1
  Mn3.34+  Mn191  1  0.57790083  0.00263160  0.58192140  1
  Mn3.34+  Mn192  1  0.23571029  0.00284718  0.92760775  1
  Mn3.34+  Mn193  1  0.07658723  0.49933024  0.74959238  1
  Mn3.34+  Mn194  1  0.24126778  0.49483241  0.24442789  1
  Mn3.34+  Mn195  1  0.08144326  0.00245545  0.42416117  1
  Mn3.34+  Mn196  1  0.74152075  0.49957619  0.08616727  1
  Mn3.34+  Mn197  1  0.60044750  0.48586771  0.92180146  1
  Mn3.34+  Mn198  1  0.90721271  -0.00168516  0.58076565  1
  Mn3.34+  Mn199  1  0.72738074  0.00001609  0.74669076  1
  Mn3.34+  Mn200  1  0.41131406  0.00589790  0.73006421  1
  Mn3.34+  Mn201  1  0.07346046  0.49818861  0.40085983  1
  Mn3.34+  Mn202  1  0.26042645  0.49916828  0.90818915  1
  Mn3.34+  Mn203  1  0.25567465  0.50100012  0.24500226  1
  Mn3.34+  Mn204  1  0.93236280  0.00769915  0.93799766  1
  Mn3.34+  Mn205  1  0.91461753  0.00256391  0.25158186  1
  Mn3.34+  Mn206  1  0.43103619  0.49838246  0.08434523  1
  Mn3.34+  Mn207  1  0.75909042  -0.00070625  0.07768779  1
  Mn3.34+  Mn208  1  0.42517390  0.50043744  0.41860863  1
  Mn3.34+  Mn209  1  0.07982913  0.49746695  0.08437763  1
  Mn3.34+  Mn210  1  0.25127129  0.00110550  0.24458743  1
  Mn3.34+  Mn211  1  0.41021163  -0.00583409  0.41850123  1
  Mn3.34+  Mn212  1  0.60166467  0.49306819  0.25196056  1
  Mn3.34+  Mn213  1  0.40105522  0.00600615  0.07138656  1
  Mn3.34+  Mn214  1  0.90386633  0.49953700  0.92040641  1
  Mn3.34+  Mn215  1  0.74047756  0.00620792  0.74555456  1
  O2-  O216  1  -0.00550064  0.16184691  -0.00349483  1
  O2-  O217  1  -0.00315760  0.14367344  0.33468232  1
  O2-  O218  1  0.00664830  0.17062788  0.67202689  1
  O2-  O219  1  -0.00842625  0.65272173  -0.00395084  1
  O2-  O220  1  -0.01346424  0.64311350  0.33547445  1
  O2-  O221  1  -0.00263246  0.67927221  0.66867335  1
  O2-  O222  1  0.33649519  0.17004473  -0.00445482  1
  O2-  O223  1  0.34598318  0.17867941  0.33450389  1
  O2-  O224  1  0.33812857  0.16441462  0.66578023  1
  O2-  O225  1  0.33232805  0.63393814  -0.00399747  1
  O2-  O226  1  0.33808749  0.66726507  0.33110217  1
  O2-  O227  1  0.33393118  0.64833305  0.66413665  1
  O2-  O228  1  0.66250593  0.14483073  0.00097778  1
  O2-  O229  1  0.66319834  0.15163961  0.34435117  1
  O2-  O230  1  0.66236356  0.15299470  0.67394488  1
  O2-  O231  1  0.67013305  0.66443873  0.00402119  1
  O2-  O232  1  0.67125903  0.66817394  0.33873054  1
  O2-  O233  1  0.67034917  0.65977385  0.66066511  1
  O2-  O234  1  0.17572518  0.15847286  -0.00598115  1
  O2-  O235  1  0.16669071  0.14287410  0.34511540  1
  O2-  O236  1  0.16993242  0.14374681  0.66400361  1
  O2-  O237  1  0.16189962  0.65184595  -0.00823277  1
  O2-  O238  1  0.16389607  0.66845346  0.32558624  1
  O2-  O239  1  0.16608206  0.66463518  0.66935630  1
  O2-  O240  1  0.50323342  0.16778447  -0.00065098  1
  O2-  O241  1  0.49993862  0.15032642  0.31531399  1
  O2-  O242  1  0.50179044  0.16466929  0.65591491  1
  O2-  O243  1  0.49881793  0.65120315  0.01158851  1
  O2-  O244  1  0.50772038  0.65529443  0.33496016  1
  O2-  O245  1  0.50556502  0.65061786  0.66075379  1
  O2-  O246  1  0.83078683  0.15763231  -0.00185704  1
  O2-  O247  1  0.82599306  0.16143421  0.33127152  1
  O2-  O248  1  0.83475240  0.17188524  0.67595190  1
  O2-  O249  1  0.82540372  0.64223682  -0.00407395  1
  O2-  O250  1  0.82950056  0.65985980  0.33844930  1
  O2-  O251  1  0.83403551  0.66118250  0.66767035  1
  O2-  O252  1  -0.00586964  0.34915452  0.00102882  1
  O2-  O253  1  -0.00871318  0.34960659  0.34238352  1
  O2-  O254  1  -0.00123704  0.34213118  0.66353894  1
  O2-  O255  1  -0.00277095  0.84230749  0.00453587  1
  O2-  O256  1  -0.00049983  0.85492618  0.33398450  1
  O2-  O257  1  -0.00275968  0.82285769  0.66843380  1
  O2-  O258  1  0.32849488  0.32867485  0.00475209  1
  O2-  O259  1  0.33743202  0.34012628  0.33228296  1
  O2-  O260  1  0.33472504  0.34263543  0.65475801  1
  O2-  O261  1  0.33357112  0.85709733  0.00194093  1
  O2-  O262  1  0.33825030  0.84531210  0.32751840  1
  O2-  O263  1  0.33453760  0.84493347  0.66170738  1
  O2-  O264  1  0.66441709  0.34115462  0.00179064  1
  O2-  O265  1  0.67343412  0.32356438  0.33937812  1
  O2-  O266  1  0.67374505  0.34656411  0.65870486  1
  O2-  O267  1  0.66373575  0.84074383  0.00343387  1
  O2-  O268  1  0.66262768  0.81084967  0.33668495  1
  O2-  O269  1  0.66945882  0.82898311  0.66299592  1
  O2-  O270  1  0.16277120  0.33622237  -0.00594219  1
  O2-  O271  1  0.17450560  0.35628753  0.33908920  1
  O2-  O272  1  0.16552164  0.35593348  0.66733536  1
  O2-  O273  1  0.16721827  0.84403588  0.00022945  1
  O2-  O274  1  0.16483062  0.85213154  0.33101232  1
  O2-  O275  1  0.16210799  0.82542998  0.66282005  1
  O2-  O276  1  0.49863510  0.31163041  0.00154184  1
  O2-  O277  1  0.49652596  0.33571712  0.33735480  1
  O2-  O278  1  0.50412384  0.34317607  0.66834237  1
  O2-  O279  1  0.49892583  0.85350744  0.00394407  1
  O2-  O280  1  0.50290015  0.84593515  0.33236889  1
  O2-  O281  1  0.49936298  0.82628211  0.66319608  1
  O2-  O282  1  0.83405882  0.34365827  -0.00122050  1
  O2-  O283  1  0.83086299  0.33070426  0.33792766  1
  O2-  O284  1  0.83670558  0.33811641  0.65957115  1
  O2-  O285  1  0.82840326  0.84543105  -0.00072899  1
  O2-  O286  1  0.83143003  0.82806883  0.33938768  1
  O2-  O287  1  0.83802174  0.84857703  0.66934789  1
  O2-  O288  1  0.00371265  0.16982232  0.17401323  1
  O2-  O289  1  0.00381591  0.18905797  0.49543971  1
  O2-  O290  1  -0.00337848  0.17966289  0.83077606  1
  O2-  O291  1  0.00343172  0.67270496  0.17425259  1
  O2-  O292  1  -0.00707350  0.67700078  0.50634886  1
  O2-  O293  1  0.00444917  0.68210300  0.83908212  1
  O2-  O294  1  0.34888245  0.19418568  0.16147485  1
  O2-  O295  1  0.33127881  0.18440632  0.50017105  1
  O2-  O296  1  0.33049918  0.17458401  0.84021020  1
  O2-  O297  1  0.33050891  0.68565326  0.16341981  1
  O2-  O298  1  0.33545908  0.67631138  0.50292045  1
  O2-  O299  1  0.33762799  0.67998463  0.83737925  1
  O2-  O300  1  0.67679307  0.17865809  0.17342301  1
  O2-  O301  1  0.67028344  0.18956503  0.50380505  1
  O2-  O302  1  0.67030315  0.17347984  0.84025565  1
  O2-  O303  1  0.67112236  0.69314674  0.16252086  1
  O2-  O304  1  0.66516972  0.69290289  0.49913309  1
  O2-  O305  1  0.66763235  0.67662826  0.82733490  1
  O2-  O306  1  0.15953728  0.17317549  0.16756970  1
  O2-  O307  1  0.16770260  0.17784925  0.50702074  1
  O2-  O308  1  0.16846498  0.17004714  0.83585587  1
  O2-  O309  1  0.17065790  0.68265248  0.17325674  1
  O2-  O310  1  0.16389701  0.67638060  0.50939728  1
  O2-  O311  1  0.16296394  0.68675402  0.83364353  1
  O2-  O312  1  0.50855795  0.17763384  0.16503655  1
  O2-  O313  1  0.51562632  0.18298957  0.49165224  1
  O2-  O314  1  0.50681108  0.17926448  0.83015984  1
  O2-  O315  1  0.50201009  0.69014848  0.17240129  1
  O2-  O316  1  0.50200469  0.68721158  0.50405896  1
  O2-  O317  1  0.49448876  0.67624944  0.83593967  1
  O2-  O318  1  0.83120788  0.18081530  0.17253279  1
  O2-  O319  1  0.84168248  0.19342936  0.49017759  1
  O2-  O320  1  0.83064746  0.17726782  0.83466413  1
  O2-  O321  1  0.83908235  0.69182168  0.15445494  1
  O2-  O322  1  0.83549376  0.69454081  0.50084154  1
  O2-  O323  1  0.82408717  0.67522568  0.83933052  1
  O2-  O324  1  -0.00196383  0.32745468  0.16527932  1
  O2-  O325  1  0.00062529  0.31574755  0.50324911  1
  O2-  O326  1  0.00013475  0.31730728  0.83296600  1
  O2-  O327  1  0.00736967  0.82485054  0.17148096  1
  O2-  O328  1  -0.00163691  0.81648707  0.50105623  1
  O2-  O329  1  -0.00108161  0.82046083  0.82707714  1
  O2-  O330  1  0.33654195  0.32479252  0.17037660  1
  O2-  O331  1  0.31603031  0.31589481  0.48715102  1
  O2-  O332  1  0.32880963  0.32780970  0.82537401  1
  O2-  O333  1  0.33038777  0.81316349  0.16902073  1
  O2-  O334  1  0.33086579  0.82353534  0.49584680  1
  O2-  O335  1  0.33708275  0.82846464  0.84117057  1
  O2-  O336  1  0.66903589  0.31977521  0.16578502  1
  O2-  O337  1  0.66766004  0.31865869  0.49962033  1
  O2-  O338  1  0.66228752  0.32434302  0.83590067  1
  O2-  O339  1  0.66444057  0.81076582  0.15958848  1
  O2-  O340  1  0.66466595  0.81703149  0.50281332  1
  O2-  O341  1  0.67287836  0.82469445  0.83898003  1
  O2-  O342  1  0.17183090  0.32531340  0.15676391  1
  O2-  O343  1  0.15674043  0.33022881  0.50670311  1
  O2-  O344  1  0.17298343  0.34447689  0.82615102  1
  O2-  O345  1  0.16261852  0.81972165  0.17390181  1
  O2-  O346  1  0.16989161  0.81849656  0.49563992  1
  O2-  O347  1  0.16608663  0.80657164  0.83037026  1
  O2-  O348  1  0.49408382  0.31955148  0.17467581  1
  O2-  O349  1  0.49371532  0.31455359  0.51045467  1
  O2-  O350  1  0.50204602  0.31366358  0.84063338  1
  O2-  O351  1  0.49405457  0.81834109  0.16966287  1
  O2-  O352  1  0.49964568  0.81854530  0.50254215  1
  O2-  O353  1  0.49436007  0.82992101  0.83731913  1
  O2-  O354  1  0.83958344  0.31884277  0.15963299  1
  O2-  O355  1  0.82868850  0.31062890  0.49903630  1
  O2-  O356  1  0.83726936  0.32550758  0.82479158  1
  O2-  O357  1  0.84079606  0.81358898  0.15961686  1
  O2-  O358  1  0.82908616  0.81433066  0.50520896  1
  O2-  O359  1  0.83936767  0.82992691  0.83142424  1
  O2-  O360  1  0.09392163  0.08063479  0.08565496  1
  O2-  O361  1  0.07189887  0.08235597  0.45965144  1
  O2-  O362  1  0.06392415  0.07954125  0.75449301  1
  O2-  O363  1  0.08624330  0.57343485  0.13511194  1
  O2-  O364  1  0.05834962  0.57061663  0.44986095  1
  O2-  O365  1  0.08762164  0.57935127  0.78255637  1
  O2-  O366  1  0.44952811  0.06145340  0.13907863  1
  O2-  O367  1  0.41774537  0.07563488  0.43301302  1
  O2-  O368  1  0.42537003  0.06378481  0.79293089  1
  O2-  O369  1  0.41877903  0.58041936  0.13423651  1
  O2-  O370  1  0.43567489  0.58376059  0.44648412  1
  O2-  O371  1  0.42548937  0.58007479  0.78094232  1
  O2-  O372  1  0.75133462  0.08076660  0.11073525  1
  O2-  O373  1  0.76681660  0.08408544  0.45223500  1
  O2-  O374  1  0.75343898  0.08242207  0.78213185  1
  O2-  O375  1  0.73375164  0.57619682  0.13861704  1
  O2-  O376  1  0.76752535  0.58943210  0.46185141  1
  O2-  O377  1  0.74722567  0.58375495  0.76995871  1
  O2-  O378  1  0.26133457  0.08164779  0.24617993  1
  O2-  O379  1  0.25492681  0.07812337  0.54484735  1
  O2-  O380  1  0.25458631  0.07272204  0.89114723  1
  O2-  O381  1  0.24537959  0.58306988  0.22792417  1
  O2-  O382  1  0.24058436  0.58222563  0.57038526  1
  O2-  O383  1  0.24827026  0.58198827  0.86437632  1
  O2-  O384  1  0.60909181  0.08301165  0.22077685  1
  O2-  O385  1  0.58502031  0.08441052  0.55376178  1
  O2-  O386  1  0.58775487  0.08134180  0.88320678  1
  O2-  O387  1  0.57635857  0.58165815  0.21105400  1
  O2-  O388  1  0.59751808  0.57428535  0.54730374  1
  O2-  O389  1  0.58632097  0.56650204  0.86683876  1
  O2-  O390  1  0.89656904  0.08351314  0.22804871  1
  O2-  O391  1  0.93199560  0.08220217  0.55672907  1
  O2-  O392  1  0.90994275  0.07847308  0.88381078  1
  O2-  O393  1  0.90199709  0.58365418  0.21320472  1
  O2-  O394  1  0.91046444  0.58269841  0.56952923  1
  O2-  O395  1  0.92551044  0.57745923  0.86826587  1
  O2-  O396  1  0.10677521  0.41576978  0.08856988  1
  O2-  O397  1  0.10361430  0.42905101  0.45621548  1
  O2-  O398  1  0.05557847  0.42021925  0.77571014  1
  O2-  O399  1  0.08885812  0.91723924  0.11201659  1
  O2-  O400  1  0.08142344  0.91678152  0.45758054  1
  O2-  O401  1  0.07412144  0.91200225  0.74941268  1
  O2-  O402  1  0.40650959  0.41715263  0.11046805  1
  O2-  O403  1  0.39309739  0.42138692  0.45510710  1
  O2-  O404  1  0.40386033  0.41650475  0.75983967  1
  O2-  O405  1  0.41114807  0.92248903  0.12363125  1
  O2-  O406  1  0.41736916  0.91434229  0.44881964  1
  O2-  O407  1  0.41527650  0.93227329  0.77739583  1
  O2-  O408  1  0.76146512  0.41963471  0.10306962  1
  O2-  O409  1  0.76521018  0.41805114  0.45536745  1
  O2-  O410  1  0.76199510  0.41716121  0.76146388  1
  O2-  O411  1  0.73487050  0.92006825  0.11215529  1
  O2-  O412  1  0.74632596  0.91850379  0.44306241  1
  O2-  O413  1  0.75707111  0.92164216  0.78055179  1
  O2-  O414  1  0.26514115  0.41554238  0.21525536  1
  O2-  O415  1  0.24546001  0.41684673  0.56226381  1
  O2-  O416  1  0.25143135  0.41733495  0.92309722  1
  O2-  O417  1  0.24374874  0.92133404  0.21034752  1
  O2-  O418  1  0.24313445  0.91851848  0.55837207  1
  O2-  O419  1  0.25302323  0.92931130  0.88281605  1
  O2-  O420  1  0.57250595  0.41381333  0.22982537  1
  O2-  O421  1  0.57846752  0.42014916  0.55691499  1
  O2-  O422  1  0.55712791  0.41275203  0.90503339  1
  O2-  O423  1  0.56665510  0.92151435  0.20856682  1
  O2-  O424  1  0.58089406  0.92228374  0.54767031  1
  O2-  O425  1  0.58234552  0.91980757  0.89585752  1
  O2-  O426  1  0.90465520  0.41693111  0.23599967  1
  O2-  O427  1  0.93686654  0.41953113  0.55718874  1
  O2-  O428  1  0.92381733  0.41810759  0.88003295  1
  O2-  O429  1  0.93489239  0.92373128  0.21446615  1
  O2-  O430  1  0.90664558  0.91735887  0.54860557  1
  O2-  O431  1  0.92214710  0.93093882  0.88488364  1
  O2-  O432  1  -0.01325475  -0.00517801  0.02565409  1
  O2-  O433  1  0.00703754  -0.00640169  0.32960944  1
  O2-  O434  1  -0.02137051  -0.01385579  0.68134858  1
  O2-  O435  1  0.00579363  0.51601172  -0.01433883  1
  O2-  O436  1  0.00861041  0.52036415  0.31960511  1
  O2-  O437  1  0.00352993  0.49787301  0.67047728  1
  O2-  O438  1  0.33361734  -0.01595997  -0.01577277  1
  O2-  O439  1  0.33339956  -0.01891577  0.32780412  1
  O2-  O440  1  0.34990290  -0.00749288  0.64001526  1
  O2-  O441  1  0.34624395  0.50894692  -0.01063085  1
  O2-  O442  1  0.33713605  0.49659303  0.32930898  1
  O2-  O443  1  0.32318926  0.49705369  0.68415065  1
  O2-  O444  1  0.65679145  -0.00600635  0.01275740  1
  O2-  O445  1  0.65288424  0.01325067  0.36054093  1
  O2-  O446  1  0.67099080  -0.01008738  0.64871900  1
  O2-  O447  1  0.67851598  0.52962742  -0.00847584  1
  O2-  O448  1  0.66612170  0.52085712  0.33909167  1
  O2-  O449  1  0.66926137  0.50375202  0.65075790  1
  O2-  O450  1  0.17126978  -0.00202118  0.00690570  1
  O2-  O451  1  0.16450624  -0.00906030  0.32852436  1
  O2-  O452  1  0.12484223  0.00080965  0.58295501  1
  O2-  O453  1  0.16771512  0.52552254  -0.00659395  1
  O2-  O454  1  0.17193007  0.50158104  0.33894288  1
  O2-  O455  1  0.16160800  0.48156246  0.67660891  1
  O2-  O456  1  0.49627421  -0.01631469  0.00517265  1
  O2-  O457  1  0.49645134  -0.01779648  0.33602858  1
  O2-  O458  1  0.50779018  0.00322998  0.67648622  1
  O2-  O459  1  0.50890528  0.52110592  0.00039686  1
  O2-  O460  1  0.49450808  0.50063135  0.31870955  1
  O2-  O461  1  0.49186835  0.51257741  0.64013175  1
  O2-  O462  1  0.82212599  -0.00451905  -0.02254773  1
  O2-  O463  1  0.83265043  0.00756097  0.33660580  1
  O2-  O464  1  0.82754022  0.00331685  0.66841447  1
  O2-  O465  1  0.84408134  0.51549484  0.02521498  1
  O2-  O466  1  0.85293398  0.51754805  0.36472478  1
  O2-  O467  1  0.84395031  0.49357433  0.68322651  1
  O2-  O468  1  0.23213235  0.24803490  0.61210636  1
  O2-  O469  1  0.75930872  0.75095771  0.73756192  1
  O2-  O470  1  0.91101537  0.24949055  0.93526777  1
  O2-  O471  1  0.60635465  0.24690723  0.93640043  1
  O2-  O472  1  0.73900894  0.25218926  0.73798056  1
  O2-  O473  1  0.74330585  0.24943855  0.05933661  1
  O2-  O474  1  0.10730199  0.24732130  0.73212854  1
  O2-  O475  1  0.41773986  0.75258823  0.04815543  1
  O2-  O476  1  0.08461493  0.75449437  0.06150243  1
  O2-  O477  1  0.22927001  0.25156562  0.26566883  1
  O2-  O478  1  0.93027473  0.24906892  0.27123398  1
  O2-  O479  1  0.90666497  0.74911603  0.94051289  1
  O2-  O480  1  0.57817017  0.75574162  0.92556503  1
  O2-  O481  1  0.41700620  0.25742794  0.73706497  1
  O2-  O482  1  0.26217242  0.74975295  0.60018318  1
  O2-  O483  1  0.40473519  0.74729250  0.73137289  1
  O2-  O484  1  0.92747396  0.74720877  0.27702716  1
  O2-  O485  1  0.09745448  0.25018820  0.38334192  1
  O2-  O486  1  0.42253943  0.75073781  0.39315580  1
  O2-  O487  1  0.58285085  0.24714081  0.27576482  1
  O2-  O488  1  0.26080509  0.75238546  0.95033536  1
  O2-  O489  1  0.08109440  0.75583512  0.38960542  1
  O2-  O490  1  0.24003515  0.24776971  0.91744765  1
  O2-  O491  1  0.59290633  0.25301289  0.61076695  1
  O2-  O492  1  0.07582499  0.25170841  0.07392410  1
