# generated using pymatgen
data_Ca108Mn108O277
_symmetry_space_group_name_H-M   'P 1'
_cell_length_a   16.01927870
_cell_length_b   22.29537067
_cell_length_c   16.38282329
_cell_angle_alpha   90.00123789
_cell_angle_beta   90.00190530
_cell_angle_gamma   89.99669296
_symmetry_Int_Tables_number   1
_chemical_formula_structural   Ca108Mn108O277
_chemical_formula_sum   'Ca108 Mn108 O277'
_cell_volume   5851.21963032
_cell_formula_units_Z   1
loop_
 _symmetry_equiv_pos_site_id
 _symmetry_equiv_pos_as_xyz
  1  'x, y, z'
loop_
 _atom_type_symbol
 _atom_type_oxidation_number
  Ca2+  2.0
  Mn3.34+  3.34
  O2-  -2.0
loop_
 _atom_site_type_symbol
 _atom_site_label
 _atom_site_symmetry_multiplicity
 _atom_site_fract_x
 _atom_site_fract_y
 _atom_site_fract_z
 _atom_site_occupancy
  Ca2+  Ca0  1  0.09424578  0.25466130  0.25626883  1
  Ca2+  Ca1  1  0.08131413  0.25983181  0.59206089  1
  Ca2+  Ca2  1  0.07914562  0.25825510  0.90102755  1
  Ca2+  Ca3  1  0.07980279  0.74617409  0.24886545  1
  Ca2+  Ca4  1  0.10085712  0.74355018  0.59156182  1
  Ca2+  Ca5  1  0.08959800  0.74004228  0.91600254  1
  Ca2+  Ca6  1  0.40731472  0.24887111  0.25766304  1
  Ca2+  Ca7  1  0.41948727  0.26397786  0.58633520  1
  Ca2+  Ca8  1  0.40340911  0.26841219  0.91106518  1
  Ca2+  Ca9  1  0.42109108  0.74753041  0.23374238  1
  Ca2+  Ca10  1  0.40178861  0.74423097  0.58672011  1
  Ca2+  Ca11  1  0.40442478  0.74293088  0.93295422  1
  Ca2+  Ca12  1  0.75629272  0.23982872  0.26504580  1
  Ca2+  Ca13  1  0.74886365  0.25241989  0.56298332  1
  Ca2+  Ca14  1  0.76595057  0.25209520  0.92524381  1
  Ca2+  Ca15  1  0.75097848  0.74803941  0.23881623  1
  Ca2+  Ca16  1  0.74523603  0.75441065  0.56593795  1
  Ca2+  Ca17  1  0.75946378  0.74344110  0.94519264  1
  Ca2+  Ca18  1  0.25501800  0.27053179  0.09877020  1
  Ca2+  Ca19  1  0.25099354  0.24939854  0.40505021  1
  Ca2+  Ca20  1  0.24493839  0.26517133  0.74380425  1
  Ca2+  Ca21  1  0.26216765  0.72687426  0.08250140  1
  Ca2+  Ca22  1  0.24792180  0.74941349  0.40881819  1
  Ca2+  Ca23  1  0.24668828  0.73112082  0.76694208  1
  Ca2+  Ca24  1  0.59839562  0.25116390  0.10925676  1
  Ca2+  Ca25  1  0.60593509  0.24492764  0.41301505  1
  Ca2+  Ca26  1  0.58408787  0.26724231  0.73683039  1
  Ca2+  Ca27  1  0.59667119  0.74231728  0.09994228  1
  Ca2+  Ca28  1  0.59572272  0.75026762  0.39213022  1
  Ca2+  Ca29  1  0.57468761  0.75313814  0.75797507  1
  Ca2+  Ca30  1  0.89951291  0.24836752  0.08586208  1
  Ca2+  Ca31  1  0.89273369  0.25353898  0.41766920  1
  Ca2+  Ca32  1  0.92388963  0.25858556  0.74400653  1
  Ca2+  Ca33  1  0.90087713  0.73577903  0.09439167  1
  Ca2+  Ca34  1  0.90792648  0.73984977  0.38573872  1
  Ca2+  Ca35  1  0.92927713  0.74537594  0.76831165  1
  Ca2+  Ca36  1  0.41975711  0.10229376  0.57722863  1
  Ca2+  Ca37  1  0.75278913  0.10464106  0.24234220  1
  Ca2+  Ca38  1  0.25760724  0.09622617  0.40645674  1
  Ca2+  Ca39  1  0.40226518  0.58955737  0.57940626  1
  Ca2+  Ca40  1  0.88945326  0.11880554  0.10250364  1
  Ca2+  Ca41  1  0.24454651  0.59786052  0.40843497  1
  Ca2+  Ca42  1  0.24048768  0.08838955  0.73019716  1
  Ca2+  Ca43  1  0.42481492  0.60372217  0.22701258  1
  Ca2+  Ca44  1  0.57943385  0.57962846  0.38410059  1
  Ca2+  Ca45  1  0.91687964  0.58536522  0.74544843  1
  Ca2+  Ca46  1  0.38247390  0.60057747  0.93316369  1
  Ca2+  Ca47  1  0.59472381  0.08296619  0.72663783  1
  Ca2+  Ca48  1  0.42205926  0.09889793  0.26655025  1
  Ca2+  Ca49  1  0.63244176  0.09085059  0.10327507  1
  Ca2+  Ca50  1  0.24750452  0.09998343  0.10215298  1
  Ca2+  Ca51  1  0.57832580  0.08639277  0.73281884  1
  Ca2+  Ca52  1  0.76255154  0.56481612  0.59205172  1
  Ca2+  Ca53  1  0.03190967  0.10624108  0.90247792  1
  Ca2+  Ca54  1  0.41159940  0.09095096  0.91373251  1
  Ca2+  Ca55  1  0.61109716  0.57791860  0.74506275  1
  Ca2+  Ca56  1  0.77993517  0.09951501  0.95790958  1
  Ca2+  Ca57  1  0.09633047  0.08869944  0.25975384  1
  Ca2+  Ca58  1  0.62114736  0.08747917  0.40296823  1
  Ca2+  Ca59  1  0.74607846  0.09945027  0.56521795  1
  Ca2+  Ca60  1  0.42592542  0.09057307  0.91299175  1
  Ca2+  Ca61  1  0.08351081  0.08873397  0.25963628  1
  Ca2+  Ca62  1  0.88082619  0.09766495  0.40721972  1
  Ca2+  Ca63  1  0.77293779  0.09398041  0.95643374  1
  Ca2+  Ca64  1  0.11067665  0.59751833  0.92438914  1
  Ca2+  Ca65  1  0.75102557  0.56557609  0.59316297  1
  Ca2+  Ca66  1  0.07422505  0.08603445  0.58749561  1
  Ca2+  Ca67  1  0.22809955  0.08737171  0.73102141  1
  Ca2+  Ca68  1  0.76320734  0.60118657  0.24130732  1
  Ca2+  Ca69  1  0.60023871  0.58083190  0.74197595  1
  Ca2+  Ca70  1  0.05332603  0.60347065  0.24399513  1
  Ca2+  Ca71  1  0.87083137  0.09775457  0.41049222  1
  Ca2+  Ca72  1  0.41143601  0.89585992  0.57589826  1
  Ca2+  Ca73  1  0.06516652  0.41494030  0.58820991  1
  Ca2+  Ca74  1  0.08288139  0.41251624  0.23818412  1
  Ca2+  Ca75  1  0.74783711  0.41005030  0.25843416  1
  Ca2+  Ca76  1  0.59744504  0.89770303  0.74946830  1
  Ca2+  Ca77  1  0.90553375  0.90166053  0.74561808  1
  Ca2+  Ca78  1  0.58076094  0.41386008  0.08795344  1
  Ca2+  Ca79  1  0.42878223  0.41557421  0.26013242  1
  Ca2+  Ca80  1  0.75663741  0.90998118  0.94573818  1
  Ca2+  Ca81  1  0.59077450  0.41342396  0.42296200  1
  Ca2+  Ca82  1  0.90906204  0.90468766  0.41345537  1
  Ca2+  Ca83  1  0.08695086  0.90823304  0.57248380  1
  Ca2+  Ca84  1  0.74731818  0.40668298  0.90800487  1
  Ca2+  Ca85  1  0.89916314  0.42327239  0.72564638  1
  Ca2+  Ca86  1  0.09111875  0.41470675  0.93265498  1
  Ca2+  Ca87  1  0.42237462  0.41339703  0.25231252  1
  Ca2+  Ca88  1  0.25644592  0.89025946  0.09380983  1
  Ca2+  Ca89  1  0.75581433  0.41363645  0.58889785  1
  Ca2+  Ca90  1  0.59331489  0.41389808  0.08978432  1
  Ca2+  Ca91  1  0.24234755  0.41012600  0.41735801  1
  Ca2+  Ca92  1  0.75261097  0.90482926  0.57350056  1
  Ca2+  Ca93  1  0.25486260  0.41134008  0.41772484  1
  Ca2+  Ca94  1  0.41816104  0.89084028  0.91338756  1
  Ca2+  Ca95  1  0.08630047  0.89984484  0.26246140  1
  Ca2+  Ca96  1  0.91201957  0.90351214  0.75433882  1
  Ca2+  Ca97  1  0.42307379  0.89621455  0.57539702  1
  Ca2+  Ca98  1  0.60810642  0.92103215  0.38829266  1
  Ca2+  Ca99  1  0.23971989  0.40913745  0.74481385  1
  Ca2+  Ca100  1  0.60287224  0.42396504  0.72220646  1
  Ca2+  Ca101  1  0.41654780  0.41014152  0.92026313  1
  Ca2+  Ca102  1  0.07427757  0.90838927  0.57286524  1
  Ca2+  Ca103  1  0.73235472  0.91111128  0.23386058  1
  Ca2+  Ca104  1  0.24366020  0.88989965  0.09381571  1
  Ca2+  Ca105  1  0.24478742  0.89531835  0.74970591  1
  Ca2+  Ca106  1  0.07797396  0.89573574  0.91369707  1
  Ca2+  Ca107  1  0.07049149  0.41447745  0.23680403  1
  Mn3.34+  Mn108  1  0.07516378  0.33627292  0.08185415  1
  Mn3.34+  Mn109  1  0.07465752  0.33772914  0.42026931  1
  Mn3.34+  Mn110  1  0.07935807  0.33965610  0.75257834  1
  Mn3.34+  Mn111  1  0.07708592  0.82425444  0.08538066  1
  Mn3.34+  Mn112  1  0.08133422  0.83552359  0.41657487  1
  Mn3.34+  Mn113  1  0.08359023  0.83059215  0.75070329  1
  Mn3.34+  Mn114  1  0.41561441  0.33917918  0.08303415  1
  Mn3.34+  Mn115  1  0.42044313  0.33307808  0.42312918  1
  Mn3.34+  Mn116  1  0.41733914  0.33680547  0.74790327  1
  Mn3.34+  Mn117  1  0.42490213  0.82544126  0.08528549  1
  Mn3.34+  Mn118  1  0.41959778  0.82899164  0.41017421  1
  Mn3.34+  Mn119  1  0.41693290  0.82704107  0.75204586  1
  Mn3.34+  Mn120  1  0.75807928  0.33770423  0.08744014  1
  Mn3.34+  Mn121  1  0.75199433  0.33693522  0.41706988  1
  Mn3.34+  Mn122  1  0.75165427  0.33538795  0.75219250  1
  Mn3.34+  Mn123  1  0.74935923  0.83710603  0.08766655  1
  Mn3.34+  Mn124  1  0.75168847  0.83496300  0.41315407  1
  Mn3.34+  Mn125  1  0.74998078  0.82642467  0.75287702  1
  Mn3.34+  Mn126  1  0.24865100  0.33492025  0.24813065  1
  Mn3.34+  Mn127  1  0.25007809  0.33588850  0.58140188  1
  Mn3.34+  Mn128  1  0.24666145  0.34238887  0.91853781  1
  Mn3.34+  Mn129  1  0.25350905  0.82762678  0.25674488  1
  Mn3.34+  Mn130  1  0.24846551  0.82910164  0.57787939  1
  Mn3.34+  Mn131  1  0.24829219  0.82458269  0.91643688  1
  Mn3.34+  Mn132  1  0.58564229  0.33407768  0.25186133  1
  Mn3.34+  Mn133  1  0.58467136  0.33936395  0.57881661  1
  Mn3.34+  Mn134  1  0.58618490  0.33331454  0.91363604  1
  Mn3.34+  Mn135  1  0.58109180  0.83737880  0.24540025  1
  Mn3.34+  Mn136  1  0.58512830  0.83174232  0.57801434  1
  Mn3.34+  Mn137  1  0.58773323  0.83038949  0.92163380  1
  Mn3.34+  Mn138  1  0.91355065  0.33448100  0.24477550  1
  Mn3.34+  Mn139  1  0.91408135  0.33796514  0.58032406  1
  Mn3.34+  Mn140  1  0.91804386  0.33335157  0.91769665  1
  Mn3.34+  Mn141  1  0.91363684  0.82731311  0.24452422  1
  Mn3.34+  Mn142  1  0.91738710  0.82497295  0.57850820  1
  Mn3.34+  Mn143  1  0.91582870  0.83003305  0.92300304  1
  Mn3.34+  Mn144  1  0.59058260  0.65988351  0.91933759  1
  Mn3.34+  Mn145  1  0.08393834  0.17410772  0.08663894  1
  Mn3.34+  Mn146  1  0.24630914  0.66528828  0.58261501  1
  Mn3.34+  Mn147  1  0.41709226  0.17194059  0.74509209  1
  Mn3.34+  Mn148  1  0.07506846  0.16941764  0.42017948  1
  Mn3.34+  Mn149  1  0.91589187  0.16860148  0.58376057  1
  Mn3.34+  Mn150  1  0.08379815  0.66460792  0.41786066  1
  Mn3.34+  Mn151  1  0.08280113  0.65461900  0.08478028  1
  Mn3.34+  Mn152  1  0.91681782  0.66580932  0.92142546  1
  Mn3.34+  Mn153  1  0.07152836  0.18103637  0.08556964  1
  Mn3.34+  Mn154  1  0.58593639  0.66679361  0.57761330  1
  Mn3.34+  Mn155  1  0.41974584  0.17229708  0.42037884  1
  Mn3.34+  Mn156  1  0.41129401  0.16446613  0.09006065  1
  Mn3.34+  Mn157  1  0.41428429  0.66617670  0.41294291  1
  Mn3.34+  Mn158  1  0.92879117  0.65949464  0.57253387  1
  Mn3.34+  Mn159  1  0.42506166  0.17098143  0.08821968  1
  Mn3.34+  Mn160  1  0.24896140  0.66624281  0.24499888  1
  Mn3.34+  Mn161  1  0.08896332  0.16324094  0.42206429  1
  Mn3.34+  Mn162  1  0.24748092  0.17271325  0.91650167  1
  Mn3.34+  Mn163  1  0.75207834  0.16969117  0.74992436  1
  Mn3.34+  Mn164  1  0.76363858  0.16322148  0.75253622  1
  Mn3.34+  Mn165  1  0.92011883  0.66579043  0.57516066  1
  Mn3.34+  Mn166  1  0.58455361  0.17150730  0.57448436  1
  Mn3.34+  Mn167  1  0.75240397  0.66401466  0.41233612  1
  Mn3.34+  Mn168  1  0.58002480  0.66428731  0.91982986  1
  Mn3.34+  Mn169  1  0.58863508  0.16600166  0.25322228  1
  Mn3.34+  Mn170  1  0.75756254  0.66664707  0.75541154  1
  Mn3.34+  Mn171  1  0.25188358  0.17079168  0.57911582  1
  Mn3.34+  Mn172  1  0.23685348  0.16778927  0.91509705  1
  Mn3.34+  Mn173  1  0.57551498  0.66195189  0.57616808  1
  Mn3.34+  Mn174  1  0.58802345  0.18705060  0.91921891  1
  Mn3.34+  Mn175  1  0.57897923  0.18143472  0.92035846  1
  Mn3.34+  Mn176  1  0.07363800  0.17129532  0.74702444  1
  Mn3.34+  Mn177  1  0.58619282  0.66292805  0.24161396  1
  Mn3.34+  Mn178  1  0.08760907  0.66130492  0.75348736  1
  Mn3.34+  Mn179  1  0.41193902  0.66453685  0.75405172  1
  Mn3.34+  Mn180  1  0.91370473  0.00003301  0.58030173  1
  Mn3.34+  Mn181  1  0.07560093  0.00104963  0.75040980  1
  Mn3.34+  Mn182  1  0.74943395  0.50477997  0.07784507  1
  Mn3.34+  Mn183  1  0.91557661  -0.00112618  0.92127131  1
  Mn3.34+  Mn184  1  0.41230175  0.50426368  0.07331323  1
  Mn3.34+  Mn185  1  0.41099528  -0.00104377  0.75280032  1
  Mn3.34+  Mn186  1  0.41897035  0.50025559  0.41257275  1
  Mn3.34+  Mn187  1  0.24720872  -0.00389620  0.25622956  1
  Mn3.34+  Mn188  1  0.24289408  -0.00440233  0.91713430  1
  Mn3.34+  Mn189  1  0.08193397  -0.00289654  0.08433295  1
  Mn3.34+  Mn190  1  0.07289985  0.50341976  0.41207128  1
  Mn3.34+  Mn191  1  0.24803595  0.50117043  0.93050796  1
  Mn3.34+  Mn192  1  0.75130534  0.50036468  0.40213799  1
  Mn3.34+  Mn193  1  0.42767882  -0.00097128  0.40947470  1
  Mn3.34+  Mn194  1  0.92222217  0.50607699  0.93094628  1
  Mn3.34+  Mn195  1  0.91523082  0.50281433  0.25341299  1
  Mn3.34+  Mn196  1  0.59069645  0.00038966  0.57449701  1
  Mn3.34+  Mn197  1  0.08064979  0.50169236  0.74215904  1
  Mn3.34+  Mn198  1  0.41220366  -0.00139560  0.41043907  1
  Mn3.34+  Mn199  1  0.43499082  -0.00806611  0.10445533  1
  Mn3.34+  Mn200  1  0.59706304  0.00262624  0.91200077  1
  Mn3.34+  Mn201  1  0.42133479  -0.00545777  0.75380735  1
  Mn3.34+  Mn202  1  0.92391704  -0.00011650  0.24497614  1
  Mn3.34+  Mn203  1  0.90985205  -0.00544744  0.24054755  1
  Mn3.34+  Mn204  1  0.23815851  0.50492136  0.58517727  1
  Mn3.34+  Mn205  1  0.58422618  -0.00380528  0.91791058  1
  Mn3.34+  Mn206  1  0.24590926  0.50304429  0.25034518  1
  Mn3.34+  Mn207  1  0.41439980  0.49918775  0.74620108  1
  Mn3.34+  Mn208  1  0.58461242  0.49828245  0.92319905  1
  Mn3.34+  Mn209  1  0.24986249  0.00096175  0.57189954  1
  Mn3.34+  Mn210  1  0.75759912  0.00099902  0.75300541  1
  Mn3.34+  Mn211  1  0.25348274  -0.00143528  0.91291161  1
  Mn3.34+  Mn212  1  0.40380912  0.50375937  0.74721483  1
  Mn3.34+  Mn213  1  0.42889677  -0.00325924  0.09621523  1
  Mn3.34+  Mn214  1  0.91256458  0.50073050  0.93117283  1
  Mn3.34+  Mn215  1  0.06646824  0.00149257  0.08415494  1
  O2-  O216  1  0.00070113  0.17721699  -0.00021303  1
  O2-  O217  1  0.00316698  0.15246753  0.33325163  1
  O2-  O218  1  0.00375172  0.15920932  0.65931996  1
  O2-  O219  1  0.01010433  0.66387439  -0.00709952  1
  O2-  O220  1  0.01104505  0.67724176  0.33713281  1
  O2-  O221  1  -0.00266356  0.66338239  0.66655919  1
  O2-  O222  1  0.33614516  0.14502843  -0.00147304  1
  O2-  O223  1  0.33876082  0.16939581  0.34164102  1
  O2-  O224  1  0.32916329  0.14923958  0.66651198  1
  O2-  O225  1  0.32933461  0.67317708  -0.00347452  1
  O2-  O226  1  0.33028136  0.66393902  0.33486729  1
  O2-  O227  1  0.34079228  0.65887404  0.66075673  1
  O2-  O228  1  0.66885377  0.17433324  0.00235613  1
  O2-  O229  1  0.66770438  0.16354383  0.32914309  1
  O2-  O230  1  0.67160519  0.15056351  0.66796175  1
  O2-  O231  1  0.66475325  0.66956292  0.00064805  1
  O2-  O232  1  0.66315786  0.65573415  0.34273214  1
  O2-  O233  1  0.66923867  0.66267601  0.67172430  1
  O2-  O234  1  0.16289623  0.15582805  0.00747139  1
  O2-  O235  1  0.16465689  0.15542626  0.33456850  1
  O2-  O236  1  0.16385617  0.15193963  0.65980716  1
  O2-  O237  1  0.15510082  0.67848761  0.01293105  1
  O2-  O238  1  0.16644499  0.66701518  0.33806192  1
  O2-  O239  1  0.16815317  0.66458197  0.66755227  1
  O2-  O240  1  0.49895703  0.14691349  -0.00038605  1
  O2-  O241  1  0.50065443  0.16487576  0.33721444  1
  O2-  O242  1  0.50682101  0.15465739  0.66924037  1
  O2-  O243  1  0.49191269  0.65663437  -0.01283021  1
  O2-  O244  1  0.49742726  0.67103399  0.33516789  1
  O2-  O245  1  0.50612623  0.64458082  0.66979953  1
  O2-  O246  1  0.83364149  0.17742957  0.00079883  1
  O2-  O247  1  0.83787589  0.16622272  0.32895467  1
  O2-  O248  1  0.83325115  0.15024189  0.66142968  1
  O2-  O249  1  0.84202814  0.66933405  -0.00204645  1
  O2-  O250  1  0.82647894  0.66273804  0.33380327  1
  O2-  O251  1  0.83401556  0.68052149  0.66367812  1
  O2-  O252  1  0.00077504  0.31074695  -0.00249461  1
  O2-  O253  1  0.00516202  0.33474698  0.32121249  1
  O2-  O254  1  -0.00230300  0.34156851  0.66993761  1
  O2-  O255  1  0.00874216  0.83120568  -0.00763556  1
  O2-  O256  1  -0.00224661  0.83078734  0.33749213  1
  O2-  O257  1  -0.00179531  0.84584478  0.66586806  1
  O2-  O258  1  0.33634875  0.34670846  -0.00261479  1
  O2-  O259  1  0.33326228  0.34140356  0.33633223  1
  O2-  O260  1  0.32868175  0.34266204  0.66975699  1
  O2-  O261  1  0.33031260  0.84016026  -0.00084974  1
  O2-  O262  1  0.33701531  0.81678203  0.33447395  1
  O2-  O263  1  0.33475163  0.84405747  0.66332329  1
  O2-  O264  1  0.66736923  0.32725829  0.00446488  1
  O2-  O265  1  0.66391104  0.34805591  0.33595622  1
  O2-  O266  1  0.66824392  0.34374958  0.66817284  1
  O2-  O267  1  0.67307870  0.83228535  -0.00496803  1
  O2-  O268  1  0.67166808  0.84048561  0.33209987  1
  O2-  O269  1  0.67197251  0.83666523  0.66312577  1
  O2-  O270  1  0.15956031  0.32788814  0.00274749  1
  O2-  O271  1  0.16328100  0.35275277  0.33115960  1
  O2-  O272  1  0.16105480  0.34782143  0.66433689  1
  O2-  O273  1  0.16719236  0.83785982  0.00353739  1
  O2-  O274  1  0.16114312  0.82939689  0.33262116  1
  O2-  O275  1  0.16018064  0.84705794  0.66107148  1
  O2-  O276  1  0.50496746  0.34520770  0.00068282  1
  O2-  O277  1  0.49345401  0.34252347  0.32944465  1
  O2-  O278  1  0.50399891  0.34054571  0.66942132  1
  O2-  O279  1  0.49618175  0.83785712  -0.00574448  1
  O2-  O280  1  0.50903389  0.82973745  0.34064718  1
  O2-  O281  1  0.50052593  0.84608543  0.66597388  1
  O2-  O282  1  0.83324515  0.32168022  -0.00003323  1
  O2-  O283  1  0.83111112  0.33296971  0.32823577  1
  O2-  O284  1  0.83307535  0.34107920  0.66942482  1
  O2-  O285  1  0.83246623  0.83502252  -0.00240104  1
  O2-  O286  1  0.83668710  0.83956460  0.33601448  1
  O2-  O287  1  0.83743989  0.83005375  0.66872753  1
  O2-  O288  1  -0.00095732  0.18718914  0.17018453  1
  O2-  O289  1  -0.00057229  0.17816311  0.50187300  1
  O2-  O290  1  0.00189637  0.18692739  0.82878379  1
  O2-  O291  1  0.01219853  0.68672649  0.15126513  1
  O2-  O292  1  0.00523197  0.69399361  0.49961725  1
  O2-  O293  1  -0.00033415  0.67237830  0.82843507  1
  O2-  O294  1  0.32995799  0.17509365  0.16757637  1
  O2-  O295  1  0.33559774  0.18558295  0.50324036  1
  O2-  O296  1  0.33897944  0.16544485  0.83567510  1
  O2-  O297  1  0.33423668  0.67374883  0.17744929  1
  O2-  O298  1  0.33261066  0.68181208  0.49636650  1
  O2-  O299  1  0.34412335  0.67932081  0.83525539  1
  O2-  O300  1  0.66508723  0.17795260  0.17127143  1
  O2-  O301  1  0.66584528  0.17434119  0.50171800  1
  O2-  O302  1  0.65611143  0.17693019  0.82326890  1
  O2-  O303  1  0.67201284  0.67092902  0.17850502  1
  O2-  O304  1  0.67484101  0.67506208  0.50599388  1
  O2-  O305  1  0.66543935  0.67625075  0.82917339  1
  O2-  O306  1  0.16124909  0.18071204  0.16638912  1
  O2-  O307  1  0.16750865  0.18117020  0.49947576  1
  O2-  O308  1  0.17117351  0.17604284  0.81761735  1
  O2-  O309  1  0.16060921  0.67563632  0.16943814  1
  O2-  O310  1  0.16967127  0.68455489  0.49586812  1
  O2-  O311  1  0.15876056  0.67167872  0.83493911  1
  O2-  O312  1  0.49840394  0.17892449  0.17508545  1
  O2-  O313  1  0.49488262  0.18515103  0.50674836  1
  O2-  O314  1  0.49152001  0.18037603  0.84225110  1
  O2-  O315  1  0.50564139  0.67701346  0.17152051  1
  O2-  O316  1  0.49394239  0.68634629  0.49783533  1
  O2-  O317  1  0.51155392  0.67079117  0.82585965  1
  O2-  O318  1  0.82685278  0.18670838  0.17214122  1
  O2-  O319  1  0.83790344  0.17327185  0.50070842  1
  O2-  O320  1  0.82474356  0.17939986  0.84279732  1
  O2-  O321  1  0.82741321  0.67533812  0.17288171  1
  O2-  O322  1  0.83693915  0.68159319  0.49926809  1
  O2-  O323  1  0.83519294  0.68329161  0.83075908  1
  O2-  O324  1  0.00053020  0.31207876  0.16600619  1
  O2-  O325  1  0.00184102  0.32171245  0.50517924  1
  O2-  O326  1  -0.00275049  0.32061793  0.83357038  1
  O2-  O327  1  0.00640559  0.82078923  0.17385252  1
  O2-  O328  1  0.00679952  0.81527697  0.50701838  1
  O2-  O329  1  -0.00501805  0.83127342  0.82571049  1
  O2-  O330  1  0.34319136  0.33008119  0.17758376  1
  O2-  O331  1  0.33138971  0.31553628  0.49346481  1
  O2-  O332  1  0.33250864  0.33194154  0.83039077  1
  O2-  O333  1  0.32824527  0.82380621  0.16268620  1
  O2-  O334  1  0.33975982  0.82046057  0.50376520  1
  O2-  O335  1  0.33116176  0.82562473  0.83249604  1
  O2-  O336  1  0.66593331  0.32765315  0.16516790  1
  O2-  O337  1  0.66598854  0.32544070  0.49759776  1
  O2-  O338  1  0.66967127  0.31221663  0.83772012  1
  O2-  O339  1  0.66788568  0.82663448  0.16948218  1
  O2-  O340  1  0.66622474  0.82684793  0.49882297  1
  O2-  O341  1  0.66448330  0.81813463  0.82768109  1
  O2-  O342  1  0.15837008  0.32459934  0.16984361  1
  O2-  O343  1  0.17225112  0.32602499  0.49154137  1
  O2-  O344  1  0.16555731  0.32853917  0.83236505  1
  O2-  O345  1  0.16813863  0.82222940  0.16233897  1
  O2-  O346  1  0.16121148  0.82136349  0.50180508  1
  O2-  O347  1  0.16465006  0.82498820  0.83304980  1
  O2-  O348  1  0.50277983  0.32698310  0.16343718  1
  O2-  O349  1  0.50612024  0.31585225  0.49476112  1
  O2-  O350  1  0.50028470  0.31560451  0.83712883  1
  O2-  O351  1  0.50112566  0.82113296  0.16629399  1
  O2-  O352  1  0.49118297  0.82023565  0.50733388  1
  O2-  O353  1  0.50369080  0.83084084  0.82983138  1
  O2-  O354  1  0.82870443  0.31192826  0.17089982  1
  O2-  O355  1  0.82988366  0.32652766  0.50305914  1
  O2-  O356  1  0.83347698  0.31735755  0.83664000  1
  O2-  O357  1  0.82727757  0.83149389  0.17322166  1
  O2-  O358  1  0.83193150  0.82237876  0.50240442  1
  O2-  O359  1  0.84044112  0.82512023  0.82707698  1
  O2-  O360  1  0.07485566  0.08469162  0.11508432  1
  O2-  O361  1  0.08973990  0.08102038  0.44373186  1
  O2-  O362  1  0.09359057  0.08442183  0.77747923  1
  O2-  O363  1  0.08370035  0.58139665  0.10208385  1
  O2-  O364  1  0.09279660  0.58256633  0.43449292  1
  O2-  O365  1  0.07298507  0.57793934  0.77883338  1
  O2-  O366  1  0.41930953  0.07918109  0.12386134  1
  O2-  O367  1  0.40740344  0.08123783  0.44638806  1
  O2-  O368  1  0.42734694  0.08146726  0.77800580  1
  O2-  O369  1  0.40598008  0.57849723  0.09513473  1
  O2-  O370  1  0.42387873  0.57858335  0.44322981  1
  O2-  O371  1  0.41542619  0.58202260  0.78763490  1
  O2-  O372  1  0.76690817  0.07738622  0.10217859  1
  O2-  O373  1  0.75421719  0.06809604  0.44457923  1
  O2-  O374  1  0.73494556  0.08235459  0.79120793  1
  O2-  O375  1  0.75465639  0.57550098  0.11062097  1
  O2-  O376  1  0.74797342  0.57588731  0.45136070  1
  O2-  O377  1  0.75557341  0.58586508  0.75736400  1
  O2-  O378  1  0.23184049  0.07559242  0.22516881  1
  O2-  O379  1  0.25133476  0.08566132  0.55122909  1
  O2-  O380  1  0.25716466  0.07980481  0.88296393  1
  O2-  O381  1  0.24654293  0.58277634  0.24572638  1
  O2-  O382  1  0.25856875  0.58342787  0.54819627  1
  O2-  O383  1  0.24913045  0.57063043  0.88887528  1
  O2-  O384  1  0.58559479  0.08555942  0.23055852  1
  O2-  O385  1  0.58069691  0.08533686  0.56022153  1
  O2-  O386  1  0.56342425  0.08252300  0.87673862  1
  O2-  O387  1  0.57242500  0.58360509  0.24667771  1
  O2-  O388  1  0.58411274  0.58103771  0.55191513  1
  O2-  O389  1  0.58749409  0.57748458  0.88176818  1
  O2-  O390  1  0.93143102  0.07754832  0.21610821  1
  O2-  O391  1  0.92053051  0.08142319  0.54982842  1
  O2-  O392  1  0.90409141  0.07839212  0.89766033  1
  O2-  O393  1  0.91597634  0.57659754  0.22184892  1
  O2-  O394  1  0.89751072  0.57915293  0.57535247  1
  O2-  O395  1  0.91284257  0.58258419  0.88857391  1
  O2-  O396  1  0.07903882  0.41658432  0.10340293  1
  O2-  O397  1  0.09132544  0.42394875  0.45029044  1
  O2-  O398  1  0.08107338  0.42435517  0.78579324  1
  O2-  O399  1  0.09484169  0.91712566  0.10597287  1
  O2-  O400  1  0.06535737  0.92064893  0.44194303  1
  O2-  O401  1  0.07971113  0.91749277  0.77484323  1
  O2-  O402  1  0.43031409  0.42820230  0.11980008  1
  O2-  O403  1  0.39848602  0.42091158  0.43903290  1
  O2-  O404  1  0.42092298  0.41944730  0.78127094  1
  O2-  O405  1  0.39907952  0.91217384  0.09239102  1
  O2-  O406  1  0.41486249  0.91724809  0.44362583  1
  O2-  O407  1  0.40975245  0.91322218  0.76806171  1
  O2-  O408  1  0.73401313  0.42704020  0.12078861  1
  O2-  O409  1  0.74560095  0.42356299  0.44297688  1
  O2-  O410  1  0.74853021  0.41497153  0.77427926  1
  O2-  O411  1  0.74624487  0.91827272  0.09246110  1
  O2-  O412  1  0.75440596  0.91598452  0.43862962  1
  O2-  O413  1  0.75793814  0.91760876  0.77783894  1
  O2-  O414  1  0.24724568  0.42126901  0.22785209  1
  O2-  O415  1  0.24587528  0.42238089  0.55084806  1
  O2-  O416  1  0.24490091  0.42832445  0.88459650  1
  O2-  O417  1  0.24222273  0.91470827  0.22758171  1
  O2-  O418  1  0.25021780  0.91538780  0.56466556  1
  O2-  O419  1  0.24417289  0.91273798  0.90148248  1
  O2-  O420  1  0.57341228  0.41894020  0.22268937  1
  O2-  O421  1  0.59361836  0.41865907  0.56454896  1
  O2-  O422  1  0.59097676  0.42030836  0.88276705  1
  O2-  O423  1  0.58986112  0.91757670  0.24743864  1
  O2-  O424  1  0.56860632  0.91722086  0.55869021  1
  O2-  O425  1  0.59126155  0.91587187  0.89542487  1
  O2-  O426  1  0.93171337  0.42228660  0.22142713  1
  O2-  O427  1  0.91912785  0.41688053  0.57674231  1
  O2-  O428  1  0.91493472  0.42194763  0.88997191  1
  O2-  O429  1  0.92562600  0.91434152  0.24282237  1
  O2-  O430  1  0.92794611  0.91785816  0.55469539  1
  O2-  O431  1  0.91955387  0.91828056  0.88945098  1
  O2-  O432  1  0.01779612  0.00369712  -0.02306914  1
  O2-  O433  1  0.00288594  0.01296846  0.31994343  1
  O2-  O434  1  0.01254021  -0.00745192  0.64690286  1
  O2-  O435  1  0.02334852  0.49933599  -0.02422274  1
  O2-  O436  1  0.02257846  0.50069582  0.30115346  1
  O2-  O437  1  -0.01310256  0.49885567  0.68976981  1
  O2-  O438  1  0.34175070  0.01808263  -0.00030544  1
  O2-  O439  1  0.33856988  0.01545215  0.32416085  1
  O2-  O440  1  0.32951069  0.01391066  0.67173849  1
  O2-  O441  1  0.34736455  0.49452643  -0.02202403  1
  O2-  O442  1  0.33383704  0.48960983  0.33101350  1
  O2-  O443  1  0.33546176  0.50338019  0.65364208  1
  O2-  O444  1  0.66804436  0.03220744  -0.00819877  1
  O2-  O445  1  0.66920907  0.00501032  0.33200724  1
  O2-  O446  1  0.65988839  0.00534224  0.67740452  1
  O2-  O447  1  0.65908746  0.48459919  0.01250223  1
  O2-  O448  1  0.65655137  0.49551699  0.35290043  1
  O2-  O449  1  0.66715550  0.51542866  0.66617402  1
  O2-  O450  1  0.17942223  0.00992315  0.01529864  1
  O2-  O451  1  0.15023811  0.00330923  0.30728597  1
  O2-  O452  1  0.17297798  0.00866615  0.67194027  1
  O2-  O453  1  0.16362533  0.49986385  -0.01209880  1
  O2-  O454  1  0.17476312  0.48807530  0.34634933  1
  O2-  O455  1  0.16234120  0.48382726  0.66900032  1
  O2-  O456  1  0.49591325  0.01207338  -0.00274852  1
  O2-  O457  1  0.50783931  0.01340633  0.33813825  1
  O2-  O458  1  0.50023306  0.01055961  0.66776514  1
  O2-  O459  1  0.50222522  0.48324847  0.00642032  1
  O2-  O460  1  0.49423172  0.48570095  0.33397203  1
  O2-  O461  1  0.51880671  0.50873238  0.69647249  1
  O2-  O462  1  0.81615271  -0.00092716  -0.03106719  1
  O2-  O463  1  0.83255471  0.00810244  0.32353510  1
  O2-  O464  1  0.83652854  -0.01853868  0.66521072  1
  O2-  O465  1  0.81399827  0.48988066  -0.01506018  1
  O2-  O466  1  0.81393804  0.49660878  0.30766878  1
  O2-  O467  1  0.82048362  0.49348194  0.65102020  1
  O2-  O468  1  0.40779822  0.25391243  0.73244363  1
  O2-  O469  1  0.42761235  0.74695342  0.72758239  1
  O2-  O470  1  0.59090047  0.25064892  0.60378976  1
  O2-  O471  1  0.59276325  0.75065066  0.25755014  1
  O2-  O472  1  0.92541047  0.74956266  0.91914990  1
  O2-  O473  1  0.08102876  0.74976731  0.73493250  1
  O2-  O474  1  0.74468576  0.74888901  0.40775780  1
  O2-  O475  1  0.25146462  0.75022907  0.60834970  1
  O2-  O476  1  0.24906725  0.74761162  0.92531885  1
  O2-  O477  1  0.24096365  0.74785803  0.26034179  1
  O2-  O478  1  0.09115259  0.25338088  0.73076325  1
  O2-  O479  1  0.09172525  0.25039733  0.39625654  1
  O2-  O480  1  0.57894204  0.25306865  0.26503011  1
  O2-  O481  1  0.40658469  0.25198463  0.06055403  1
  O2-  O482  1  0.75247183  0.75324957  0.08347294  1
  O2-  O483  1  0.74896688  0.25670484  0.40929680  1
  O2-  O484  1  0.24776708  0.25697765  0.26359559  1
  O2-  O485  1  0.24264045  0.25089395  0.60789410  1
  O2-  O486  1  0.91546833  0.24974831  0.60158758  1
  O2-  O487  1  0.25932477  0.25583797  0.92738069  1
  O2-  O488  1  0.41531852  0.74895935  0.07300887  1
  O2-  O489  1  0.90763552  0.74896062  0.24950662  1
  O2-  O490  1  0.57999353  0.74721524  0.60639797  1
  O2-  O491  1  0.74875508  0.24987259  0.72375317  1
  O2-  O492  1  0.57319152  0.74820436  0.92069760  1
