# generated using pymatgen
data_Ca108Mn108O277
_symmetry_space_group_name_H-M   'P 1'
_cell_length_a   16.02877950
_cell_length_b   22.30949042
_cell_length_c   16.39146275
_cell_angle_alpha   90.00111177
_cell_angle_beta   90.00234363
_cell_angle_gamma   90.00813904
_symmetry_Int_Tables_number   1
_chemical_formula_structural   Ca108Mn108O277
_chemical_formula_sum   'Ca108 Mn108 O277'
_cell_volume   5861.48707071
_cell_formula_units_Z   1
loop_
 _symmetry_equiv_pos_site_id
 _symmetry_equiv_pos_as_xyz
  1  'x, y, z'
loop_
 _atom_type_symbol
 _atom_type_oxidation_number
  Ca2+  2.0
  Mn3.34+  3.34
  O2-  -2.0
loop_
 _atom_site_type_symbol
 _atom_site_label
 _atom_site_symmetry_multiplicity
 _atom_site_fract_x
 _atom_site_fract_y
 _atom_site_fract_z
 _atom_site_occupancy
  Ca2+  Ca0  1  0.10310330  0.25201789  0.22541067  1
  Ca2+  Ca1  1  0.09877534  0.25663273  0.59244428  1
  Ca2+  Ca2  1  0.10345895  0.24511051  0.92818813  1
  Ca2+  Ca3  1  0.10366100  0.74078298  0.25868773  1
  Ca2+  Ca4  1  0.09748921  0.75177583  0.56865609  1
  Ca2+  Ca5  1  0.08935386  0.74715932  0.92135982  1
  Ca2+  Ca6  1  0.41767638  0.25541082  0.23573252  1
  Ca2+  Ca7  1  0.41169527  0.24281572  0.60149906  1
  Ca2+  Ca8  1  0.40200196  0.24666327  0.91802153  1
  Ca2+  Ca9  1  0.40360187  0.74716719  0.24185043  1
  Ca2+  Ca10  1  0.39052642  0.73359510  0.58760716  1
  Ca2+  Ca11  1  0.40819372  0.74873632  0.93319014  1
  Ca2+  Ca12  1  0.72963688  0.25706319  0.25205313  1
  Ca2+  Ca13  1  0.72918787  0.25213348  0.61229653  1
  Ca2+  Ca14  1  0.74441374  0.25172320  0.88991627  1
  Ca2+  Ca15  1  0.72234300  0.74295755  0.24628555  1
  Ca2+  Ca16  1  0.74882003  0.75292765  0.58512051  1
  Ca2+  Ca17  1  0.74962675  0.75852176  0.91187629  1
  Ca2+  Ca18  1  0.25453435  0.24298869  0.06424387  1
  Ca2+  Ca19  1  0.26313093  0.25733503  0.41157527  1
  Ca2+  Ca20  1  0.26323300  0.25069352  0.77161794  1
  Ca2+  Ca21  1  0.25895650  0.74106263  0.09272765  1
  Ca2+  Ca22  1  0.23993756  0.74228126  0.40979957  1
  Ca2+  Ca23  1  0.24853868  0.74489296  0.74185207  1
  Ca2+  Ca24  1  0.56020160  0.25305048  0.07741200  1
  Ca2+  Ca25  1  0.57351907  0.25029230  0.41585901  1
  Ca2+  Ca26  1  0.58635359  0.25918377  0.75530034  1
  Ca2+  Ca27  1  0.55376255  0.74292321  0.10582379  1
  Ca2+  Ca28  1  0.56673769  0.73359541  0.39283016  1
  Ca2+  Ca29  1  0.57509919  0.75784967  0.74351814  1
  Ca2+  Ca30  1  0.93846106  0.25068076  0.06657581  1
  Ca2+  Ca31  1  0.91508292  0.25617947  0.41230875  1
  Ca2+  Ca32  1  0.89126196  0.25350923  0.76857905  1
  Ca2+  Ca33  1  0.92815826  0.74715034  0.08297241  1
  Ca2+  Ca34  1  0.94754183  0.74537390  0.42335393  1
  Ca2+  Ca35  1  0.92052959  0.74791686  0.74577424  1
  Ca2+  Ca36  1  0.11985347  0.08516104  0.94570803  1
  Ca2+  Ca37  1  0.10070009  0.09795446  0.21185016  1
  Ca2+  Ca38  1  0.12584925  0.60017776  0.24214485  1
  Ca2+  Ca39  1  0.56043284  0.57961963  0.73630343  1
  Ca2+  Ca40  1  0.27797348  0.57888139  0.72504384  1
  Ca2+  Ca41  1  0.09328888  0.07725740  0.60608556  1
  Ca2+  Ca42  1  0.27463232  0.57444069  0.73266718  1
  Ca2+  Ca43  1  0.75946197  0.09887137  0.90700075  1
  Ca2+  Ca44  1  0.90931297  0.07749574  0.40317071  1
  Ca2+  Ca45  1  0.37954617  0.08724670  0.92642302  1
  Ca2+  Ca46  1  0.56742975  0.09531320  0.74200265  1
  Ca2+  Ca47  1  0.54305585  0.59180918  0.09539966  1
  Ca2+  Ca48  1  0.55619787  0.08600542  0.07999676  1
  Ca2+  Ca49  1  0.73507786  0.09133620  0.60384640  1
  Ca2+  Ca50  1  0.24576605  0.09455439  0.07120148  1
  Ca2+  Ca51  1  0.39907932  0.60728136  0.24725322  1
  Ca2+  Ca52  1  0.11269516  0.60689892  0.57207761  1
  Ca2+  Ca53  1  0.91830085  0.59702211  0.75279066  1
  Ca2+  Ca54  1  0.74816102  0.10026539  0.90735331  1
  Ca2+  Ca55  1  0.97293215  0.60245364  0.09169524  1
  Ca2+  Ca56  1  0.27432294  0.08890430  0.76676642  1
  Ca2+  Ca57  1  0.54893665  0.58294962  0.73953190  1
  Ca2+  Ca58  1  0.93843079  0.60601208  0.41068185  1
  Ca2+  Ca59  1  0.53480792  0.59008575  0.10096457  1
  Ca2+  Ca60  1  0.24606892  0.09973182  0.41471439  1
  Ca2+  Ca61  1  0.74562418  0.59468045  0.59412562  1
  Ca2+  Ca62  1  0.90741491  0.09445558  0.75271270  1
  Ca2+  Ca63  1  0.25012007  0.59773914  0.08568435  1
  Ca2+  Ca64  1  0.55695605  0.09553179  0.74319042  1
  Ca2+  Ca65  1  0.10497875  0.60926026  0.57833980  1
  Ca2+  Ca66  1  0.08173128  0.07653165  0.60652209  1
  Ca2+  Ca67  1  0.39095810  0.60436141  0.24229709  1
  Ca2+  Ca68  1  0.96289713  0.08813360  0.07026244  1
  Ca2+  Ca69  1  0.41065637  0.09160214  0.23100927  1
  Ca2+  Ca70  1  0.09179057  0.59589571  0.94692682  1
  Ca2+  Ca71  1  0.24639812  0.61249102  0.42643837  1
  Ca2+  Ca72  1  0.41948175  0.91042918  0.62098189  1
  Ca2+  Ca73  1  0.11379229  0.41991931  0.23614794  1
  Ca2+  Ca74  1  0.76284658  0.90966796  0.24707684  1
  Ca2+  Ca75  1  0.91185944  0.40808267  0.40173626  1
  Ca2+  Ca76  1  0.75534889  0.90280817  0.58544739  1
  Ca2+  Ca77  1  0.39173578  0.42770839  0.62846298  1
  Ca2+  Ca78  1  0.25381528  0.91297851  0.76924963  1
  Ca2+  Ca79  1  0.08305442  0.90508530  0.59324628  1
  Ca2+  Ca80  1  0.40351040  0.90549043  0.23816635  1
  Ca2+  Ca81  1  0.57330899  0.41396684  0.07029775  1
  Ca2+  Ca82  1  0.59876160  0.40111270  0.41373700  1
  Ca2+  Ca83  1  0.92065309  0.89802239  0.42108200  1
  Ca2+  Ca84  1  0.56330860  0.41758831  0.07151377  1
  Ca2+  Ca85  1  0.55154371  0.90791723  0.07968562  1
  Ca2+  Ca86  1  0.91881704  0.40516336  0.08127343  1
  Ca2+  Ca87  1  0.58104130  0.90296035  0.41945709  1
  Ca2+  Ca88  1  0.38615406  0.42461256  0.23182354  1
  Ca2+  Ca89  1  0.11176420  0.41925012  0.61514796  1
  Ca2+  Ca90  1  0.42835899  0.91292803  0.61619481  1
  Ca2+  Ca91  1  0.58727861  0.40161269  0.41357000  1
  Ca2+  Ca92  1  0.12206177  0.42201890  0.61297273  1
  Ca2+  Ca93  1  0.38077160  0.42758184  0.62765307  1
  Ca2+  Ca94  1  0.25620666  0.92834124  0.05382522  1
  Ca2+  Ca95  1  0.74886122  0.40123230  0.91574061  1
  Ca2+  Ca96  1  0.40440568  0.41666741  0.90756452  1
  Ca2+  Ca97  1  0.94922879  0.91039977  0.07368829  1
  Ca2+  Ca98  1  0.75010652  0.90978309  0.24727225  1
  Ca2+  Ca99  1  0.25528471  0.41176521  0.40994219  1
  Ca2+  Ca100  1  0.10155619  0.42245399  0.23493258  1
  Ca2+  Ca101  1  0.59247446  0.90339017  0.42046229  1
  Ca2+  Ca102  1  0.75202040  0.40812300  0.25401080  1
  Ca2+  Ca103  1  0.92914746  0.90517891  0.75629748  1
  Ca2+  Ca104  1  0.93782820  0.90740332  0.06922071  1
  Ca2+  Ca105  1  0.56209096  0.90875946  0.07869368  1
  Ca2+  Ca106  1  0.90009768  0.40482140  0.40508522  1
  Ca2+  Ca107  1  0.94149619  0.90374750  0.75899811  1
  Mn3.34+  Mn108  1  0.09215971  0.35104360  0.07140148  1
  Mn3.34+  Mn109  1  0.08529996  0.32942573  0.42012343  1
  Mn3.34+  Mn110  1  0.08145823  0.33463507  0.76049847  1
  Mn3.34+  Mn111  1  0.09618604  0.83221526  0.08734222  1
  Mn3.34+  Mn112  1  0.09116628  0.83267879  0.41487985  1
  Mn3.34+  Mn113  1  0.09329985  0.82974716  0.75294690  1
  Mn3.34+  Mn114  1  0.40675000  0.33851458  0.07877098  1
  Mn3.34+  Mn115  1  0.41559574  0.33675793  0.41668294  1
  Mn3.34+  Mn116  1  0.41756835  0.33642017  0.75674727  1
  Mn3.34+  Mn117  1  0.40467185  0.83203721  0.08108267  1
  Mn3.34+  Mn118  1  0.40771494  0.83250499  0.41965929  1
  Mn3.34+  Mn119  1  0.41483682  0.83148811  0.76531337  1
  Mn3.34+  Mn120  1  0.75098239  0.33338882  0.08535760  1
  Mn3.34+  Mn121  1  0.75048882  0.32428134  0.42418585  1
  Mn3.34+  Mn122  1  0.74923942  0.34040989  0.74714964  1
  Mn3.34+  Mn123  1  0.74889045  0.83418846  0.08070712  1
  Mn3.34+  Mn124  1  0.75440170  0.83271237  0.41970082  1
  Mn3.34+  Mn125  1  0.74740115  0.82811958  0.75357465  1
  Mn3.34+  Mn126  1  0.25354392  0.33371462  0.24412717  1
  Mn3.34+  Mn127  1  0.25616051  0.32778933  0.57858063  1
  Mn3.34+  Mn128  1  0.24681914  0.33734821  0.91574179  1
  Mn3.34+  Mn129  1  0.24643596  0.83557722  0.25048842  1
  Mn3.34+  Mn130  1  0.25173072  0.83165085  0.58422654  1
  Mn3.34+  Mn131  1  0.24649039  0.83683406  0.91714503  1
  Mn3.34+  Mn132  1  0.57784835  0.33439656  0.24222590  1
  Mn3.34+  Mn133  1  0.57985834  0.33410441  0.58797849  1
  Mn3.34+  Mn134  1  0.58042482  0.33420093  0.91307871  1
  Mn3.34+  Mn135  1  0.57961185  0.83568290  0.24667677  1
  Mn3.34+  Mn136  1  0.58480349  0.83057370  0.58619021  1
  Mn3.34+  Mn137  1  0.58120025  0.83090107  0.91457713  1
  Mn3.34+  Mn138  1  0.91842084  0.32647532  0.23996293  1
  Mn3.34+  Mn139  1  0.91916235  0.33261704  0.58452425  1
  Mn3.34+  Mn140  1  0.92053157  0.33167515  0.91405470  1
  Mn3.34+  Mn141  1  0.92350023  0.83059867  0.24710314  1
  Mn3.34+  Mn142  1  0.91876467  0.83056856  0.58367505  1
  Mn3.34+  Mn143  1  0.92106141  0.82813931  0.91577250  1
  Mn3.34+  Mn144  1  0.59308600  0.66718969  0.91532624  1
  Mn3.34+  Mn145  1  0.08669100  0.66501915  0.75966640  1
  Mn3.34+  Mn146  1  0.08156576  0.17891922  0.41658339  1
  Mn3.34+  Mn147  1  0.74622771  0.66517469  0.08317156  1
  Mn3.34+  Mn148  1  0.92094799  0.16783116  0.91694834  1
  Mn3.34+  Mn149  1  0.92224477  0.66584675  0.24662782  1
  Mn3.34+  Mn150  1  0.74273883  0.17219997  0.08551698  1
  Mn3.34+  Mn151  1  0.08265293  0.16837490  0.75743244  1
  Mn3.34+  Mn152  1  0.75724734  0.66079720  0.08538743  1
  Mn3.34+  Mn153  1  0.41168956  0.16739464  0.41798878  1
  Mn3.34+  Mn154  1  0.57819037  0.16909339  0.91443388  1
  Mn3.34+  Mn155  1  0.41408850  0.67057778  0.42256313  1
  Mn3.34+  Mn156  1  0.91043564  0.16761104  0.24205608  1
  Mn3.34+  Mn157  1  0.09243462  0.16301240  0.75757497  1
  Mn3.34+  Mn158  1  0.90600646  0.17408672  0.58434786  1
  Mn3.34+  Mn159  1  0.25531985  0.65750901  0.91108901  1
  Mn3.34+  Mn160  1  0.42102880  0.16182918  0.42082620  1
  Mn3.34+  Mn161  1  0.57670260  0.67013183  0.57915804  1
  Mn3.34+  Mn162  1  0.91620896  0.66871251  0.91309865  1
  Mn3.34+  Mn163  1  0.74322130  0.66181355  0.41491685  1
  Mn3.34+  Mn164  1  0.74984980  0.66539442  0.75445876  1
  Mn3.34+  Mn165  1  0.75175454  0.16661330  0.08881942  1
  Mn3.34+  Mn166  1  0.91636755  0.17532880  0.57811957  1
  Mn3.34+  Mn167  1  0.40952087  0.16896407  0.75329749  1
  Mn3.34+  Mn168  1  0.57926686  0.66194654  0.91385560  1
  Mn3.34+  Mn169  1  0.41250897  0.67092897  0.75234614  1
  Mn3.34+  Mn170  1  0.08973130  0.17247482  0.41853881  1
  Mn3.34+  Mn171  1  0.92278999  0.17516573  0.24441661  1
  Mn3.34+  Mn172  1  0.25222177  0.16814427  0.24107656  1
  Mn3.34+  Mn173  1  0.57587515  0.16781857  0.24632779  1
  Mn3.34+  Mn174  1  0.75329585  0.66678283  0.41336339  1
  Mn3.34+  Mn175  1  0.74364142  0.16300585  0.41651053  1
  Mn3.34+  Mn176  1  0.73539037  0.15736258  0.42014334  1
  Mn3.34+  Mn177  1  0.91734011  0.66587931  0.58605791  1
  Mn3.34+  Mn178  1  0.57708517  0.16852320  0.58415982  1
  Mn3.34+  Mn179  1  0.41237891  0.16604769  0.07984390  1
  Mn3.34+  Mn180  1  0.93252076  0.49854902  0.91847422  1
  Mn3.34+  Mn181  1  0.58864883  0.00671638  0.26036661  1
  Mn3.34+  Mn182  1  0.74971787  0.00490745  0.07734042  1
  Mn3.34+  Mn183  1  0.10507907  0.49852151  0.42181468  1
  Mn3.34+  Mn184  1  0.10070928  -0.00625297  0.40954759  1
  Mn3.34+  Mn185  1  0.26721721  0.00600031  0.58470223  1
  Mn3.34+  Mn186  1  0.09175116  0.50121242  0.42280037  1
  Mn3.34+  Mn187  1  0.25604082  -0.00283247  0.58308617  1
  Mn3.34+  Mn188  1  0.41421532  0.00345449  0.41268379  1
  Mn3.34+  Mn189  1  0.74938196  -0.00579044  0.75490046  1
  Mn3.34+  Mn190  1  0.09090396  -0.00031396  0.41409021  1
  Mn3.34+  Mn191  1  0.24942121  0.50023416  0.93330488  1
  Mn3.34+  Mn192  1  0.57759573  0.00526250  0.57971565  1
  Mn3.34+  Mn193  1  0.75130202  0.49767906  0.42156041  1
  Mn3.34+  Mn194  1  0.57948753  -0.00814111  0.91332985  1
  Mn3.34+  Mn195  1  0.08456413  0.50222796  0.76434248  1
  Mn3.34+  Mn196  1  0.91162688  0.00189125  0.57749023  1
  Mn3.34+  Mn197  1  0.92509047  -0.00027250  0.24890704  1
  Mn3.34+  Mn198  1  0.73673579  -0.01312237  0.75213271  1
  Mn3.34+  Mn199  1  0.74855989  0.50409682  0.75816893  1
  Mn3.34+  Mn200  1  0.74688446  0.00120069  0.41242967  1
  Mn3.34+  Mn201  1  0.75598065  0.50062110  0.08635304  1
  Mn3.34+  Mn202  1  0.90486387  0.49574629  0.59147892  1
  Mn3.34+  Mn203  1  0.91799016  0.50261274  0.59014606  1
  Mn3.34+  Mn204  1  0.92387296  0.00028743  0.92291608  1
  Mn3.34+  Mn205  1  0.56699345  -0.00174641  0.91448973  1
  Mn3.34+  Mn206  1  0.58351227  0.50174639  0.92413478  1
  Mn3.34+  Mn207  1  0.41844356  0.50864783  0.42193480  1
  Mn3.34+  Mn208  1  0.59298386  0.49795270  0.57944572  1
  Mn3.34+  Mn209  1  0.91641841  0.49965688  0.91952363  1
  Mn3.34+  Mn210  1  0.58208494  0.50244215  0.57730439  1
  Mn3.34+  Mn211  1  0.91154629  0.50163759  0.24783477  1
  Mn3.34+  Mn212  1  0.40755388  0.50371830  0.42261140  1
  Mn3.34+  Mn213  1  0.58950515  0.49717191  0.26411049  1
  Mn3.34+  Mn214  1  0.40146899  -0.00336582  0.41102182  1
  Mn3.34+  Mn215  1  0.24639585  0.00008033  0.24061293  1
  O2-  O216  1  0.00652309  0.16565769  -0.01138420  1
  O2-  O217  1  -0.00923122  0.16393002  0.34424501  1
  O2-  O218  1  0.00153223  0.15642033  0.66300037  1
  O2-  O219  1  -0.00145874  0.67624478  -0.00881356  1
  O2-  O220  1  -0.00337250  0.67431382  0.32661363  1
  O2-  O221  1  0.00808156  0.64306680  0.66731167  1
  O2-  O222  1  0.33038505  0.16251329  0.00655473  1
  O2-  O223  1  0.33258783  0.14809262  0.33186890  1
  O2-  O224  1  0.32418970  0.17017854  0.68298663  1
  O2-  O225  1  0.32701275  0.67110436  -0.00816233  1
  O2-  O226  1  0.33236730  0.66133018  0.34253272  1
  O2-  O227  1  0.33362998  0.65836842  0.67344800  1
  O2-  O228  1  0.66513472  0.14819467  -0.00035102  1
  O2-  O229  1  0.66344012  0.17311639  0.32797813  1
  O2-  O230  1  0.65167701  0.15671107  0.66919651  1
  O2-  O231  1  0.67008876  0.63530056  -0.00352279  1
  O2-  O232  1  0.66576554  0.66059311  0.33548575  1
  O2-  O233  1  0.66018102  0.64734982  0.67560855  1
  O2-  O234  1  0.16465908  0.17314614  0.00692177  1
  O2-  O235  1  0.16207496  0.15658559  0.32611684  1
  O2-  O236  1  0.15993059  0.15549808  0.66363277  1
  O2-  O237  1  0.17414058  0.67007941  -0.01018318  1
  O2-  O238  1  0.16974635  0.66496686  0.33361802  1
  O2-  O239  1  0.17341278  0.64136951  0.68822240  1
  O2-  O240  1  0.49582262  0.15551720  -0.00524329  1
  O2-  O241  1  0.49408772  0.14254199  0.33750673  1
  O2-  O242  1  0.48978643  0.15464116  0.65852544  1
  O2-  O243  1  0.50474030  0.65653176  -0.00171521  1
  O2-  O244  1  0.48421866  0.65656062  0.33436151  1
  O2-  O245  1  0.50197716  0.65817398  0.66919389  1
  O2-  O246  1  0.83799383  0.15340186  0.00695506  1
  O2-  O247  1  0.83263928  0.17885334  0.33380884  1
  O2-  O248  1  0.82930246  0.15748383  0.66207857  1
  O2-  O249  1  0.84036585  0.66775469  0.00681124  1
  O2-  O250  1  0.83889467  0.66105039  0.33451481  1
  O2-  O251  1  0.83298099  0.65124941  0.66874422  1
  O2-  O252  1  0.00133485  0.33035506  0.00185911  1
  O2-  O253  1  -0.00574681  0.33404734  0.33864958  1
  O2-  O254  1  0.01491684  0.34457182  0.65161469  1
  O2-  O255  1  0.00314430  0.82286286  0.00246475  1
  O2-  O256  1  -0.00650321  0.83066448  0.34069448  1
  O2-  O257  1  0.00101495  0.84234056  0.66778203  1
  O2-  O258  1  0.33437209  0.35026791  -0.00680724  1
  O2-  O259  1  0.33016625  0.34862293  0.33593931  1
  O2-  O260  1  0.33318033  0.33110938  0.66547744  1
  O2-  O261  1  0.32446045  0.83203919  0.00080503  1
  O2-  O262  1  0.33471211  0.84928230  0.33261003  1
  O2-  O263  1  0.33391362  0.84254155  0.67053688  1
  O2-  O264  1  0.66205947  0.34803352  0.00727165  1
  O2-  O265  1  0.66839231  0.33824143  0.33144758  1
  O2-  O266  1  0.66257107  0.33835701  0.66620150  1
  O2-  O267  1  0.66022346  0.85546212  0.00570365  1
  O2-  O268  1  0.66741379  0.84998248  0.32915260  1
  O2-  O269  1  0.67538212  0.84480746  0.66098134  1
  O2-  O270  1  0.16901467  0.31984803  0.00171308  1
  O2-  O271  1  0.16023928  0.34501175  0.32991770  1
  O2-  O272  1  0.16977284  0.33185819  0.65719974  1
  O2-  O273  1  0.16926666  0.81332295  0.00111588  1
  O2-  O274  1  0.16404772  0.84282648  0.33131158  1
  O2-  O275  1  0.17347849  0.85276279  0.67262367  1
  O2-  O276  1  0.49854799  0.34415959  -0.00017598  1
  O2-  O277  1  0.49936052  0.35850590  0.32764333  1
  O2-  O278  1  0.48877659  0.35278704  0.65422099  1
  O2-  O279  1  0.49721714  0.83792164  0.00208836  1
  O2-  O280  1  0.50005295  0.85533469  0.33239297  1
  O2-  O281  1  0.50460308  0.84151894  0.67010288  1
  O2-  O282  1  0.83440216  0.33927712  0.00351698  1
  O2-  O283  1  0.83320423  0.32551443  0.33151812  1
  O2-  O284  1  0.84041743  0.31863718  0.66510920  1
  O2-  O285  1  0.84602977  0.84139134  0.00909406  1
  O2-  O286  1  0.83482071  0.84866456  0.33095847  1
  O2-  O287  1  0.84178548  0.84954556  0.67352275  1
  O2-  O288  1  0.00491476  0.18560081  0.16495788  1
  O2-  O289  1  0.00063666  0.19682580  0.50336701  1
  O2-  O290  1  -0.01160339  0.17664073  0.82078310  1
  O2-  O291  1  -0.00385768  0.68806313  0.17129800  1
  O2-  O292  1  0.00074607  0.67473020  0.51331927  1
  O2-  O293  1  -0.00519995  0.68534623  0.82766927  1
  O2-  O294  1  0.34116304  0.18048888  0.17227877  1
  O2-  O295  1  0.33081074  0.18520608  0.49221572  1
  O2-  O296  1  0.34194292  0.17218330  0.83884696  1
  O2-  O297  1  0.32318876  0.66907442  0.16570307  1
  O2-  O298  1  0.32741462  0.68350597  0.49154944  1
  O2-  O299  1  0.33131358  0.68496723  0.83031424  1
  O2-  O300  1  0.66000325  0.19452386  0.15972158  1
  O2-  O301  1  0.66740863  0.18656900  0.50924140  1
  O2-  O302  1  0.66728380  0.16822783  0.84502383  1
  O2-  O303  1  0.65481248  0.66846377  0.15153226  1
  O2-  O304  1  0.67563863  0.67726656  0.50837776  1
  O2-  O305  1  0.66460386  0.68470310  0.83279017  1
  O2-  O306  1  0.17558767  0.18129559  0.16354271  1
  O2-  O307  1  0.17052912  0.19015184  0.49545930  1
  O2-  O308  1  0.17019457  0.16830396  0.83875310  1
  O2-  O309  1  0.16060212  0.67541468  0.15429806  1
  O2-  O310  1  0.16936063  0.67604281  0.50824889  1
  O2-  O311  1  0.16537538  0.68453862  0.83747894  1
  O2-  O312  1  0.49776840  0.18029774  0.16308349  1
  O2-  O313  1  0.50030847  0.18610986  0.49874762  1
  O2-  O314  1  0.51309703  0.17977209  0.82116129  1
  O2-  O315  1  0.48440587  0.66617748  0.16802916  1
  O2-  O316  1  0.49869210  0.69111394  0.50295218  1
  O2-  O317  1  0.50480753  0.68178702  0.82927952  1
  O2-  O318  1  0.83084632  0.19653533  0.16576677  1
  O2-  O319  1  0.83107509  0.19473961  0.49472528  1
  O2-  O320  1  0.83051849  0.16904865  0.84253551  1
  O2-  O321  1  0.82997190  0.68970125  0.17200277  1
  O2-  O322  1  0.83423868  0.68124684  0.49310041  1
  O2-  O323  1  0.83285215  0.68688698  0.83334202  1
  O2-  O324  1  0.00281026  0.31106099  0.16473774  1
  O2-  O325  1  0.00078829  0.31008468  0.49692582  1
  O2-  O326  1  -0.00469861  0.31352066  0.83047318  1
  O2-  O327  1  -0.00099508  0.81786218  0.15877372  1
  O2-  O328  1  -0.00031665  0.82111013  0.50419900  1
  O2-  O329  1  -0.00195507  0.81618949  0.82746462  1
  O2-  O330  1  0.33807090  0.32464137  0.16973815  1
  O2-  O331  1  0.34009136  0.31055287  0.50242599  1
  O2-  O332  1  0.33740714  0.32609169  0.83704254  1
  O2-  O333  1  0.33536916  0.82417806  0.17137069  1
  O2-  O334  1  0.34471764  0.81905884  0.51322835  1
  O2-  O335  1  0.32744468  0.81571433  0.83803437  1
  O2-  O336  1  0.66425166  0.31655373  0.16357551  1
  O2-  O337  1  0.66082467  0.31370172  0.49482295  1
  O2-  O338  1  0.66652513  0.32947412  0.83996218  1
  O2-  O339  1  0.66939609  0.82942462  0.17122879  1
  O2-  O340  1  0.66372118  0.82768614  0.49566884  1
  O2-  O341  1  0.66433701  0.81391045  0.83211087  1
  O2-  O342  1  0.16324280  0.32929266  0.16573812  1
  O2-  O343  1  0.17238019  0.30986349  0.49410664  1
  O2-  O344  1  0.16481491  0.31870387  0.83500923  1
  O2-  O345  1  0.16797770  0.81102873  0.16492281  1
  O2-  O346  1  0.16244983  0.83376539  0.50967365  1
  O2-  O347  1  0.17100775  0.81412782  0.83410440  1
  O2-  O348  1  0.50133970  0.32598895  0.15805016  1
  O2-  O349  1  0.51073035  0.32908581  0.48382214  1
  O2-  O350  1  0.49894558  0.32136731  0.83730081  1
  O2-  O351  1  0.49998350  0.83186614  0.16334611  1
  O2-  O352  1  0.50728275  0.83059530  0.49486859  1
  O2-  O353  1  0.49631253  0.80946802  0.84109301  1
  O2-  O354  1  0.83150405  0.30876658  0.16559684  1
  O2-  O355  1  0.84196289  0.31333653  0.49663567  1
  O2-  O356  1  0.82856696  0.32793488  0.84118340  1
  O2-  O357  1  0.82803269  0.81730119  0.17386355  1
  O2-  O358  1  0.83346128  0.82102348  0.50516363  1
  O2-  O359  1  0.84075120  0.81490160  0.83223176  1
  O2-  O360  1  0.09575546  0.07191431  0.08888028  1
  O2-  O361  1  0.07922449  0.08278577  0.45952657  1
  O2-  O362  1  0.07543873  0.08056610  0.76261921  1
  O2-  O363  1  0.10488802  0.58323205  0.10955737  1
  O2-  O364  1  0.06731477  0.58120925  0.44214767  1
  O2-  O365  1  0.07123051  0.58123115  0.80047732  1
  O2-  O366  1  0.41460473  0.08499590  0.09874583  1
  O2-  O367  1  0.39257112  0.07914789  0.46079581  1
  O2-  O368  1  0.42960783  0.08469069  0.78192866  1
  O2-  O369  1  0.42262182  0.55326046  0.13519609  1
  O2-  O370  1  0.41244693  0.58756467  0.45446192  1
  O2-  O371  1  0.41785622  0.58584921  0.77145209  1
  O2-  O372  1  0.74883190  0.08345828  0.12148251  1
  O2-  O373  1  0.77462277  0.07897424  0.46208616  1
  O2-  O374  1  0.73753678  0.07524273  0.77632554  1
  O2-  O375  1  0.76810919  0.58071935  0.11672176  1
  O2-  O376  1  0.75805982  0.58024576  0.44748609  1
  O2-  O377  1  0.74858894  0.58370903  0.78780653  1
  O2-  O378  1  0.25126036  0.08305563  0.21075131  1
  O2-  O379  1  0.22282205  0.07585421  0.54275064  1
  O2-  O380  1  0.24777642  0.06259711  0.89377140  1
  O2-  O381  1  0.26345367  0.57852420  0.21880830  1
  O2-  O382  1  0.20503783  0.54803915  0.52075445  1
  O2-  O383  1  0.24489682  0.56427197  0.86623961  1
  O2-  O384  1  0.56977372  0.08370927  0.21550605  1
  O2-  O385  1  0.59266646  0.08559651  0.56015463  1
  O2-  O386  1  0.57961673  0.07842601  0.87952500  1
  O2-  O387  1  0.56062553  0.56937349  0.23122979  1
  O2-  O388  1  0.58615612  0.58475416  0.55609421  1
  O2-  O389  1  0.58319136  0.57759803  0.87168517  1
  O2-  O390  1  0.93930510  0.08367769  0.21604222  1
  O2-  O391  1  0.93123647  0.08542102  0.54152264  1
  O2-  O392  1  0.90924076  0.08012909  0.89041044  1
  O2-  O393  1  0.93433430  0.58368143  0.22672702  1
  O2-  O394  1  0.90333067  0.57809532  0.54271850  1
  O2-  O395  1  0.91388152  0.57937602  0.88597272  1
  O2-  O396  1  0.05508958  0.42568874  0.11547997  1
  O2-  O397  1  0.08731701  0.41812409  0.46921134  1
  O2-  O398  1  0.09290362  0.41856248  0.75155894  1
  O2-  O399  1  0.08193095  0.91104303  0.09778671  1
  O2-  O400  1  0.06698997  0.91777854  0.44747060  1
  O2-  O401  1  0.07465937  0.91287788  0.76771465  1
  O2-  O402  1  0.43010149  0.41807420  0.10350034  1
  O2-  O403  1  0.40127032  0.42610337  0.47313663  1
  O2-  O404  1  0.40889186  0.41737491  0.76598843  1
  O2-  O405  1  0.41908780  0.91790732  0.10255164  1
  O2-  O406  1  0.41816368  0.92144068  0.46163608  1
  O2-  O407  1  0.40536439  0.91252603  0.75972338  1
  O2-  O408  1  0.76097708  0.42135682  0.12004817  1
  O2-  O409  1  0.76412787  0.41328746  0.44586870  1
  O2-  O410  1  0.75495577  0.42357586  0.77879204  1
  O2-  O411  1  0.75371534  0.92377260  0.11268653  1
  O2-  O412  1  0.74826024  0.91944911  0.45324714  1
  O2-  O413  1  0.76653813  0.91065593  0.78145201  1
  O2-  O414  1  0.24578857  0.41609307  0.22735544  1
  O2-  O415  1  0.24682556  0.41547098  0.55546479  1
  O2-  O416  1  0.25030924  0.42869597  0.89259669  1
  O2-  O417  1  0.25539216  0.92147587  0.20861785  1
  O2-  O418  1  0.27479110  0.91882014  0.55957747  1
  O2-  O419  1  0.24269283  0.91391261  0.90770187  1
  O2-  O420  1  0.59827473  0.42177301  0.20955813  1
  O2-  O421  1  0.59759642  0.41741523  0.54728013  1
  O2-  O422  1  0.57974425  0.42036464  0.90942075  1
  O2-  O423  1  0.59090521  0.92626180  0.20877430  1
  O2-  O424  1  0.57875513  0.92217743  0.55612453  1
  O2-  O425  1  0.57480017  0.91335412  0.88869019  1
  O2-  O426  1  0.90995193  0.41562015  0.22459606  1
  O2-  O427  1  0.91918461  0.42162933  0.53698542  1
  O2-  O428  1  0.92292510  0.41634365  0.90258256  1
  O2-  O429  1  0.90116414  0.92145849  0.20016934  1
  O2-  O430  1  0.91344086  0.91773789  0.55939332  1
  O2-  O431  1  0.92238708  0.92020177  0.89170141  1
  O2-  O432  1  -0.00825661  -0.00590078  0.00891219  1
  O2-  O433  1  -0.00847193  0.00669180  0.35298395  1
  O2-  O434  1  0.00193855  0.00551526  0.64978775  1
  O2-  O435  1  -0.00119092  0.52173497  0.00282351  1
  O2-  O436  1  0.00039781  0.47638946  0.34289250  1
  O2-  O437  1  -0.00181410  0.49986957  0.67356663  1
  O2-  O438  1  0.31685884  0.01550822  0.00867333  1
  O2-  O439  1  0.34686257  0.00804247  0.30799589  1
  O2-  O440  1  0.32472730  0.00107587  0.68321349  1
  O2-  O441  1  0.33721082  0.50578434  -0.01662365  1
  O2-  O442  1  0.33793438  0.49516188  0.33163229  1
  O2-  O443  1  0.32363753  0.50339048  0.66484826  1
  O2-  O444  1  0.67557017  0.01707767  -0.01762273  1
  O2-  O445  1  0.66734415  -0.02926387  0.33517632  1
  O2-  O446  1  0.67290789  0.00162472  0.65463957  1
  O2-  O447  1  0.66261939  0.48921460  0.01840792  1
  O2-  O448  1  0.66851953  0.47200858  0.34031893  1
  O2-  O449  1  0.65583985  0.51520666  0.68023747  1
  O2-  O450  1  0.17863576  0.01069614  0.02456799  1
  O2-  O451  1  0.17180444  0.02449428  0.32864995  1
  O2-  O452  1  0.15939815  -0.00206018  0.65007387  1
  O2-  O453  1  0.17429994  0.51657629  -0.00045961  1
  O2-  O454  1  0.15652966  0.49466224  0.31716690  1
  O2-  O455  1  0.15866691  0.51211631  0.67478051  1
  O2-  O456  1  0.51500618  -0.00310594  0.01946644  1
  O2-  O457  1  0.50887080  -0.01455718  0.34937535  1
  O2-  O458  1  0.49566023  0.00063281  0.65533233  1
  O2-  O459  1  0.50971159  0.50397534  0.00822404  1
  O2-  O460  1  0.50855851  0.47899963  0.35131074  1
  O2-  O461  1  0.49357314  0.49800966  0.65463824  1
  O2-  O462  1  0.83623366  0.00996823  0.00036733  1
  O2-  O463  1  0.83171197  -0.01062569  0.32703038  1
  O2-  O464  1  0.83641944  0.00989076  0.67365540  1
  O2-  O465  1  0.83390410  0.48856571  -0.00251122  1
  O2-  O466  1  0.83862619  0.48317302  0.34186263  1
  O2-  O467  1  0.82738164  0.51724510  0.67103885  1
  O2-  O468  1  0.25254178  0.24988241  0.27346414  1
  O2-  O469  1  0.41791622  0.75138849  0.72532642  1
  O2-  O470  1  0.25790874  0.25645220  0.92223137  1
  O2-  O471  1  0.09281105  0.75409497  0.41047043  1
  O2-  O472  1  0.74226066  0.25694590  0.74858438  1
  O2-  O473  1  0.25471295  0.75627655  0.26682193  1
  O2-  O474  1  0.42096464  0.75433281  0.38895802  1
  O2-  O475  1  0.08705371  0.24841291  0.73205399  1
  O2-  O476  1  0.74264095  0.75073752  0.39094665  1
  O2-  O477  1  0.56986867  0.25188956  0.61186275  1
  O2-  O478  1  0.90828166  0.74974350  0.60899594  1
  O2-  O479  1  0.56561242  0.25324454  0.27449209  1
  O2-  O480  1  0.57891720  0.75673745  0.25931578  1
  O2-  O481  1  0.42237747  0.24880798  0.37963046  1
  O2-  O482  1  0.59453334  0.74870924  0.95218633  1
  O2-  O483  1  0.74860226  0.74793413  0.72219134  1
  O2-  O484  1  0.08883327  0.74530225  0.71746846  1
  O2-  O485  1  0.41436677  0.75247166  0.07802843  1
  O2-  O486  1  0.41317512  0.25296515  0.06126183  1
  O2-  O487  1  0.24154101  0.75485371  0.60415279  1
  O2-  O488  1  0.59747775  0.74992527  0.60682616  1
  O2-  O489  1  0.42583425  0.25226407  0.73765608  1
  O2-  O490  1  0.59319937  0.25060098  0.93984571  1
  O2-  O491  1  0.90312044  0.24934089  0.92975221  1
  O2-  O492  1  0.73480548  0.74746156  0.05628340  1
