# generated using pymatgen
data_Ca108Mn108O277
_symmetry_space_group_name_H-M   'P 1'
_cell_length_a   16.01135140
_cell_length_b   22.28497506
_cell_length_c   16.37662746
_cell_angle_alpha   90.00032227
_cell_angle_beta   89.99909560
_cell_angle_gamma   89.99963081
_symmetry_Int_Tables_number   1
_chemical_formula_structural   Ca108Mn108O277
_chemical_formula_sum   'Ca108 Mn108 O277'
_cell_volume   5843.38647850
_cell_formula_units_Z   1
loop_
 _symmetry_equiv_pos_site_id
 _symmetry_equiv_pos_as_xyz
  1  'x, y, z'
loop_
 _atom_type_symbol
 _atom_type_oxidation_number
  Ca2+  2.0
  Mn3.34+  3.34
  O2-  -2.0
loop_
 _atom_site_type_symbol
 _atom_site_label
 _atom_site_symmetry_multiplicity
 _atom_site_fract_x
 _atom_site_fract_y
 _atom_site_fract_z
 _atom_site_occupancy
  Ca2+  Ca0  1  0.06273535  0.24703267  0.24489748  1
  Ca2+  Ca1  1  0.09175735  0.25728063  0.57315529  1
  Ca2+  Ca2  1  0.08237430  0.25233310  0.92509290  1
  Ca2+  Ca3  1  0.09676347  0.75060481  0.23891193  1
  Ca2+  Ca4  1  0.07907696  0.76210949  0.60099484  1
  Ca2+  Ca5  1  0.09709033  0.74369606  0.90840103  1
  Ca2+  Ca6  1  0.43920470  0.24980108  0.26315422  1
  Ca2+  Ca7  1  0.42118572  0.25752647  0.57719926  1
  Ca2+  Ca8  1  0.42043106  0.25115940  0.90209322  1
  Ca2+  Ca9  1  0.41763945  0.73358873  0.25682562  1
  Ca2+  Ca10  1  0.42292573  0.75718017  0.57684283  1
  Ca2+  Ca11  1  0.41518025  0.74659445  0.91189171  1
  Ca2+  Ca12  1  0.75265160  0.24692457  0.23689516  1
  Ca2+  Ca13  1  0.73991772  0.25425260  0.58287123  1
  Ca2+  Ca14  1  0.75442209  0.23977688  0.93432560  1
  Ca2+  Ca15  1  0.73835082  0.74548604  0.23631045  1
  Ca2+  Ca16  1  0.74501893  0.76093257  0.58758859  1
  Ca2+  Ca17  1  0.73746222  0.74844752  0.93165064  1
  Ca2+  Ca18  1  0.23296550  0.25377022  0.07750666  1
  Ca2+  Ca19  1  0.25137650  0.26717337  0.41824769  1
  Ca2+  Ca20  1  0.25920063  0.25024464  0.75978045  1
  Ca2+  Ca21  1  0.24438695  0.74608126  0.08146731  1
  Ca2+  Ca22  1  0.27579479  0.74584488  0.40002224  1
  Ca2+  Ca23  1  0.24399145  0.75027843  0.76791721  1
  Ca2+  Ca24  1  0.61290177  0.23930054  0.09684348  1
  Ca2+  Ca25  1  0.58947869  0.25030167  0.39692385  1
  Ca2+  Ca26  1  0.58721066  0.24895840  0.76306844  1
  Ca2+  Ca27  1  0.59719116  0.73394949  0.08373502  1
  Ca2+  Ca28  1  0.57207180  0.74417278  0.40705897  1
  Ca2+  Ca29  1  0.57868623  0.74964798  0.76295574  1
  Ca2+  Ca30  1  0.90216023  0.24113092  0.09433088  1
  Ca2+  Ca31  1  0.91227198  0.25672104  0.39325365  1
  Ca2+  Ca32  1  0.90554294  0.24639316  0.76758803  1
  Ca2+  Ca33  1  0.90474810  0.75050328  0.08394820  1
  Ca2+  Ca34  1  0.90843128  0.76344135  0.41435843  1
  Ca2+  Ca35  1  0.92705032  0.75715629  0.75099360  1
  Ca2+  Ca36  1  0.41678656  0.08477983  0.62974119  1
  Ca2+  Ca37  1  0.41161328  0.58839876  0.93079462  1
  Ca2+  Ca38  1  0.91339113  0.09068654  0.39783046  1
  Ca2+  Ca39  1  0.24895701  0.59480045  0.77419210  1
  Ca2+  Ca40  1  0.58830864  0.09632632  0.39219582  1
  Ca2+  Ca41  1  0.09195270  0.59068368  0.59609170  1
  Ca2+  Ca42  1  0.06665336  0.10091799  0.24277296  1
  Ca2+  Ca43  1  0.91882278  0.60124861  0.75265878  1
  Ca2+  Ca44  1  0.26162132  0.59496983  0.77456693  1
  Ca2+  Ca45  1  0.74421007  0.10659239  0.23420055  1
  Ca2+  Ca46  1  0.43817650  0.09782695  0.25135472  1
  Ca2+  Ca47  1  0.57227368  0.09590785  0.75706895  1
  Ca2+  Ca48  1  0.42495757  0.09414832  0.89395870  1
  Ca2+  Ca49  1  0.71613279  0.59903619  0.23715115  1
  Ca2+  Ca50  1  0.10191699  0.60160693  0.23066928  1
  Ca2+  Ca51  1  0.07020723  0.09201813  0.91294828  1
  Ca2+  Ca52  1  0.61628334  0.09645573  0.08712984  1
  Ca2+  Ca53  1  0.75324546  0.10438329  0.22985184  1
  Ca2+  Ca54  1  0.73870300  0.58530176  0.58539044  1
  Ca2+  Ca55  1  0.06228930  0.09607415  0.91711869  1
  Ca2+  Ca56  1  0.07299311  0.08052454  0.59804205  1
  Ca2+  Ca57  1  0.89579537  0.10399081  0.08645432  1
  Ca2+  Ca58  1  0.41360073  0.09345095  0.89540391  1
  Ca2+  Ca59  1  0.23837816  0.09021181  0.08242575  1
  Ca2+  Ca60  1  0.24162545  0.08971532  0.40392668  1
  Ca2+  Ca61  1  0.25076007  0.59731308  0.07512092  1
  Ca2+  Ca62  1  0.90242921  0.08879693  0.39589399  1
  Ca2+  Ca63  1  0.57206439  0.59117880  0.76197600  1
  Ca2+  Ca64  1  0.25480344  0.08992451  0.40429940  1
  Ca2+  Ca65  1  0.90740512  0.58397641  0.41090267  1
  Ca2+  Ca66  1  0.76628286  0.09767637  0.93843021  1
  Ca2+  Ca67  1  0.07899642  0.59002434  0.59594470  1
  Ca2+  Ca68  1  0.26685274  0.08979446  0.75503279  1
  Ca2+  Ca69  1  0.90976181  0.09579980  0.76226225  1
  Ca2+  Ca70  1  0.08641083  0.08060426  0.59823195  1
  Ca2+  Ca71  1  0.75135757  0.58527865  0.58626377  1
  Ca2+  Ca72  1  0.26788366  0.41702462  0.07217885  1
  Ca2+  Ca73  1  0.91387029  0.39368936  0.74933094  1
  Ca2+  Ca74  1  0.91594227  0.90704124  0.41728529  1
  Ca2+  Ca75  1  0.43072327  0.41837069  0.25202563  1
  Ca2+  Ca76  1  0.08123100  0.39807120  0.57417611  1
  Ca2+  Ca77  1  0.58923904  0.41537238  0.08694169  1
  Ca2+  Ca78  1  0.23971607  0.90949467  0.75524819  1
  Ca2+  Ca79  1  0.40237222  0.42408423  0.91647617  1
  Ca2+  Ca80  1  0.75203999  0.90345276  0.58319462  1
  Ca2+  Ca81  1  0.25682493  0.41856593  0.07200859  1
  Ca2+  Ca82  1  0.74151381  0.90593352  0.24514679  1
  Ca2+  Ca83  1  0.41413661  0.90527262  0.91492212  1
  Ca2+  Ca84  1  0.42041319  0.89742828  0.24292297  1
  Ca2+  Ca85  1  0.25653721  0.40465829  0.75679959  1
  Ca2+  Ca86  1  0.74582479  0.40443007  0.24983712  1
  Ca2+  Ca87  1  0.41434399  0.42305784  0.91786663  1
  Ca2+  Ca88  1  0.74837006  0.40728693  0.58033464  1
  Ca2+  Ca89  1  0.25067004  0.90846871  0.75254910  1
  Ca2+  Ca90  1  0.75279559  0.90633382  0.24489255  1
  Ca2+  Ca91  1  0.74824423  0.40174913  0.91664375  1
  Ca2+  Ca92  1  0.24723990  0.89755078  0.42092842  1
  Ca2+  Ca93  1  0.08342244  0.91166130  0.59677008  1
  Ca2+  Ca94  1  0.57149605  0.90511931  0.75684915  1
  Ca2+  Ca95  1  0.58316226  0.41565725  0.40585474  1
  Ca2+  Ca96  1  0.40879768  0.89715829  0.24238219  1
  Ca2+  Ca97  1  0.90546031  0.90758437  0.07810660  1
  Ca2+  Ca98  1  0.08692252  0.90004023  0.24436694  1
  Ca2+  Ca99  1  0.59710753  0.90909567  0.07672610  1
  Ca2+  Ca100  1  0.57657737  0.41569280  0.08665257  1
  Ca2+  Ca101  1  0.57356533  0.41053981  0.74935620  1
  Ca2+  Ca102  1  0.76106196  0.40570944  0.57914530  1
  Ca2+  Ca103  1  0.42399165  0.40754785  0.58516055  1
  Ca2+  Ca104  1  0.08440908  0.39860121  0.25550021  1
  Ca2+  Ca105  1  0.93121436  0.91068061  0.75618930  1
  Ca2+  Ca106  1  0.42002751  0.41838099  0.25199182  1
  Ca2+  Ca107  1  0.58289346  0.90531983  0.75715640  1
  Mn3.34+  Mn108  1  0.07693091  0.33261510  0.08228986  1
  Mn3.34+  Mn109  1  0.08159518  0.33326976  0.41435688  1
  Mn3.34+  Mn110  1  0.08165752  0.32677591  0.75315330  1
  Mn3.34+  Mn111  1  0.08267281  0.83651164  0.07700352  1
  Mn3.34+  Mn112  1  0.08446722  0.83327173  0.41925919  1
  Mn3.34+  Mn113  1  0.08344035  0.83282125  0.75545903  1
  Mn3.34+  Mn114  1  0.41674191  0.32959176  0.08576790  1
  Mn3.34+  Mn115  1  0.41398010  0.33966281  0.41863577  1
  Mn3.34+  Mn116  1  0.41746787  0.33870623  0.75151384  1
  Mn3.34+  Mn117  1  0.41709204  0.82858834  0.08031126  1
  Mn3.34+  Mn118  1  0.42037365  0.82783207  0.41901911  1
  Mn3.34+  Mn119  1  0.41474847  0.83347515  0.75043384  1
  Mn3.34+  Mn120  1  0.75582298  0.33451701  0.08291062  1
  Mn3.34+  Mn121  1  0.75240025  0.33429164  0.41354266  1
  Mn3.34+  Mn122  1  0.74852536  0.33101750  0.75453860  1
  Mn3.34+  Mn123  1  0.74959971  0.83244004  0.08062485  1
  Mn3.34+  Mn124  1  0.74429028  0.83285348  0.41814992  1
  Mn3.34+  Mn125  1  0.75312986  0.83257749  0.75652323  1
  Mn3.34+  Mn126  1  0.25048052  0.33374845  0.24694667  1
  Mn3.34+  Mn127  1  0.25011196  0.33439820  0.58297257  1
  Mn3.34+  Mn128  1  0.24546160  0.33342896  0.91376557  1
  Mn3.34+  Mn129  1  0.24813722  0.83061084  0.24461463  1
  Mn3.34+  Mn130  1  0.25244610  0.83139246  0.58123911  1
  Mn3.34+  Mn131  1  0.24718982  0.83259084  0.92402669  1
  Mn3.34+  Mn132  1  0.58516666  0.33274127  0.24806146  1
  Mn3.34+  Mn133  1  0.58245540  0.33671307  0.57984949  1
  Mn3.34+  Mn134  1  0.58301094  0.33334776  0.91603085  1
  Mn3.34+  Mn135  1  0.58152197  0.82716201  0.24766981  1
  Mn3.34+  Mn136  1  0.58150629  0.83276128  0.57963885  1
  Mn3.34+  Mn137  1  0.58473153  0.83186892  0.92051002  1
  Mn3.34+  Mn138  1  0.91532640  0.32983163  0.24645257  1
  Mn3.34+  Mn139  1  0.91803140  0.32619686  0.58146431  1
  Mn3.34+  Mn140  1  0.91954458  0.33120439  0.91957310  1
  Mn3.34+  Mn141  1  0.92018843  0.83473698  0.24735950  1
  Mn3.34+  Mn142  1  0.91648892  0.83896898  0.58301903  1
  Mn3.34+  Mn143  1  0.91788418  0.83601589  0.91780971  1
  Mn3.34+  Mn144  1  0.42402067  0.65643237  0.08923967  1
  Mn3.34+  Mn145  1  0.74434538  0.66796079  0.75966585  1
  Mn3.34+  Mn146  1  0.24872368  0.16883752  0.91404374  1
  Mn3.34+  Mn147  1  0.07898346  0.16730258  0.08543992  1
  Mn3.34+  Mn148  1  0.09582164  0.66039021  0.41176161  1
  Mn3.34+  Mn149  1  0.56914169  0.66128600  0.57819213  1
  Mn3.34+  Mn150  1  0.24875323  0.17031302  0.24605264  1
  Mn3.34+  Mn151  1  0.42157509  0.17733602  0.08343087  1
  Mn3.34+  Mn152  1  0.59147450  0.16266919  0.58357645  1
  Mn3.34+  Mn153  1  0.24789106  0.66628328  0.92431566  1
  Mn3.34+  Mn154  1  0.92018909  0.66527688  0.23810382  1
  Mn3.34+  Mn155  1  0.90788154  0.17108947  0.58328836  1
  Mn3.34+  Mn156  1  0.08248941  0.16853698  0.41733148  1
  Mn3.34+  Mn157  1  0.74896168  0.16737973  0.41504324  1
  Mn3.34+  Mn158  1  0.91858443  0.66645127  0.58178035  1
  Mn3.34+  Mn159  1  0.24937622  0.16791992  0.58600908  1
  Mn3.34+  Mn160  1  0.75147285  0.16585589  0.75969711  1
  Mn3.34+  Mn161  1  0.90804527  0.67178751  0.58254293  1
  Mn3.34+  Mn162  1  0.91705569  0.17702589  0.58406478  1
  Mn3.34+  Mn163  1  0.91358492  0.66835011  0.92423569  1
  Mn3.34+  Mn164  1  0.41859914  0.66488258  0.75797554  1
  Mn3.34+  Mn165  1  0.26355062  0.67051100  0.58231178  1
  Mn3.34+  Mn166  1  0.41182705  0.16721093  0.08604236  1
  Mn3.34+  Mn167  1  0.74215294  0.66744188  0.40890635  1
  Mn3.34+  Mn168  1  0.57891872  0.66667328  0.57921283  1
  Mn3.34+  Mn169  1  0.92672409  0.66961846  0.91938760  1
  Mn3.34+  Mn170  1  0.90750554  0.66902162  0.24295035  1
  Mn3.34+  Mn171  1  0.08092736  0.16615638  0.75649513  1
  Mn3.34+  Mn172  1  0.58124470  0.16777853  0.58400447  1
  Mn3.34+  Mn173  1  0.58509422  0.66470234  0.92396646  1
  Mn3.34+  Mn174  1  0.08526237  0.66561762  0.41053142  1
  Mn3.34+  Mn175  1  0.58670936  0.16786257  0.91599407  1
  Mn3.34+  Mn176  1  0.26018573  0.16303692  0.58548392  1
  Mn3.34+  Mn177  1  0.25388035  0.67682578  0.58370095  1
  Mn3.34+  Mn178  1  0.41942169  0.16918762  0.41474565  1
  Mn3.34+  Mn179  1  0.26045913  0.66564131  0.24300028  1
  Mn3.34+  Mn180  1  0.27227415  0.50369867  0.57705195  1
  Mn3.34+  Mn181  1  0.08310267  -0.00016510  0.07977026  1
  Mn3.34+  Mn182  1  0.42698273  -0.00600745  0.42481527  1
  Mn3.34+  Mn183  1  0.91942625  0.49663470  0.57533990  1
  Mn3.34+  Mn184  1  0.08547074  0.50469900  0.07991106  1
  Mn3.34+  Mn185  1  0.92331450  0.50005705  0.24485354  1
  Mn3.34+  Mn186  1  0.92221375  0.50176371  0.91325653  1
  Mn3.34+  Mn187  1  0.07519314  0.49956205  0.08066576  1
  Mn3.34+  Mn188  1  0.08545385  0.50150866  0.76119405  1
  Mn3.34+  Mn189  1  0.58329578  0.00118775  0.24620398  1
  Mn3.34+  Mn190  1  0.91049912  0.00145312  0.58873145  1
  Mn3.34+  Mn191  1  0.91865087  0.00080196  0.24884322  1
  Mn3.34+  Mn192  1  0.75071022  0.50444492  0.07623397  1
  Mn3.34+  Mn193  1  0.42271966  0.50630146  0.40084441  1
  Mn3.34+  Mn194  1  0.25763854  -0.00263441  0.59068821  1
  Mn3.34+  Mn195  1  0.08393912  -0.00166467  0.41700548  1
  Mn3.34+  Mn196  1  0.91094355  0.49463967  0.24438577  1
  Mn3.34+  Mn197  1  0.57473066  -0.00593955  0.58360511  1
  Mn3.34+  Mn198  1  0.25191858  0.50524107  0.25910219  1
  Mn3.34+  Mn199  1  0.07353065  0.49709112  0.76034142  1
  Mn3.34+  Mn200  1  0.41592494  -0.00070089  0.42680700  1
  Mn3.34+  Mn201  1  0.90876645  0.49607927  0.91509443  1
  Mn3.34+  Mn202  1  0.75272496  0.50097595  0.75019542  1
  Mn3.34+  Mn203  1  0.59325439  0.00100873  0.93100594  1
  Mn3.34+  Mn204  1  0.41650216  0.00101458  0.07733241  1
  Mn3.34+  Mn205  1  0.24698787  -0.00039059  0.24642332  1
  Mn3.34+  Mn206  1  0.58854144  0.00040776  0.58183368  1
  Mn3.34+  Mn207  1  0.24591692  -0.00015317  0.92491436  1
  Mn3.34+  Mn208  1  0.75201207  0.00030518  0.75269396  1
  Mn3.34+  Mn209  1  0.26060996  0.49936233  0.57495356  1
  Mn3.34+  Mn210  1  0.91028556  -0.00183132  0.93321927  1
  Mn3.34+  Mn211  1  0.74313759  -0.00045770  0.41651771  1
  Mn3.34+  Mn212  1  0.57004732  0.50044800  0.59243915  1
  Mn3.34+  Mn213  1  0.08965701  0.49647540  0.40895920  1
  Mn3.34+  Mn214  1  0.58318200  0.50299466  0.92616777  1
  Mn3.34+  Mn215  1  0.73693612  0.50273735  0.39903955  1
  O2-  O216  1  0.00570641  0.15985216  -0.00088269  1
  O2-  O217  1  -0.00074857  0.15717501  0.34326420  1
  O2-  O218  1  0.00189939  0.16687724  0.66739913  1
  O2-  O219  1  0.00158281  0.69024111  -0.00107182  1
  O2-  O220  1  -0.00319036  0.65160549  0.32847270  1
  O2-  O221  1  0.00240933  0.65599690  0.66334687  1
  O2-  O222  1  0.33164647  0.16141324  0.00177687  1
  O2-  O223  1  0.33100223  0.16060950  0.33131872  1
  O2-  O224  1  0.33581655  0.16945825  0.67250311  1
  O2-  O225  1  0.33865521  0.67101737  0.00198209  1
  O2-  O226  1  0.33316770  0.66807762  0.32522984  1
  O2-  O227  1  0.33167919  0.66424258  0.67505359  1
  O2-  O228  1  0.66661979  0.16144207  -0.00627007  1
  O2-  O229  1  0.67365561  0.15783896  0.33386548  1
  O2-  O230  1  0.66508424  0.15960063  0.67286945  1
  O2-  O231  1  0.66418167  0.67006677  -0.00507401  1
  O2-  O232  1  0.66669181  0.67481086  0.32928079  1
  O2-  O233  1  0.66235399  0.65407589  0.65980397  1
  O2-  O234  1  0.16451020  0.15445717  -0.00465678  1
  O2-  O235  1  0.16688244  0.15855880  0.33454464  1
  O2-  O236  1  0.16130043  0.15910422  0.66791941  1
  O2-  O237  1  0.17360080  0.67187778  0.00122605  1
  O2-  O238  1  0.17057352  0.66074152  0.32379629  1
  O2-  O239  1  0.17184861  0.66119817  0.66297508  1
  O2-  O240  1  0.49721123  0.16025357  -0.00284910  1
  O2-  O241  1  0.49903442  0.16269743  0.33778613  1
  O2-  O242  1  0.50193553  0.16561318  0.66714683  1
  O2-  O243  1  0.49353820  0.67157824  -0.00216307  1
  O2-  O244  1  0.50682022  0.67418648  0.32895764  1
  O2-  O245  1  0.50076299  0.65861988  0.67265007  1
  O2-  O246  1  0.84008776  0.17192341  -0.00186335  1
  O2-  O247  1  0.83118486  0.15906227  0.33655019  1
  O2-  O248  1  0.83514725  0.16712523  0.67344746  1
  O2-  O249  1  0.83500590  0.68164650  -0.00360104  1
  O2-  O250  1  0.83684758  0.65547890  0.33221769  1
  O2-  O251  1  0.82669744  0.65432054  0.66754370  1
  O2-  O252  1  -0.00225429  0.31768064  -0.00003861  1
  O2-  O253  1  0.00248115  0.33234094  0.32985918  1
  O2-  O254  1  -0.00110630  0.31766699  0.66705194  1
  O2-  O255  1  -0.00452708  0.81866971  0.00326075  1
  O2-  O256  1  -0.00121911  0.84448675  0.33442493  1
  O2-  O257  1  -0.00021768  0.84284119  0.66756157  1
  O2-  O258  1  0.33537712  0.33796404  0.00012628  1
  O2-  O259  1  0.33862700  0.33314224  0.32395997  1
  O2-  O260  1  0.33456390  0.33020155  0.67036879  1
  O2-  O261  1  0.33889587  0.82788560  -0.00446910  1
  O2-  O262  1  0.33292965  0.84092561  0.33173245  1
  O2-  O263  1  0.32647980  0.83299842  0.67256228  1
  O2-  O264  1  0.66278159  0.34767429  0.00397725  1
  O2-  O265  1  0.66223838  0.34560267  0.33445760  1
  O2-  O266  1  0.66975687  0.34684063  0.66296500  1
  O2-  O267  1  0.66388063  0.83634952  0.00303377  1
  O2-  O268  1  0.67098917  0.83232427  0.32446579  1
  O2-  O269  1  0.66498512  0.84315263  0.66814113  1
  O2-  O270  1  0.17362754  0.34385890  0.00601279  1
  O2-  O271  1  0.16679742  0.32646810  0.32834673  1
  O2-  O272  1  0.16363905  0.33107523  0.66634508  1
  O2-  O273  1  0.16441152  0.81794492  0.00057312  1
  O2-  O274  1  0.16672966  0.84126611  0.33247746  1
  O2-  O275  1  0.16912033  0.83347948  0.66594623  1
  O2-  O276  1  0.49648054  0.34448804  -0.00124636  1
  O2-  O277  1  0.49827186  0.34606428  0.32948957  1
  O2-  O278  1  0.49954199  0.33366881  0.66697876  1
  O2-  O279  1  0.49967055  0.83725349  -0.00139299  1
  O2-  O280  1  0.49501411  0.83521260  0.32441301  1
  O2-  O281  1  0.50580488  0.83910351  0.67293346  1
  O2-  O282  1  0.82706670  0.33120714  -0.00890002  1
  O2-  O283  1  0.82976591  0.33516559  0.32919626  1
  O2-  O284  1  0.83110740  0.33197207  0.66542849  1
  O2-  O285  1  0.83767454  0.82982440  0.00444605  1
  O2-  O286  1  0.83290940  0.84646619  0.33142530  1
  O2-  O287  1  0.83362451  0.84128780  0.66636463  1
  O2-  O288  1  0.00100407  0.17205951  0.16169062  1
  O2-  O289  1  0.00625853  0.17490665  0.50728538  1
  O2-  O290  1  0.00433347  0.18011015  0.83391168  1
  O2-  O291  1  0.00508497  0.68018558  0.17268623  1
  O2-  O292  1  0.00233622  0.66985306  0.49676305  1
  O2-  O293  1  -0.00552532  0.67954325  0.83407781  1
  O2-  O294  1  0.33431475  0.18766300  0.16742081  1
  O2-  O295  1  0.32938263  0.16952877  0.49039391  1
  O2-  O296  1  0.33484121  0.17554056  0.84070699  1
  O2-  O297  1  0.33457859  0.67898724  0.15652580  1
  O2-  O298  1  0.33654125  0.68783312  0.50241769  1
  O2-  O299  1  0.33536472  0.67465938  0.83537792  1
  O2-  O300  1  0.67184246  0.17074982  0.16922714  1
  O2-  O301  1  0.66357543  0.17200051  0.49564159  1
  O2-  O302  1  0.66267721  0.17132211  0.83134543  1
  O2-  O303  1  0.65741701  0.67734609  0.17796600  1
  O2-  O304  1  0.67203826  0.67128422  0.50659285  1
  O2-  O305  1  0.65592644  0.67186780  0.82867490  1
  O2-  O306  1  0.16688333  0.17861490  0.16672541  1
  O2-  O307  1  0.16844873  0.16756788  0.50033203  1
  O2-  O308  1  0.16824289  0.17761996  0.83080561  1
  O2-  O309  1  0.17284483  0.67888652  0.16804565  1
  O2-  O310  1  0.16226785  0.67836116  0.51057336  1
  O2-  O311  1  0.18198553  0.66856184  0.83153489  1
  O2-  O312  1  0.50017409  0.18014021  0.16468367  1
  O2-  O313  1  0.49760687  0.17146796  0.50344290  1
  O2-  O314  1  0.49907987  0.17357972  0.83742934  1
  O2-  O315  1  0.49436032  0.68629006  0.15827584  1
  O2-  O316  1  0.49934802  0.67741434  0.49617018  1
  O2-  O317  1  0.49940164  0.66979886  0.83422245  1
  O2-  O318  1  0.83013033  0.17214719  0.16901104  1
  O2-  O319  1  0.83724223  0.17821334  0.49254646  1
  O2-  O320  1  0.83141100  0.17588348  0.83543711  1
  O2-  O321  1  0.82483411  0.67416722  0.16992758  1
  O2-  O322  1  0.82920727  0.66715581  0.49749280  1
  O2-  O323  1  0.83861430  0.67824033  0.83388687  1
  O2-  O324  1  0.00634224  0.32583405  0.17154561  1
  O2-  O325  1  0.00138347  0.31864249  0.50277219  1
  O2-  O326  1  -0.00344743  0.31034012  0.83216330  1
  O2-  O327  1  0.00070416  0.82099967  0.16688519  1
  O2-  O328  1  -0.00107449  0.83039448  0.50107559  1
  O2-  O329  1  -0.00245541  0.82537520  0.83206842  1
  O2-  O330  1  0.33146974  0.31387332  0.16263979  1
  O2-  O331  1  0.33735970  0.32765085  0.50653271  1
  O2-  O332  1  0.33553110  0.31909423  0.83226452  1
  O2-  O333  1  0.34063226  0.82273956  0.17057141  1
  O2-  O334  1  0.33000891  0.81807501  0.49686163  1
  O2-  O335  1  0.33010779  0.83287856  0.82945012  1
  O2-  O336  1  0.66346620  0.33312195  0.16333979  1
  O2-  O337  1  0.67158378  0.33311892  0.50528806  1
  O2-  O338  1  0.66403164  0.33207816  0.83187924  1
  O2-  O339  1  0.66841950  0.82845487  0.17072707  1
  O2-  O340  1  0.67187373  0.82452773  0.50645395  1
  O2-  O341  1  0.65750046  0.82987599  0.82670000  1
  O2-  O342  1  0.16970698  0.32883242  0.16487671  1
  O2-  O343  1  0.16368766  0.32776121  0.50197520  1
  O2-  O344  1  0.17014687  0.31907805  0.82762449  1
  O2-  O345  1  0.16242157  0.82362798  0.16668586  1
  O2-  O346  1  0.16566182  0.82028710  0.50336251  1
  O2-  O347  1  0.17375241  0.83134679  0.82872180  1
  O2-  O348  1  0.49914655  0.32370257  0.16644819  1
  O2-  O349  1  0.50105153  0.33084655  0.50059189  1
  O2-  O350  1  0.49899597  0.32116818  0.83084495  1
  O2-  O351  1  0.49752211  0.82023148  0.16757358  1
  O2-  O352  1  0.50269876  0.81874001  0.49918076  1
  O2-  O353  1  0.50069880  0.83170303  0.83306210  1
  O2-  O354  1  0.82728650  0.32801891  0.17115307  1
  O2-  O355  1  0.82805872  0.32193420  0.50779539  1
  O2-  O356  1  0.83437811  0.32123155  0.83346537  1
  O2-  O357  1  0.83110314  0.83076912  0.17103578  1
  O2-  O358  1  0.83513920  0.82988995  0.50075154  1
  O2-  O359  1  0.83793222  0.81827514  0.83247992  1
  O2-  O360  1  0.08877199  0.08103613  0.11016217  1
  O2-  O361  1  0.09358865  0.07955379  0.45207364  1
  O2-  O362  1  0.07709988  0.08078066  0.77637943  1
  O2-  O363  1  0.08992501  0.58432235  0.09968058  1
  O2-  O364  1  0.07933116  0.57565405  0.45823106  1
  O2-  O365  1  0.09378532  0.58355732  0.75894405  1
  O2-  O366  1  0.41054710  0.08225837  0.11375645  1
  O2-  O367  1  0.40903030  0.08179630  0.43784646  1
  O2-  O368  1  0.41137999  0.07270940  0.77173555  1
  O2-  O369  1  0.40709392  0.58162970  0.08543044  1
  O2-  O370  1  0.41451196  0.57193387  0.44312519  1
  O2-  O371  1  0.40157221  0.58301842  0.77789770  1
  O2-  O372  1  0.75259191  0.07153978  0.10971220  1
  O2-  O373  1  0.76260457  0.08173010  0.43757906  1
  O2-  O374  1  0.75560348  0.08078144  0.78250600  1
  O2-  O375  1  0.75152891  0.57528967  0.11155941  1
  O2-  O376  1  0.75737140  0.57599414  0.44970405  1
  O2-  O377  1  0.74780649  0.58303737  0.76059387  1
  O2-  O378  1  0.25105930  0.08137702  0.22419818  1
  O2-  O379  1  0.24872453  0.07679485  0.54855070  1
  O2-  O380  1  0.25498492  0.08218547  0.89113070  1
  O2-  O381  1  0.24610333  0.58201653  0.21966869  1
  O2-  O382  1  0.23113965  0.58409916  0.55816523  1
  O2-  O383  1  0.26299854  0.58214318  0.90555171  1
  O2-  O384  1  0.58596790  0.07933758  0.22731553  1
  O2-  O385  1  0.57624584  0.07864400  0.55123030  1
  O2-  O386  1  0.57091908  0.07992265  0.89430189  1
  O2-  O387  1  0.57961410  0.58519313  0.24421509  1
  O2-  O388  1  0.59883439  0.57790797  0.56085248  1
  O2-  O389  1  0.57150625  0.58084158  0.89953965  1
  O2-  O390  1  0.90979978  0.08039877  0.23520824  1
  O2-  O391  1  0.93172783  0.08175939  0.55216074  1
  O2-  O392  1  0.92624002  0.07050110  0.88798244  1
  O2-  O393  1  0.92052526  0.58139175  0.22469035  1
  O2-  O394  1  0.92133503  0.57950695  0.55406608  1
  O2-  O395  1  0.91667240  0.58200683  0.89097908  1
  O2-  O396  1  0.08765319  0.41853747  0.10678464  1
  O2-  O397  1  0.08090726  0.41563942  0.43640977  1
  O2-  O398  1  0.07366613  0.41440892  0.76059676  1
  O2-  O399  1  0.06514586  0.92209249  0.10857173  1
  O2-  O400  1  0.08795455  0.91742862  0.43924645  1
  O2-  O401  1  0.10170587  0.91808760  0.75046569  1
  O2-  O402  1  0.41480305  0.42046368  0.11809688  1
  O2-  O403  1  0.42292415  0.43184292  0.44721609  1
  O2-  O404  1  0.41628948  0.42155941  0.78205844  1
  O2-  O405  1  0.42771318  0.92115229  0.11002598  1
  O2-  O406  1  0.41000008  0.91260049  0.42653120  1
  O2-  O407  1  0.42192965  0.91681349  0.77068204  1
  O2-  O408  1  0.73532860  0.42502832  0.11177248  1
  O2-  O409  1  0.74387224  0.42438347  0.44487597  1
  O2-  O410  1  0.75956003  0.41775812  0.76825037  1
  O2-  O411  1  0.74904979  0.91861058  0.11229892  1
  O2-  O412  1  0.75517150  0.91842965  0.43551873  1
  O2-  O413  1  0.73697781  0.91849267  0.76472231  1
  O2-  O414  1  0.26341223  0.42524681  0.21552452  1
  O2-  O415  1  0.24952076  0.41665454  0.57491485  1
  O2-  O416  1  0.26361795  0.41445111  0.89350537  1
  O2-  O417  1  0.26235973  0.91686581  0.23652725  1
  O2-  O418  1  0.24159065  0.91945355  0.56607165  1
  O2-  O419  1  0.25872648  0.91996447  0.89408528  1
  O2-  O420  1  0.56720484  0.42095154  0.21979077  1
  O2-  O421  1  0.58458728  0.42118905  0.56086167  1
  O2-  O422  1  0.57654170  0.42172274  0.89022081  1
  O2-  O423  1  0.57932988  0.91944147  0.22386498  1
  O2-  O424  1  0.59226232  0.91508128  0.56747171  1
  O2-  O425  1  0.57855671  0.92184153  0.89645630  1
  O2-  O426  1  0.91834624  0.41371300  0.23458995  1
  O2-  O427  1  0.90656527  0.41477005  0.58031926  1
  O2-  O428  1  0.91283349  0.41680604  0.88699385  1
  O2-  O429  1  0.91195475  0.91913891  0.22652342  1
  O2-  O430  1  0.91438247  0.92133864  0.56198673  1
  O2-  O431  1  0.91543972  0.92475717  0.89508173  1
  O2-  O432  1  0.00080204  0.01085884  -0.00380663  1
  O2-  O433  1  -0.00411895  0.01180389  0.34017159  1
  O2-  O434  1  0.00798214  0.00391944  0.64681827  1
  O2-  O435  1  -0.00122534  0.49947989  -0.00277482  1
  O2-  O436  1  -0.00549495  0.50737994  0.33785694  1
  O2-  O437  1  0.00383111  0.51149870  0.66124917  1
  O2-  O438  1  0.34238123  0.01197603  -0.01320584  1
  O2-  O439  1  0.33101364  0.00815190  0.33785158  1
  O2-  O440  1  0.32232449  0.00551911  0.67390605  1
  O2-  O441  1  0.33817510  0.47971771  -0.00086498  1
  O2-  O442  1  0.34608990  0.49040160  0.32368440  1
  O2-  O443  1  0.32323621  0.49832795  0.67582346  1
  O2-  O444  1  0.66248138  0.00756524  0.00767373  1
  O2-  O445  1  0.67693382  0.00210183  0.31667543  1
  O2-  O446  1  0.66571394  -0.00031635  0.67008875  1
  O2-  O447  1  0.66050452  0.48591593  0.00780707  1
  O2-  O448  1  0.66558474  0.49267463  0.32205918  1
  O2-  O449  1  0.67550492  0.49798243  0.65130050  1
  O2-  O450  1  0.16033235  0.01954443  -0.00445587  1
  O2-  O451  1  0.17254346  0.01113012  0.33999614  1
  O2-  O452  1  0.16451626  0.01110296  0.65256471  1
  O2-  O453  1  0.18501291  0.49641609  0.02446969  1
  O2-  O454  1  0.15119902  0.50062365  0.30802719  1
  O2-  O455  1  0.16136448  0.50338152  0.65766103  1
  O2-  O456  1  0.49672317  0.00273274  -0.01005150  1
  O2-  O457  1  0.49731448  0.00989784  0.32872627  1
  O2-  O458  1  0.50307976  0.00857451  0.66893764  1
  O2-  O459  1  0.49631750  0.48701198  -0.00865563  1
  O2-  O460  1  0.50040350  0.48860494  0.33262368  1
  O2-  O461  1  0.50565406  0.49089162  0.67549727  1
  O2-  O462  1  0.83607932  0.00839535  0.00356002  1
  O2-  O463  1  0.83936464  0.00211256  0.34035092  1
  O2-  O464  1  0.84274424  -0.00121346  0.68151924  1
  O2-  O465  1  0.82709535  0.49541939  -0.00748673  1
  O2-  O466  1  0.83158225  0.50745005  0.33254589  1
  O2-  O467  1  0.82739368  0.50805817  0.65175988  1
  O2-  O468  1  0.74536657  0.74948151  0.73283038  1
  O2-  O469  1  0.58624343  0.25107105  0.92685964  1
  O2-  O470  1  0.24573805  0.25014980  0.93402173  1
  O2-  O471  1  0.58214598  0.75025189  0.91625952  1
  O2-  O472  1  0.42127823  0.75072979  0.39975323  1
  O2-  O473  1  0.76117647  0.75070443  0.41173727  1
  O2-  O474  1  0.75020304  0.25519805  0.07825697  1
  O2-  O475  1  0.25370650  0.75081408  0.91235546  1
  O2-  O476  1  0.74640952  0.75320230  0.08354874  1
  O2-  O477  1  0.07388148  0.75077346  0.40293806  1
  O2-  O478  1  0.73968211  0.24964263  0.73667142  1
  O2-  O479  1  0.24920064  0.75055504  0.26239215  1
  O2-  O480  1  0.92077293  0.75542071  0.59351734  1
  O2-  O481  1  0.58921866  0.25350201  0.58956967  1
  O2-  O482  1  0.09168623  0.24961621  0.07214396  1
  O2-  O483  1  0.58764927  0.25442451  0.26136166  1
  O2-  O484  1  0.91544803  0.25083347  0.25456700  1
  O2-  O485  1  0.08307339  0.75367674  0.74113701  1
  O2-  O486  1  0.08786188  0.24905417  0.41180966  1
  O2-  O487  1  0.24761377  0.25204264  0.58306716  1
  O2-  O488  1  0.58691028  0.75005895  0.59955246  1
  O2-  O489  1  0.42212498  0.74979224  0.74347228  1
  O2-  O490  1  0.74197766  0.25000720  0.40856408  1
  O2-  O491  1  0.41921559  0.25073983  0.41039168  1
  O2-  O492  1  0.91086276  0.75183762  0.26936059  1
