# generated using pymatgen
data_Ca108Mn108O277
_symmetry_space_group_name_H-M   'P 1'
_cell_length_a   16.03339333
_cell_length_b   22.31455056
_cell_length_c   16.39215294
_cell_angle_alpha   89.99847322
_cell_angle_beta   89.99947640
_cell_angle_gamma   89.99698479
_symmetry_Int_Tables_number   1
_chemical_formula_structural   Ca108Mn108O277
_chemical_formula_sum   'Ca108 Mn108 O277'
_cell_volume   5864.75113018
_cell_formula_units_Z   1
loop_
 _symmetry_equiv_pos_site_id
 _symmetry_equiv_pos_as_xyz
  1  'x, y, z'
loop_
 _atom_type_symbol
 _atom_type_oxidation_number
  Ca2+  2.0
  Mn3.34+  3.34
  O2-  -2.0
loop_
 _atom_site_type_symbol
 _atom_site_label
 _atom_site_symmetry_multiplicity
 _atom_site_fract_x
 _atom_site_fract_y
 _atom_site_fract_z
 _atom_site_occupancy
  Ca2+  Ca0  1  0.11861568  0.23591434  0.25801115  1
  Ca2+  Ca1  1  0.09840250  0.25424665  0.59898167  1
  Ca2+  Ca2  1  0.09886699  0.24893426  0.89701946  1
  Ca2+  Ca3  1  0.09283944  0.76291445  0.24847036  1
  Ca2+  Ca4  1  0.09484298  0.75622583  0.58609856  1
  Ca2+  Ca5  1  0.06443147  0.74754748  0.91218189  1
  Ca2+  Ca6  1  0.42165343  0.24868072  0.25430216  1
  Ca2+  Ca7  1  0.41740643  0.26066325  0.58859016  1
  Ca2+  Ca8  1  0.40802479  0.26243332  0.91005690  1
  Ca2+  Ca9  1  0.40876564  0.75182623  0.25035120  1
  Ca2+  Ca10  1  0.41939022  0.73734576  0.60033136  1
  Ca2+  Ca11  1  0.40940028  0.74658074  0.89072376  1
  Ca2+  Ca12  1  0.72015844  0.25426798  0.25829499  1
  Ca2+  Ca13  1  0.73458563  0.25750119  0.58643978  1
  Ca2+  Ca14  1  0.74909681  0.25480514  0.90504780  1
  Ca2+  Ca15  1  0.74639295  0.75449607  0.25315907  1
  Ca2+  Ca16  1  0.74180638  0.73944066  0.59818353  1
  Ca2+  Ca17  1  0.77025328  0.73925986  0.90878946  1
  Ca2+  Ca18  1  0.26153985  0.25634904  0.07460497  1
  Ca2+  Ca19  1  0.25153090  0.24719173  0.42567435  1
  Ca2+  Ca20  1  0.24346336  0.24859909  0.74490124  1
  Ca2+  Ca21  1  0.24838542  0.75338922  0.07951265  1
  Ca2+  Ca22  1  0.25275193  0.76529955  0.41832402  1
  Ca2+  Ca23  1  0.27110879  0.74039319  0.74816287  1
  Ca2+  Ca24  1  0.56930814  0.24482322  0.10762713  1
  Ca2+  Ca25  1  0.57723702  0.23912633  0.40950032  1
  Ca2+  Ca26  1  0.57270570  0.25914429  0.74305055  1
  Ca2+  Ca27  1  0.59237891  0.74892589  0.08536943  1
  Ca2+  Ca28  1  0.59595787  0.75007544  0.42620723  1
  Ca2+  Ca29  1  0.58758487  0.73408451  0.74046421  1
  Ca2+  Ca30  1  0.91602664  0.25443398  0.07596225  1
  Ca2+  Ca31  1  0.92254072  0.24963603  0.42679195  1
  Ca2+  Ca32  1  0.93252384  0.26052991  0.74771543  1
  Ca2+  Ca33  1  0.90338532  0.74275197  0.06942047  1
  Ca2+  Ca34  1  0.89920456  0.75197880  0.42008311  1
  Ca2+  Ca35  1  0.89057535  0.73849579  0.76852436  1
  Ca2+  Ca36  1  0.08292973  0.57954159  0.24965157  1
  Ca2+  Ca37  1  0.93202236  0.10897682  0.76231373  1
  Ca2+  Ca38  1  0.42854358  0.58046174  0.61134001  1
  Ca2+  Ca39  1  0.25298621  0.58859717  0.42043904  1
  Ca2+  Ca40  1  0.92150445  0.10976250  0.76178305  1
  Ca2+  Ca41  1  0.23160066  0.10880848  0.10083591  1
  Ca2+  Ca42  1  0.41719206  0.10160452  0.57347249  1
  Ca2+  Ca43  1  0.74747847  0.11645787  0.56267244  1
  Ca2+  Ca44  1  0.74005177  0.59912618  0.59214174  1
  Ca2+  Ca45  1  0.24121146  0.11126490  0.10372932  1
  Ca2+  Ca46  1  0.76858188  0.59363079  0.91360665  1
  Ca2+  Ca47  1  0.28021488  0.57837815  0.73878111  1
  Ca2+  Ca48  1  0.27382446  0.58796962  0.07028415  1
  Ca2+  Ca49  1  0.73806950  0.59762839  0.25328132  1
  Ca2+  Ca50  1  0.09795196  0.09947008  0.61281925  1
  Ca2+  Ca51  1  0.90684197  0.58692288  0.40914543  1
  Ca2+  Ca52  1  0.72305252  0.10212457  0.26560132  1
  Ca2+  Ca53  1  0.56633612  0.58395759  0.73332297  1
  Ca2+  Ca54  1  0.59143300  0.10606560  0.42153126  1
  Ca2+  Ca55  1  0.08512825  0.57449463  0.59478956  1
  Ca2+  Ca56  1  0.09443165  0.09467519  0.60581974  1
  Ca2+  Ca57  1  0.89470765  0.11177516  0.42540231  1
  Ca2+  Ca58  1  0.57372506  0.58545857  0.08858154  1
  Ca2+  Ca59  1  0.58099888  0.10355442  0.09551607  1
  Ca2+  Ca60  1  0.40924443  0.59434411  0.89007887  1
  Ca2+  Ca61  1  0.92119062  0.08864655  0.05443124  1
  Ca2+  Ca62  1  0.90096990  0.59630658  0.76469723  1
  Ca2+  Ca63  1  0.09811340  0.10355422  0.88124716  1
  Ca2+  Ca64  1  0.41149510  0.09284979  0.26948102  1
  Ca2+  Ca65  1  0.25592802  0.08662631  0.40131415  1
  Ca2+  Ca66  1  0.06972825  0.58032639  0.24933631  1
  Ca2+  Ca67  1  0.75721242  0.09654846  0.91800765  1
  Ca2+  Ca68  1  0.90912643  0.58534666  0.04768188  1
  Ca2+  Ca69  1  0.40625223  0.08768052  0.26411410  1
  Ca2+  Ca70  1  0.71728987  0.10952925  0.26864564  1
  Ca2+  Ca71  1  0.09574763  0.57449517  0.59513344  1
  Ca2+  Ca72  1  0.40257100  0.92619516  0.27351843  1
  Ca2+  Ca73  1  0.09222455  0.91600028  0.91062270  1
  Ca2+  Ca74  1  0.11312803  0.92459561  0.26102893  1
  Ca2+  Ca75  1  0.58364400  0.39597058  0.42684001  1
  Ca2+  Ca76  1  0.08850131  0.91198072  0.58749895  1
  Ca2+  Ca77  1  0.58774573  0.91158533  0.08427683  1
  Ca2+  Ca78  1  0.24893645  0.90621021  0.74895874  1
  Ca2+  Ca79  1  0.07358920  0.39687699  0.24033194  1
  Ca2+  Ca80  1  0.56868579  0.90958434  0.40520316  1
  Ca2+  Ca81  1  0.26062326  0.40506346  0.06853739  1
  Ca2+  Ca82  1  0.91935682  0.90025681  0.40533369  1
  Ca2+  Ca83  1  0.75212444  0.90323313  0.57720245  1
  Ca2+  Ca84  1  0.59408473  0.90809955  0.75201964  1
  Ca2+  Ca85  1  0.90346376  0.40013877  0.42337384  1
  Ca2+  Ca86  1  0.41276604  0.90192385  0.92412296  1
  Ca2+  Ca87  1  0.75217026  0.91136039  0.92444056  1
  Ca2+  Ca88  1  0.59980749  0.90899649  0.08711098  1
  Ca2+  Ca89  1  0.09908818  0.91387613  0.59090229  1
  Ca2+  Ca90  1  0.07941800  0.91642921  0.91092781  1
  Ca2+  Ca91  1  0.57256676  0.39605130  0.42761949  1
  Ca2+  Ca92  1  0.57350682  0.40470450  0.08470363  1
  Ca2+  Ca93  1  0.41268214  0.90834867  0.57292800  1
  Ca2+  Ca94  1  0.27301301  0.93015205  0.40021577  1
  Ca2+  Ca95  1  0.55445576  0.42092816  0.72962453  1
  Ca2+  Ca96  1  0.89577277  0.41369739  0.06879247  1
  Ca2+  Ca97  1  0.90685415  0.41608578  0.06657806  1
  Ca2+  Ca98  1  0.58120129  0.90856096  0.75130803  1
  Ca2+  Ca99  1  0.24727508  0.90818917  0.08694362  1
  Ca2+  Ca100  1  0.92448237  0.90760751  0.74633202  1
  Ca2+  Ca101  1  0.91819210  0.90858394  0.07793444  1
  Ca2+  Ca102  1  0.08644900  0.39707223  0.24072247  1
  Ca2+  Ca103  1  0.73925008  0.90331101  0.57664225  1
  Ca2+  Ca104  1  0.91454231  0.39865361  0.42151858  1
  Ca2+  Ca105  1  0.08470589  0.40971278  0.60114650  1
  Ca2+  Ca106  1  0.74501655  0.40584928  0.91347008  1
  Ca2+  Ca107  1  0.58468344  0.40442818  0.08428157  1
  Mn3.34+  Mn108  1  0.08403471  0.32251572  0.08201719  1
  Mn3.34+  Mn109  1  0.08669779  0.32608429  0.42150862  1
  Mn3.34+  Mn110  1  0.08706730  0.33478322  0.75231275  1
  Mn3.34+  Mn111  1  0.08233492  0.83717037  0.08628209  1
  Mn3.34+  Mn112  1  0.08454685  0.83797549  0.41574091  1
  Mn3.34+  Mn113  1  0.08437087  0.83288760  0.75250776  1
  Mn3.34+  Mn114  1  0.41389353  0.33347208  0.08203067  1
  Mn3.34+  Mn115  1  0.40909828  0.32760549  0.41840204  1
  Mn3.34+  Mn116  1  0.40461351  0.34451271  0.74889007  1
  Mn3.34+  Mn117  1  0.41609533  0.83102765  0.08930888  1
  Mn3.34+  Mn118  1  0.41628444  0.83527203  0.41614894  1
  Mn3.34+  Mn119  1  0.41615921  0.83493770  0.74943400  1
  Mn3.34+  Mn120  1  0.74620253  0.32729522  0.08474113  1
  Mn3.34+  Mn121  1  0.74832916  0.32216297  0.42014783  1
  Mn3.34+  Mn122  1  0.75142115  0.33107589  0.74721584  1
  Mn3.34+  Mn123  1  0.75339735  0.83035453  0.08694669  1
  Mn3.34+  Mn124  1  0.74902720  0.83246370  0.41102420  1
  Mn3.34+  Mn125  1  0.75029556  0.83260179  0.75486097  1
  Mn3.34+  Mn126  1  0.25935658  0.34207301  0.24986438  1
  Mn3.34+  Mn127  1  0.25290050  0.34537484  0.58094477  1
  Mn3.34+  Mn128  1  0.24850532  0.33588820  0.90999133  1
  Mn3.34+  Mn129  1  0.25308221  0.83495289  0.24931140  1
  Mn3.34+  Mn130  1  0.25583706  0.83280520  0.58273555  1
  Mn3.34+  Mn131  1  0.24867989  0.83070576  0.91797432  1
  Mn3.34+  Mn132  1  0.57653027  0.33500862  0.25110695  1
  Mn3.34+  Mn133  1  0.58144790  0.33740116  0.58804164  1
  Mn3.34+  Mn134  1  0.57846130  0.33712114  0.90720339  1
  Mn3.34+  Mn135  1  0.57878044  0.83030380  0.24893452  1
  Mn3.34+  Mn136  1  0.57856872  0.83260880  0.57778434  1
  Mn3.34+  Mn137  1  0.58328126  0.83295197  0.91650949  1
  Mn3.34+  Mn138  1  0.90710110  0.33353548  0.24325010  1
  Mn3.34+  Mn139  1  0.91051027  0.34899372  0.59348866  1
  Mn3.34+  Mn140  1  0.92162768  0.34082918  0.90664373  1
  Mn3.34+  Mn141  1  0.91878255  0.83321619  0.24183993  1
  Mn3.34+  Mn142  1  0.91740158  0.82772395  0.58331936  1
  Mn3.34+  Mn143  1  0.91598314  0.83494102  0.91616508  1
  Mn3.34+  Mn144  1  0.25322070  0.66388786  0.91534156  1
  Mn3.34+  Mn145  1  0.08633964  0.16526482  0.42119035  1
  Mn3.34+  Mn146  1  0.41463038  0.16506186  0.41995582  1
  Mn3.34+  Mn147  1  0.07897340  0.66453845  0.75626063  1
  Mn3.34+  Mn148  1  0.57351423  0.16339444  0.91222968  1
  Mn3.34+  Mn149  1  0.41527713  0.66695291  0.41435298  1
  Mn3.34+  Mn150  1  0.25226115  0.66318765  0.58344806  1
  Mn3.34+  Mn151  1  0.91820503  0.17743544  0.24628937  1
  Mn3.34+  Mn152  1  0.25278561  0.66442864  0.24533522  1
  Mn3.34+  Mn153  1  0.25739974  0.16814986  0.90789928  1
  Mn3.34+  Mn154  1  0.07703899  0.66616028  0.08082729  1
  Mn3.34+  Mn155  1  0.41415200  0.17132621  0.74751254  1
  Mn3.34+  Mn156  1  0.25551669  0.17148863  0.58481293  1
  Mn3.34+  Mn157  1  0.91597284  0.18079821  0.91856362  1
  Mn3.34+  Mn158  1  0.58426497  0.17003390  0.91442639  1
  Mn3.34+  Mn159  1  0.74576217  0.66820907  0.41868284  1
  Mn3.34+  Mn160  1  0.08159337  0.17537181  0.08038551  1
  Mn3.34+  Mn161  1  0.91770045  0.65693178  0.57775790  1
  Mn3.34+  Mn162  1  0.92658648  0.17099701  0.24462993  1
  Mn3.34+  Mn163  1  0.91510056  0.17760856  0.58284272  1
  Mn3.34+  Mn164  1  0.41491401  0.16923862  0.08435767  1
  Mn3.34+  Mn165  1  0.08691460  0.67140570  0.07924630  1
  Mn3.34+  Mn166  1  0.91107417  0.65987933  0.24156873  1
  Mn3.34+  Mn167  1  0.41687146  0.66509388  0.08914220  1
  Mn3.34+  Mn168  1  0.57720077  0.65988103  0.91576368  1
  Mn3.34+  Mn169  1  0.58137366  0.16901357  0.58766266  1
  Mn3.34+  Mn170  1  0.75157513  0.16917543  0.08612585  1
  Mn3.34+  Mn171  1  0.58256841  0.66038587  0.58300250  1
  Mn3.34+  Mn172  1  0.42597086  0.66233758  0.41506024  1
  Mn3.34+  Mn173  1  0.58024530  0.66546816  0.24666850  1
  Mn3.34+  Mn174  1  0.07455018  0.66856567  0.42197792  1
  Mn3.34+  Mn175  1  0.74752018  0.66703814  0.08721983  1
  Mn3.34+  Mn176  1  0.59101158  0.66609293  0.91811790  1
  Mn3.34+  Mn177  1  0.08884619  0.65944401  0.75985220  1
  Mn3.34+  Mn178  1  0.74642902  0.16871617  0.74754538  1
  Mn3.34+  Mn179  1  0.08568340  0.67337363  0.41969451  1
  Mn3.34+  Mn180  1  0.08910725  0.49558473  0.42104242  1
  Mn3.34+  Mn181  1  0.58150090  0.00155218  0.58470785  1
  Mn3.34+  Mn182  1  0.10055774  0.49092140  0.41915212  1
  Mn3.34+  Mn183  1  0.76130966  0.49052606  0.72307921  1
  Mn3.34+  Mn184  1  0.91408274  0.00222887  0.91534496  1
  Mn3.34+  Mn185  1  0.41034420  0.00271797  0.09171531  1
  Mn3.34+  Mn186  1  0.74313591  0.50235219  0.08488612  1
  Mn3.34+  Mn187  1  0.91577393  0.00355458  0.57403389  1
  Mn3.34+  Mn188  1  0.08357218  0.00598472  0.41418750  1
  Mn3.34+  Mn189  1  0.41595277  0.49881889  0.08375327  1
  Mn3.34+  Mn190  1  0.90452930  -0.00079816  0.57487228  1
  Mn3.34+  Mn191  1  0.41021553  0.49287780  0.42535905  1
  Mn3.34+  Mn192  1  0.40729955  0.00496987  0.75483295  1
  Mn3.34+  Mn193  1  0.75382444  -0.00099901  0.09217598  1
  Mn3.34+  Mn194  1  0.08454114  0.00098400  0.08329243  1
  Mn3.34+  Mn195  1  0.39945633  -0.00059004  0.09441060  1
  Mn3.34+  Mn196  1  0.92566833  0.00795780  0.24566391  1
  Mn3.34+  Mn197  1  0.91183476  0.00183249  0.24535969  1
  Mn3.34+  Mn198  1  0.58564435  -0.00275915  0.25486921  1
  Mn3.34+  Mn199  1  0.75011601  0.49504517  0.73009226  1
  Mn3.34+  Mn200  1  0.42027795  0.49817610  0.42634045  1
  Mn3.34+  Mn201  1  0.26016934  0.49667470  0.91135022  1
  Mn3.34+  Mn202  1  0.57974934  0.00308412  0.92572630  1
  Mn3.34+  Mn203  1  0.09646828  0.49415277  0.06021203  1
  Mn3.34+  Mn204  1  0.41901079  0.01150333  0.75274743  1
  Mn3.34+  Mn205  1  0.74294141  0.00570608  0.74576534  1
  Mn3.34+  Mn206  1  0.57964363  0.50127949  0.26016039  1
  Mn3.34+  Mn207  1  0.08602311  0.49906011  0.06000607  1
  Mn3.34+  Mn208  1  0.25756063  0.00402404  0.57744671  1
  Mn3.34+  Mn209  1  0.75133894  0.00251474  0.41651840  1
  Mn3.34+  Mn210  1  0.25326601  0.00262810  0.91876455  1
  Mn3.34+  Mn211  1  0.26992060  0.50201239  0.24691137  1
  Mn3.34+  Mn212  1  0.57086657  0.49518588  0.92272680  1
  Mn3.34+  Mn213  1  0.73953399  0.50135754  0.42286708  1
  Mn3.34+  Mn214  1  0.75002773  0.49686752  0.42296664  1
  Mn3.34+  Mn215  1  0.08325995  0.49630356  0.74865034  1
  O2-  O216  1  -0.00861062  0.17756501  0.00781730  1
  O2-  O217  1  -0.00539203  0.15404145  0.33710650  1
  O2-  O218  1  -0.00227148  0.16069289  0.66247485  1
  O2-  O219  1  -0.00121880  0.65996527  0.00152034  1
  O2-  O220  1  -0.00246811  0.65552854  0.33016545  1
  O2-  O221  1  0.00819299  0.64862434  0.66005412  1
  O2-  O222  1  0.32324241  0.15398727  0.01072930  1
  O2-  O223  1  0.33543822  0.16086475  0.33406708  1
  O2-  O224  1  0.33899156  0.15656546  0.66032168  1
  O2-  O225  1  0.34196790  0.66150458  -0.00405165  1
  O2-  O226  1  0.33989728  0.64395403  0.33371573  1
  O2-  O227  1  0.33306214  0.65472226  0.65687726  1
  O2-  O228  1  0.66574111  0.15494553  0.00338237  1
  O2-  O229  1  0.66743865  0.17420054  0.33962143  1
  O2-  O230  1  0.67021534  0.15199316  0.66615212  1
  O2-  O231  1  0.66066393  0.64109642  0.00356654  1
  O2-  O232  1  0.66686139  0.66846653  0.32853149  1
  O2-  O233  1  0.66067282  0.65879142  0.66501288  1
  O2-  O234  1  0.15985822  0.16282353  -0.00374323  1
  O2-  O235  1  0.16892131  0.15953457  0.34612177  1
  O2-  O236  1  0.17359785  0.16111318  0.66434491  1
  O2-  O237  1  0.17449720  0.64859185  0.00880162  1
  O2-  O238  1  0.16276091  0.64136496  0.33311115  1
  O2-  O239  1  0.16685265  0.64450026  0.67599686  1
  O2-  O240  1  0.50038169  0.15310892  -0.00019214  1
  O2-  O241  1  0.49447437  0.14799009  0.33904969  1
  O2-  O242  1  0.49652460  0.15404626  0.66607367  1
  O2-  O243  1  0.50143458  0.65364843  0.00144545  1
  O2-  O244  1  0.50364842  0.67876268  0.33206612  1
  O2-  O245  1  0.50083927  0.66100601  0.65962225  1
  O2-  O246  1  0.82874826  0.17327819  -0.00157284  1
  O2-  O247  1  0.83096589  0.16643884  0.32256595  1
  O2-  O248  1  0.83731504  0.16280599  0.67157261  1
  O2-  O249  1  0.82530417  0.65919641  0.00885676  1
  O2-  O250  1  0.83351596  0.65681325  0.33290096  1
  O2-  O251  1  0.84258861  0.66501933  0.65969640  1
  O2-  O252  1  -0.01278746  0.33265725  0.01078425  1
  O2-  O253  1  -0.00927510  0.34708871  0.32999785  1
  O2-  O254  1  0.00099790  0.33438910  0.66313477  1
  O2-  O255  1  0.00449270  0.85463091  -0.00586001  1
  O2-  O256  1  0.00658940  0.84201408  0.32482210  1
  O2-  O257  1  0.00598333  0.84586491  0.65976710  1
  O2-  O258  1  0.33374575  0.33810253  0.00110542  1
  O2-  O259  1  0.32700488  0.31512467  0.33291041  1
  O2-  O260  1  0.33220598  0.33987898  0.66219832  1
  O2-  O261  1  0.33296674  0.84040255  0.00485651  1
  O2-  O262  1  0.33193297  0.84759649  0.33532289  1
  O2-  O263  1  0.33579988  0.85323523  0.66657125  1
  O2-  O264  1  0.66482324  0.34811242  0.00173631  1
  O2-  O265  1  0.66109871  0.33607866  0.33821705  1
  O2-  O266  1  0.66381850  0.34732642  0.67135480  1
  O2-  O267  1  0.66715045  0.85085588  0.00026218  1
  O2-  O268  1  0.65217293  0.83318179  0.33799718  1
  O2-  O269  1  0.66601488  0.84905701  0.66624943  1
  O2-  O270  1  0.16797381  0.32522056  0.00683996  1
  O2-  O271  1  0.16008547  0.33832113  0.32543387  1
  O2-  O272  1  0.16269290  0.34083070  0.66322448  1
  O2-  O273  1  0.16416657  0.85684183  0.00047806  1
  O2-  O274  1  0.17414629  0.85474052  0.33866580  1
  O2-  O275  1  0.16879816  0.84908214  0.66790440  1
  O2-  O276  1  0.50240544  0.34753241  0.00100160  1
  O2-  O277  1  0.49650147  0.34964266  0.33288702  1
  O2-  O278  1  0.49802241  0.34184596  0.66459978  1
  O2-  O279  1  0.50311287  0.84912387  0.00876241  1
  O2-  O280  1  0.49107856  0.84060081  0.32580711  1
  O2-  O281  1  0.50023471  0.85585772  0.66436459  1
  O2-  O282  1  0.82693495  0.31481641  0.00061898  1
  O2-  O283  1  0.83582129  0.31359426  0.33847631  1
  O2-  O284  1  0.83548287  0.31262965  0.66485146  1
  O2-  O285  1  0.83563820  0.85103088  0.00181462  1
  O2-  O286  1  0.84247502  0.83083932  0.33280391  1
  O2-  O287  1  0.83369441  0.84935097  0.66831832  1
  O2-  O288  1  0.00916677  0.19328480  0.17011027  1
  O2-  O289  1  -0.00227172  0.18267001  0.50185483  1
  O2-  O290  1  -0.00253153  0.17933407  0.83972797  1
  O2-  O291  1  -0.00153564  0.68853339  0.16501270  1
  O2-  O292  1  -0.00357746  0.69978917  0.50334191  1
  O2-  O293  1  -0.00581524  0.67994186  0.82558499  1
  O2-  O294  1  0.33097469  0.17356373  0.16404944  1
  O2-  O295  1  0.33305575  0.18242040  0.49954162  1
  O2-  O296  1  0.33792501  0.18800215  0.83331581  1
  O2-  O297  1  0.32775215  0.68668566  0.15741211  1
  O2-  O298  1  0.32710022  0.67857508  0.49138050  1
  O2-  O299  1  0.33024221  0.67524594  0.83546348  1
  O2-  O300  1  0.67376545  0.17905942  0.16613485  1
  O2-  O301  1  0.65921981  0.18255184  0.50667793  1
  O2-  O302  1  0.67511108  0.17378956  0.84272756  1
  O2-  O303  1  0.66444814  0.68598772  0.16971739  1
  O2-  O304  1  0.67045606  0.68082836  0.50381938  1
  O2-  O305  1  0.66931116  0.67413547  0.84119661  1
  O2-  O306  1  0.17139596  0.19001823  0.15020745  1
  O2-  O307  1  0.15942155  0.17831513  0.50980715  1
  O2-  O308  1  0.17539659  0.17793103  0.83526284  1
  O2-  O309  1  0.15329048  0.68455667  0.17057343  1
  O2-  O310  1  0.16094742  0.68258216  0.50997888  1
  O2-  O311  1  0.16482521  0.68252993  0.84086031  1
  O2-  O312  1  0.49160314  0.17287955  0.16712143  1
  O2-  O313  1  0.49884923  0.17447663  0.50322857  1
  O2-  O314  1  0.50159408  0.18629193  0.82949515  1
  O2-  O315  1  0.50008621  0.68901864  0.16408712  1
  O2-  O316  1  0.50018637  0.68421602  0.49678385  1
  O2-  O317  1  0.50241252  0.67810931  0.83559909  1
  O2-  O318  1  0.83815106  0.19223158  0.16339885  1
  O2-  O319  1  0.83353244  0.19405940  0.50727356  1
  O2-  O320  1  0.83888728  0.18720808  0.82994199  1
  O2-  O321  1  0.82726878  0.68505320  0.17211411  1
  O2-  O322  1  0.83504480  0.67860740  0.50023900  1
  O2-  O323  1  0.83469666  0.66538608  0.83994332  1
  O2-  O324  1  0.00609063  0.31036294  0.17361795  1
  O2-  O325  1  -0.00478376  0.32009611  0.49380008  1
  O2-  O326  1  0.00518369  0.31620017  0.83947502  1
  O2-  O327  1  -0.00263987  0.81250218  0.15841621  1
  O2-  O328  1  -0.00464140  0.81921275  0.49563500  1
  O2-  O329  1  -0.00268313  0.82288123  0.82933504  1
  O2-  O330  1  0.33252475  0.31787389  0.16493821  1
  O2-  O331  1  0.33198978  0.31617183  0.49896441  1
  O2-  O332  1  0.32897655  0.32334059  0.83031304  1
  O2-  O333  1  0.33155963  0.81234336  0.16543322  1
  O2-  O334  1  0.33799830  0.82461610  0.50268193  1
  O2-  O335  1  0.33011300  0.82513566  0.83100948  1
  O2-  O336  1  0.65846864  0.32008256  0.16030432  1
  O2-  O337  1  0.66083212  0.31736523  0.49470860  1
  O2-  O338  1  0.67272260  0.32328452  0.83981780  1
  O2-  O339  1  0.66139652  0.81870951  0.16371343  1
  O2-  O340  1  0.67226154  0.82318541  0.50877101  1
  O2-  O341  1  0.65960512  0.82198898  0.82746427  1
  O2-  O342  1  0.16422376  0.31541084  0.17102596  1
  O2-  O343  1  0.16351971  0.31556828  0.50038304  1
  O2-  O344  1  0.16948234  0.32162062  0.83181025  1
  O2-  O345  1  0.16956723  0.82306084  0.16535613  1
  O2-  O346  1  0.15952381  0.82779616  0.50926425  1
  O2-  O347  1  0.15816667  0.82403200  0.84100205  1
  O2-  O348  1  0.50283351  0.32782389  0.15861304  1
  O2-  O349  1  0.50577477  0.31968323  0.49296669  1
  O2-  O350  1  0.50019015  0.32079564  0.83045534  1
  O2-  O351  1  0.50212398  0.80920543  0.16277848  1
  O2-  O352  1  0.50300726  0.82107627  0.49264404  1
  O2-  O353  1  0.49902407  0.82506438  0.83390674  1
  O2-  O354  1  0.83049435  0.30996266  0.16422977  1
  O2-  O355  1  0.83800983  0.32297840  0.49886090  1
  O2-  O356  1  0.83761908  0.31632722  0.83284312  1
  O2-  O357  1  0.83599282  0.81028376  0.16307108  1
  O2-  O358  1  0.82840795  0.81534817  0.51170218  1
  O2-  O359  1  0.83113875  0.82755924  0.83638899  1
  O2-  O360  1  0.09711824  0.08376126  0.10627630  1
  O2-  O361  1  0.07236332  0.08065242  0.46673559  1
  O2-  O362  1  0.04887187  0.07002886  0.75916685  1
  O2-  O363  1  0.08181087  0.57674931  0.11365246  1
  O2-  O364  1  0.09533763  0.57883284  0.45258219  1
  O2-  O365  1  0.07234851  0.57596322  0.78820917  1
  O2-  O366  1  0.43150090  0.08479633  0.10508262  1
  O2-  O367  1  0.40688604  0.08356980  0.43956830  1
  O2-  O368  1  0.41248159  0.08946090  0.78003365  1
  O2-  O369  1  0.41907358  0.57796204  0.11536728  1
  O2-  O370  1  0.41192703  0.57947124  0.46579872  1
  O2-  O371  1  0.42221793  0.56565956  0.76354754  1
  O2-  O372  1  0.75801464  0.08121859  0.12452270  1
  O2-  O373  1  0.75622571  0.08248444  0.43557669  1
  O2-  O374  1  0.78397529  0.08348999  0.78191653  1
  O2-  O375  1  0.74422976  0.58209112  0.11919089  1
  O2-  O376  1  0.75420653  0.58326719  0.45040589  1
  O2-  O377  1  0.75128441  0.56356810  0.78311577  1
  O2-  O378  1  0.30972540  0.04596305  0.17844308  1
  O2-  O379  1  0.25071085  0.08504652  0.55144856  1
  O2-  O380  1  0.23865693  0.08266456  0.90347874  1
  O2-  O381  1  0.22907505  0.58169389  0.20318347  1
  O2-  O382  1  0.22803071  0.58156316  0.55438028  1
  O2-  O383  1  0.26780672  0.57774984  0.88011742  1
  O2-  O384  1  0.59750361  0.07449439  0.22014226  1
  O2-  O385  1  0.58644448  0.08280972  0.55604475  1
  O2-  O386  1  0.59856976  0.08333202  0.89334902  1
  O2-  O387  1  0.59173871  0.57960604  0.22051649  1
  O2-  O388  1  0.58444042  0.58159915  0.57107378  1
  O2-  O389  1  0.57132124  0.57876149  0.88260044  1
  O2-  O390  1  0.92116997  0.08522585  0.19729423  1
  O2-  O391  1  0.90281643  0.08602479  0.55848039  1
  O2-  O392  1  0.91113613  0.08629266  0.90409392  1
  O2-  O393  1  0.93782673  0.58021345  0.20712476  1
  O2-  O394  1  0.96039824  0.58179085  0.53343885  1
  O2-  O395  1  0.90065939  0.56878833  0.89632421  1
  O2-  O396  1  0.08505252  0.41574316  0.10608885  1
  O2-  O397  1  0.07151234  0.41029309  0.43205827  1
  O2-  O398  1  0.07555172  0.42023733  0.76480625  1
  O2-  O399  1  0.07583323  0.92174168  0.12461211  1
  O2-  O400  1  0.06446187  0.92471837  0.45498005  1
  O2-  O401  1  0.08680532  0.91824217  0.77462537  1
  O2-  O402  1  0.41348083  0.41738088  0.10754644  1
  O2-  O403  1  0.42272353  0.41162076  0.44922644  1
  O2-  O404  1  0.41805024  0.41856227  0.77349390  1
  O2-  O405  1  0.41655784  0.91851199  0.13265082  1
  O2-  O406  1  0.42344753  0.91775584  0.43375621  1
  O2-  O407  1  0.42220933  0.92449427  0.79132118  1
  O2-  O408  1  0.76188245  0.41913541  0.10502861  1
  O2-  O409  1  0.75234601  0.41313093  0.43573594  1
  O2-  O410  1  0.76506644  0.41674844  0.77384957  1
  O2-  O411  1  0.74057294  0.91604945  0.11707337  1
  O2-  O412  1  0.75705873  0.91850426  0.43946234  1
  O2-  O413  1  0.73141494  0.92241769  0.78915977  1
  O2-  O414  1  0.22284409  0.42438492  0.20811976  1
  O2-  O415  1  0.22530028  0.41999915  0.55393363  1
  O2-  O416  1  0.23454999  0.41763342  0.92665552  1
  O2-  O417  1  0.25612658  0.91520443  0.22396943  1
  O2-  O418  1  0.24740938  0.92219666  0.54843026  1
  O2-  O419  1  0.24136438  0.92276851  0.88136299  1
  O2-  O420  1  0.58679705  0.42168620  0.21757155  1
  O2-  O421  1  0.58495266  0.41688175  0.55591828  1
  O2-  O422  1  0.59204129  0.41795624  0.87772282  1
  O2-  O423  1  0.57252603  0.91934533  0.21944819  1
  O2-  O424  1  0.59441190  0.92018221  0.54048300  1
  O2-  O425  1  0.57975786  0.92233205  0.88454612  1
  O2-  O426  1  0.93815637  0.41779426  0.20148404  1
  O2-  O427  1  0.93992214  0.42470452  0.54560959  1
  O2-  O428  1  0.88629011  0.41561490  0.93181867  1
  O2-  O429  1  0.91664717  0.92201588  0.21354532  1
  O2-  O430  1  0.89729666  0.91878173  0.53925446  1
  O2-  O431  1  0.92926913  0.92223914  0.88259745  1
  O2-  O432  1  0.00217194  -0.00438424  -0.00443986  1
  O2-  O433  1  0.00445023  -0.01047945  0.32809368  1
  O2-  O434  1  -0.00037172  -0.02257380  0.64603279  1
  O2-  O435  1  -0.02253669  0.49539958  0.03064860  1
  O2-  O436  1  0.01413450  0.50853116  0.32930979  1
  O2-  O437  1  0.01353262  0.50651795  0.66533122  1
  O2-  O438  1  0.33244868  -0.02248418  0.00123190  1
  O2-  O439  1  0.33652701  0.01322806  0.33273011  1
  O2-  O440  1  0.33561924  -0.00954781  0.66194302  1
  O2-  O441  1  0.34082427  0.50666828  -0.00017272  1
  O2-  O442  1  0.32477997  0.51293013  0.35362898  1
  O2-  O443  1  0.34897049  0.50781211  0.66632263  1
  O2-  O444  1  0.66408921  -0.01173038  0.01333546  1
  O2-  O445  1  0.65682242  0.01535283  0.34525592  1
  O2-  O446  1  0.66901581  -0.02425162  0.65849780  1
  O2-  O447  1  0.67048026  0.49066931  -0.00205955  1
  O2-  O448  1  0.68717644  0.50920751  0.31875556  1
  O2-  O449  1  0.64563072  0.49626322  0.69919364  1
  O2-  O450  1  0.16427463  -0.01520920  -0.00384290  1
  O2-  O451  1  0.17645933  -0.00421299  0.35364664  1
  O2-  O452  1  0.14586248  0.00329600  0.61605906  1
  O2-  O453  1  0.18348782  0.52005640  -0.00188283  1
  O2-  O454  1  0.16758796  0.51213652  0.32593529  1
  O2-  O455  1  0.16910575  0.51333090  0.68370061  1
  O2-  O456  1  0.50352183  -0.01865497  0.02002190  1
  O2-  O457  1  0.48917450  0.00573896  0.30172199  1
  O2-  O458  1  0.50552109  -0.01616249  0.67549123  1
  O2-  O459  1  0.52367157  0.49542336  0.04064372  1
  O2-  O460  1  0.51999754  0.48543698  0.36368480  1
  O2-  O461  1  0.48977545  0.50567458  0.67992799  1
  O2-  O462  1  0.83466156  0.00029804  0.00437036  1
  O2-  O463  1  0.83476434  0.01316546  0.33186850  1
  O2-  O464  1  0.83215072  -0.01795686  0.66467231  1
  O2-  O465  1  0.82946962  0.50482962  0.02323587  1
  O2-  O466  1  0.86524987  0.49260567  0.38703439  1
  O2-  O467  1  0.83276005  0.52615739  0.65770190  1
  O2-  O468  1  0.42255513  0.25002184  0.05829785  1
  O2-  O469  1  0.24707660  0.74825590  0.94088330  1
  O2-  O470  1  0.09505101  0.75463634  0.04824447  1
  O2-  O471  1  0.57068931  0.25623158  0.26311343  1
  O2-  O472  1  0.74232021  0.74985986  0.05018945  1
  O2-  O473  1  0.58037553  0.75348432  0.60453227  1
  O2-  O474  1  0.24794697  0.74739974  0.27955307  1
  O2-  O475  1  0.41697711  0.75666965  0.73331160  1
  O2-  O476  1  0.10419482  0.75444075  0.38604923  1
  O2-  O477  1  0.07546706  0.24759341  0.39028217  1
  O2-  O478  1  0.91584374  0.75671366  0.93375547  1
  O2-  O479  1  0.41797381  0.25219867  0.72746564  1
  O2-  O480  1  0.58029558  0.25096902  0.60899564  1
  O2-  O481  1  0.09099539  0.74751933  0.72421187  1
  O2-  O482  1  0.25737427  0.25030753  0.93456685  1
  O2-  O483  1  0.75089411  0.74957943  0.39634716  1
  O2-  O484  1  0.08565187  0.25491954  0.73829778  1
  O2-  O485  1  0.75083425  0.75485921  0.73448332  1
  O2-  O486  1  0.24934964  0.74944576  0.60942675  1
  O2-  O487  1  0.58589995  0.25034392  0.94300606  1
  O2-  O488  1  0.43157278  0.24808107  0.39554307  1
  O2-  O489  1  0.72601485  0.24870478  0.73213757  1
  O2-  O490  1  0.39995257  0.75109200  0.39227751  1
  O2-  O491  1  0.25047080  0.25195309  0.60254935  1
  O2-  O492  1  0.58246747  0.74625989  0.94585793  1
