# generated using pymatgen
data_Ca108Mn108O277
_symmetry_space_group_name_H-M   'P 1'
_cell_length_a   16.01639275
_cell_length_b   22.29289010
_cell_length_c   16.38130921
_cell_angle_alpha   89.99925980
_cell_angle_beta   89.99851539
_cell_angle_gamma   89.99716835
_symmetry_Int_Tables_number   1
_chemical_formula_structural   Ca108Mn108O277
_chemical_formula_sum   'Ca108 Mn108 O277'
_cell_volume   5848.97401895
_cell_formula_units_Z   1
loop_
 _symmetry_equiv_pos_site_id
 _symmetry_equiv_pos_as_xyz
  1  'x, y, z'
loop_
 _atom_type_symbol
 _atom_type_oxidation_number
  Ca2+  2.0
  Mn3.34+  3.34
  O2-  -2.0
loop_
 _atom_site_type_symbol
 _atom_site_label
 _atom_site_symmetry_multiplicity
 _atom_site_fract_x
 _atom_site_fract_y
 _atom_site_fract_z
 _atom_site_occupancy
  Ca2+  Ca0  1  0.08009961  0.24521467  0.25666876  1
  Ca2+  Ca1  1  0.08012496  0.24323869  0.56871592  1
  Ca2+  Ca2  1  0.08148920  0.25293528  0.91193107  1
  Ca2+  Ca3  1  0.07567057  0.75545062  0.24240588  1
  Ca2+  Ca4  1  0.09308959  0.76453126  0.58768675  1
  Ca2+  Ca5  1  0.10890731  0.74593483  0.92612312  1
  Ca2+  Ca6  1  0.43255968  0.24661416  0.23048527  1
  Ca2+  Ca7  1  0.40685234  0.25318260  0.58379387  1
  Ca2+  Ca8  1  0.43815101  0.23832713  0.93471349  1
  Ca2+  Ca9  1  0.42772459  0.75693953  0.23849686  1
  Ca2+  Ca10  1  0.43030903  0.74876944  0.60072211  1
  Ca2+  Ca11  1  0.39913362  0.74836258  0.91091875  1
  Ca2+  Ca12  1  0.73205346  0.24200184  0.25008776  1
  Ca2+  Ca13  1  0.75709805  0.24505418  0.55939307  1
  Ca2+  Ca14  1  0.73324024  0.24615870  0.94054128  1
  Ca2+  Ca15  1  0.74637678  0.76247635  0.25385367  1
  Ca2+  Ca16  1  0.72491653  0.75152967  0.57400753  1
  Ca2+  Ca17  1  0.75199569  0.75983580  0.92656214  1
  Ca2+  Ca18  1  0.27235521  0.24143413  0.10488723  1
  Ca2+  Ca19  1  0.23743956  0.24137978  0.41313632  1
  Ca2+  Ca20  1  0.26156536  0.24048187  0.73082356  1
  Ca2+  Ca21  1  0.24637704  0.74569101  0.06321179  1
  Ca2+  Ca22  1  0.24699621  0.76434466  0.42268591  1
  Ca2+  Ca23  1  0.26489657  0.74762052  0.77515532  1
  Ca2+  Ca24  1  0.58539574  0.23898286  0.09512887  1
  Ca2+  Ca25  1  0.59564642  0.25802373  0.39312742  1
  Ca2+  Ca26  1  0.58037657  0.24708900  0.75979090  1
  Ca2+  Ca27  1  0.56717177  0.75104703  0.08988384  1
  Ca2+  Ca28  1  0.58496469  0.76275888  0.42241713  1
  Ca2+  Ca29  1  0.55586721  0.74860342  0.73755873  1
  Ca2+  Ca30  1  0.89025700  0.24250328  0.09723000  1
  Ca2+  Ca31  1  0.89914426  0.24473701  0.41047233  1
  Ca2+  Ca32  1  0.91200038  0.25229617  0.73732354  1
  Ca2+  Ca33  1  0.94346682  0.74082412  0.08780897  1
  Ca2+  Ca34  1  0.91806251  0.75549422  0.40751724  1
  Ca2+  Ca35  1  0.93394616  0.76685140  0.75676209  1
  Ca2+  Ca36  1  0.93346008  0.10183121  0.42169204  1
  Ca2+  Ca37  1  0.56179016  0.59827552  0.75045555  1
  Ca2+  Ca38  1  0.55466261  0.60302073  0.74648865  1
  Ca2+  Ca39  1  0.24676560  0.59960846  0.07372359  1
  Ca2+  Ca40  1  0.77593130  0.08620109  0.58463933  1
  Ca2+  Ca41  1  0.09038142  0.09020901  0.92842021  1
  Ca2+  Ca42  1  0.60048941  0.10817343  0.39457006  1
  Ca2+  Ca43  1  0.55996953  0.09657585  0.07051267  1
  Ca2+  Ca44  1  0.92720337  0.58681061  0.41035510  1
  Ca2+  Ca45  1  0.92501433  0.59030972  0.74160855  1
  Ca2+  Ca46  1  0.41045895  0.60469792  0.92297967  1
  Ca2+  Ca47  1  0.26814694  0.61181446  0.77199884  1
  Ca2+  Ca48  1  0.73744680  0.58545012  0.25638550  1
  Ca2+  Ca49  1  0.91438463  0.58658363  0.41025935  1
  Ca2+  Ca50  1  0.58783732  0.59152147  0.41597169  1
  Ca2+  Ca51  1  0.38726889  0.07913390  0.62855877  1
  Ca2+  Ca52  1  0.40868549  0.10435547  0.23110734  1
  Ca2+  Ca53  1  0.59842425  0.59158596  0.41249498  1
  Ca2+  Ca54  1  0.72407306  0.08791510  0.95034348  1
  Ca2+  Ca55  1  0.08214173  0.59708754  0.22934458  1
  Ca2+  Ca56  1  0.37788905  0.08147884  0.62524015  1
  Ca2+  Ca57  1  0.23382029  0.57864707  0.40307141  1
  Ca2+  Ca58  1  0.71420784  0.08952596  0.94766102  1
  Ca2+  Ca59  1  0.94387607  0.10199895  0.42170983  1
  Ca2+  Ca60  1  0.61309510  0.10844590  0.39622607  1
  Ca2+  Ca61  1  0.29063992  0.09823062  0.09163546  1
  Ca2+  Ca62  1  0.43192367  0.59782788  0.59814149  1
  Ca2+  Ca63  1  0.07795475  0.09269501  0.92751292  1
  Ca2+  Ca64  1  0.41934912  0.60196219  0.91892388  1
  Ca2+  Ca65  1  0.11460952  0.10400354  0.28802454  1
  Ca2+  Ca66  1  0.87881978  0.10187866  0.08719970  1
  Ca2+  Ca67  1  0.73891613  0.10964208  0.22973739  1
  Ca2+  Ca68  1  0.10701141  0.08562653  0.55076209  1
  Ca2+  Ca69  1  0.10608803  0.60446743  0.93750392  1
  Ca2+  Ca70  1  0.72741298  0.59688848  0.58079329  1
  Ca2+  Ca71  1  0.74984386  0.58348770  0.25610966  1
  Ca2+  Ca72  1  0.26066732  0.41038932  0.09590052  1
  Ca2+  Ca73  1  0.73966759  0.91860324  0.91708055  1
  Ca2+  Ca74  1  0.41444281  0.91983062  0.92133320  1
  Ca2+  Ca75  1  0.90987117  0.39915476  0.75237760  1
  Ca2+  Ca76  1  0.08877439  0.40141615  0.57813888  1
  Ca2+  Ca77  1  0.08168232  0.40272814  0.92612625  1
  Ca2+  Ca78  1  0.57048722  0.91689314  0.06689051  1
  Ca2+  Ca79  1  0.73705610  0.40175944  0.58044340  1
  Ca2+  Ca80  1  0.56763971  0.91110433  0.75947183  1
  Ca2+  Ca81  1  0.74944776  0.40302297  0.58254177  1
  Ca2+  Ca82  1  0.91357315  0.40631645  0.41329127  1
  Ca2+  Ca83  1  0.40519822  0.91199841  0.59811474  1
  Ca2+  Ca84  1  0.41523971  0.39646688  0.57931338  1
  Ca2+  Ca85  1  0.40560777  0.90265449  0.23593879  1
  Ca2+  Ca86  1  0.09360889  0.90036645  0.91060368  1
  Ca2+  Ca87  1  0.76301918  0.90934593  0.60231270  1
  Ca2+  Ca88  1  0.58084720  0.91665482  0.06884387  1
  Ca2+  Ca89  1  0.94044575  0.91087003  0.42593658  1
  Ca2+  Ca90  1  0.89995787  0.90069192  0.08644071  1
  Ca2+  Ca91  1  0.26729427  0.40204909  0.74118019  1
  Ca2+  Ca92  1  0.91277521  0.90079111  0.08589868  1
  Ca2+  Ca93  1  0.27296306  0.40948117  0.09394870  1
  Ca2+  Ca94  1  0.92908284  0.90713337  0.42385185  1
  Ca2+  Ca95  1  0.92615849  0.40532065  0.41370857  1
  Ca2+  Ca96  1  0.56922309  0.41431817  0.08417365  1
  Ca2+  Ca97  1  0.22531434  0.91448841  0.42108142  1
  Ca2+  Ca98  1  0.42089714  0.40845212  0.24649072  1
  Ca2+  Ca99  1  0.08998289  0.91773780  0.58636399  1
  Ca2+  Ca100  1  0.72733946  0.92128125  0.91501038  1
  Ca2+  Ca101  1  0.55926377  0.41271140  0.08156813  1
  Ca2+  Ca102  1  0.42990211  0.41320424  0.92460831  1
  Ca2+  Ca103  1  0.06915686  0.40275342  0.92647114  1
  Ca2+  Ca104  1  0.25489328  0.40302854  0.73982672  1
  Ca2+  Ca105  1  0.92256451  0.39895494  0.09200173  1
  Ca2+  Ca106  1  0.90950635  0.39905177  0.09182344  1
  Ca2+  Ca107  1  0.26616751  0.92285550  0.73886843  1
  Mn3.34+  Mn108  1  0.08776617  0.32302982  0.09069079  1
  Mn3.34+  Mn109  1  0.09004848  0.33554020  0.41088773  1
  Mn3.34+  Mn110  1  0.08201920  0.33067983  0.74942823  1
  Mn3.34+  Mn111  1  0.09021262  0.83051878  0.08550353  1
  Mn3.34+  Mn112  1  0.08529571  0.83265564  0.41788022  1
  Mn3.34+  Mn113  1  0.08793391  0.83764813  0.75062314  1
  Mn3.34+  Mn114  1  0.41778148  0.32807615  0.08493199  1
  Mn3.34+  Mn115  1  0.41688202  0.33311031  0.41243950  1
  Mn3.34+  Mn116  1  0.42419245  0.32794076  0.75763058  1
  Mn3.34+  Mn117  1  0.41101566  0.83424292  0.08262214  1
  Mn3.34+  Mn118  1  0.41611863  0.83399177  0.41767030  1
  Mn3.34+  Mn119  1  0.41459883  0.83584652  0.75384513  1
  Mn3.34+  Mn120  1  0.74326224  0.32936409  0.08673441  1
  Mn3.34+  Mn121  1  0.74546418  0.33242237  0.40987787  1
  Mn3.34+  Mn122  1  0.74280893  0.32802681  0.75659973  1
  Mn3.34+  Mn123  1  0.74522846  0.83658508  0.08765699  1
  Mn3.34+  Mn124  1  0.74911592  0.83347953  0.41808387  1
  Mn3.34+  Mn125  1  0.74996662  0.83752753  0.75108354  1
  Mn3.34+  Mn126  1  0.24480838  0.34314438  0.26191417  1
  Mn3.34+  Mn127  1  0.24900277  0.33003178  0.57256357  1
  Mn3.34+  Mn128  1  0.25431603  0.32335170  0.91571061  1
  Mn3.34+  Mn129  1  0.24523424  0.83837874  0.24577160  1
  Mn3.34+  Mn130  1  0.25254458  0.84051254  0.58286637  1
  Mn3.34+  Mn131  1  0.25304402  0.83708425  0.91696893  1
  Mn3.34+  Mn132  1  0.58392422  0.33983341  0.24924059  1
  Mn3.34+  Mn133  1  0.57950062  0.33305785  0.58243079  1
  Mn3.34+  Mn134  1  0.58703535  0.34056501  0.91228541  1
  Mn3.34+  Mn135  1  0.58317815  0.83271847  0.25316205  1
  Mn3.34+  Mn136  1  0.58100032  0.83147160  0.58321445  1
  Mn3.34+  Mn137  1  0.58002533  0.82875021  0.91004989  1
  Mn3.34+  Mn138  1  0.91606819  0.33042173  0.25042949  1
  Mn3.34+  Mn139  1  0.91863820  0.33055433  0.58096267  1
  Mn3.34+  Mn140  1  0.90785490  0.32726013  0.91439136  1
  Mn3.34+  Mn141  1  0.91654133  0.83234407  0.25143564  1
  Mn3.34+  Mn142  1  0.91378983  0.83707807  0.58799224  1
  Mn3.34+  Mn143  1  0.91748600  0.83319260  0.91154812  1
  Mn3.34+  Mn144  1  0.08396909  0.66817760  0.41628303  1
  Mn3.34+  Mn145  1  0.75019030  0.67021534  0.41936218  1
  Mn3.34+  Mn146  1  0.25860082  0.16321542  0.90895282  1
  Mn3.34+  Mn147  1  0.40999902  0.66184048  0.41392394  1
  Mn3.34+  Mn148  1  0.92294978  0.66558636  0.91818493  1
  Mn3.34+  Mn149  1  0.92437634  0.67159461  0.58377781  1
  Mn3.34+  Mn150  1  0.74039331  0.66428316  0.08194958  1
  Mn3.34+  Mn151  1  0.08603199  0.15513950  0.74661155  1
  Mn3.34+  Mn152  1  0.42300162  0.66833479  0.41425995  1
  Mn3.34+  Mn153  1  0.08716811  0.67197730  0.75542602  1
  Mn3.34+  Mn154  1  0.91905133  0.16824995  0.24913021  1
  Mn3.34+  Mn155  1  0.25754590  0.65943726  0.24481606  1
  Mn3.34+  Mn156  1  0.40125589  0.16314053  0.41062484  1
  Mn3.34+  Mn157  1  0.91746952  0.16418606  0.57854158  1
  Mn3.34+  Mn158  1  0.41182138  0.16792382  0.41065518  1
  Mn3.34+  Mn159  1  0.75249104  0.67343499  0.75505110  1
  Mn3.34+  Mn160  1  0.08589954  0.17318913  0.09094955  1
  Mn3.34+  Mn161  1  0.74373496  0.67965184  0.75374086  1
  Mn3.34+  Mn162  1  0.25008007  0.66575387  0.58440173  1
  Mn3.34+  Mn163  1  0.41937742  0.66328279  0.08381110  1
  Mn3.34+  Mn164  1  0.91503803  0.67732249  0.58474325  1
  Mn3.34+  Mn165  1  0.24564990  0.16648287  0.57594882  1
  Mn3.34+  Mn166  1  0.24007702  0.66055736  0.58351353  1
  Mn3.34+  Mn167  1  0.58602216  0.65986689  0.91856906  1
  Mn3.34+  Mn168  1  0.57462916  0.16859066  0.58660991  1
  Mn3.34+  Mn169  1  0.91732663  0.17359581  0.91812699  1
  Mn3.34+  Mn170  1  0.91940318  0.66692648  0.24570306  1
  Mn3.34+  Mn171  1  0.75976096  0.16196203  0.75676462  1
  Mn3.34+  Mn172  1  0.58440885  0.16299082  0.58634020  1
  Mn3.34+  Mn173  1  0.74967357  0.15675134  0.75811201  1
  Mn3.34+  Mn174  1  0.57851749  0.66219759  0.24217064  1
  Mn3.34+  Mn175  1  0.07540327  0.16029914  0.74580535  1
  Mn3.34+  Mn176  1  0.75137914  0.66904109  0.08227565  1
  Mn3.34+  Mn177  1  0.26784212  0.16882884  0.90947289  1
  Mn3.34+  Mn178  1  0.91389632  0.65926400  0.91768093  1
  Mn3.34+  Mn179  1  0.24924852  0.66582040  0.24649390  1
  Mn3.34+  Mn180  1  0.25352485  0.49741917  0.58230591  1
  Mn3.34+  Mn181  1  0.09245876  0.50661165  0.75287311  1
  Mn3.34+  Mn182  1  0.59276495  -0.00267518  0.59319444  1
  Mn3.34+  Mn183  1  0.24516500  0.49618209  0.91209167  1
  Mn3.34+  Mn184  1  0.91808509  0.50057116  0.58444544  1
  Mn3.34+  Mn185  1  0.23985508  -0.00079351  0.26397138  1
  Mn3.34+  Mn186  1  0.42049698  0.49486150  0.40638502  1
  Mn3.34+  Mn187  1  0.92786667  0.00408844  0.25232032  1
  Mn3.34+  Mn188  1  0.40640186  0.00239598  0.41852047  1
  Mn3.34+  Mn189  1  0.75089518  0.50152685  0.76373375  1
  Mn3.34+  Mn190  1  0.57718270  0.49685532  0.58553635  1
  Mn3.34+  Mn191  1  0.91292463  0.49812087  0.91608472  1
  Mn3.34+  Mn192  1  0.07851817  0.50007816  0.75490472  1
  Mn3.34+  Mn193  1  0.57704553  0.00478854  0.24271704  1
  Mn3.34+  Mn194  1  0.40659694  0.50064691  0.40784073  1
  Mn3.34+  Mn195  1  0.74177249  -0.00623123  0.42298769  1
  Mn3.34+  Mn196  1  0.74269701  0.49674748  0.41501694  1
  Mn3.34+  Mn197  1  0.92510143  -0.00172636  0.90069761  1
  Mn3.34+  Mn198  1  0.73930992  0.49628969  0.76272426  1
  Mn3.34+  Mn199  1  0.07813450  0.50092713  0.08145690  1
  Mn3.34+  Mn200  1  0.92013617  0.49906230  0.24781566  1
  Mn3.34+  Mn201  1  0.25987795  0.00078754  0.92628922  1
  Mn3.34+  Mn202  1  0.74125762  0.50243187  0.06576757  1
  Mn3.34+  Mn203  1  0.09871342  -0.00463504  0.09140445  1
  Mn3.34+  Mn204  1  0.26076532  0.50115631  0.91357421  1
  Mn3.34+  Mn205  1  0.42003672  -0.00399709  0.41895255  1
  Mn3.34+  Mn206  1  0.42030656  0.49619656  0.75124428  1
  Mn3.34+  Mn207  1  0.08901977  0.49973723  0.40731509  1
  Mn3.34+  Mn208  1  0.58961626  -0.00149134  0.24373393  1
  Mn3.34+  Mn209  1  0.91184951  0.00526469  0.90081226  1
  Mn3.34+  Mn210  1  0.91537536  -0.00095971  0.24955184  1
  Mn3.34+  Mn211  1  0.08506769  0.00177532  0.09345921  1
  Mn3.34+  Mn212  1  0.08076289  -0.00055755  0.72749258  1
  Mn3.34+  Mn213  1  0.74895973  0.49617995  0.07013761  1
  Mn3.34+  Mn214  1  0.75449586  0.00112585  0.42373568  1
  Mn3.34+  Mn215  1  0.58054057  0.00182896  0.58759542  1
  O2-  O216  1  0.00706707  0.17265489  -0.00217041  1
  O2-  O217  1  0.00311381  0.16645010  0.32857581  1
  O2-  O218  1  -0.00262954  0.16121269  0.66301091  1
  O2-  O219  1  0.00317353  0.66046999  -0.00375729  1
  O2-  O220  1  -0.00421952  0.65538785  0.33592699  1
  O2-  O221  1  -0.00292143  0.66586761  0.67360920  1
  O2-  O222  1  0.33393934  0.17153178  0.00031188  1
  O2-  O223  1  0.32721389  0.17363576  0.32738740  1
  O2-  O224  1  0.33406065  0.17284957  0.65589989  1
  O2-  O225  1  0.33784030  0.66651293  0.00480415  1
  O2-  O226  1  0.33209634  0.67055156  0.33145980  1
  O2-  O227  1  0.33135108  0.65559307  0.66217483  1
  O2-  O228  1  0.65630997  0.17130508  -0.00236148  1
  O2-  O229  1  0.67248704  0.16977994  0.32861830  1
  O2-  O230  1  0.66931476  0.15193092  0.66720751  1
  O2-  O231  1  0.66251030  0.68386559  -0.00168555  1
  O2-  O232  1  0.67082196  0.65654159  0.33351007  1
  O2-  O233  1  0.66559283  0.66258023  0.67035150  1
  O2-  O234  1  0.16867358  0.17059165  -0.00894969  1
  O2-  O235  1  0.16117759  0.18669823  0.33344592  1
  O2-  O236  1  0.16574359  0.15955955  0.66306784  1
  O2-  O237  1  0.17336459  0.66903494  0.00491552  1
  O2-  O238  1  0.17055440  0.66000994  0.33133107  1
  O2-  O239  1  0.16652773  0.65759154  0.67283333  1
  O2-  O240  1  0.52410106  0.17616680  -0.00664739  1
  O2-  O241  1  0.49355142  0.15287983  0.33156910  1
  O2-  O242  1  0.49333225  0.16578643  0.66387609  1
  O2-  O243  1  0.49942627  0.66912691  -0.00428961  1
  O2-  O244  1  0.50542082  0.65150044  0.33357225  1
  O2-  O245  1  0.49997722  0.66122246  0.67053331  1
  O2-  O246  1  0.83189608  0.16672548  -0.00872982  1
  O2-  O247  1  0.84802744  0.14911200  0.33289086  1
  O2-  O248  1  0.83116163  0.15719650  0.66704366  1
  O2-  O249  1  0.83047319  0.65754672  -0.00045711  1
  O2-  O250  1  0.83264646  0.64967339  0.33655786  1
  O2-  O251  1  0.83189123  0.66378877  0.66703623  1
  O2-  O252  1  -0.00018924  0.32879285  -0.00255299  1
  O2-  O253  1  -0.00138902  0.33472694  0.33728200  1
  O2-  O254  1  -0.00122719  0.34517011  0.66592518  1
  O2-  O255  1  -0.00842441  0.84733158  0.00304257  1
  O2-  O256  1  -0.00218036  0.84070444  0.34032516  1
  O2-  O257  1  0.00164440  0.83139652  0.66302911  1
  O2-  O258  1  0.33056694  0.34113567  0.00326839  1
  O2-  O259  1  0.33470251  0.32517545  0.32952709  1
  O2-  O260  1  0.33636096  0.33293782  0.66952443  1
  O2-  O261  1  0.34102923  0.84154569  -0.00751627  1
  O2-  O262  1  0.32972656  0.83129382  0.33136307  1
  O2-  O263  1  0.33204350  0.84388509  0.66782476  1
  O2-  O264  1  0.66032447  0.33425991  0.00179665  1
  O2-  O265  1  0.66912757  0.33425104  0.32763629  1
  O2-  O266  1  0.67176948  0.33977648  0.66231944  1
  O2-  O267  1  0.66682452  0.83859652  -0.00578792  1
  O2-  O268  1  0.66762884  0.83210748  0.33301165  1
  O2-  O269  1  0.66956169  0.83491272  0.66767324  1
  O2-  O270  1  0.16292168  0.33050273  -0.00455974  1
  O2-  O271  1  0.16581146  0.30880400  0.33262084  1
  O2-  O272  1  0.17026705  0.34415055  0.66960325  1
  O2-  O273  1  0.16365920  0.84030989  -0.00527985  1
  O2-  O274  1  0.16987177  0.83282051  0.33773176  1
  O2-  O275  1  0.16428628  0.84695304  0.66212370  1
  O2-  O276  1  0.49972254  0.33982451  0.00051404  1
  O2-  O277  1  0.49557572  0.33828707  0.32734414  1
  O2-  O278  1  0.49633946  0.32599915  0.66711235  1
  O2-  O279  1  0.50645408  0.83847191  0.00192846  1
  O2-  O280  1  0.49323417  0.83762248  0.32682835  1
  O2-  O281  1  0.49967819  0.84249330  0.66971502  1
  O2-  O282  1  0.83846313  0.33137155  0.00793206  1
  O2-  O283  1  0.84092450  0.34384650  0.34022220  1
  O2-  O284  1  0.83267231  0.34543849  0.66206474  1
  O2-  O285  1  0.82697989  0.84611908  -0.00604586  1
  O2-  O286  1  0.84343491  0.84571964  0.34414782  1
  O2-  O287  1  0.83013695  0.80911401  0.66616267  1
  O2-  O288  1  -0.00383481  0.18503800  0.16095824  1
  O2-  O289  1  -0.00393936  0.17842474  0.49953261  1
  O2-  O290  1  0.01061778  0.17881544  0.84290179  1
  O2-  O291  1  0.00325033  0.67692819  0.17735866  1
  O2-  O292  1  -0.00273165  0.68125577  0.49594482  1
  O2-  O293  1  -0.00517267  0.67854285  0.82807527  1
  O2-  O294  1  0.33714188  0.17415517  0.17289805  1
  O2-  O295  1  0.33284940  0.17881854  0.49836554  1
  O2-  O296  1  0.34071240  0.19562513  0.83358289  1
  O2-  O297  1  0.33578896  0.67901704  0.16603750  1
  O2-  O298  1  0.33428653  0.67610443  0.50180400  1
  O2-  O299  1  0.34370761  0.67030688  0.84287938  1
  O2-  O300  1  0.66325762  0.17108663  0.15591683  1
  O2-  O301  1  0.65917273  0.17307088  0.50114100  1
  O2-  O302  1  0.67366321  0.17524108  0.83901730  1
  O2-  O303  1  0.67058673  0.67815061  0.17287508  1
  O2-  O304  1  0.66681058  0.67176197  0.49177090  1
  O2-  O305  1  0.66414469  0.68716242  0.83758147  1
  O2-  O306  1  0.16484968  0.18896078  0.16368705  1
  O2-  O307  1  0.16302730  0.17770379  0.50236588  1
  O2-  O308  1  0.17036699  0.17990198  0.83406385  1
  O2-  O309  1  0.16931944  0.68435755  0.17160308  1
  O2-  O310  1  0.17172484  0.67370344  0.49509508  1
  O2-  O311  1  0.16303071  0.67355756  0.83397291  1
  O2-  O312  1  0.49518126  0.16746226  0.15747327  1
  O2-  O313  1  0.50189832  0.16809245  0.48985361  1
  O2-  O314  1  0.50431723  0.18572800  0.83735011  1
  O2-  O315  1  0.49998321  0.67725839  0.16619947  1
  O2-  O316  1  0.50198370  0.66548340  0.49493145  1
  O2-  O317  1  0.50815213  0.67655759  0.83946491  1
  O2-  O318  1  0.83255885  0.17243218  0.17532831  1
  O2-  O319  1  0.83844694  0.17106409  0.50063560  1
  O2-  O320  1  0.84342702  0.18855358  0.83240124  1
  O2-  O321  1  0.82585493  0.67186425  0.17368083  1
  O2-  O322  1  0.83388706  0.68236194  0.50017422  1
  O2-  O323  1  0.83705726  0.68246068  0.83522669  1
  O2-  O324  1  -0.00622897  0.31823768  0.16039394  1
  O2-  O325  1  -0.00233004  0.32176085  0.49508155  1
  O2-  O326  1  0.00165814  0.32020754  0.83916135  1
  O2-  O327  1  -0.00601142  0.82293434  0.16163356  1
  O2-  O328  1  -0.00288926  0.82034250  0.50015278  1
  O2-  O329  1  0.00917092  0.82614347  0.84131010  1
  O2-  O330  1  0.33384105  0.32457447  0.16543162  1
  O2-  O331  1  0.33787248  0.32389966  0.50321847  1
  O2-  O332  1  0.32524985  0.31723837  0.82368885  1
  O2-  O333  1  0.33580218  0.82285658  0.17058292  1
  O2-  O334  1  0.33072907  0.82452123  0.49985586  1
  O2-  O335  1  0.33279503  0.82862476  0.83349781  1
  O2-  O336  1  0.65446025  0.33723233  0.15574389  1
  O2-  O337  1  0.67212766  0.32908828  0.50265288  1
  O2-  O338  1  0.66376155  0.30853371  0.84042749  1
  O2-  O339  1  0.65732618  0.82858151  0.15802782  1
  O2-  O340  1  0.66880875  0.82618571  0.50209233  1
  O2-  O341  1  0.66574118  0.80914125  0.83466315  1
  O2-  O342  1  0.17819985  0.32224776  0.16305409  1
  O2-  O343  1  0.15864143  0.32195735  0.50148526  1
  O2-  O344  1  0.16329192  0.32684073  0.83838470  1
  O2-  O345  1  0.16834795  0.81279911  0.16736193  1
  O2-  O346  1  0.16597231  0.82817975  0.50064841  1
  O2-  O347  1  0.16988439  0.83018939  0.83152389  1
  O2-  O348  1  0.49965945  0.33032116  0.16278496  1
  O2-  O349  1  0.49500191  0.32915708  0.50728505  1
  O2-  O350  1  0.49901607  0.31216304  0.84339366  1
  O2-  O351  1  0.50046985  0.82602005  0.16569177  1
  O2-  O352  1  0.49498083  0.82514946  0.50404373  1
  O2-  O353  1  0.49903872  0.81792169  0.83353797  1
  O2-  O354  1  0.83691269  0.32786818  0.16352103  1
  O2-  O355  1  0.83352975  0.32911315  0.50123689  1
  O2-  O356  1  0.83825463  0.31593342  0.82536258  1
  O2-  O357  1  0.83541101  0.82717197  0.16116604  1
  O2-  O358  1  0.83714072  0.81771473  0.50363286  1
  O2-  O359  1  0.82992690  0.81827402  0.83289479  1
  O2-  O360  1  0.09309357  0.08439704  0.09428493  1
  O2-  O361  1  0.06372407  0.07483398  0.42857411  1
  O2-  O362  1  0.08227609  0.06930481  0.79428750  1
  O2-  O363  1  0.09810814  0.57745979  0.09757413  1
  O2-  O364  1  0.07238260  0.58148208  0.43743556  1
  O2-  O365  1  0.07597788  0.58637489  0.77522718  1
  O2-  O366  1  0.42504355  0.07291071  0.10824564  1
  O2-  O367  1  0.41598478  0.08079022  0.45367259  1
  O2-  O368  1  0.40578579  0.07641596  0.75671036  1
  O2-  O369  1  0.40724153  0.58381410  0.07167398  1
  O2-  O370  1  0.41151478  0.57742760  0.45244838  1
  O2-  O371  1  0.41977878  0.57574285  0.78420987  1
  O2-  O372  1  0.74490811  0.07815065  0.09368495  1
  O2-  O373  1  0.73492268  0.08010441  0.44877037  1
  O2-  O374  1  0.75848938  0.07817247  0.79834180  1
  O2-  O375  1  0.74835148  0.57916383  0.11666675  1
  O2-  O376  1  0.75632442  0.58094742  0.44704830  1
  O2-  O377  1  0.75121379  0.58426929  0.77565182  1
  O2-  O378  1  0.23874443  0.06761110  0.21355374  1
  O2-  O379  1  0.25529520  0.08513098  0.56427214  1
  O2-  O380  1  0.22908574  0.08034213  0.89478684  1
  O2-  O381  1  0.23404440  0.58040879  0.21731424  1
  O2-  O382  1  0.25505705  0.57843420  0.54711860  1
  O2-  O383  1  0.25596477  0.58262114  0.90790317  1
  O2-  O384  1  0.58996019  0.08531978  0.23746832  1
  O2-  O385  1  0.58790542  0.07925269  0.54669362  1
  O2-  O386  1  0.58518258  0.07419107  0.92495359  1
  O2-  O387  1  0.60362781  0.58416707  0.23261425  1
  O2-  O388  1  0.58785866  0.57329998  0.54733977  1
  O2-  O389  1  0.56227107  0.57734069  0.88263461  1
  O2-  O390  1  0.93206479  0.08299453  0.21848100  1
  O2-  O391  1  0.91489660  0.08162173  0.55469772  1
  O2-  O392  1  0.93988152  0.08543878  0.89945686  1
  O2-  O393  1  0.91203542  0.58271823  0.23509441  1
  O2-  O394  1  0.90715349  0.58348212  0.54910054  1
  O2-  O395  1  0.91839448  0.57915899  0.87741033  1
  O2-  O396  1  0.06742469  0.41560342  0.08670016  1
  O2-  O397  1  0.06539297  0.42260690  0.44419898  1
  O2-  O398  1  0.08393842  0.41903496  0.78372397  1
  O2-  O399  1  0.07018186  0.91566070  0.10458455  1
  O2-  O400  1  0.07665214  0.91537923  0.44605102  1
  O2-  O401  1  0.08490599  0.92644526  0.77322005  1
  O2-  O402  1  0.41282035  0.41654207  0.10374857  1
  O2-  O403  1  0.41110423  0.41679545  0.43680960  1
  O2-  O404  1  0.39863545  0.41704519  0.78069562  1
  O2-  O405  1  0.43639525  0.91579960  0.10140130  1
  O2-  O406  1  0.40366844  0.91615068  0.43686323  1
  O2-  O407  1  0.42296112  0.91798288  0.77653141  1
  O2-  O408  1  0.76429991  0.41633665  0.09842651  1
  O2-  O409  1  0.76986200  0.41935971  0.44768575  1
  O2-  O410  1  0.75348579  0.41407380  0.77173407  1
  O2-  O411  1  0.75722803  0.91845401  0.08896858  1
  O2-  O412  1  0.76816804  0.91543496  0.44645644  1
  O2-  O413  1  0.73367083  0.92001490  0.78023520  1
  O2-  O414  1  0.26644615  0.42222626  0.22446666  1
  O2-  O415  1  0.25561290  0.41407403  0.57853759  1
  O2-  O416  1  0.24616755  0.41579961  0.88379211  1
  O2-  O417  1  0.25809661  0.92619353  0.22943087  1
  O2-  O418  1  0.25005658  0.91953456  0.55955755  1
  O2-  O419  1  0.25394391  0.92411019  0.88872861  1
  O2-  O420  1  0.56424505  0.42419294  0.21736135  1
  O2-  O421  1  0.59576286  0.41650594  0.57067864  1
  O2-  O422  1  0.57282231  0.41768284  0.90772479  1
  O2-  O423  1  0.57594523  0.91832339  0.22414837  1
  O2-  O424  1  0.58690856  0.91694536  0.57468831  1
  O2-  O425  1  0.58956958  0.91493444  0.89492924  1
  O2-  O426  1  0.92317175  0.41564999  0.22529257  1
  O2-  O427  1  0.91624032  0.41762873  0.55140780  1
  O2-  O428  1  0.93428473  0.41604242  0.88831192  1
  O2-  O429  1  0.91738426  0.91902534  0.22058124  1
  O2-  O430  1  0.90945749  0.92084007  0.55633331  1
  O2-  O431  1  0.90475282  0.91779303  0.89411724  1
  O2-  O432  1  0.00091859  0.00148401  -0.00171884  1
  O2-  O433  1  -0.02179246  -0.00869970  0.35676814  1
  O2-  O434  1  0.00705978  0.00000109  0.65635103  1
  O2-  O435  1  0.01657099  0.49350310  -0.02145176  1
  O2-  O436  1  -0.01645993  0.50140247  0.35755471  1
  O2-  O437  1  -0.00485970  0.50094570  0.67532164  1
  O2-  O438  1  0.34175453  0.00384175  -0.00886050  1
  O2-  O439  1  0.33866807  0.00363670  0.32224009  1
  O2-  O440  1  0.33516020  -0.00807752  0.65856277  1
  O2-  O441  1  0.32935629  0.48535347  0.00294957  1
  O2-  O442  1  0.32540197  0.50812659  0.33581681  1
  O2-  O443  1  0.33071690  0.49697472  0.67419481  1
  O2-  O444  1  0.67553652  -0.00561013  -0.02211803  1
  O2-  O445  1  0.66225356  0.00915866  0.33740874  1
  O2-  O446  1  0.69263970  0.00179878  0.64084400  1
  O2-  O447  1  0.63607059  0.49179187  0.02858883  1
  O2-  O448  1  0.66903252  0.52432143  0.33885848  1
  O2-  O449  1  0.67358251  0.50756539  0.66009734  1
  O2-  O450  1  0.15631688  0.00194348  -0.01551790  1
  O2-  O451  1  0.16484755  0.00014773  0.33495404  1
  O2-  O452  1  0.16558342  -0.00337409  0.66589643  1
  O2-  O453  1  0.17252865  0.49125097  0.00676272  1
  O2-  O454  1  0.16074182  0.51356775  0.33339187  1
  O2-  O455  1  0.16445118  0.48892565  0.66462186  1
  O2-  O456  1  0.51997978  -0.00230150  0.02309556  1
  O2-  O457  1  0.50169051  0.00761768  0.33521822  1
  O2-  O458  1  0.48819074  0.00585061  0.65287239  1
  O2-  O459  1  0.48635839  0.49219102  -0.00822712  1
  O2-  O460  1  0.51289605  0.51448419  0.35083742  1
  O2-  O461  1  0.50334928  0.51858350  0.67236611  1
  O2-  O462  1  0.83128719  0.00405016  -0.01554769  1
  O2-  O463  1  0.82505314  0.00515464  0.32901695  1
  O2-  O464  1  0.82707125  -0.00015937  0.64506877  1
  O2-  O465  1  0.85507546  0.49322874  0.02144597  1
  O2-  O466  1  0.83434187  0.50935776  0.33979529  1
  O2-  O467  1  0.83299882  0.49930019  0.67305180  1
  O2-  O468  1  0.08082712  0.75391959  0.06510915  1
  O2-  O469  1  0.75732714  0.75336104  0.07226733  1
  O2-  O470  1  0.08434619  0.74987519  0.40084894  1
  O2-  O471  1  0.58304635  0.74865636  0.26251304  1
  O2-  O472  1  0.08667334  0.75268904  0.73626437  1
  O2-  O473  1  0.42028963  0.75144866  0.07440631  1
  O2-  O474  1  0.42291646  0.25024225  0.07722594  1
  O2-  O475  1  0.08618534  0.24745133  0.73457412  1
  O2-  O476  1  0.74922209  0.24375555  0.72438769  1
  O2-  O477  1  0.24384013  0.75078367  0.59246466  1
  O2-  O478  1  0.25140919  0.75696635  0.92270254  1
  O2-  O479  1  0.91034351  0.25006091  0.60058876  1
  O2-  O480  1  0.91180990  0.75003038  0.93735805  1
  O2-  O481  1  0.74405632  0.25112987  0.08410892  1
  O2-  O482  1  0.58150460  0.25631015  0.25070716  1
  O2-  O483  1  0.75458398  0.75049834  0.39732964  1
  O2-  O484  1  0.59073647  0.25107098  0.59239124  1
  O2-  O485  1  0.41870469  0.75114587  0.40669049  1
  O2-  O486  1  0.24601603  0.25112181  0.59374700  1
  O2-  O487  1  0.57956268  0.75330074  0.59128333  1
  O2-  O488  1  0.43044518  0.25123001  0.41571112  1
  O2-  O489  1  0.90874009  0.74890865  0.26785736  1
  O2-  O490  1  0.75233159  0.25409380  0.40946096  1
  O2-  O491  1  0.90756979  0.25029903  0.26775738  1
  O2-  O492  1  0.41018262  0.75516745  0.73633310  1
