# generated using pymatgen
data_Ca108Mn108O277
_symmetry_space_group_name_H-M   'P 1'
_cell_length_a   16.02557424
_cell_length_b   22.30488923
_cell_length_c   16.38721484
_cell_angle_alpha   89.99762497
_cell_angle_beta   89.99614914
_cell_angle_gamma   90.00144384
_symmetry_Int_Tables_number   1
_chemical_formula_structural   Ca108Mn108O277
_chemical_formula_sum   'Ca108 Mn108 O277'
_cell_volume   5857.58794027
_cell_formula_units_Z   1
loop_
 _symmetry_equiv_pos_site_id
 _symmetry_equiv_pos_as_xyz
  1  'x, y, z'
loop_
 _atom_type_symbol
 _atom_type_oxidation_number
  Ca2+  2.0
  Mn3.34+  3.34
  O2-  -2.0
loop_
 _atom_site_type_symbol
 _atom_site_label
 _atom_site_symmetry_multiplicity
 _atom_site_fract_x
 _atom_site_fract_y
 _atom_site_fract_z
 _atom_site_occupancy
  Ca2+  Ca0  1  0.07774984  0.25838822  0.25389001  1
  Ca2+  Ca1  1  0.08759310  0.24227309  0.58555400  1
  Ca2+  Ca2  1  0.08088978  0.24370283  0.91995053  1
  Ca2+  Ca3  1  0.09317915  0.75305591  0.23432579  1
  Ca2+  Ca4  1  0.07158850  0.75053256  0.59964507  1
  Ca2+  Ca5  1  0.07853654  0.75979679  0.91409252  1
  Ca2+  Ca6  1  0.42729077  0.24252408  0.26055644  1
  Ca2+  Ca7  1  0.39636490  0.24927289  0.56876669  1
  Ca2+  Ca8  1  0.40272426  0.25558982  0.91806271  1
  Ca2+  Ca9  1  0.39620391  0.75451158  0.23108199  1
  Ca2+  Ca10  1  0.42804293  0.76081061  0.58640209  1
  Ca2+  Ca11  1  0.40757078  0.76182237  0.92754245  1
  Ca2+  Ca12  1  0.74732410  0.24126572  0.25656777  1
  Ca2+  Ca13  1  0.76193729  0.25710534  0.57377502  1
  Ca2+  Ca14  1  0.76509749  0.24013901  0.91756791  1
  Ca2+  Ca15  1  0.74999107  0.75979931  0.24388907  1
  Ca2+  Ca16  1  0.74681794  0.74720120  0.58778096  1
  Ca2+  Ca17  1  0.75731605  0.75568365  0.90744006  1
  Ca2+  Ca18  1  0.22006220  0.23144971  0.08157176  1
  Ca2+  Ca19  1  0.24103996  0.22810217  0.42798480  1
  Ca2+  Ca20  1  0.21818184  0.23232698  0.73939695  1
  Ca2+  Ca21  1  0.24312505  0.75403386  0.09332326  1
  Ca2+  Ca22  1  0.24170381  0.75938033  0.40301758  1
  Ca2+  Ca23  1  0.23334936  0.75442925  0.75653870  1
  Ca2+  Ca24  1  0.59025263  0.24538688  0.10173342  1
  Ca2+  Ca25  1  0.59292511  0.24804078  0.40351727  1
  Ca2+  Ca26  1  0.59038723  0.26047685  0.74871639  1
  Ca2+  Ca27  1  0.58746492  0.76517562  0.08109988  1
  Ca2+  Ca28  1  0.60195183  0.75417060  0.42136532  1
  Ca2+  Ca29  1  0.61434156  0.74746585  0.74377283  1
  Ca2+  Ca30  1  0.93082314  0.24596005  0.08392610  1
  Ca2+  Ca31  1  0.91613311  0.24294563  0.41737926  1
  Ca2+  Ca32  1  0.93615935  0.24539262  0.74473216  1
  Ca2+  Ca33  1  0.91059150  0.76254889  0.07781309  1
  Ca2+  Ca34  1  0.90203219  0.75474261  0.42614154  1
  Ca2+  Ca35  1  0.89764718  0.73274336  0.74466149  1
  Ca2+  Ca36  1  0.42349990  0.08944796  0.26565882  1
  Ca2+  Ca37  1  0.76148333  0.59994856  0.89194211  1
  Ca2+  Ca38  1  0.06122327  0.59505749  0.60885598  1
  Ca2+  Ca39  1  0.41237309  0.08886166  0.26545463  1
  Ca2+  Ca40  1  0.41678896  0.58273181  0.93243633  1
  Ca2+  Ca41  1  0.59878880  0.08318839  0.40490687  1
  Ca2+  Ca42  1  0.09637816  0.58705375  0.24538521  1
  Ca2+  Ca43  1  0.07302259  0.59831770  0.90592782  1
  Ca2+  Ca44  1  0.76791066  0.60442557  0.60435013  1
  Ca2+  Ca45  1  0.76799033  0.08895296  0.57686814  1
  Ca2+  Ca46  1  0.63950235  0.59128798  0.43325550  1
  Ca2+  Ca47  1  0.10374561  0.59304786  0.24876192  1
  Ca2+  Ca48  1  0.26130347  0.58369789  0.41314333  1
  Ca2+  Ca49  1  0.86790756  0.60627985  0.43802130  1
  Ca2+  Ca50  1  0.75035230  0.58449343  0.27561786  1
  Ca2+  Ca51  1  0.58959695  0.08572961  0.40124451  1
  Ca2+  Ca52  1  0.07169392  0.10806100  0.90828190  1
  Ca2+  Ca53  1  0.24965684  0.59598273  0.08847447  1
  Ca2+  Ca54  1  0.24876468  0.58463450  0.41311242  1
  Ca2+  Ca55  1  0.25956181  0.59930292  0.09115962  1
  Ca2+  Ca56  1  0.09797151  0.11491391  0.22210239  1
  Ca2+  Ca57  1  0.34530143  0.08222234  0.56501512  1
  Ca2+  Ca58  1  0.42518699  0.58634454  0.58734174  1
  Ca2+  Ca59  1  0.39138860  0.59547188  0.24777193  1
  Ca2+  Ca60  1  0.59987073  0.07056153  0.07437408  1
  Ca2+  Ca61  1  0.93356207  0.11034751  0.76112272  1
  Ca2+  Ca62  1  0.35704598  0.08399100  0.56376179  1
  Ca2+  Ca63  1  0.94070707  0.10509258  0.07860735  1
  Ca2+  Ca64  1  0.74883947  0.09174898  0.25043986  1
  Ca2+  Ca65  1  0.10919502  0.08673133  0.61449457  1
  Ca2+  Ca66  1  0.11434127  0.09278549  0.61609246  1
  Ca2+  Ca67  1  0.10522631  0.11993617  0.22152076  1
  Ca2+  Ca68  1  0.08592056  0.59854192  0.90604291  1
  Ca2+  Ca69  1  0.59345782  0.07348922  0.75062963  1
  Ca2+  Ca70  1  0.61970816  0.58850120  0.74071156  1
  Ca2+  Ca71  1  0.91049842  0.58824298  0.06966822  1
  Ca2+  Ca72  1  0.42569325  0.39927076  0.91846923  1
  Ca2+  Ca73  1  0.90170766  0.91483419  0.08501869  1
  Ca2+  Ca74  1  0.59145136  0.39879330  0.07582848  1
  Ca2+  Ca75  1  0.45214429  0.92748436  0.93380263  1
  Ca2+  Ca76  1  0.58743248  0.91321796  0.41169101  1
  Ca2+  Ca77  1  0.75358425  0.39704823  0.25513545  1
  Ca2+  Ca78  1  0.72502957  0.92398469  0.93312864  1
  Ca2+  Ca79  1  0.90230327  0.39756722  0.41806537  1
  Ca2+  Ca80  1  0.91984564  0.90281472  0.74429978  1
  Ca2+  Ca81  1  0.59223592  0.91790951  0.08500801  1
  Ca2+  Ca82  1  0.24178435  0.92756338  0.72689398  1
  Ca2+  Ca83  1  0.07843619  0.90823369  0.23858918  1
  Ca2+  Ca84  1  0.41758773  0.40018560  0.57735737  1
  Ca2+  Ca85  1  0.07775396  0.39322682  0.91696060  1
  Ca2+  Ca86  1  0.24854062  0.39422558  0.74924531  1
  Ca2+  Ca87  1  0.60605242  0.40626100  0.42494396  1
  Ca2+  Ca88  1  0.26880817  0.91783207  0.42438873  1
  Ca2+  Ca89  1  0.25027607  0.90779371  0.08063848  1
  Ca2+  Ca90  1  0.74517259  0.91487901  0.25370342  1
  Ca2+  Ca91  1  0.40763395  0.40027533  0.25051551  1
  Ca2+  Ca92  1  0.08455583  0.91976825  0.60569259  1
  Ca2+  Ca93  1  0.42026912  0.40115355  0.25060768  1
  Ca2+  Ca94  1  0.61254239  0.41260620  0.74180088  1
  Ca2+  Ca95  1  0.24503250  0.39152278  0.42034651  1
  Ca2+  Ca96  1  0.06701040  0.90784262  0.23776032  1
  Ca2+  Ca97  1  0.08267562  0.91157439  0.91324980  1
  Ca2+  Ca98  1  0.24535635  0.39327845  0.08842435  1
  Ca2+  Ca99  1  0.90427430  0.39942801  0.75034666  1
  Ca2+  Ca100  1  0.58967071  0.91069739  0.74489942  1
  Ca2+  Ca101  1  0.41788689  0.91520058  0.58650074  1
  Ca2+  Ca102  1  0.75537124  0.90885942  0.58202935  1
  Ca2+  Ca103  1  0.44240020  0.92959975  0.93611795  1
  Ca2+  Ca104  1  0.08813797  0.40234444  0.57904931  1
  Ca2+  Ca105  1  0.09596034  0.91933418  0.60520578  1
  Ca2+  Ca106  1  0.42599913  0.91366169  0.25283517  1
  Ca2+  Ca107  1  0.74474683  0.40026877  0.91815437  1
  Mn3.34+  Mn108  1  0.07897638  0.32895449  0.08483775  1
  Mn3.34+  Mn109  1  0.07938247  0.33169156  0.41480823  1
  Mn3.34+  Mn110  1  0.07980099  0.33291278  0.74928383  1
  Mn3.34+  Mn111  1  0.08160990  0.84026468  0.07781583  1
  Mn3.34+  Mn112  1  0.07869992  0.83399177  0.42168042  1
  Mn3.34+  Mn113  1  0.08298570  0.83563632  0.75474648  1
  Mn3.34+  Mn114  1  0.41512895  0.32827440  0.08457176  1
  Mn3.34+  Mn115  1  0.41905728  0.33064300  0.41928578  1
  Mn3.34+  Mn116  1  0.41730863  0.33060525  0.74948997  1
  Mn3.34+  Mn117  1  0.41633755  0.84124399  0.08732362  1
  Mn3.34+  Mn118  1  0.41851279  0.84002932  0.42015740  1
  Mn3.34+  Mn119  1  0.41419725  0.83606078  0.75354424  1
  Mn3.34+  Mn120  1  0.75876316  0.33516293  0.08714602  1
  Mn3.34+  Mn121  1  0.75135870  0.33200042  0.41798237  1
  Mn3.34+  Mn122  1  0.75519941  0.33471993  0.75313886  1
  Mn3.34+  Mn123  1  0.74849092  0.83821896  0.08393169  1
  Mn3.34+  Mn124  1  0.75197903  0.84437224  0.42233778  1
  Mn3.34+  Mn125  1  0.75420144  0.83584611  0.75052898  1
  Mn3.34+  Mn126  1  0.24501950  0.32311242  0.24779660  1
  Mn3.34+  Mn127  1  0.24761476  0.32903083  0.58212461  1
  Mn3.34+  Mn128  1  0.24804144  0.32920223  0.91417074  1
  Mn3.34+  Mn129  1  0.24832545  0.83459371  0.25176172  1
  Mn3.34+  Mn130  1  0.25066948  0.83046991  0.57765530  1
  Mn3.34+  Mn131  1  0.25238744  0.83760913  0.91296680  1
  Mn3.34+  Mn132  1  0.58651697  0.32639529  0.24892583  1
  Mn3.34+  Mn133  1  0.58708400  0.33662548  0.58384254  1
  Mn3.34+  Mn134  1  0.58555117  0.32807443  0.91479484  1
  Mn3.34+  Mn135  1  0.58187499  0.83521633  0.25110764  1
  Mn3.34+  Mn136  1  0.58439230  0.83433192  0.58166745  1
  Mn3.34+  Mn137  1  0.58563307  0.83389121  0.91062619  1
  Mn3.34+  Mn138  1  0.91766460  0.32653612  0.24821489  1
  Mn3.34+  Mn139  1  0.91741322  0.33034610  0.58343288  1
  Mn3.34+  Mn140  1  0.91437974  0.32534553  0.91724468  1
  Mn3.34+  Mn141  1  0.91231968  0.83765460  0.25506352  1
  Mn3.34+  Mn142  1  0.91646989  0.83556818  0.57748830  1
  Mn3.34+  Mn143  1  0.91328320  0.83789558  0.91464615  1
  Mn3.34+  Mn144  1  0.41583484  0.66978756  0.08255364  1
  Mn3.34+  Mn145  1  0.58950250  0.66043629  0.91884109  1
  Mn3.34+  Mn146  1  0.57726085  0.66746132  0.92171510  1
  Mn3.34+  Mn147  1  0.57902005  0.66491367  0.24597258  1
  Mn3.34+  Mn148  1  0.08171354  0.66886956  0.08033327  1
  Mn3.34+  Mn149  1  0.40716326  0.16054595  0.75505350  1
  Mn3.34+  Mn150  1  0.07080364  0.66360580  0.42674719  1
  Mn3.34+  Mn151  1  0.75504536  0.16273738  0.41664291  1
  Mn3.34+  Mn152  1  0.42120623  0.67133895  0.42103019  1
  Mn3.34+  Mn153  1  0.75819525  0.16354827  0.75211344  1
  Mn3.34+  Mn154  1  0.08056926  0.16556782  0.41953772  1
  Mn3.34+  Mn155  1  0.90839311  0.66490763  0.24877727  1
  Mn3.34+  Mn156  1  0.41171176  0.67688541  0.75057968  1
  Mn3.34+  Mn157  1  0.59522731  0.15802620  0.91362812  1
  Mn3.34+  Mn158  1  0.07855390  0.67100636  0.74916713  1
  Mn3.34+  Mn159  1  0.91639706  0.16346803  0.25215221  1
  Mn3.34+  Mn160  1  0.58857044  0.66927529  0.58002163  1
  Mn3.34+  Mn161  1  0.59115548  0.16446652  0.58475162  1
  Mn3.34+  Mn162  1  0.41668387  0.16630006  0.75536621  1
  Mn3.34+  Mn163  1  0.75572277  0.15716893  0.08941639  1
  Mn3.34+  Mn164  1  0.91916174  0.66980098  0.25093598  1
  Mn3.34+  Mn165  1  0.41432892  0.15905118  0.08237835  1
  Mn3.34+  Mn166  1  0.41965699  0.67016552  0.75178193  1
  Mn3.34+  Mn167  1  0.75123640  0.66600308  0.08149328  1
  Mn3.34+  Mn168  1  0.41242824  0.67744959  0.41887128  1
  Mn3.34+  Mn169  1  0.91302012  0.67198403  0.91511320  1
  Mn3.34+  Mn170  1  0.91934181  0.16402981  0.57709488  1
  Mn3.34+  Mn171  1  0.41837572  0.16479657  0.41869566  1
  Mn3.34+  Mn172  1  0.58162916  0.16372385  0.91669041  1
  Mn3.34+  Mn173  1  0.40451764  0.15362749  0.08312526  1
  Mn3.34+  Mn174  1  0.08417750  0.67022987  0.42483501  1
  Mn3.34+  Mn175  1  0.24861512  0.66760031  0.58540116  1
  Mn3.34+  Mn176  1  0.24990711  0.67141733  0.91420287  1
  Mn3.34+  Mn177  1  0.58906517  0.67020216  0.24650046  1
  Mn3.34+  Mn178  1  0.24161104  0.16819341  0.91413999  1
  Mn3.34+  Mn179  1  0.57981057  0.16898710  0.58495949  1
  Mn3.34+  Mn180  1  0.25736343  0.50376865  0.91203057  1
  Mn3.34+  Mn181  1  0.24014263  0.00719115  0.24257885  1
  Mn3.34+  Mn182  1  0.07466796  0.00032432  0.41391952  1
  Mn3.34+  Mn183  1  0.08472423  0.49967520  0.74373320  1
  Mn3.34+  Mn184  1  0.07045245  0.50017286  0.41871990  1
  Mn3.34+  Mn185  1  0.58390725  0.49662204  0.91496436  1
  Mn3.34+  Mn186  1  0.91501394  0.00048438  0.92417418  1
  Mn3.34+  Mn187  1  0.92123673  0.49134277  0.24590920  1
  Mn3.34+  Mn188  1  0.24272249  0.49769295  0.91260102  1
  Mn3.34+  Mn189  1  0.58520077  0.00154865  0.25263015  1
  Mn3.34+  Mn190  1  0.25402445  0.00104676  0.23988848  1
  Mn3.34+  Mn191  1  0.08701498  0.00736116  0.41497756  1
  Mn3.34+  Mn192  1  0.42355577  0.49957423  0.75159756  1
  Mn3.34+  Mn193  1  0.75989280  0.00065000  0.74849979  1
  Mn3.34+  Mn194  1  0.59629482  0.50323196  0.58902313  1
  Mn3.34+  Mn195  1  0.25594533  0.01111455  0.92598230  1
  Mn3.34+  Mn196  1  0.90254116  0.00675820  0.92566544  1
  Mn3.34+  Mn197  1  0.90819332  0.49543578  0.58897912  1
  Mn3.34+  Mn198  1  0.40887856  0.50539097  0.75132006  1
  Mn3.34+  Mn199  1  0.58504474  0.49572085  0.24054191  1
  Mn3.34+  Mn200  1  0.07695640  0.49351993  0.07858830  1
  Mn3.34+  Mn201  1  0.42916544  0.50102863  0.07909750  1
  Mn3.34+  Mn202  1  0.24117335  0.49155634  0.25775042  1
  Mn3.34+  Mn203  1  0.74378735  0.50466471  0.07735225  1
  Mn3.34+  Mn204  1  0.90595638  0.50231531  0.90552867  1
  Mn3.34+  Mn205  1  0.91028524  0.00575105  0.26477087  1
  Mn3.34+  Mn206  1  0.42588132  0.50025594  0.41606694  1
  Mn3.34+  Mn207  1  0.91144306  0.49707359  0.24394004  1
  Mn3.34+  Mn208  1  0.40949697  0.00048057  0.74198384  1
  Mn3.34+  Mn209  1  0.91786580  0.00207443  0.58325193  1
  Mn3.34+  Mn210  1  0.24390847  0.00453223  0.92427815  1
  Mn3.34+  Mn211  1  0.24800044  0.49847252  0.58492994  1
  Mn3.34+  Mn212  1  0.91598208  0.49678365  0.90607342  1
  Mn3.34+  Mn213  1  0.58733639  -0.00366898  0.58879924  1
  Mn3.34+  Mn214  1  0.89554782  0.50111123  0.59076267  1
  Mn3.34+  Mn215  1  0.59570757  0.49945769  0.24483579  1
  O2-  O216  1  -0.00711116  0.17474269  -0.01406713  1
  O2-  O217  1  0.00582611  0.14566711  0.32341471  1
  O2-  O218  1  -0.00083996  0.15340031  0.65488192  1
  O2-  O219  1  0.00116005  0.65060019  -0.00066994  1
  O2-  O220  1  0.00072471  0.63854538  0.33145731  1
  O2-  O221  1  -0.00073275  0.67168579  0.67292081  1
  O2-  O222  1  0.33679004  0.17571611  -0.00335054  1
  O2-  O223  1  0.34818094  0.16291246  0.33137587  1
  O2-  O224  1  0.34366885  0.15923678  0.65882764  1
  O2-  O225  1  0.33169403  0.64990821  -0.00579143  1
  O2-  O226  1  0.32800660  0.65900962  0.34029107  1
  O2-  O227  1  0.33520826  0.68037036  0.66246437  1
  O2-  O228  1  0.66840960  0.15742806  0.00598780  1
  O2-  O229  1  0.66995795  0.15403373  0.33889101  1
  O2-  O230  1  0.66723644  0.15727343  0.66989121  1
  O2-  O231  1  0.66976950  0.64587385  -0.00093755  1
  O2-  O232  1  0.66574785  0.66021093  0.33085109  1
  O2-  O233  1  0.66498190  0.66055262  0.65908545  1
  O2-  O234  1  0.16782012  0.15545748  -0.00708157  1
  O2-  O235  1  0.16087932  0.16521903  0.34174480  1
  O2-  O236  1  0.16619911  0.16593608  0.66092284  1
  O2-  O237  1  0.16787717  0.64446451  -0.00126927  1
  O2-  O238  1  0.16298702  0.64717093  0.34462656  1
  O2-  O239  1  0.16224842  0.66837727  0.66211030  1
  O2-  O240  1  0.49694390  0.15187921  0.00258347  1
  O2-  O241  1  0.50563750  0.14739580  0.34060233  1
  O2-  O242  1  0.50681310  0.15684212  0.67804675  1
  O2-  O243  1  0.49639295  0.65221760  -0.00154862  1
  O2-  O244  1  0.49603118  0.65164834  0.33348828  1
  O2-  O245  1  0.49780369  0.65527825  0.66519724  1
  O2-  O246  1  0.82872933  0.18366101  0.01732014  1
  O2-  O247  1  0.83098673  0.15472773  0.33244472  1
  O2-  O248  1  0.83118458  0.15994291  0.66233582  1
  O2-  O249  1  0.83447408  0.65156882  -0.00122294  1
  O2-  O250  1  0.82611184  0.66695832  0.33122206  1
  O2-  O251  1  0.84154480  0.68357350  0.64138831  1
  O2-  O252  1  0.00020986  0.33152697  -0.00526445  1
  O2-  O253  1  -0.00578876  0.34651291  0.33707862  1
  O2-  O254  1  -0.00242115  0.35261152  0.66745689  1
  O2-  O255  1  -0.00318119  0.85269993  -0.00018130  1
  O2-  O256  1  0.00197586  0.85347007  0.33245210  1
  O2-  O257  1  0.00481094  0.83907845  0.66164000  1
  O2-  O258  1  0.33595574  0.33945606  -0.00243112  1
  O2-  O259  1  0.33814977  0.33404625  0.32903309  1
  O2-  O260  1  0.33744452  0.33977563  0.66169259  1
  O2-  O261  1  0.34242284  0.85688273  -0.01035280  1
  O2-  O262  1  0.33551440  0.84049578  0.33354239  1
  O2-  O263  1  0.33314947  0.82204757  0.66343282  1
  O2-  O264  1  0.67085522  0.33770605  0.00231922  1
  O2-  O265  1  0.66449736  0.34087724  0.33222885  1
  O2-  O266  1  0.67037618  0.33195428  0.67346808  1
  O2-  O267  1  0.66214358  0.84764409  0.00215485  1
  O2-  O268  1  0.66816358  0.83825590  0.33772562  1
  O2-  O269  1  0.66946532  0.85045540  0.66562390  1
  O2-  O270  1  0.16773271  0.34291695  -0.00443078  1
  O2-  O271  1  0.17180343  0.32442455  0.33743959  1
  O2-  O272  1  0.16521363  0.34517552  0.66553695  1
  O2-  O273  1  0.16827421  0.85167039  -0.00168472  1
  O2-  O274  1  0.16458666  0.85642355  0.33612490  1
  O2-  O275  1  0.16895721  0.83639587  0.66433304  1
  O2-  O276  1  0.50008779  0.33642318  0.00207173  1
  O2-  O277  1  0.50240987  0.34952264  0.33395709  1
  O2-  O278  1  0.50474161  0.34460572  0.67263158  1
  O2-  O279  1  0.50243801  0.84658607  0.00022174  1
  O2-  O280  1  0.49932986  0.84689585  0.33593855  1
  O2-  O281  1  0.49530805  0.84598717  0.66543994  1
  O2-  O282  1  0.83003467  0.31650838  -0.00301432  1
  O2-  O283  1  0.83143521  0.33500202  0.33127149  1
  O2-  O284  1  0.83565353  0.32805511  0.67000868  1
  O2-  O285  1  0.82982784  0.85064771  -0.00102788  1
  O2-  O286  1  0.82544999  0.82547928  0.33636714  1
  O2-  O287  1  0.83641345  0.84517364  0.66478969  1
  O2-  O288  1  -0.00613608  0.17547159  0.17042026  1
  O2-  O289  1  -0.00601618  0.18038855  0.49719162  1
  O2-  O290  1  -0.00164801  0.18252677  0.84216573  1
  O2-  O291  1  0.00585294  0.67265112  0.17361758  1
  O2-  O292  1  -0.00243770  0.68509426  0.50436581  1
  O2-  O293  1  0.00533192  0.68004714  0.84323191  1
  O2-  O294  1  0.33523584  0.18615055  0.16091905  1
  O2-  O295  1  0.33918829  0.17202433  0.49866004  1
  O2-  O296  1  0.32787731  0.19150693  0.82880090  1
  O2-  O297  1  0.32888144  0.67623739  0.15674848  1
  O2-  O298  1  0.33208277  0.69291950  0.50195349  1
  O2-  O299  1  0.33395229  0.69172250  0.83495665  1
  O2-  O300  1  0.67967461  0.18428257  0.15745791  1
  O2-  O301  1  0.66775340  0.18253251  0.49867039  1
  O2-  O302  1  0.66849858  0.18629852  0.82620911  1
  O2-  O303  1  0.67056307  0.68511861  0.16497231  1
  O2-  O304  1  0.66199916  0.68232028  0.49908060  1
  O2-  O305  1  0.66433970  0.67374188  0.83627544  1
  O2-  O306  1  0.16041742  0.19696747  0.18686043  1
  O2-  O307  1  0.15135178  0.17534828  0.50334282  1
  O2-  O308  1  0.16171134  0.17413812  0.84062019  1
  O2-  O309  1  0.16349694  0.66879663  0.16096499  1
  O2-  O310  1  0.17486833  0.68604696  0.49824753  1
  O2-  O311  1  0.15896770  0.67934283  0.84412443  1
  O2-  O312  1  0.49217646  0.18091779  0.16056937  1
  O2-  O313  1  0.50406540  0.17964461  0.50157977  1
  O2-  O314  1  0.49854754  0.18489283  0.83519840  1
  O2-  O315  1  0.49383052  0.67981329  0.17359191  1
  O2-  O316  1  0.49915344  0.68778164  0.50227842  1
  O2-  O317  1  0.50337456  0.68794106  0.83158028  1
  O2-  O318  1  0.83130119  0.17768954  0.17243847  1
  O2-  O319  1  0.82783039  0.17858724  0.50463875  1
  O2-  O320  1  0.83701625  0.18940757  0.81778679  1
  O2-  O321  1  0.83813832  0.68757725  0.16016538  1
  O2-  O322  1  0.82861865  0.68967492  0.50491511  1
  O2-  O323  1  0.83135535  0.68042303  0.84299592  1
  O2-  O324  1  -0.00063207  0.31897398  0.16777322  1
  O2-  O325  1  0.00107424  0.33308643  0.50290938  1
  O2-  O326  1  -0.00162904  0.32227553  0.83318661  1
  O2-  O327  1  0.00173863  0.82941164  0.16518574  1
  O2-  O328  1  -0.00209652  0.80903587  0.50223933  1
  O2-  O329  1  0.00253636  0.83159583  0.83515076  1
  O2-  O330  1  0.33793078  0.31293909  0.17121767  1
  O2-  O331  1  0.33073559  0.32171713  0.49491665  1
  O2-  O332  1  0.33175273  0.31870064  0.83041569  1
  O2-  O333  1  0.32482289  0.82542328  0.15978901  1
  O2-  O334  1  0.33420023  0.81363521  0.49661231  1
  O2-  O335  1  0.33022829  0.81362883  0.82910301  1
  O2-  O336  1  0.66736518  0.31938597  0.16555530  1
  O2-  O337  1  0.66326199  0.32112611  0.49562155  1
  O2-  O338  1  0.67194917  0.31664037  0.83367209  1
  O2-  O339  1  0.66547167  0.82212599  0.16788630  1
  O2-  O340  1  0.67013137  0.81910606  0.50050323  1
  O2-  O341  1  0.66766816  0.82268475  0.83134047  1
  O2-  O342  1  0.17079933  0.31973004  0.16035020  1
  O2-  O343  1  0.16402647  0.32215862  0.50124427  1
  O2-  O344  1  0.16600399  0.32577239  0.83110930  1
  O2-  O345  1  0.16033112  0.82920883  0.16900187  1
  O2-  O346  1  0.16597071  0.81023968  0.50182895  1
  O2-  O347  1  0.16392859  0.82746273  0.83647758  1
  O2-  O348  1  0.49715107  0.31920178  0.16953075  1
  O2-  O349  1  0.49585655  0.32760202  0.50371916  1
  O2-  O350  1  0.49578923  0.31225807  0.83400414  1
  O2-  O351  1  0.49515240  0.82302090  0.17053950  1
  O2-  O352  1  0.50253075  0.81515504  0.49366700  1
  O2-  O353  1  0.49717833  0.81578197  0.83498725  1
  O2-  O354  1  0.82967050  0.30995777  0.17197662  1
  O2-  O355  1  0.83959580  0.31941455  0.49451248  1
  O2-  O356  1  0.83557869  0.31084231  0.83133395  1
  O2-  O357  1  0.83345730  0.82430890  0.16641915  1
  O2-  O358  1  0.82725653  0.82008041  0.50485548  1
  O2-  O359  1  0.83910850  0.82233117  0.82834181  1
  O2-  O360  1  0.06167192  0.06712575  0.11808104  1
  O2-  O361  1  0.07227083  0.08187059  0.45581772  1
  O2-  O362  1  0.06767676  0.07583594  0.76948017  1
  O2-  O363  1  0.07937093  0.57363717  0.11703381  1
  O2-  O364  1  0.09317915  0.58363013  0.46936592  1
  O2-  O365  1  0.08001216  0.58411160  0.77109220  1
  O2-  O366  1  0.41745024  0.07537508  0.12880111  1
  O2-  O367  1  0.43131961  0.08075798  0.44780697  1
  O2-  O368  1  0.43216665  0.07712484  0.77658436  1
  O2-  O369  1  0.40162010  0.58289971  0.11293042  1
  O2-  O370  1  0.40089351  0.58386299  0.45364365  1
  O2-  O371  1  0.41447251  0.58491740  0.79076410  1
  O2-  O372  1  0.74860121  0.08158683  0.10899138  1
  O2-  O373  1  0.72720661  0.08184225  0.44645401  1
  O2-  O374  1  0.75176909  0.08066594  0.77405701  1
  O2-  O375  1  0.76285634  0.58022829  0.12895614  1
  O2-  O376  1  0.75665413  0.56550019  0.48065242  1
  O2-  O377  1  0.74845707  0.56898764  0.76955852  1
  O2-  O378  1  0.25087348  0.08742698  0.22545473  1
  O2-  O379  1  0.22615881  0.06510268  0.53589236  1
  O2-  O380  1  0.26014291  0.08474593  0.88950911  1
  O2-  O381  1  0.24139507  0.57384891  0.21771408  1
  O2-  O382  1  0.26147612  0.57954195  0.54835827  1
  O2-  O383  1  0.24595989  0.58357054  0.87838208  1
  O2-  O384  1  0.57918960  0.07578752  0.21583423  1
  O2-  O385  1  0.59007461  0.08046779  0.55363122  1
  O2-  O386  1  0.58685798  0.07927879  0.88604778  1
  O2-  O387  1  0.58734628  0.58200841  0.21568733  1
  O2-  O388  1  0.57265991  0.58317742  0.55425765  1
  O2-  O389  1  0.56893807  0.57948219  0.88054996  1
  O2-  O390  1  0.90956575  0.08047950  0.21898926  1
  O2-  O391  1  0.90683191  0.08011172  0.55521000  1
  O2-  O392  1  0.91717722  0.08203274  0.89462865  1
  O2-  O393  1  0.92015085  0.57917500  0.20565596  1
  O2-  O394  1  0.92580406  0.57559606  0.55583097  1
  O2-  O395  1  0.92730636  0.58453607  0.88443243  1
  O2-  O396  1  0.09923076  0.41470608  0.09062327  1
  O2-  O397  1  0.09778131  0.41759976  0.43768713  1
  O2-  O398  1  0.08285111  0.42077396  0.78291636  1
  O2-  O399  1  0.08841190  0.92047396  0.10816898  1
  O2-  O400  1  0.08913071  0.92538661  0.46648160  1
  O2-  O401  1  0.08627363  0.91736787  0.75388404  1
  O2-  O402  1  0.41772976  0.41930735  0.11788814  1
  O2-  O403  1  0.40482903  0.41639037  0.43448327  1
  O2-  O404  1  0.41058823  0.41994564  0.78250803  1
  O2-  O405  1  0.41347894  0.92012648  0.11223613  1
  O2-  O406  1  0.41088570  0.91969598  0.44888387  1
  O2-  O407  1  0.40623657  0.92459387  0.79201179  1
  O2-  O408  1  0.73596035  0.42517903  0.11845943  1
  O2-  O409  1  0.75229603  0.41211713  0.42184050  1
  O2-  O410  1  0.75580476  0.41277580  0.78157734  1
  O2-  O411  1  0.74787346  0.91739334  0.11258038  1
  O2-  O412  1  0.73605873  0.92130448  0.44356967  1
  O2-  O413  1  0.75534233  0.92181655  0.78612008  1
  O2-  O414  1  0.27343440  0.41399729  0.22550522  1
  O2-  O415  1  0.25424812  0.41805916  0.55756051  1
  O2-  O416  1  0.25849525  0.41623674  0.89164877  1
  O2-  O417  1  0.24446339  0.91948718  0.21952887  1
  O2-  O418  1  0.24093417  0.90990715  0.56097931  1
  O2-  O419  1  0.24486037  0.93379340  0.86896296  1
  O2-  O420  1  0.57916098  0.41404298  0.21590188  1
  O2-  O421  1  0.57654609  0.42335787  0.56156069  1
  O2-  O422  1  0.58392440  0.41413465  0.88462976  1
  O2-  O423  1  0.58545447  0.92033540  0.22852436  1
  O2-  O424  1  0.57688854  0.91650608  0.54939294  1
  O2-  O425  1  0.57542058  0.91650397  0.88209251  1
  O2-  O426  1  0.89932946  0.41091074  0.22913691  1
  O2-  O427  1  0.91026657  0.41963378  0.55925177  1
  O2-  O428  1  0.90191398  0.41440331  0.89204891  1
  O2-  O429  1  0.92458884  0.92519202  0.22119627  1
  O2-  O430  1  0.93470946  0.92178958  0.56057718  1
  O2-  O431  1  0.91871119  0.92810981  0.87698837  1
  O2-  O432  1  -0.00017352  -0.00491214  -0.01142089  1
  O2-  O433  1  0.02089390  -0.00458811  0.30821075  1
  O2-  O434  1  0.01015751  0.00536156  0.64178269  1
  O2-  O435  1  0.00671207  0.51201713  -0.01771567  1
  O2-  O436  1  0.01469664  0.51679350  0.30996520  1
  O2-  O437  1  -0.00417104  0.49755831  0.65568989  1
  O2-  O438  1  0.34772777  -0.00937656  -0.01991322  1
  O2-  O439  1  0.35000317  -0.00017159  0.30599568  1
  O2-  O440  1  0.34065330  -0.00656815  0.65182011  1
  O2-  O441  1  0.32256156  0.51025674  0.01112970  1
  O2-  O442  1  0.32949456  0.51700202  0.33803263  1
  O2-  O443  1  0.34030483  0.49885515  0.65703856  1
  O2-  O444  1  0.65275433  -0.00938445  0.01232118  1
  O2-  O445  1  0.65454786  0.00291873  0.33763660  1
  O2-  O446  1  0.66106514  -0.00291236  0.68465932  1
  O2-  O447  1  0.67472429  0.48789104  -0.01411992  1
  O2-  O448  1  0.66115574  0.51142864  0.33677713  1
  O2-  O449  1  0.65556648  0.49981234  0.67768284  1
  O2-  O450  1  0.16029616  -0.01036710  -0.01320632  1
  O2-  O451  1  0.18222925  -0.00980172  0.34699013  1
  O2-  O452  1  0.16083370  -0.00400492  0.64677422  1
  O2-  O453  1  0.16573743  0.51810339  -0.00049095  1
  O2-  O454  1  0.16716931  0.52451538  0.34343066  1
  O2-  O455  1  0.15420926  0.49816825  0.64854798  1
  O2-  O456  1  0.51880036  -0.01120749  0.01421078  1
  O2-  O457  1  0.50007376  0.00964319  0.32352992  1
  O2-  O458  1  0.50254869  -0.00929028  0.67330618  1
  O2-  O459  1  0.47811530  0.49217655  -0.03304050  1
  O2-  O460  1  0.48574446  0.49316238  0.30720796  1
  O2-  O461  1  0.49680083  0.51149764  0.66164111  1
  O2-  O462  1  0.82147210  -0.01121778  -0.00707041  1
  O2-  O463  1  0.80262778  0.00085537  0.28622604  1
  O2-  O464  1  0.82330898  -0.00760794  0.64711011  1
  O2-  O465  1  0.83708222  0.51181405  0.00056441  1
  O2-  O466  1  0.83760293  0.51579351  0.32847226  1
  O2-  O467  1  0.82908887  0.49690461  0.67278735  1
  O2-  O468  1  0.06458300  0.24959559  0.40007466  1
  O2-  O469  1  0.43304778  0.24892614  0.40143458  1
  O2-  O470  1  0.24586612  0.74912507  0.95064122  1
  O2-  O471  1  0.07849993  0.25563031  0.72718308  1
  O2-  O472  1  0.41547697  0.75314302  0.06415055  1
  O2-  O473  1  0.08764593  0.75279292  0.74272773  1
  O2-  O474  1  0.93530587  0.75242887  0.27184399  1
  O2-  O475  1  0.75209791  0.75636895  0.73351386  1
  O2-  O476  1  0.57884187  0.75185953  0.27472436  1
  O2-  O477  1  0.92410475  0.24638317  0.27795272  1
  O2-  O478  1  0.08040442  0.25136725  0.06453916  1
  O2-  O479  1  0.25098957  0.25191220  0.59496368  1
  O2-  O480  1  0.24061597  0.25085945  0.93767729  1
  O2-  O481  1  0.08472304  0.75472748  0.06233655  1
  O2-  O482  1  0.08112077  0.74539526  0.37614043  1
  O2-  O483  1  0.58077948  0.24963582  0.26731231  1
  O2-  O484  1  0.24235752  0.75550968  0.26422261  1
  O2-  O485  1  0.57972593  0.25111574  0.60704974  1
  O2-  O486  1  0.92517862  0.24903308  0.60055409  1
  O2-  O487  1  0.58156735  0.75218263  0.60977982  1
  O2-  O488  1  0.59109189  0.74990615  0.94424298  1
  O2-  O489  1  0.91996453  0.75190932  0.94238181  1
  O2-  O490  1  0.58458884  0.24380610  0.94389317  1
  O2-  O491  1  0.74803575  0.24691344  0.39799362  1
  O2-  O492  1  0.75032645  0.75090682  0.05527065  1
