# generated using pymatgen
data_Ca108Mn108O277
_symmetry_space_group_name_H-M   'P 1'
_cell_length_a   16.03278510
_cell_length_b   22.31569436
_cell_length_c   16.39512671
_cell_angle_alpha   89.99735663
_cell_angle_beta   89.99809942
_cell_angle_gamma   90.00527483
_symmetry_Int_Tables_number   1
_chemical_formula_structural   Ca108Mn108O277
_chemical_formula_sum   'Ca108 Mn108 O277'
_cell_volume   5865.89319308
_cell_formula_units_Z   1
loop_
 _symmetry_equiv_pos_site_id
 _symmetry_equiv_pos_as_xyz
  1  'x, y, z'
loop_
 _atom_type_symbol
 _atom_type_oxidation_number
  Ca2+  2.0
  Mn3.34+  3.34
  O2-  -2.0
loop_
 _atom_site_type_symbol
 _atom_site_label
 _atom_site_symmetry_multiplicity
 _atom_site_fract_x
 _atom_site_fract_y
 _atom_site_fract_z
 _atom_site_occupancy
  Ca2+  Ca0  1  0.07455444  0.25920732  0.23817516  1
  Ca2+  Ca1  1  0.08797252  0.25604537  0.59361991  1
  Ca2+  Ca2  1  0.09673438  0.25849548  0.91725089  1
  Ca2+  Ca3  1  0.08117931  0.75221064  0.25408597  1
  Ca2+  Ca4  1  0.06544112  0.74792485  0.58368865  1
  Ca2+  Ca5  1  0.09577966  0.75222772  0.90811444  1
  Ca2+  Ca6  1  0.41419152  0.25227852  0.23722077  1
  Ca2+  Ca7  1  0.41853352  0.26368773  0.59811185  1
  Ca2+  Ca8  1  0.40868400  0.24065805  0.91209657  1
  Ca2+  Ca9  1  0.42494273  0.72692859  0.25424789  1
  Ca2+  Ca10  1  0.41390828  0.75544261  0.58361411  1
  Ca2+  Ca11  1  0.43336387  0.73692063  0.91692818  1
  Ca2+  Ca12  1  0.75742927  0.26320968  0.25309425  1
  Ca2+  Ca13  1  0.73945644  0.26710334  0.58804442  1
  Ca2+  Ca14  1  0.72949258  0.26150068  0.91598667  1
  Ca2+  Ca15  1  0.74654496  0.72624641  0.24768167  1
  Ca2+  Ca16  1  0.77468935  0.74057688  0.55010424  1
  Ca2+  Ca17  1  0.71782396  0.72684680  0.94322806  1
  Ca2+  Ca18  1  0.26688498  0.23731204  0.06036512  1
  Ca2+  Ca19  1  0.25781663  0.25356220  0.41981674  1
  Ca2+  Ca20  1  0.24411241  0.23837621  0.76974957  1
  Ca2+  Ca21  1  0.24885673  0.75133616  0.09468364  1
  Ca2+  Ca22  1  0.25501057  0.74710089  0.39720318  1
  Ca2+  Ca23  1  0.24935715  0.74390332  0.76292689  1
  Ca2+  Ca24  1  0.55783230  0.23369883  0.05343816  1
  Ca2+  Ca25  1  0.58295768  0.25704442  0.42646395  1
  Ca2+  Ca26  1  0.57026542  0.25499861  0.77325555  1
  Ca2+  Ca27  1  0.59563509  0.75049237  0.09659007  1
  Ca2+  Ca28  1  0.59567032  0.75500183  0.39772971  1
  Ca2+  Ca29  1  0.56794361  0.75245138  0.76519988  1
  Ca2+  Ca30  1  0.92662116  0.27054614  0.07938339  1
  Ca2+  Ca31  1  0.91109422  0.25855186  0.41644940  1
  Ca2+  Ca32  1  0.92416916  0.25343813  0.75777239  1
  Ca2+  Ca33  1  0.89744621  0.75042851  0.10988463  1
  Ca2+  Ca34  1  0.91075834  0.73285949  0.40846062  1
  Ca2+  Ca35  1  0.93362250  0.74748532  0.72906746  1
  Ca2+  Ca36  1  0.09339301  0.09103891  0.61406651  1
  Ca2+  Ca37  1  0.74522675  0.08035520  0.25239747  1
  Ca2+  Ca38  1  0.57867868  0.58489388  0.76959250  1
  Ca2+  Ca39  1  0.13952078  0.10890738  0.89266908  1
  Ca2+  Ca40  1  0.61488397  0.60321698  0.37761071  1
  Ca2+  Ca41  1  0.70677028  0.11176203  0.92027665  1
  Ca2+  Ca42  1  0.92876346  0.58769165  0.73441083  1
  Ca2+  Ca43  1  0.08272907  0.61438325  0.24421120  1
  Ca2+  Ca44  1  0.88029889  0.60546655  0.10844261  1
  Ca2+  Ca45  1  0.04084278  0.59131293  0.59172633  1
  Ca2+  Ca46  1  0.26029671  0.08811764  0.42541719  1
  Ca2+  Ca47  1  0.57788468  0.08813220  0.39775958  1
  Ca2+  Ca48  1  0.59423094  0.60430107  0.09258872  1
  Ca2+  Ca49  1  0.72448478  0.57237906  0.92934168  1
  Ca2+  Ca50  1  0.95742462  0.06526745  0.06508782  1
  Ca2+  Ca51  1  0.42563078  0.08903664  0.23023180  1
  Ca2+  Ca52  1  0.24909986  0.58681489  0.34677258  1
  Ca2+  Ca53  1  0.42071225  0.58198072  0.59247635  1
  Ca2+  Ca54  1  0.92671988  0.07035507  0.42192008  1
  Ca2+  Ca55  1  0.09547604  0.58647716  0.90725147  1
  Ca2+  Ca56  1  0.08010726  0.09100162  0.61450867  1
  Ca2+  Ca57  1  0.25101769  0.08209622  0.42211334  1
  Ca2+  Ca58  1  0.44135205  0.59015734  0.92721926  1
  Ca2+  Ca59  1  0.79439767  0.58811245  0.58251409  1
  Ca2+  Ca60  1  0.60513327  0.60287760  0.37417327  1
  Ca2+  Ca61  1  0.14811352  0.10577852  0.89612534  1
  Ca2+  Ca62  1  0.25233894  0.60925102  0.11980703  1
  Ca2+  Ca63  1  0.08495846  0.07266549  0.24945796  1
  Ca2+  Ca64  1  0.91698338  0.07226365  0.42981838  1
  Ca2+  Ca65  1  0.40599384  0.09965218  0.91183937  1
  Ca2+  Ca66  1  0.57514284  0.10931525  0.77397884  1
  Ca2+  Ca67  1  0.26318289  0.07818208  0.05105462  1
  Ca2+  Ca68  1  0.58754367  0.58259240  0.77403948  1
  Ca2+  Ca69  1  0.89040798  0.60591223  0.10895594  1
  Ca2+  Ca70  1  0.60134168  0.60953187  0.09507158  1
  Ca2+  Ca71  1  0.73254742  0.07859493  0.25061972  1
  Ca2+  Ca72  1  0.91548373  0.90289222  0.73489371  1
  Ca2+  Ca73  1  0.42838057  0.90035042  0.24405662  1
  Ca2+  Ca74  1  0.76828375  0.89635244  0.58189573  1
  Ca2+  Ca75  1  0.75956850  0.40850528  0.25084132  1
  Ca2+  Ca76  1  0.25028196  0.90650515  0.08658149  1
  Ca2+  Ca77  1  0.93044416  0.90388836  0.08727620  1
  Ca2+  Ca78  1  0.08413792  0.40825040  0.25337715  1
  Ca2+  Ca79  1  0.74267749  0.89864215  0.90947038  1
  Ca2+  Ca80  1  0.07088251  0.41164262  0.90590049  1
  Ca2+  Ca81  1  0.90690340  0.43500119  0.73032454  1
  Ca2+  Ca82  1  0.25252856  0.90718565  0.75636649  1
  Ca2+  Ca83  1  0.26375815  0.90708797  0.75745389  1
  Ca2+  Ca84  1  0.24451494  0.39829610  0.75003828  1
  Ca2+  Ca85  1  0.25076393  0.41127457  0.07884373  1
  Ca2+  Ca86  1  0.41030260  0.90030355  0.58258815  1
  Ca2+  Ca87  1  0.59776332  0.41033839  0.76510768  1
  Ca2+  Ca88  1  0.58870302  0.42289527  0.05140197  1
  Ca2+  Ca89  1  0.41796730  0.90009131  0.24587139  1
  Ca2+  Ca90  1  0.41469130  0.41127843  0.24730481  1
  Ca2+  Ca91  1  0.09311264  0.92259472  0.94451941  1
  Ca2+  Ca92  1  0.75557921  0.89857003  0.90900586  1
  Ca2+  Ca93  1  0.92754946  0.89878691  0.42061057  1
  Ca2+  Ca94  1  0.74772777  0.89604502  0.24699121  1
  Ca2+  Ca95  1  0.24220475  0.40620127  0.40762295  1
  Ca2+  Ca96  1  0.40228546  0.41328774  0.24766992  1
  Ca2+  Ca97  1  0.10439490  0.92391578  0.94474159  1
  Ca2+  Ca98  1  0.25495334  0.40620618  0.40837494  1
  Ca2+  Ca99  1  0.40348878  0.90929404  0.92696649  1
  Ca2+  Ca100  1  0.91721144  0.43498717  0.73123411  1
  Ca2+  Ca101  1  0.41848347  0.40804489  0.91330605  1
  Ca2+  Ca102  1  0.07146597  0.91216713  0.57457151  1
  Ca2+  Ca103  1  0.59930372  0.42327076  0.05210907  1
  Ca2+  Ca104  1  0.91436547  0.40152303  0.43517158  1
  Ca2+  Ca105  1  0.58932793  0.40147499  0.41959124  1
  Ca2+  Ca106  1  0.57978516  0.90151996  0.74851673  1
  Ca2+  Ca107  1  0.57758595  0.90408867  0.08954626  1
  Mn3.34+  Mn108  1  0.08345613  0.33476524  0.07838802  1
  Mn3.34+  Mn109  1  0.07867801  0.33154852  0.42157682  1
  Mn3.34+  Mn110  1  0.07908121  0.33670090  0.75083758  1
  Mn3.34+  Mn111  1  0.08478960  0.83920085  0.09293434  1
  Mn3.34+  Mn112  1  0.08949643  0.84329460  0.41525301  1
  Mn3.34+  Mn113  1  0.08362702  0.83060020  0.74876655  1
  Mn3.34+  Mn114  1  0.41471863  0.33198528  0.07926755  1
  Mn3.34+  Mn115  1  0.41954826  0.32956693  0.42132878  1
  Mn3.34+  Mn116  1  0.41568633  0.33730545  0.74972838  1
  Mn3.34+  Mn117  1  0.41732990  0.82858775  0.08090175  1
  Mn3.34+  Mn118  1  0.41683658  0.83126619  0.42040506  1
  Mn3.34+  Mn119  1  0.41803422  0.83099027  0.74921939  1
  Mn3.34+  Mn120  1  0.75173308  0.33537407  0.08398029  1
  Mn3.34+  Mn121  1  0.75029812  0.33132511  0.42062746  1
  Mn3.34+  Mn122  1  0.75524363  0.33997128  0.75356340  1
  Mn3.34+  Mn123  1  0.75080470  0.83302067  0.08639389  1
  Mn3.34+  Mn124  1  0.75096322  0.83010518  0.41374205  1
  Mn3.34+  Mn125  1  0.75013768  0.82580820  0.74671233  1
  Mn3.34+  Mn126  1  0.24604213  0.33349195  0.23907481  1
  Mn3.34+  Mn127  1  0.24827457  0.33433897  0.58477133  1
  Mn3.34+  Mn128  1  0.25057893  0.33706314  0.91475032  1
  Mn3.34+  Mn129  1  0.24892538  0.83268959  0.25359110  1
  Mn3.34+  Mn130  1  0.24426417  0.83437528  0.57589688  1
  Mn3.34+  Mn131  1  0.25152067  0.83001949  0.91743096  1
  Mn3.34+  Mn132  1  0.58445828  0.33627123  0.24172600  1
  Mn3.34+  Mn133  1  0.58246218  0.34177962  0.58922404  1
  Mn3.34+  Mn134  1  0.58143330  0.33682295  0.91443277  1
  Mn3.34+  Mn135  1  0.58466126  0.83243700  0.25177836  1
  Mn3.34+  Mn136  1  0.58747095  0.82877665  0.57954780  1
  Mn3.34+  Mn137  1  0.57963475  0.83007585  0.91896346  1
  Mn3.34+  Mn138  1  0.91782146  0.33811944  0.24828404  1
  Mn3.34+  Mn139  1  0.91635973  0.33346973  0.58721346  1
  Mn3.34+  Mn140  1  0.91125702  0.34070471  0.91450496  1
  Mn3.34+  Mn141  1  0.91816735  0.83128746  0.25488525  1
  Mn3.34+  Mn142  1  0.92137538  0.83054018  0.57534317  1
  Mn3.34+  Mn143  1  0.91958743  0.83014187  0.91483221  1
  Mn3.34+  Mn144  1  0.57686708  0.16679387  0.58481338  1
  Mn3.34+  Mn145  1  0.91030011  0.16224084  0.91359517  1
  Mn3.34+  Mn146  1  0.25307724  0.66560246  0.91822703  1
  Mn3.34+  Mn147  1  0.91102390  0.16524551  0.24319871  1
  Mn3.34+  Mn148  1  0.92223250  0.66692641  0.91441369  1
  Mn3.34+  Mn149  1  0.58709499  0.17773927  0.24413044  1
  Mn3.34+  Mn150  1  0.75614141  0.66517926  0.75381921  1
  Mn3.34+  Mn151  1  0.25375066  0.16368241  0.24144637  1
  Mn3.34+  Mn152  1  0.41006136  0.16833762  0.75069809  1
  Mn3.34+  Mn153  1  0.58725425  0.16196191  0.58379177  1
  Mn3.34+  Mn154  1  0.57697229  0.66490751  0.58112564  1
  Mn3.34+  Mn155  1  0.74665172  0.67101223  0.75047064  1
  Mn3.34+  Mn156  1  0.25358338  0.66792686  0.58264898  1
  Mn3.34+  Mn157  1  0.24124028  0.15674031  0.23830591  1
  Mn3.34+  Mn158  1  0.74870236  0.17258356  0.75313688  1
  Mn3.34+  Mn159  1  0.92437685  0.16833910  0.91549499  1
  Mn3.34+  Mn160  1  0.25493368  0.16842395  0.58668258  1
  Mn3.34+  Mn161  1  0.91258452  0.66177307  0.91158838  1
  Mn3.34+  Mn162  1  0.90161832  0.16107574  0.59560383  1
  Mn3.34+  Mn163  1  0.41669973  0.16773975  0.41758442  1
  Mn3.34+  Mn164  1  0.75022480  0.16668676  0.42171923  1
  Mn3.34+  Mn165  1  0.58687753  0.65967195  0.57802880  1
  Mn3.34+  Mn166  1  0.41345098  0.66781975  0.41626185  1
  Mn3.34+  Mn167  1  0.08715669  0.66087829  0.75153615  1
  Mn3.34+  Mn168  1  0.41725439  0.66434558  0.08525708  1
  Mn3.34+  Mn169  1  0.08528266  0.17054365  0.42038670  1
  Mn3.34+  Mn170  1  0.24141697  0.66268897  0.58089347  1
  Mn3.34+  Mn171  1  0.90975978  0.16792038  0.59428300  1
  Mn3.34+  Mn172  1  0.57991507  0.16703148  0.23939997  1
  Mn3.34+  Mn173  1  0.92115562  0.15963766  0.24014646  1
  Mn3.34+  Mn174  1  0.41217089  0.66274559  0.75467036  1
  Mn3.34+  Mn175  1  0.07422522  0.16638195  0.42424194  1
  Mn3.34+  Mn176  1  0.07905089  0.66561236  0.42034740  1
  Mn3.34+  Mn177  1  0.08228856  0.66798987  0.07978719  1
  Mn3.34+  Mn178  1  0.75087776  0.17529099  0.08280247  1
  Mn3.34+  Mn179  1  0.08698851  0.16515807  0.08351062  1
  Mn3.34+  Mn180  1  0.41399623  0.50269460  0.42241547  1
  Mn3.34+  Mn181  1  0.73933809  0.00789104  0.07494481  1
  Mn3.34+  Mn182  1  0.74049072  -0.00105194  0.42806997  1
  Mn3.34+  Mn183  1  0.58628600  -0.00565325  0.58233971  1
  Mn3.34+  Mn184  1  0.58739574  0.49789094  0.24657941  1
  Mn3.34+  Mn185  1  0.24507050  0.49743378  0.59745209  1
  Mn3.34+  Mn186  1  0.41134653  0.50042765  0.74965111  1
  Mn3.34+  Mn187  1  0.58021538  -0.00345134  0.91174455  1
  Mn3.34+  Mn188  1  0.76242490  0.49743433  0.07706648  1
  Mn3.34+  Mn189  1  0.42782325  0.49659166  0.42431134  1
  Mn3.34+  Mn190  1  0.76549982  0.50379553  0.42175626  1
  Mn3.34+  Mn191  1  0.06822655  0.49647295  0.07571632  1
  Mn3.34+  Mn192  1  0.25426833  0.50185904  0.91642728  1
  Mn3.34+  Mn193  1  0.07937783  0.50272575  0.42464933  1
  Mn3.34+  Mn194  1  0.91640026  0.00089645  0.90932194  1
  Mn3.34+  Mn195  1  0.76936757  0.01166405  0.73713025  1
  Mn3.34+  Mn196  1  0.75619542  0.00521045  0.74025925  1
  Mn3.34+  Mn197  1  0.57290472  0.00030741  0.58331517  1
  Mn3.34+  Mn198  1  0.41464063  0.00327139  0.74958103  1
  Mn3.34+  Mn199  1  0.06887489  0.49803764  0.42590722  1
  Mn3.34+  Mn200  1  0.40938875  0.50396607  0.08311132  1
  Mn3.34+  Mn201  1  0.23324843  -0.00749629  0.26916137  1
  Mn3.34+  Mn202  1  0.06919099  0.00153097  0.75717252  1
  Mn3.34+  Mn203  1  0.92061801  0.49560943  0.25057995  1
  Mn3.34+  Mn204  1  0.08093850  0.50347666  0.07673811  1
  Mn3.34+  Mn205  1  0.72885936  -0.00550885  0.42509443  1
  Mn3.34+  Mn206  1  0.07977473  -0.00346539  0.75826116  1
  Mn3.34+  Mn207  1  0.59357368  0.49905944  0.60189598  1
  Mn3.34+  Mn208  1  0.41790856  -0.00190307  0.06603099  1
  Mn3.34+  Mn209  1  0.75716004  0.49728111  0.42374278  1
  Mn3.34+  Mn210  1  0.43478626  0.00060735  0.41473015  1
  Mn3.34+  Mn211  1  0.92528633  -0.00457462  0.25339960  1
  Mn3.34+  Mn212  1  0.25692322  -0.00378553  0.58707837  1
  Mn3.34+  Mn213  1  0.75324385  0.00179405  0.07788953  1
  Mn3.34+  Mn214  1  0.23155257  0.50350557  0.59703072  1
  Mn3.34+  Mn215  1  0.42382666  -0.00489415  0.41484971  1
  O2-  O216  1  0.00949690  0.14310628  -0.00901288  1
  O2-  O217  1  -0.00383892  0.13990436  0.33697056  1
  O2-  O218  1  -0.00069855  0.17340698  0.66647486  1
  O2-  O219  1  0.00488800  0.64195088  -0.00677569  1
  O2-  O220  1  0.00994638  0.67649817  0.33685182  1
  O2-  O221  1  0.00338548  0.66431430  0.67595008  1
  O2-  O222  1  0.33824719  0.16082728  -0.00195309  1
  O2-  O223  1  0.32999596  0.14421728  0.32659081  1
  O2-  O224  1  0.33282938  0.18559906  0.66284567  1
  O2-  O225  1  0.34117233  0.66540457  -0.00624569  1
  O2-  O226  1  0.33951361  0.66024229  0.33685330  1
  O2-  O227  1  0.33511025  0.64545319  0.66171657  1
  O2-  O228  1  0.67587483  0.18469184  0.00307929  1
  O2-  O229  1  0.66832991  0.15326643  0.32596929  1
  O2-  O230  1  0.66570498  0.15886105  0.66884349  1
  O2-  O231  1  0.66936412  0.64611358  -0.00216950  1
  O2-  O232  1  0.67348202  0.67608259  0.33600393  1
  O2-  O233  1  0.67540424  0.64880062  0.66062905  1
  O2-  O234  1  0.17506264  0.15622029  0.01512612  1
  O2-  O235  1  0.16919795  0.15148833  0.33005861  1
  O2-  O236  1  0.16342231  0.17332961  0.65335958  1
  O2-  O237  1  0.16950695  0.66569810  0.00181918  1
  O2-  O238  1  0.16395852  0.67219599  0.34492901  1
  O2-  O239  1  0.16551949  0.64619240  0.66180380  1
  O2-  O240  1  0.47713795  0.16478856  -0.01035607  1
  O2-  O241  1  0.49995125  0.15160796  0.32434989  1
  O2-  O242  1  0.49794801  0.14932425  0.66362889  1
  O2-  O243  1  0.49888367  0.65820143  0.00629774  1
  O2-  O244  1  0.50291022  0.66175181  0.34927170  1
  O2-  O245  1  0.50927437  0.63924018  0.66955441  1
  O2-  O246  1  0.83815336  0.14938847  0.00352247  1
  O2-  O247  1  0.83394697  0.13415197  0.33100939  1
  O2-  O248  1  0.82467403  0.19847223  0.66930671  1
  O2-  O249  1  0.82989000  0.64768870  -0.01047205  1
  O2-  O250  1  0.82525289  0.66021101  0.34196242  1
  O2-  O251  1  0.83660814  0.66162452  0.67355207  1
  O2-  O252  1  -0.00164593  0.35245128  -0.00078547  1
  O2-  O253  1  -0.00267169  0.35323512  0.33778601  1
  O2-  O254  1  -0.00104270  0.31531594  0.66866408  1
  O2-  O255  1  0.00782152  0.84638920  -0.00299825  1
  O2-  O256  1  0.00113518  0.82923812  0.33802175  1
  O2-  O257  1  0.00328829  0.84234583  0.66336556  1
  O2-  O258  1  0.33269956  0.35342231  -0.00144005  1
  O2-  O259  1  0.32933846  0.33973517  0.33210882  1
  O2-  O260  1  0.33159342  0.33809907  0.66660161  1
  O2-  O261  1  0.33072191  0.84014732  0.00243604  1
  O2-  O262  1  0.33459010  0.85201942  0.33331469  1
  O2-  O263  1  0.33078717  0.84889770  0.66902408  1
  O2-  O264  1  0.66170914  0.33759601  0.00459379  1
  O2-  O265  1  0.66507809  0.34236002  0.32937600  1
  O2-  O266  1  0.67020065  0.33339825  0.67317083  1
  O2-  O267  1  0.66708217  0.84786866  0.00060109  1
  O2-  O268  1  0.66661280  0.84337409  0.33330141  1
  O2-  O269  1  0.66710048  0.84466995  0.66812968  1
  O2-  O270  1  0.16455108  0.35223993  -0.00447451  1
  O2-  O271  1  0.16747014  0.34375320  0.32964432  1
  O2-  O272  1  0.16752251  0.32067839  0.67112973  1
  O2-  O273  1  0.16521736  0.83553548  -0.00078869  1
  O2-  O274  1  0.16515417  0.82496094  0.33376550  1
  O2-  O275  1  0.16606469  0.85894380  0.66941378  1
  O2-  O276  1  0.50092897  0.35267793  0.00493402  1
  O2-  O277  1  0.49798762  0.35203539  0.32678693  1
  O2-  O278  1  0.50572544  0.35269918  0.67561822  1
  O2-  O279  1  0.49733731  0.84723587  -0.00175374  1
  O2-  O280  1  0.49680765  0.84168373  0.33179164  1
  O2-  O281  1  0.49879230  0.84798165  0.66468052  1
  O2-  O282  1  0.82620461  0.32187159  0.00039952  1
  O2-  O283  1  0.83473302  0.34581186  0.33598280  1
  O2-  O284  1  0.83663509  0.32181143  0.67120249  1
  O2-  O285  1  0.83525855  0.85338989  0.00318171  1
  O2-  O286  1  0.83543034  0.85351582  0.33499184  1
  O2-  O287  1  0.83633395  0.83466182  0.66717892  1
  O2-  O288  1  -0.00187290  0.18350008  0.15836730  1
  O2-  O289  1  -0.00503731  0.19646352  0.51005283  1
  O2-  O290  1  -0.00464020  0.18144174  0.83401304  1
  O2-  O291  1  -0.00793599  0.67704355  0.14578575  1
  O2-  O292  1  0.00626642  0.68264820  0.49868683  1
  O2-  O293  1  0.00225799  0.68774676  0.83568852  1
  O2-  O294  1  0.33264754  0.18352616  0.16888701  1
  O2-  O295  1  0.32513204  0.17948966  0.49188120  1
  O2-  O296  1  0.33418807  0.17368274  0.82751852  1
  O2-  O297  1  0.33777872  0.68879551  0.15313171  1
  O2-  O298  1  0.32993932  0.68270711  0.50168822  1
  O2-  O299  1  0.33673087  0.68029765  0.83582483  1
  O2-  O300  1  0.66831125  0.19661540  0.16666651  1
  O2-  O301  1  0.66417672  0.18598605  0.50336050  1
  O2-  O302  1  0.66648845  0.18577072  0.82560635  1
  O2-  O303  1  0.66420229  0.67570215  0.15463874  1
  O2-  O304  1  0.65708804  0.68325404  0.49676683  1
  O2-  O305  1  0.66093327  0.68688682  0.82134819  1
  O2-  O306  1  0.16106580  0.19181843  0.17314896  1
  O2-  O307  1  0.17321421  0.18794224  0.49631851  1
  O2-  O308  1  0.15121640  0.19194367  0.83723114  1
  O2-  O309  1  0.15454521  0.68945187  0.16004381  1
  O2-  O310  1  0.16555563  0.68989263  0.50305224  1
  O2-  O311  1  0.16550310  0.67549533  0.83895536  1
  O2-  O312  1  0.49537707  0.18518275  0.16914296  1
  O2-  O313  1  0.50969329  0.17691829  0.49151158  1
  O2-  O314  1  0.49239515  0.17624064  0.82709220  1
  O2-  O315  1  0.50177024  0.67917691  0.15288300  1
  O2-  O316  1  0.48562256  0.68002774  0.51265751  1
  O2-  O317  1  0.50083667  0.67182425  0.82379164  1
  O2-  O318  1  0.82511082  0.19105838  0.16889922  1
  O2-  O319  1  0.84294547  0.17817785  0.49549457  1
  O2-  O320  1  0.82773119  0.18983985  0.83999714  1
  O2-  O321  1  0.82603699  0.67549338  0.16492079  1
  O2-  O322  1  0.84491075  0.66443062  0.49540772  1
  O2-  O323  1  0.83323419  0.69736796  0.82955415  1
  O2-  O324  1  0.00545111  0.32756243  0.17130177  1
  O2-  O325  1  -0.00634229  0.31673515  0.50215575  1
  O2-  O326  1  0.00693998  0.31334882  0.83451807  1
  O2-  O327  1  -0.00145219  0.81735516  0.16289058  1
  O2-  O328  1  0.00519177  0.81919434  0.49549635  1
  O2-  O329  1  -0.00026747  0.81676479  0.82905973  1
  O2-  O330  1  0.33409372  0.31673135  0.16636025  1
  O2-  O331  1  0.32991841  0.31395497  0.50077440  1
  O2-  O332  1  0.33320453  0.32391960  0.83210146  1
  O2-  O333  1  0.33825867  0.82896324  0.16579723  1
  O2-  O334  1  0.33585497  0.81896430  0.50580983  1
  O2-  O335  1  0.32827531  0.82640983  0.82895486  1
  O2-  O336  1  0.66917064  0.31501359  0.16869000  1
  O2-  O337  1  0.66166047  0.32222559  0.49700828  1
  O2-  O338  1  0.66374591  0.32892506  0.82936187  1
  O2-  O339  1  0.66329794  0.83017654  0.16372978  1
  O2-  O340  1  0.67549304  0.81335865  0.50616957  1
  O2-  O341  1  0.66824458  0.81836377  0.83466491  1
  O2-  O342  1  0.16743608  0.31564352  0.16130339  1
  O2-  O343  1  0.17177504  0.31467378  0.49484048  1
  O2-  O344  1  0.16523555  0.33087419  0.82931933  1
  O2-  O345  1  0.17056422  0.82213531  0.16437538  1
  O2-  O346  1  0.16159394  0.81607950  0.50183281  1
  O2-  O347  1  0.17136820  0.82487187  0.82760453  1
  O2-  O348  1  0.49318363  0.31905642  0.17013728  1
  O2-  O349  1  0.50400307  0.32282044  0.49679768  1
  O2-  O350  1  0.49664117  0.33645367  0.83502079  1
  O2-  O351  1  0.49705883  0.81850845  0.16427608  1
  O2-  O352  1  0.49873267  0.81615662  0.50419301  1
  O2-  O353  1  0.49862221  0.82508211  0.83509833  1
  O2-  O354  1  0.83281803  0.31965523  0.16866575  1
  O2-  O355  1  0.83634344  0.31478110  0.50496253  1
  O2-  O356  1  0.83142132  0.31353357  0.83197295  1
  O2-  O357  1  0.83153346  0.83142411  0.16676652  1
  O2-  O358  1  0.83888549  0.82350814  0.49501963  1
  O2-  O359  1  0.82889259  0.82237566  0.83392570  1
  O2-  O360  1  0.08493711  0.08444920  0.11549209  1
  O2-  O361  1  0.07343299  0.08591202  0.47293342  1
  O2-  O362  1  0.08470309  0.08463904  0.76360471  1
  O2-  O363  1  0.09137592  0.58097968  0.10827228  1
  O2-  O364  1  0.08416126  0.58322922  0.45391172  1
  O2-  O365  1  0.06867861  0.58422287  0.77618858  1
  O2-  O366  1  0.40477739  0.06914806  0.10314975  1
  O2-  O367  1  0.40455976  0.08068643  0.45457357  1
  O2-  O368  1  0.42701873  0.08199545  0.77207911  1
  O2-  O369  1  0.40056067  0.58319335  0.10679125  1
  O2-  O370  1  0.41396025  0.58235882  0.45124411  1
  O2-  O371  1  0.42577950  0.57884947  0.78693059  1
  O2-  O372  1  0.74149593  0.08654017  0.11661745  1
  O2-  O373  1  0.75384749  0.08055628  0.45711162  1
  O2-  O374  1  0.74577526  0.08488457  0.78838003  1
  O2-  O375  1  0.75671860  0.56012506  0.14077164  1
  O2-  O376  1  0.72537337  0.57812357  0.45654070  1
  O2-  O377  1  0.72846418  0.58667309  0.79473321  1
  O2-  O378  1  0.25195781  0.07102811  0.20348781  1
  O2-  O379  1  0.22558805  0.07883365  0.55542875  1
  O2-  O380  1  0.26850586  0.07775391  0.90845099  1
  O2-  O381  1  0.20731266  0.56900349  0.22748305  1
  O2-  O382  1  0.25048515  0.57620432  0.53745130  1
  O2-  O383  1  0.24736960  0.58225353  0.90157708  1
  O2-  O384  1  0.60110634  0.08558293  0.21109561  1
  O2-  O385  1  0.58437359  0.07719300  0.53589684  1
  O2-  O386  1  0.57739711  0.07595985  0.90011911  1
  O2-  O387  1  0.58922319  0.57911004  0.23873054  1
  O2-  O388  1  0.57240545  0.57576869  0.53625599  1
  O2-  O389  1  0.57486315  0.56083137  0.89306009  1
  O2-  O390  1  0.89363633  0.07300658  0.19610167  1
  O2-  O391  1  0.93826759  0.08174799  0.56027622  1
  O2-  O392  1  0.91469703  0.08291571  0.88273804  1
  O2-  O393  1  0.95218751  0.56948897  0.21749255  1
  O2-  O394  1  0.91845622  0.55769113  0.55313016  1
  O2-  O395  1  0.91071595  0.58670237  0.86984433  1
  O2-  O396  1  0.09704336  0.42228657  0.12017933  1
  O2-  O397  1  0.08451045  0.41630277  0.45766114  1
  O2-  O398  1  0.05209948  0.41459514  0.76450425  1
  O2-  O399  1  0.09960044  0.92025116  0.08866254  1
  O2-  O400  1  0.07072645  0.92031385  0.43732795  1
  O2-  O401  1  0.07402100  0.91629534  0.79145608  1
  O2-  O402  1  0.41145703  0.42194774  0.11418632  1
  O2-  O403  1  0.40449026  0.41508072  0.44933439  1
  O2-  O404  1  0.40023337  0.42084798  0.77532759  1
  O2-  O405  1  0.42876181  0.92433712  0.11230415  1
  O2-  O406  1  0.42279159  0.91619347  0.44876033  1
  O2-  O407  1  0.40552807  0.92518925  0.79233815  1
  O2-  O408  1  0.72882346  0.42421424  0.11609271  1
  O2-  O409  1  0.76015479  0.41614231  0.45003125  1
  O2-  O410  1  0.77198725  0.41875640  0.75912372  1
  O2-  O411  1  0.73760167  0.92348155  0.11412240  1
  O2-  O412  1  0.75129472  0.91424736  0.44741219  1
  O2-  O413  1  0.74254396  0.92562183  0.77873345  1
  O2-  O414  1  0.26669971  0.41758902  0.21982450  1
  O2-  O415  1  0.24561919  0.42457899  0.53861320  1
  O2-  O416  1  0.24615906  0.42430986  0.88050872  1
  O2-  O417  1  0.28075654  0.92587762  0.21831958  1
  O2-  O418  1  0.24859126  0.91705195  0.55029444  1
  O2-  O419  1  0.23933398  0.91558186  0.89426026  1
  O2-  O420  1  0.56971035  0.42285312  0.19929102  1
  O2-  O421  1  0.58630253  0.42629843  0.55182333  1
  O2-  O422  1  0.57942132  0.42158912  0.90932012  1
  O2-  O423  1  0.56039964  0.91715976  0.22421744  1
  O2-  O424  1  0.59017539  0.91561820  0.55279100  1
  O2-  O425  1  0.60211144  0.91670174  0.88219224  1
  O2-  O426  1  0.90392773  0.41931583  0.21438248  1
  O2-  O427  1  0.91538308  0.41234769  0.58075672  1
  O2-  O428  1  0.92310115  0.41603649  0.87193417  1
  O2-  O429  1  0.91371024  0.91691756  0.22217385  1
  O2-  O430  1  0.92154369  0.91279112  0.55526051  1
  O2-  O431  1  0.89027282  0.92297195  0.87471864  1
  O2-  O432  1  -0.00766523  -0.01941075  -0.00801833  1
  O2-  O433  1  -0.00172632  0.02291378  0.33623357  1
  O2-  O434  1  0.01089799  0.00070170  0.65737259  1
  O2-  O435  1  0.00684596  0.50788139  -0.01694779  1
  O2-  O436  1  0.00840582  0.48240436  0.32728283  1
  O2-  O437  1  -0.01208360  0.50964204  0.67461118  1
  O2-  O438  1  0.32250073  -0.01741521  0.01887900  1
  O2-  O439  1  0.32365658  0.01068949  0.34761667  1
  O2-  O440  1  0.32840022  -0.02001097  0.67903309  1
  O2-  O441  1  0.34236280  0.48867869  -0.00828967  1
  O2-  O442  1  0.33402893  0.48026765  0.33968976  1
  O2-  O443  1  0.34047190  0.50979778  0.65785203  1
  O2-  O444  1  0.68088033  -0.00876176  -0.02385725  1
  O2-  O445  1  0.66698621  0.01798292  0.33114936  1
  O2-  O446  1  0.66909454  0.00791066  0.66262877  1
  O2-  O447  1  0.66675903  0.50931995  0.02368456  1
  O2-  O448  1  0.65883556  0.49295192  0.34766685  1
  O2-  O449  1  0.65984621  0.51940444  0.68324093  1
  O2-  O450  1  0.13872703  0.01426525  -0.05604355  1
  O2-  O451  1  0.16848990  0.03443217  0.34424117  1
  O2-  O452  1  0.16529512  -0.00003816  0.67000378  1
  O2-  O453  1  0.16863653  0.49354580  -0.00185739  1
  O2-  O454  1  0.17800298  0.48486319  0.36451521  1
  O2-  O455  1  0.16350245  0.48905274  0.68219207  1
  O2-  O456  1  0.49121678  -0.01757012  -0.01529982  1
  O2-  O457  1  0.48921012  0.02027069  0.31725223  1
  O2-  O458  1  0.50531825  -0.01541711  0.67655278  1
  O2-  O459  1  0.51404823  0.50754497  0.04536029  1
  O2-  O460  1  0.49604613  0.48889682  0.32500151  1
  O2-  O461  1  0.50523230  0.51239539  0.67823272  1
  O2-  O462  1  0.84220234  0.00854667  0.00601078  1
  O2-  O463  1  0.83225251  0.00923426  0.34456148  1
  O2-  O464  1  0.83759429  -0.02274360  0.66203925  1
  O2-  O465  1  0.83759386  0.52232004  0.01214843  1
  O2-  O466  1  0.83243701  0.49116356  0.32728440  1
  O2-  O467  1  0.84612024  0.51690081  0.68266770  1
  O2-  O468  1  0.90126454  0.75394668  0.26422444  1
  O2-  O469  1  0.25094035  0.25889373  0.92976916  1
  O2-  O470  1  0.41373853  0.25638726  0.05207188  1
  O2-  O471  1  0.24820095  0.74960919  0.92920731  1
  O2-  O472  1  0.25180454  0.75167737  0.61990706  1
  O2-  O473  1  0.75184957  0.75629372  0.06865611  1
  O2-  O474  1  0.26406991  0.75548701  0.26018869  1
  O2-  O475  1  0.75374589  0.24745060  0.38939614  1
  O2-  O476  1  0.42373180  0.24811284  0.38272992  1
  O2-  O477  1  0.07647869  0.24982740  0.37728905  1
  O2-  O478  1  0.41170441  0.75139497  0.39410719  1
  O2-  O479  1  0.58508727  0.75369088  0.25970769  1
  O2-  O480  1  0.57222156  0.25192825  0.60512647  1
  O2-  O481  1  0.07377953  0.25085768  0.05532514  1
  O2-  O482  1  0.43073857  0.25441842  0.73519017  1
  O2-  O483  1  0.76118137  0.75308929  0.39919056  1
  O2-  O484  1  0.92213047  0.74317291  0.95615471  1
  O2-  O485  1  0.57665119  0.75352557  0.94333217  1
  O2-  O486  1  0.92697973  0.24757479  0.94526291  1
  O2-  O487  1  0.41794370  0.74370308  0.72387955  1
  O2-  O488  1  0.91600066  0.75110788  0.59405803  1
  O2-  O489  1  0.09588298  0.75063049  0.72682405  1
  O2-  O490  1  0.57201438  0.25727629  0.92123164  1
  O2-  O491  1  0.57551469  0.74529212  0.62173021  1
  O2-  O492  1  0.92348932  0.25005165  0.27919691  1
