# generated using pymatgen
data_Ca108Mn108O277
_symmetry_space_group_name_H-M   'P 1'
_cell_length_a   16.01070502
_cell_length_b   22.28475363
_cell_length_c   16.37602412
_cell_angle_alpha   89.99461485
_cell_angle_beta   90.00080654
_cell_angle_gamma   90.00147161
_symmetry_Int_Tables_number   1
_chemical_formula_structural   Ca108Mn108O277
_chemical_formula_sum   'Ca108 Mn108 O277'
_cell_volume   5842.87722316
_cell_formula_units_Z   1
loop_
 _symmetry_equiv_pos_site_id
 _symmetry_equiv_pos_as_xyz
  1  'x, y, z'
loop_
 _atom_type_symbol
 _atom_type_oxidation_number
  Ca2+  2.0
  Mn3.34+  3.34
  O2-  -2.0
loop_
 _atom_site_type_symbol
 _atom_site_label
 _atom_site_symmetry_multiplicity
 _atom_site_fract_x
 _atom_site_fract_y
 _atom_site_fract_z
 _atom_site_occupancy
  Ca2+  Ca0  1  0.08998364  0.23892440  0.22338499  1
  Ca2+  Ca1  1  0.08160806  0.26326928  0.58193306  1
  Ca2+  Ca2  1  0.08071080  0.24099007  0.94599255  1
  Ca2+  Ca3  1  0.10035687  0.75352148  0.23911702  1
  Ca2+  Ca4  1  0.09316582  0.75465023  0.59732054  1
  Ca2+  Ca5  1  0.09036515  0.74260686  0.91844695  1
  Ca2+  Ca6  1  0.42104424  0.23672656  0.25800146  1
  Ca2+  Ca7  1  0.40234214  0.25281460  0.57696892  1
  Ca2+  Ca8  1  0.42652497  0.25269468  0.91436894  1
  Ca2+  Ca9  1  0.41079557  0.75443544  0.23049373  1
  Ca2+  Ca10  1  0.42171599  0.75739409  0.59072752  1
  Ca2+  Ca11  1  0.40425830  0.75297821  0.92715988  1
  Ca2+  Ca12  1  0.74197555  0.23072036  0.24316039  1
  Ca2+  Ca13  1  0.76046260  0.25955306  0.57180055  1
  Ca2+  Ca14  1  0.74027564  0.24464975  0.93270874  1
  Ca2+  Ca15  1  0.74297316  0.75560248  0.24829921  1
  Ca2+  Ca16  1  0.74310945  0.75127943  0.56761258  1
  Ca2+  Ca17  1  0.75634613  0.75232056  0.93239449  1
  Ca2+  Ca18  1  0.23185927  0.24238147  0.09302703  1
  Ca2+  Ca19  1  0.26163209  0.24620840  0.39736158  1
  Ca2+  Ca20  1  0.25970803  0.25183206  0.76032265  1
  Ca2+  Ca21  1  0.25943440  0.74820050  0.07034013  1
  Ca2+  Ca22  1  0.26039704  0.75130636  0.40797269  1
  Ca2+  Ca23  1  0.25158812  0.75225489  0.77105769  1
  Ca2+  Ca24  1  0.59778222  0.23922954  0.08154468  1
  Ca2+  Ca25  1  0.58885171  0.24474317  0.39153863  1
  Ca2+  Ca26  1  0.57800010  0.23760657  0.78298046  1
  Ca2+  Ca27  1  0.57572037  0.75622937  0.07705733  1
  Ca2+  Ca28  1  0.59341372  0.75231076  0.41768743  1
  Ca2+  Ca29  1  0.57023615  0.75996493  0.75107051  1
  Ca2+  Ca30  1  0.91771506  0.24642860  0.08236817  1
  Ca2+  Ca31  1  0.90164539  0.24989255  0.41406152  1
  Ca2+  Ca32  1  0.91863285  0.25593697  0.75873043  1
  Ca2+  Ca33  1  0.91057497  0.74538255  0.06021071  1
  Ca2+  Ca34  1  0.90544516  0.75509673  0.41863141  1
  Ca2+  Ca35  1  0.93003236  0.74800256  0.77464869  1
  Ca2+  Ca36  1  0.25629443  0.58656501  0.07548488  1
  Ca2+  Ca37  1  0.87767254  0.60600475  0.42796733  1
  Ca2+  Ca38  1  0.09010362  0.59051404  0.59416945  1
  Ca2+  Ca39  1  0.57204673  0.59934349  0.75377988  1
  Ca2+  Ca40  1  0.58886377  0.59670856  0.07473006  1
  Ca2+  Ca41  1  0.39613761  0.58684051  0.94027677  1
  Ca2+  Ca42  1  0.24713765  0.58474796  0.07990994  1
  Ca2+  Ca43  1  0.09167937  0.59447907  0.93088090  1
  Ca2+  Ca44  1  0.74411026  0.08710450  0.58059063  1
  Ca2+  Ca45  1  0.07726329  0.58974963  0.59479133  1
  Ca2+  Ca46  1  0.23444389  0.09530000  0.08861730  1
  Ca2+  Ca47  1  0.43593414  0.08222745  0.92582197  1
  Ca2+  Ca48  1  0.76791531  0.59814574  0.94011518  1
  Ca2+  Ca49  1  0.89852207  0.09262440  0.75634893  1
  Ca2+  Ca50  1  0.26338605  0.09651544  0.38743624  1
  Ca2+  Ca51  1  0.75687531  0.08734656  0.57991212  1
  Ca2+  Ca52  1  0.90900686  0.09046666  0.75954844  1
  Ca2+  Ca53  1  0.44563406  0.08407863  0.92318235  1
  Ca2+  Ca54  1  0.91300616  0.60258464  0.06681743  1
  Ca2+  Ca55  1  0.23959701  0.60032664  0.77238479  1
  Ca2+  Ca56  1  0.25069359  0.60002960  0.77184750  1
  Ca2+  Ca57  1  0.26414885  0.08991025  0.76385155  1
  Ca2+  Ca58  1  0.76208704  0.60260430  0.94610258  1
  Ca2+  Ca59  1  0.41776034  0.09579394  0.58693016  1
  Ca2+  Ca60  1  0.58482024  0.59938802  0.75339934  1
  Ca2+  Ca61  1  0.90224718  0.09005708  0.36992498  1
  Ca2+  Ca62  1  0.71278681  0.08981214  0.93299188  1
  Ca2+  Ca63  1  0.91931365  0.10159194  0.10453045  1
  Ca2+  Ca64  1  0.58863278  0.09205854  0.38614957  1
  Ca2+  Ca65  1  0.07036316  0.08744719  0.58847927  1
  Ca2+  Ca66  1  0.08327249  0.08742176  0.58872299  1
  Ca2+  Ca67  1  0.08193832  0.10215415  0.23372625  1
  Ca2+  Ca68  1  0.90889069  0.10117307  0.10479211  1
  Ca2+  Ca69  1  0.92763262  0.60011575  0.76360014  1
  Ca2+  Ca70  1  0.41570649  0.59974486  0.58888381  1
  Ca2+  Ca71  1  0.25501153  0.08799534  0.76983210  1
  Ca2+  Ca72  1  0.25616561  0.40529984  0.40865512  1
  Ca2+  Ca73  1  0.91743409  0.90244688  0.75055127  1
  Ca2+  Ca74  1  0.07407007  0.89759518  0.58527362  1
  Ca2+  Ca75  1  0.10146597  0.40917656  0.23750239  1
  Ca2+  Ca76  1  0.25275586  0.42324040  0.07273436  1
  Ca2+  Ca77  1  0.07696395  0.40769519  0.58953458  1
  Ca2+  Ca78  1  0.25020198  0.40687440  0.76579467  1
  Ca2+  Ca79  1  0.90144206  0.40271611  0.42393885  1
  Ca2+  Ca80  1  0.58242626  0.39586909  0.76214286  1
  Ca2+  Ca81  1  0.26797784  0.91682718  0.06505378  1
  Ca2+  Ca82  1  0.89933476  0.91479956  0.09208001  1
  Ca2+  Ca83  1  0.43142991  0.91158432  0.23400074  1
  Ca2+  Ca84  1  0.57935214  0.90578248  0.76623580  1
  Ca2+  Ca85  1  0.73906148  0.91779542  0.93484470  1
  Ca2+  Ca86  1  0.23764896  0.40617070  0.76540027  1
  Ca2+  Ca87  1  0.59532881  0.39526732  0.76250313  1
  Ca2+  Ca88  1  0.25405269  0.90089615  0.41199526  1
  Ca2+  Ca89  1  0.58259606  0.93020174  0.07903088  1
  Ca2+  Ca90  1  0.59528985  0.39756586  0.41896379  1
  Ca2+  Ca91  1  0.24125459  0.90050412  0.41143919  1
  Ca2+  Ca92  1  0.41088631  0.40512965  0.24035605  1
  Ca2+  Ca93  1  0.08890828  0.40999139  0.23673408  1
  Ca2+  Ca94  1  0.59834031  0.90791610  0.40541646  1
  Ca2+  Ca95  1  0.90454872  0.90159551  0.75055890  1
  Ca2+  Ca96  1  0.07262410  0.90637604  0.24065336  1
  Ca2+  Ca97  1  0.58074602  0.40151810  0.07768313  1
  Ca2+  Ca98  1  0.26045673  0.90546854  0.77134320  1
  Ca2+  Ca99  1  0.42872665  0.90273867  0.59148370  1
  Ca2+  Ca100  1  0.91416030  0.40001979  0.75378491  1
  Ca2+  Ca101  1  0.74993131  0.39457508  0.24803211  1
  Ca2+  Ca102  1  0.91382898  0.40436887  0.07597295  1
  Ca2+  Ca103  1  0.24610776  0.40791424  0.41318334  1
  Ca2+  Ca104  1  0.41780472  0.39816350  0.58367582  1
  Ca2+  Ca105  1  0.09625418  0.90650588  0.92195402  1
  Ca2+  Ca106  1  0.26315745  0.42329135  0.07068522  1
  Ca2+  Ca107  1  0.08460450  0.41622345  0.93324481  1
  Mn3.34+  Mn108  1  0.08168896  0.33357568  0.08235160  1
  Mn3.34+  Mn109  1  0.07830272  0.33477768  0.41725887  1
  Mn3.34+  Mn110  1  0.08026497  0.33531242  0.75564105  1
  Mn3.34+  Mn111  1  0.08049017  0.83485178  0.08439802  1
  Mn3.34+  Mn112  1  0.07592693  0.82471716  0.41593448  1
  Mn3.34+  Mn113  1  0.08536379  0.83304110  0.75272939  1
  Mn3.34+  Mn114  1  0.41683407  0.33900333  0.08369820  1
  Mn3.34+  Mn115  1  0.42325928  0.33139650  0.41630636  1
  Mn3.34+  Mn116  1  0.41728784  0.32916417  0.75170407  1
  Mn3.34+  Mn117  1  0.42058542  0.83984887  0.08062717  1
  Mn3.34+  Mn118  1  0.42367050  0.83433360  0.41603790  1
  Mn3.34+  Mn119  1  0.41725189  0.83444640  0.75503530  1
  Mn3.34+  Mn120  1  0.75062376  0.33133234  0.08363129  1
  Mn3.34+  Mn121  1  0.74785717  0.33263991  0.41778704  1
  Mn3.34+  Mn122  1  0.75076091  0.32339629  0.75222021  1
  Mn3.34+  Mn123  1  0.74793107  0.83939432  0.08936967  1
  Mn3.34+  Mn124  1  0.75638819  0.83970366  0.41351257  1
  Mn3.34+  Mn125  1  0.74755453  0.83073583  0.75108288  1
  Mn3.34+  Mn126  1  0.25304881  0.33023661  0.24304535  1
  Mn3.34+  Mn127  1  0.24855194  0.33478547  0.58189182  1
  Mn3.34+  Mn128  1  0.25138445  0.33206770  0.92085382  1
  Mn3.34+  Mn129  1  0.25156405  0.83223458  0.24142978  1
  Mn3.34+  Mn130  1  0.25150257  0.82977543  0.58566970  1
  Mn3.34+  Mn131  1  0.25118467  0.83425036  0.91970322  1
  Mn3.34+  Mn132  1  0.58250791  0.32800475  0.24489713  1
  Mn3.34+  Mn133  1  0.58657341  0.32829560  0.58349052  1
  Mn3.34+  Mn134  1  0.58443705  0.32949667  0.92410625  1
  Mn3.34+  Mn135  1  0.58727896  0.84049897  0.24511483  1
  Mn3.34+  Mn136  1  0.59007033  0.83358602  0.58119080  1
  Mn3.34+  Mn137  1  0.58351810  0.83657375  0.91891858  1
  Mn3.34+  Mn138  1  0.91588287  0.32652175  0.24829426  1
  Mn3.34+  Mn139  1  0.91336570  0.33452461  0.58384414  1
  Mn3.34+  Mn140  1  0.91272272  0.33243931  0.91769920  1
  Mn3.34+  Mn141  1  0.91232485  0.83661399  0.24845554  1
  Mn3.34+  Mn142  1  0.91081428  0.82908083  0.57930487  1
  Mn3.34+  Mn143  1  0.91625627  0.83087648  0.91997985  1
  Mn3.34+  Mn144  1  0.90819709  0.67850538  0.24624005  1
  Mn3.34+  Mn145  1  0.57663502  0.17246563  0.58591526  1
  Mn3.34+  Mn146  1  0.25131642  0.16498368  0.92490287  1
  Mn3.34+  Mn147  1  0.91504518  0.67043925  0.57992271  1
  Mn3.34+  Mn148  1  0.42193518  0.66245871  0.41300666  1
  Mn3.34+  Mn149  1  0.57885387  0.67040810  0.91993874  1
  Mn3.34+  Mn150  1  0.08501529  0.66018870  0.08708834  1
  Mn3.34+  Mn151  1  0.24978888  0.66024319  0.24325620  1
  Mn3.34+  Mn152  1  0.41861153  0.16793505  0.41240613  1
  Mn3.34+  Mn153  1  0.41460945  0.66366242  0.08651312  1
  Mn3.34+  Mn154  1  0.41114744  0.66683560  0.41203394  1
  Mn3.34+  Mn155  1  0.07699844  0.17004466  0.41167602  1
  Mn3.34+  Mn156  1  0.92096479  0.67175435  0.24611041  1
  Mn3.34+  Mn157  1  0.75620114  0.67640048  0.74783618  1
  Mn3.34+  Mn158  1  0.58997980  0.67090220  0.57266949  1
  Mn3.34+  Mn159  1  0.08973687  0.17212366  0.75640299  1
  Mn3.34+  Mn160  1  0.08137006  0.67006516  0.75658744  1
  Mn3.34+  Mn161  1  0.75214161  0.16679362  0.40832409  1
  Mn3.34+  Mn162  1  0.74628519  0.16972277  0.75679693  1
  Mn3.34+  Mn163  1  0.42029750  0.16554953  0.75738306  1
  Mn3.34+  Mn164  1  0.91422739  0.16625919  0.92371901  1
  Mn3.34+  Mn165  1  0.08087136  0.67759325  0.41352025  1
  Mn3.34+  Mn166  1  0.25143053  0.66735818  0.58382566  1
  Mn3.34+  Mn167  1  0.08644203  0.16439570  0.41174339  1
  Mn3.34+  Mn168  1  0.74116468  0.15811855  0.09176153  1
  Mn3.34+  Mn169  1  0.08971428  0.67141453  0.41396322  1
  Mn3.34+  Mn170  1  0.59042052  0.17386518  0.58111097  1
  Mn3.34+  Mn171  1  0.59596707  0.66761276  0.24871906  1
  Mn3.34+  Mn172  1  0.74687278  0.68229481  0.74754156  1
  Mn3.34+  Mn173  1  0.41530207  0.67068667  0.75397610  1
  Mn3.34+  Mn174  1  0.41734881  0.16272240  0.09171125  1
  Mn3.34+  Mn175  1  0.07937019  0.16699460  0.75839391  1
  Mn3.34+  Mn176  1  0.25265311  0.16895498  0.58011836  1
  Mn3.34+  Mn177  1  0.42629056  0.15668690  0.09230928  1
  Mn3.34+  Mn178  1  0.58473491  0.67083806  0.24734657  1
  Mn3.34+  Mn179  1  0.91229573  0.16799295  0.57911977  1
  Mn3.34+  Mn180  1  0.42834506  -0.00148640  0.74947415  1
  Mn3.34+  Mn181  1  0.75063848  -0.00111186  0.39324629  1
  Mn3.34+  Mn182  1  0.07841602  0.50071667  0.41531609  1
  Mn3.34+  Mn183  1  0.42196126  0.49691581  0.41518724  1
  Mn3.34+  Mn184  1  0.58519340  -0.00261069  0.58654027  1
  Mn3.34+  Mn185  1  0.06158186  -0.00399832  0.40863183  1
  Mn3.34+  Mn186  1  0.74890809  0.49670014  0.75490952  1
  Mn3.34+  Mn187  1  0.91371561  -0.00296590  0.58133303  1
  Mn3.34+  Mn188  1  0.26011162  -0.00317734  0.58048098  1
  Mn3.34+  Mn189  1  0.25047120  0.00098207  0.24728026  1
  Mn3.34+  Mn190  1  0.91622233  0.50629312  0.24408013  1
  Mn3.34+  Mn191  1  0.91165712  0.00035482  0.92769082  1
  Mn3.34+  Mn192  1  0.74824944  0.50044544  0.08269172  1
  Mn3.34+  Mn193  1  0.59160991  0.49824569  0.24811392  1
  Mn3.34+  Mn194  1  0.58264335  0.50598913  0.57197556  1
  Mn3.34+  Mn195  1  0.92026161  0.49786410  0.92555961  1
  Mn3.34+  Mn196  1  0.25237035  0.50288466  0.58061456  1
  Mn3.34+  Mn197  1  0.08187870  -0.00116355  0.75765211  1
  Mn3.34+  Mn198  1  0.58139707  0.50299253  0.24668641  1
  Mn3.34+  Mn199  1  0.42088899  0.00366147  0.41442145  1
  Mn3.34+  Mn200  1  0.91347812  0.50140261  0.58244672  1
  Mn3.34+  Mn201  1  0.24875199  0.00149692  0.58016002  1
  Mn3.34+  Mn202  1  0.76000102  0.50084703  0.75845263  1
  Mn3.34+  Mn203  1  0.74743076  0.50074673  0.41961863  1
  Mn3.34+  Mn204  1  0.08906226  0.00041070  0.06686933  1
  Mn3.34+  Mn205  1  0.57502588  0.49932244  0.92910127  1
  Mn3.34+  Mn206  1  0.40800349  0.50307701  0.41399323  1
  Mn3.34+  Mn207  1  0.43228721  -0.00071852  0.41130262  1
  Mn3.34+  Mn208  1  0.07976222  0.50112230  0.75236947  1
  Mn3.34+  Mn209  1  0.74074556  0.00078340  0.75010640  1
  Mn3.34+  Mn210  1  0.07640027  -0.00724285  0.41233973  1
  Mn3.34+  Mn211  1  0.42226758  0.49703333  0.76183946  1
  Mn3.34+  Mn212  1  0.59660272  0.50020722  0.57326070  1
  Mn3.34+  Mn213  1  0.41158446  0.50086515  0.76008452  1
  Mn3.34+  Mn214  1  0.09270679  0.50668317  0.41316906  1
  Mn3.34+  Mn215  1  0.90507214  0.50086145  0.24423785  1
  O2-  O216  1  -0.01237502  0.16105554  0.00568828  1
  O2-  O217  1  -0.00223667  0.16887925  0.33191904  1
  O2-  O218  1  -0.00290163  0.15269995  0.66471756  1
  O2-  O219  1  0.00695012  0.66896727  0.00908877  1
  O2-  O220  1  -0.00426807  0.67392716  0.33247095  1
  O2-  O221  1  0.00501503  0.66243806  0.66096712  1
  O2-  O222  1  0.34117343  0.16831938  0.00155309  1
  O2-  O223  1  0.33644388  0.16815856  0.34019504  1
  O2-  O224  1  0.32920900  0.15206747  0.67430728  1
  O2-  O225  1  0.33089781  0.66153555  0.00888613  1
  O2-  O226  1  0.33301854  0.66467264  0.33174758  1
  O2-  O227  1  0.33184199  0.65370181  0.67249349  1
  O2-  O228  1  0.67357161  0.16844864  0.00431467  1
  O2-  O229  1  0.66866056  0.16506664  0.33846410  1
  O2-  O230  1  0.67267352  0.17355462  0.66210564  1
  O2-  O231  1  0.66538970  0.66271230  -0.00831640  1
  O2-  O232  1  0.66821671  0.67844969  0.33113704  1
  O2-  O233  1  0.66221556  0.66448925  0.67049122  1
  O2-  O234  1  0.17471968  0.16534049  0.00188960  1
  O2-  O235  1  0.16746981  0.16108958  0.33273216  1
  O2-  O236  1  0.16338030  0.15340704  0.66124743  1
  O2-  O237  1  0.16398880  0.66627239  0.00857618  1
  O2-  O238  1  0.16910827  0.67370939  0.33089843  1
  O2-  O239  1  0.16510890  0.65741077  0.66911889  1
  O2-  O240  1  0.49465047  0.16818368  0.00276641  1
  O2-  O241  1  0.50119311  0.16680880  0.34142039  1
  O2-  O242  1  0.49637572  0.16656935  0.66354116  1
  O2-  O243  1  0.49897136  0.65824566  0.00017442  1
  O2-  O244  1  0.50353872  0.66254418  0.32957051  1
  O2-  O245  1  0.50148433  0.65718827  0.66957023  1
  O2-  O246  1  0.83080483  0.16288578  -0.00406918  1
  O2-  O247  1  0.83614728  0.17415839  0.33849994  1
  O2-  O248  1  0.83064669  0.15630249  0.66918633  1
  O2-  O249  1  0.83002178  0.66905802  0.00108850  1
  O2-  O250  1  0.83801322  0.67960219  0.33395967  1
  O2-  O251  1  0.84166256  0.67837120  0.66951606  1
  O2-  O252  1  0.00225331  0.34297473  -0.00111672  1
  O2-  O253  1  0.00158387  0.33519816  0.32891254  1
  O2-  O254  1  -0.00042547  0.34227177  0.66749209  1
  O2-  O255  1  0.00119930  0.83545089  -0.00127178  1
  O2-  O256  1  0.00085224  0.81403391  0.32801810  1
  O2-  O257  1  -0.00315329  0.83098285  0.66883685  1
  O2-  O258  1  0.32996767  0.33156622  0.00652548  1
  O2-  O259  1  0.33057422  0.34418009  0.33311087  1
  O2-  O260  1  0.33099587  0.34287548  0.66818968  1
  O2-  O261  1  0.32969591  0.83395163  0.00409343  1
  O2-  O262  1  0.33068136  0.84259103  0.33539949  1
  O2-  O263  1  0.33627371  0.84004646  0.66646824  1
  O2-  O264  1  0.66454196  0.33840689  0.00541641  1
  O2-  O265  1  0.66616844  0.33964611  0.33263443  1
  O2-  O266  1  0.66234463  0.31817733  0.67278500  1
  O2-  O267  1  0.67196436  0.82662108  0.00173079  1
  O2-  O268  1  0.66634181  0.82845655  0.33704600  1
  O2-  O269  1  0.66546087  0.82366834  0.67141231  1
  O2-  O270  1  0.16792246  0.34430312  0.00365525  1
  O2-  O271  1  0.16834946  0.34890040  0.33102720  1
  O2-  O272  1  0.16710300  0.34586835  0.66945002  1
  O2-  O273  1  0.16409831  0.83169190  0.00063971  1
  O2-  O274  1  0.16649522  0.83590713  0.33536230  1
  O2-  O275  1  0.16318305  0.84156006  0.66570723  1
  O2-  O276  1  0.49882159  0.32894257  0.00411844  1
  O2-  O277  1  0.50262141  0.34146792  0.33233062  1
  O2-  O278  1  0.50330514  0.33847576  0.66807512  1
  O2-  O279  1  0.50512564  0.83469383  0.00327740  1
  O2-  O280  1  0.50147114  0.84157011  0.33333599  1
  O2-  O281  1  0.50150384  0.83902948  0.66985278  1
  O2-  O282  1  0.83844638  0.33582087  0.00585740  1
  O2-  O283  1  0.83605729  0.33290921  0.33527696  1
  O2-  O284  1  0.83488288  0.32452101  0.67094110  1
  O2-  O285  1  0.83159658  0.83195180  0.00216714  1
  O2-  O286  1  0.83299973  0.81270887  0.32943535  1
  O2-  O287  1  0.83843835  0.82079986  0.67396421  1
  O2-  O288  1  -0.00306389  0.17288990  0.16952864  1
  O2-  O289  1  0.00505796  0.16832743  0.50257711  1
  O2-  O290  1  -0.01095777  0.16878184  0.83086668  1
  O2-  O291  1  0.00201888  0.68585239  0.16679585  1
  O2-  O292  1  0.00251577  0.68449193  0.50121536  1
  O2-  O293  1  0.00272118  0.66989035  0.83194698  1
  O2-  O294  1  0.33414330  0.17992530  0.16039398  1
  O2-  O295  1  0.33639192  0.17326836  0.50404561  1
  O2-  O296  1  0.33177085  0.17183650  0.83077394  1
  O2-  O297  1  0.33120300  0.67638119  0.16481538  1
  O2-  O298  1  0.33669304  0.67237446  0.50393483  1
  O2-  O299  1  0.33432735  0.66884608  0.82982224  1
  O2-  O300  1  0.66800830  0.16890056  0.16452658  1
  O2-  O301  1  0.67034621  0.17171910  0.50440744  1
  O2-  O302  1  0.67601499  0.18243029  0.83654195  1
  O2-  O303  1  0.66359010  0.68000207  0.15995738  1
  O2-  O304  1  0.66551523  0.68542804  0.49841183  1
  O2-  O305  1  0.66262084  0.67272333  0.83074996  1
  O2-  O306  1  0.16393933  0.16956227  0.16305916  1
  O2-  O307  1  0.15968121  0.16792268  0.50098065  1
  O2-  O308  1  0.18133248  0.16655158  0.82990627  1
  O2-  O309  1  0.16824404  0.68237812  0.16294459  1
  O2-  O310  1  0.16097533  0.67809270  0.50706438  1
  O2-  O311  1  0.16543112  0.67189525  0.83053390  1
  O2-  O312  1  0.50080728  0.18479454  0.16453389  1
  O2-  O313  1  0.49715127  0.17798293  0.50483610  1
  O2-  O314  1  0.49148953  0.16801716  0.84075981  1
  O2-  O315  1  0.50508881  0.67055241  0.16599253  1
  O2-  O316  1  0.49274843  0.67357897  0.50297821  1
  O2-  O317  1  0.50443378  0.66972902  0.82842587  1
  O2-  O318  1  0.83662396  0.17937361  0.15616885  1
  O2-  O319  1  0.82527657  0.16837577  0.50501792  1
  O2-  O320  1  0.84072846  0.17709956  0.82347098  1
  O2-  O321  1  0.83762481  0.68730792  0.16284952  1
  O2-  O322  1  0.83992487  0.68815991  0.50240039  1
  O2-  O323  1  0.83042787  0.67535890  0.83401006  1
  O2-  O324  1  0.00351525  0.32796209  0.16938836  1
  O2-  O325  1  -0.00081472  0.32910251  0.50435406  1
  O2-  O326  1  -0.00274628  0.33016379  0.83200544  1
  O2-  O327  1  0.00043532  0.81463401  0.16693272  1
  O2-  O328  1  0.00336693  0.81015653  0.50698973  1
  O2-  O329  1  -0.00317087  0.83244143  0.82981659  1
  O2-  O330  1  0.33523414  0.32235359  0.16497837  1
  O2-  O331  1  0.33122340  0.33111119  0.49605079  1
  O2-  O332  1  0.32722408  0.33100828  0.82784464  1
  O2-  O333  1  0.33578756  0.83047271  0.16664816  1
  O2-  O334  1  0.32985877  0.83139656  0.49395453  1
  O2-  O335  1  0.33104125  0.82719023  0.83054323  1
  O2-  O336  1  0.66692934  0.33022767  0.16591939  1
  O2-  O337  1  0.66159379  0.31810233  0.49759347  1
  O2-  O338  1  0.66214252  0.32314326  0.83006012  1
  O2-  O339  1  0.66572922  0.81941838  0.16241068  1
  O2-  O340  1  0.66605952  0.82194576  0.49355935  1
  O2-  O341  1  0.66811500  0.82026029  0.83248600  1
  O2-  O342  1  0.16269680  0.32751171  0.16836575  1
  O2-  O343  1  0.16784502  0.33573858  0.49737137  1
  O2-  O344  1  0.17049293  0.32782265  0.82985506  1
  O2-  O345  1  0.16426854  0.82450269  0.16554454  1
  O2-  O346  1  0.16853635  0.82215947  0.49427637  1
  O2-  O347  1  0.16563410  0.82923525  0.83304356  1
  O2-  O348  1  0.49632227  0.32522492  0.16550932  1
  O2-  O349  1  0.49770344  0.32165419  0.50876363  1
  O2-  O350  1  0.50498892  0.32765199  0.83032111  1
  O2-  O351  1  0.49848781  0.82851394  0.16748535  1
  O2-  O352  1  0.49766164  0.82781727  0.50321550  1
  O2-  O353  1  0.50418444  0.82979788  0.82986206  1
  O2-  O354  1  0.83449785  0.32339935  0.16736555  1
  O2-  O355  1  0.83729208  0.32602747  0.49666853  1
  O2-  O356  1  0.83591878  0.32161779  0.82934953  1
  O2-  O357  1  0.83494306  0.81797926  0.16242251  1
  O2-  O358  1  0.83022979  0.81389428  0.49977170  1
  O2-  O359  1  0.83684023  0.82460358  0.82945814  1
  O2-  O360  1  0.07548269  0.07092808  0.10706154  1
  O2-  O361  1  0.08192778  0.07704288  0.45065680  1
  O2-  O362  1  0.09095977  0.08144133  0.76843412  1
  O2-  O363  1  0.08972399  0.58275110  0.09317250  1
  O2-  O364  1  0.07836110  0.58574120  0.44694011  1
  O2-  O365  1  0.08572390  0.58440710  0.76325380  1
  O2-  O366  1  0.40387252  0.07650304  0.08289036  1
  O2-  O367  1  0.41627013  0.08411204  0.44479692  1
  O2-  O368  1  0.40684743  0.07933376  0.77812862  1
  O2-  O369  1  0.40513354  0.58371915  0.09027674  1
  O2-  O370  1  0.41981201  0.58089942  0.44705543  1
  O2-  O371  1  0.42877026  0.58344206  0.76834794  1
  O2-  O372  1  0.77308706  0.08247809  0.08958933  1
  O2-  O373  1  0.75200351  0.07263185  0.44596111  1
  O2-  O374  1  0.75906160  0.08119309  0.77701287  1
  O2-  O375  1  0.74970787  0.57994525  0.08631529  1
  O2-  O376  1  0.75441940  0.57422737  0.45039325  1
  O2-  O377  1  0.74408391  0.58501254  0.77289073  1
  O2-  O378  1  0.23685277  0.07703943  0.22657040  1
  O2-  O379  1  0.24285829  0.08253131  0.55683696  1
  O2-  O380  1  0.27026106  0.08096386  0.89884645  1
  O2-  O381  1  0.24564439  0.58188362  0.21685141  1
  O2-  O382  1  0.23536958  0.58506147  0.56694249  1
  O2-  O383  1  0.25083055  0.56793646  0.89048862  1
  O2-  O384  1  0.58258908  0.08301876  0.24894963  1
  O2-  O385  1  0.59481772  0.07995215  0.55466031  1
  O2-  O386  1  0.57487339  0.06870732  0.90498768  1
  O2-  O387  1  0.58831591  0.58468484  0.22624871  1
  O2-  O388  1  0.58064035  0.58673731  0.57225791  1
  O2-  O389  1  0.58465785  0.57911471  0.88758766  1
  O2-  O390  1  0.93126638  0.07592013  0.23027480  1
  O2-  O391  1  0.91619332  0.08027303  0.55733540  1
  O2-  O392  1  0.91074819  0.07966523  0.89248016  1
  O2-  O393  1  0.91036766  0.58719320  0.22513587  1
  O2-  O394  1  0.93805542  0.58225104  0.55467476  1
  O2-  O395  1  0.89998074  0.57424028  0.89164897  1
  O2-  O396  1  0.08747619  0.41983908  0.10475970  1
  O2-  O397  1  0.07898095  0.41956485  0.43994461  1
  O2-  O398  1  0.09416765  0.41919989  0.77216286  1
  O2-  O399  1  0.08291221  0.92551347  0.10718865  1
  O2-  O400  1  0.09520325  0.91381670  0.44139542  1
  O2-  O401  1  0.06917216  0.91643186  0.76123701  1
  O2-  O402  1  0.40310628  0.41993315  0.10536440  1
  O2-  O403  1  0.42080033  0.41644231  0.44266403  1
  O2-  O404  1  0.42102972  0.41454546  0.75912838  1
  O2-  O405  1  0.41621336  0.91992019  0.09927531  1
  O2-  O406  1  0.40868088  0.91826880  0.43942861  1
  O2-  O407  1  0.41620780  0.91741239  0.75932762  1
  O2-  O408  1  0.75335386  0.41893073  0.10907269  1
  O2-  O409  1  0.74933838  0.41724665  0.43366451  1
  O2-  O410  1  0.73601769  0.41388354  0.75919242  1
  O2-  O411  1  0.74811919  0.91775859  0.08671006  1
  O2-  O412  1  0.74128815  0.92809491  0.43614686  1
  O2-  O413  1  0.76454610  0.92025388  0.77146629  1
  O2-  O414  1  0.24063271  0.41941520  0.21471622  1
  O2-  O415  1  0.25501957  0.42034619  0.55602131  1
  O2-  O416  1  0.24209727  0.41723149  0.89905390  1
  O2-  O417  1  0.24558532  0.91808353  0.23487692  1
  O2-  O418  1  0.24684592  0.91508253  0.56073554  1
  O2-  O419  1  0.23613222  0.91778846  0.90404231  1
  O2-  O420  1  0.57960479  0.41626832  0.22558865  1
  O2-  O421  1  0.58073417  0.41812324  0.56417950  1
  O2-  O422  1  0.58197977  0.41934265  0.89449827  1
  O2-  O423  1  0.57765204  0.91892591  0.23019865  1
  O2-  O424  1  0.57733837  0.91752836  0.56164549  1
  O2-  O425  1  0.59960162  0.91560768  0.90249509  1
  O2-  O426  1  0.92045287  0.41864131  0.22898504  1
  O2-  O427  1  0.92260380  0.41908972  0.56525420  1
  O2-  O428  1  0.92225889  0.41906777  0.89520104  1
  O2-  O429  1  0.93174515  0.91488005  0.22613897  1
  O2-  O430  1  0.92844373  0.91585086  0.59104068  1
  O2-  O431  1  0.91445135  0.92109493  0.88935004  1
  O2-  O432  1  -0.00237624  -0.00500302  0.00470964  1
  O2-  O433  1  -0.00058449  0.01287974  0.32317575  1
  O2-  O434  1  0.00333207  0.01615714  0.66122439  1
  O2-  O435  1  0.00779634  0.50344247  -0.01353369  1
  O2-  O436  1  0.00228819  0.50003227  0.32626060  1
  O2-  O437  1  0.00932368  0.50663997  0.65528790  1
  O2-  O438  1  0.34375725  0.01255712  -0.00467313  1
  O2-  O439  1  0.32628624  0.00005840  0.34078332  1
  O2-  O440  1  0.32420182  0.00827797  0.68083467  1
  O2-  O441  1  0.31677632  0.50543646  0.02565812  1
  O2-  O442  1  0.32580064  0.47946824  0.34140350  1
  O2-  O443  1  0.33314601  0.50332411  0.67357124  1
  O2-  O444  1  0.66336383  -0.00122403  -0.01041363  1
  O2-  O445  1  0.65793061  0.00467909  0.34863516  1
  O2-  O446  1  0.68109456  0.01093040  0.65010802  1
  O2-  O447  1  0.66824458  0.50827466  -0.00520535  1
  O2-  O448  1  0.66527132  0.49313872  0.33635154  1
  O2-  O449  1  0.65904494  0.50700804  0.67644209  1
  O2-  O450  1  0.17902423  -0.00189818  0.01400913  1
  O2-  O451  1  0.16691401  -0.00307146  0.33585845  1
  O2-  O452  1  0.16212908  0.00895170  0.66119277  1
  O2-  O453  1  0.17996705  0.50095968  0.02397947  1
  O2-  O454  1  0.16566583  0.47840267  0.33227558  1
  O2-  O455  1  0.16870223  0.50209070  0.66876471  1
  O2-  O456  1  0.50261038  0.00702912  -0.00937340  1
  O2-  O457  1  0.50833519  0.00486495  0.32893293  1
  O2-  O458  1  0.48756220  0.00318583  0.64887806  1
  O2-  O459  1  0.50065589  0.50844537  0.00103390  1
  O2-  O460  1  0.49466941  0.49756436  0.32500852  1
  O2-  O461  1  0.50184276  0.50204169  0.66727800  1
  O2-  O462  1  0.83067549  -0.00323486  -0.00540982  1
  O2-  O463  1  0.83677284  0.00511779  0.34008608  1
  O2-  O464  1  0.84183053  0.01237906  0.67834996  1
  O2-  O465  1  0.83796109  0.50526969  0.00351229  1
  O2-  O466  1  0.83920794  0.49773606  0.34346097  1
  O2-  O467  1  0.84413146  0.50391567  0.67801989  1
  O2-  O468  1  0.41154710  0.25137464  0.40982692  1
  O2-  O469  1  0.25269641  0.74880959  0.59728047  1
  O2-  O470  1  0.08288500  0.25350932  0.07699903  1
  O2-  O471  1  0.24827626  0.24926534  0.91775536  1
  O2-  O472  1  0.92530057  0.24985452  0.92511441  1
  O2-  O473  1  0.24462982  0.25310936  0.26113610  1
  O2-  O474  1  0.74769924  0.25102902  0.07527688  1
  O2-  O475  1  0.92290735  0.24986376  0.58922372  1
  O2-  O476  1  0.57204889  0.75008924  0.59501816  1
  O2-  O477  1  0.08113516  0.25365232  0.73134740  1
  O2-  O478  1  0.24694256  0.25157457  0.59728393  1
  O2-  O479  1  0.41953004  0.75030050  0.07782772  1
  O2-  O480  1  0.58757639  0.25135145  0.25692480  1
  O2-  O481  1  0.58113224  0.25142418  0.92422875  1
  O2-  O482  1  0.25687312  0.75192754  0.26179396  1
  O2-  O483  1  0.57241545  0.75314982  0.25728095  1
  O2-  O484  1  0.91967007  0.75311181  0.91899290  1
  O2-  O485  1  0.41158372  0.24818837  0.74010395  1
  O2-  O486  1  0.41745962  0.75108556  0.73736026  1
  O2-  O487  1  0.09291923  0.25405700  0.41980115  1
  O2-  O488  1  0.25210291  0.75341657  0.91870548  1
  O2-  O489  1  0.57783900  0.75029627  0.92264823  1
  O2-  O490  1  0.41382415  0.75171553  0.40953913  1
  O2-  O491  1  0.75030353  0.25053537  0.41627416  1
  O2-  O492  1  0.08527982  0.75106387  0.74035155  1
