# generated using pymatgen
data_Ca108Mn108O277
_symmetry_space_group_name_H-M   'P 1'
_cell_length_a   16.02545946
_cell_length_b   22.30404848
_cell_length_c   16.38671038
_cell_angle_alpha   89.99947494
_cell_angle_beta   90.00192163
_cell_angle_gamma   89.99526856
_symmetry_Int_Tables_number   1
_chemical_formula_structural   Ca108Mn108O277
_chemical_formula_sum   'Ca108 Mn108 O277'
_cell_volume   5857.14487800
_cell_formula_units_Z   1
loop_
 _symmetry_equiv_pos_site_id
 _symmetry_equiv_pos_as_xyz
  1  'x, y, z'
loop_
 _atom_type_symbol
 _atom_type_oxidation_number
  Ca2+  2.0
  Mn3.34+  3.34
  O2-  -2.0
loop_
 _atom_site_type_symbol
 _atom_site_label
 _atom_site_symmetry_multiplicity
 _atom_site_fract_x
 _atom_site_fract_y
 _atom_site_fract_z
 _atom_site_occupancy
  Ca2+  Ca0  1  0.08306374  0.24501100  0.26552039  1
  Ca2+  Ca1  1  0.07003025  0.24658970  0.58746394  1
  Ca2+  Ca2  1  0.08170246  0.26342866  0.90342511  1
  Ca2+  Ca3  1  0.09052272  0.75635119  0.26829862  1
  Ca2+  Ca4  1  0.08004902  0.74682373  0.56447171  1
  Ca2+  Ca5  1  0.08028691  0.76115990  0.91298635  1
  Ca2+  Ca6  1  0.40880498  0.24996232  0.26608287  1
  Ca2+  Ca7  1  0.41937432  0.25740606  0.56480164  1
  Ca2+  Ca8  1  0.44841395  0.23776219  0.91881874  1
  Ca2+  Ca9  1  0.41434287  0.74631427  0.25558574  1
  Ca2+  Ca10  1  0.42300053  0.75273415  0.56338212  1
  Ca2+  Ca11  1  0.42314529  0.74472489  0.93038319  1
  Ca2+  Ca12  1  0.75808928  0.25053752  0.25304686  1
  Ca2+  Ca13  1  0.75858555  0.23163527  0.58972951  1
  Ca2+  Ca14  1  0.73786001  0.25557225  0.91264859  1
  Ca2+  Ca15  1  0.73523338  0.74009791  0.27494705  1
  Ca2+  Ca16  1  0.74396817  0.75020037  0.56000503  1
  Ca2+  Ca17  1  0.73968277  0.73936781  0.90618727  1
  Ca2+  Ca18  1  0.25791485  0.24997967  0.08014342  1
  Ca2+  Ca19  1  0.26203046  0.25210282  0.41760013  1
  Ca2+  Ca20  1  0.23846572  0.26534610  0.74914418  1
  Ca2+  Ca21  1  0.26138967  0.75807987  0.09416200  1
  Ca2+  Ca22  1  0.22988143  0.73697052  0.41418736  1
  Ca2+  Ca23  1  0.23411856  0.75436295  0.74241989  1
  Ca2+  Ca24  1  0.58787044  0.25257549  0.06541120  1
  Ca2+  Ca25  1  0.56461856  0.24590994  0.43164672  1
  Ca2+  Ca26  1  0.59690876  0.25453350  0.75492431  1
  Ca2+  Ca27  1  0.57060685  0.74282147  0.09082006  1
  Ca2+  Ca28  1  0.59120676  0.74286733  0.41880431  1
  Ca2+  Ca29  1  0.59369394  0.75267011  0.73960968  1
  Ca2+  Ca30  1  0.90651448  0.24961844  0.07511764  1
  Ca2+  Ca31  1  0.91853011  0.24472284  0.42430561  1
  Ca2+  Ca32  1  0.92142568  0.25051365  0.75153389  1
  Ca2+  Ca33  1  0.91529477  0.77660099  0.08432057  1
  Ca2+  Ca34  1  0.92027382  0.75018919  0.42306368  1
  Ca2+  Ca35  1  0.92066532  0.75532002  0.74093883  1
  Ca2+  Ca36  1  0.91211807  0.08144056  0.07896382  1
  Ca2+  Ca37  1  0.08435793  0.08496360  0.91458460  1
  Ca2+  Ca38  1  0.76580305  0.08540650  0.26782308  1
  Ca2+  Ca39  1  0.75248375  0.60333571  0.58073836  1
  Ca2+  Ca40  1  0.40341590  0.10842469  0.24908992  1
  Ca2+  Ca41  1  0.46226241  0.59034538  0.92150619  1
  Ca2+  Ca42  1  0.11174744  0.58946217  0.58567867  1
  Ca2+  Ca43  1  0.42339630  0.10521978  0.56752620  1
  Ca2+  Ca44  1  0.54444988  0.10425832  0.06516990  1
  Ca2+  Ca45  1  0.90295854  0.59419481  0.74525430  1
  Ca2+  Ca46  1  0.22805791  0.09620224  0.40931513  1
  Ca2+  Ca47  1  0.75856033  0.10703016  0.90707075  1
  Ca2+  Ca48  1  0.38915588  0.57641697  0.57694465  1
  Ca2+  Ca49  1  0.58100446  0.58069169  0.39687927  1
  Ca2+  Ca50  1  0.09200028  0.59175062  0.29519241  1
  Ca2+  Ca51  1  0.92978361  0.09945410  0.44609966  1
  Ca2+  Ca52  1  0.92142508  0.60455510  0.42634810  1
  Ca2+  Ca53  1  0.23354379  0.07981480  0.75089528  1
  Ca2+  Ca54  1  0.74975404  0.11071767  0.90449124  1
  Ca2+  Ca55  1  0.10638905  0.58735207  0.57732225  1
  Ca2+  Ca56  1  0.43589207  0.10399828  0.56565013  1
  Ca2+  Ca57  1  0.09658417  0.58188842  0.90487192  1
  Ca2+  Ca58  1  0.28343349  0.08909421  0.06973286  1
  Ca2+  Ca59  1  0.74323890  0.60596711  0.57721382  1
  Ca2+  Ca60  1  0.39876758  0.57552102  0.57301538  1
  Ca2+  Ca61  1  0.42904392  0.59011237  0.25919739  1
  Ca2+  Ca62  1  0.88982656  0.11013063  0.71313767  1
  Ca2+  Ca63  1  0.91522773  0.59264110  0.74294289  1
  Ca2+  Ca64  1  0.60007092  0.11131900  0.75434766  1
  Ca2+  Ca65  1  0.24659249  0.57187633  0.73394920  1
  Ca2+  Ca66  1  0.63383862  0.61297250  0.77947814  1
  Ca2+  Ca67  1  0.26342486  0.60098663  0.08086431  1
  Ca2+  Ca68  1  0.90578088  0.58012645  0.08150703  1
  Ca2+  Ca69  1  0.55472300  0.10438101  0.06272238  1
  Ca2+  Ca70  1  0.59160695  0.58109265  0.39650981  1
  Ca2+  Ca71  1  0.60910447  0.11537813  0.75719766  1
  Ca2+  Ca72  1  0.58202474  0.41142775  0.06403436  1
  Ca2+  Ca73  1  0.08890846  0.91094061  0.57800175  1
  Ca2+  Ca74  1  0.57905821  0.40624593  0.76200935  1
  Ca2+  Ca75  1  0.40192061  0.41534698  0.58798386  1
  Ca2+  Ca76  1  0.76302427  0.90959048  0.24678001  1
  Ca2+  Ca77  1  0.58698001  0.90158794  0.41962307  1
  Ca2+  Ca78  1  0.42662743  0.40795005  0.90902580  1
  Ca2+  Ca79  1  0.74032414  0.39616505  0.58793810  1
  Ca2+  Ca80  1  0.93143342  0.91392993  0.41157035  1
  Ca2+  Ca81  1  0.39646698  0.90885859  0.93220124  1
  Ca2+  Ca82  1  0.08626624  0.40004830  0.25817141  1
  Ca2+  Ca83  1  0.07778434  0.91104356  0.57796003  1
  Ca2+  Ca84  1  0.39233713  0.41784127  0.58468228  1
  Ca2+  Ca85  1  0.74998229  0.90319703  0.91625972  1
  Ca2+  Ca86  1  0.89896581  0.40515449  0.07227604  1
  Ca2+  Ca87  1  0.75324170  0.39653642  0.58868042  1
  Ca2+  Ca88  1  0.26228339  0.39915018  0.07728482  1
  Ca2+  Ca89  1  0.74747577  0.90051677  0.58203757  1
  Ca2+  Ca90  1  0.91571245  0.39691493  0.41423940  1
  Ca2+  Ca91  1  0.10891892  0.91631737  0.93476324  1
  Ca2+  Ca92  1  0.07334680  0.39986041  0.25767510  1
  Ca2+  Ca93  1  0.56780554  0.41499764  0.41765606  1
  Ca2+  Ca94  1  0.42040503  0.89915397  0.58423546  1
  Ca2+  Ca95  1  0.44384275  0.42088416  0.27386615  1
  Ca2+  Ca96  1  0.23098382  0.90589212  0.41390802  1
  Ca2+  Ca97  1  0.41504539  0.90148491  0.24387525  1
  Ca2+  Ca98  1  0.22248476  0.43176273  0.71806003  1
  Ca2+  Ca99  1  0.24216908  0.91087322  0.74873426  1
  Ca2+  Ca100  1  0.58285151  0.90054719  0.08331850  1
  Ca2+  Ca101  1  0.75059652  0.91153477  0.24909050  1
  Ca2+  Ca102  1  0.91578583  0.91010558  0.74656840  1
  Ca2+  Ca103  1  0.72994979  0.42028552  0.25525826  1
  Ca2+  Ca104  1  0.91151625  0.40718440  0.06893642  1
  Ca2+  Ca105  1  0.38505099  0.91254725  0.92917447  1
  Ca2+  Ca106  1  0.76269081  0.90271363  0.91580716  1
  Ca2+  Ca107  1  0.71843418  0.41740167  0.25111018  1
  Mn3.34+  Mn108  1  0.08676281  0.32840598  0.07984261  1
  Mn3.34+  Mn109  1  0.08740496  0.32819422  0.42656946  1
  Mn3.34+  Mn110  1  0.07769721  0.34424981  0.74889502  1
  Mn3.34+  Mn111  1  0.08652371  0.83762639  0.08744822  1
  Mn3.34+  Mn112  1  0.08193539  0.83382172  0.41489711  1
  Mn3.34+  Mn113  1  0.08059778  0.83477831  0.75182614  1
  Mn3.34+  Mn114  1  0.42028845  0.32850621  0.08798706  1
  Mn3.34+  Mn115  1  0.41188833  0.33825506  0.41825296  1
  Mn3.34+  Mn116  1  0.41370676  0.33951804  0.75525853  1
  Mn3.34+  Mn117  1  0.41486731  0.83227006  0.08801011  1
  Mn3.34+  Mn118  1  0.41419038  0.83173689  0.41452163  1
  Mn3.34+  Mn119  1  0.41647953  0.82876532  0.75357865  1
  Mn3.34+  Mn120  1  0.74397904  0.32835113  0.08148048  1
  Mn3.34+  Mn121  1  0.74661069  0.32871083  0.41802847  1
  Mn3.34+  Mn122  1  0.75653389  0.33603440  0.75822547  1
  Mn3.34+  Mn123  1  0.74951566  0.83223666  0.08721110  1
  Mn3.34+  Mn124  1  0.75268778  0.83533767  0.41773453  1
  Mn3.34+  Mn125  1  0.74905312  0.83100369  0.75013972  1
  Mn3.34+  Mn126  1  0.25343872  0.33184938  0.24788447  1
  Mn3.34+  Mn127  1  0.24126168  0.33808480  0.58357472  1
  Mn3.34+  Mn128  1  0.25173693  0.33572851  0.91166470  1
  Mn3.34+  Mn129  1  0.24759167  0.83400069  0.24913711  1
  Mn3.34+  Mn130  1  0.25165624  0.83338988  0.58177553  1
  Mn3.34+  Mn131  1  0.24671226  0.83041134  0.91267206  1
  Mn3.34+  Mn132  1  0.57784690  0.33274484  0.24509473  1
  Mn3.34+  Mn133  1  0.57995821  0.33149046  0.58516391  1
  Mn3.34+  Mn134  1  0.58468440  0.33419918  0.91406481  1
  Mn3.34+  Mn135  1  0.58219354  0.83159342  0.24982227  1
  Mn3.34+  Mn136  1  0.58294373  0.83293272  0.58420022  1
  Mn3.34+  Mn137  1  0.58013751  0.82621246  0.90976902  1
  Mn3.34+  Mn138  1  0.91329929  0.32926800  0.24513327  1
  Mn3.34+  Mn139  1  0.91901820  0.32918435  0.58585780  1
  Mn3.34+  Mn140  1  0.91630215  0.33144245  0.90977190  1
  Mn3.34+  Mn141  1  0.92459768  0.83933707  0.24814419  1
  Mn3.34+  Mn142  1  0.91514904  0.83505847  0.58225370  1
  Mn3.34+  Mn143  1  0.92211211  0.83573705  0.91759634  1
  Mn3.34+  Mn144  1  0.58120800  0.17210229  0.25340732  1
  Mn3.34+  Mn145  1  0.08727088  0.15919729  0.09151784  1
  Mn3.34+  Mn146  1  0.75453937  0.16755674  0.42214443  1
  Mn3.34+  Mn147  1  0.91806194  0.16026174  0.25019342  1
  Mn3.34+  Mn148  1  0.41428829  0.66380606  0.41759674  1
  Mn3.34+  Mn149  1  0.07691577  0.16393202  0.08845866  1
  Mn3.34+  Mn150  1  0.58150765  0.66286681  0.25097987  1
  Mn3.34+  Mn151  1  0.24839613  0.16909403  0.58596410  1
  Mn3.34+  Mn152  1  0.23892086  0.16337450  0.58431879  1
  Mn3.34+  Mn153  1  0.91655484  0.66949602  0.25060354  1
  Mn3.34+  Mn154  1  0.58047060  0.66689521  0.57937512  1
  Mn3.34+  Mn155  1  0.08745543  0.67123704  0.08242769  1
  Mn3.34+  Mn156  1  0.90304220  0.66273282  0.25011887  1
  Mn3.34+  Mn157  1  0.24663512  0.16675917  0.24739847  1
  Mn3.34+  Mn158  1  0.58859908  0.16528581  0.25237830  1
  Mn3.34+  Mn159  1  0.08935427  0.66767557  0.75198133  1
  Mn3.34+  Mn160  1  0.25114918  0.67074878  0.57983057  1
  Mn3.34+  Mn161  1  0.42177738  0.66122753  0.75529172  1
  Mn3.34+  Mn162  1  0.25240059  0.66830934  0.25267015  1
  Mn3.34+  Mn163  1  0.91951272  0.66968972  0.58185505  1
  Mn3.34+  Mn164  1  0.07816760  0.66489458  0.08474125  1
  Mn3.34+  Mn165  1  0.90671033  0.66256617  0.91457467  1
  Mn3.34+  Mn166  1  0.92035557  0.66832208  0.91785935  1
  Mn3.34+  Mn167  1  0.42045959  0.17026306  0.74944170  1
  Mn3.34+  Mn168  1  0.75407713  0.16429642  0.09162421  1
  Mn3.34+  Mn169  1  0.25224253  0.66342662  0.90862708  1
  Mn3.34+  Mn170  1  0.59139858  0.16882709  0.57744195  1
  Mn3.34+  Mn171  1  0.26223202  0.16329986  0.91114015  1
  Mn3.34+  Mn172  1  0.42001655  0.66817884  0.08574696  1
  Mn3.34+  Mn173  1  0.74352713  0.66424648  0.08221267  1
  Mn3.34+  Mn174  1  0.25178904  0.16771603  0.91195377  1
  Mn3.34+  Mn175  1  0.73290815  0.65937094  0.08129979  1
  Mn3.34+  Mn176  1  0.07754374  0.16802853  0.75053447  1
  Mn3.34+  Mn177  1  0.92186061  0.16798840  0.91321589  1
  Mn3.34+  Mn178  1  0.07764373  0.16672040  0.41713305  1
  Mn3.34+  Mn179  1  0.41238665  0.66692019  0.75428219  1
  Mn3.34+  Mn180  1  0.22766464  -0.00187198  0.25520112  1
  Mn3.34+  Mn181  1  0.74076163  0.50046029  0.06313152  1
  Mn3.34+  Mn182  1  0.58391036  -0.00011911  0.24394685  1
  Mn3.34+  Mn183  1  0.74988966  0.49958678  0.75212409  1
  Mn3.34+  Mn184  1  0.58861463  0.50356760  0.59496189  1
  Mn3.34+  Mn185  1  0.42080423  0.00306242  0.40654030  1
  Mn3.34+  Mn186  1  0.93150730  0.00153487  0.26901408  1
  Mn3.34+  Mn187  1  0.08152360  0.50400697  0.07903338  1
  Mn3.34+  Mn188  1  0.94311101  0.49185494  0.59487708  1
  Mn3.34+  Mn189  1  0.91797386  0.00254058  0.91402163  1
  Mn3.34+  Mn190  1  0.91280143  0.00099250  0.58990334  1
  Mn3.34+  Mn191  1  0.41741730  0.00268703  0.74924128  1
  Mn3.34+  Mn192  1  0.57316526  0.00188825  0.90931670  1
  Mn3.34+  Mn193  1  0.91507162  0.49946913  0.25048915  1
  Mn3.34+  Mn194  1  0.24675907  0.00004025  0.58502320  1
  Mn3.34+  Mn195  1  0.75516498  0.00326960  0.07882996  1
  Mn3.34+  Mn196  1  0.08880977  0.00069698  0.07324935  1
  Mn3.34+  Mn197  1  0.26206620  0.50351848  0.25572584  1
  Mn3.34+  Mn198  1  0.42567017  0.50355993  0.08368300  1
  Mn3.34+  Mn199  1  0.40742060  -0.00364521  0.40505978  1
  Mn3.34+  Mn200  1  0.40970785  -0.00290896  0.08379245  1
  Mn3.34+  Mn201  1  0.90583106  0.49588806  0.91278384  1
  Mn3.34+  Mn202  1  0.75499144  0.49560764  0.41340020  1
  Mn3.34+  Mn203  1  0.74440049  -0.00217273  0.73902452  1
  Mn3.34+  Mn204  1  0.43089193  -0.00388186  0.74689454  1
  Mn3.34+  Mn205  1  0.07570970  -0.00087494  0.74803684  1
  Mn3.34+  Mn206  1  0.58817480  -0.00370000  0.90967714  1
  Mn3.34+  Mn207  1  0.25165775  0.49711538  0.26349312  1
  Mn3.34+  Mn208  1  0.09563831  0.49773562  0.07874954  1
  Mn3.34+  Mn209  1  0.74856383  0.00364929  0.41344610  1
  Mn3.34+  Mn210  1  0.58967980  0.00170754  0.58439377  1
  Mn3.34+  Mn211  1  0.22063302  0.00220663  0.24739426  1
  Mn3.34+  Mn212  1  0.25759689  0.49817778  0.91544508  1
  Mn3.34+  Mn213  1  0.92827469  0.49205682  0.59010761  1
  Mn3.34+  Mn214  1  0.08065932  0.49128729  0.42012956  1
  Mn3.34+  Mn215  1  0.43484014  0.49724140  0.08119183  1
  O2-  O216  1  0.00046857  0.14290851  0.00370842  1
  O2-  O217  1  -0.00746413  0.17465146  0.33487787  1
  O2-  O218  1  -0.00128739  0.17267505  0.67600970  1
  O2-  O219  1  -0.00474482  0.63805899  -0.00096536  1
  O2-  O220  1  -0.00433020  0.65772369  0.33193504  1
  O2-  O221  1  0.00315842  0.64952341  0.66608181  1
  O2-  O222  1  0.33366097  0.16858635  -0.00152440  1
  O2-  O223  1  0.32216211  0.16706195  0.33032165  1
  O2-  O224  1  0.33925317  0.15093970  0.66432826  1
  O2-  O225  1  0.33252584  0.66413281  -0.00423391  1
  O2-  O226  1  0.33911964  0.65342283  0.32957372  1
  O2-  O227  1  0.33501136  0.65541897  0.66911561  1
  O2-  O228  1  0.67097182  0.14066191  0.01436495  1
  O2-  O229  1  0.67153194  0.15740645  0.32862308  1
  O2-  O230  1  0.66619760  0.17079078  0.66472392  1
  O2-  O231  1  0.65930829  0.67995207  0.00139860  1
  O2-  O232  1  0.65566706  0.66114566  0.33578931  1
  O2-  O233  1  0.66397680  0.66140884  0.65849122  1
  O2-  O234  1  0.17173318  0.14254937  0.00587406  1
  O2-  O235  1  0.16539791  0.17057855  0.33104170  1
  O2-  O236  1  0.16978413  0.15126417  0.67257030  1
  O2-  O237  1  0.16549051  0.65460999  -0.00582690  1
  O2-  O238  1  0.16947470  0.66732236  0.32657038  1
  O2-  O239  1  0.17254044  0.65592124  0.66951949  1
  O2-  O240  1  0.50007581  0.18091828  0.01410837  1
  O2-  O241  1  0.50026171  0.17100111  0.33161002  1
  O2-  O242  1  0.50315360  0.15328400  0.66467723  1
  O2-  O243  1  0.49657674  0.66955325  0.00543619  1
  O2-  O244  1  0.50001861  0.65840799  0.33977470  1
  O2-  O245  1  0.49447247  0.65797595  0.66370169  1
  O2-  O246  1  0.83743239  0.15157599  0.00459368  1
  O2-  O247  1  0.83344749  0.16778322  0.32854997  1
  O2-  O248  1  0.84008951  0.19441561  0.67724259  1
  O2-  O249  1  0.82822823  0.64693704  0.00247348  1
  O2-  O250  1  0.83333002  0.65876701  0.33685824  1
  O2-  O251  1  0.83753700  0.65657278  0.66481866  1
  O2-  O252  1  -0.00459594  0.34180786  0.00878384  1
  O2-  O253  1  -0.00554497  0.33094116  0.32844848  1
  O2-  O254  1  -0.00088664  0.32035416  0.66517877  1
  O2-  O255  1  0.00733205  0.85031024  -0.00907885  1
  O2-  O256  1  -0.00481475  0.83973529  0.33983962  1
  O2-  O257  1  0.00068878  0.85349094  0.66519027  1
  O2-  O258  1  0.33797923  0.33340087  0.00195143  1
  O2-  O259  1  0.33771518  0.33815831  0.32679755  1
  O2-  O260  1  0.33642734  0.33642023  0.66777593  1
  O2-  O261  1  0.33283693  0.83329326  -0.00348946  1
  O2-  O262  1  0.33200096  0.85140598  0.33569334  1
  O2-  O263  1  0.32945353  0.84586673  0.67258021  1
  O2-  O264  1  0.66221342  0.34374361  0.00442008  1
  O2-  O265  1  0.66404318  0.34915328  0.33333467  1
  O2-  O266  1  0.66534330  0.33008592  0.66718382  1
  O2-  O267  1  0.66544467  0.83998512  -0.00376664  1
  O2-  O268  1  0.67154256  0.84935077  0.32969332  1
  O2-  O269  1  0.67497451  0.82677110  0.66125793  1
  O2-  O270  1  0.17373024  0.34537474  0.00353174  1
  O2-  O271  1  0.16452024  0.33277166  0.32727115  1
  O2-  O272  1  0.16938316  0.34122805  0.67212716  1
  O2-  O273  1  0.16777977  0.82671861  -0.00566960  1
  O2-  O274  1  0.16723324  0.83623000  0.33651350  1
  O2-  O275  1  0.16294053  0.85075603  0.66538964  1
  O2-  O276  1  0.49956114  0.33589202  0.00100728  1
  O2-  O277  1  0.50163826  0.33866540  0.33439107  1
  O2-  O278  1  0.49454428  0.34714512  0.66334548  1
  O2-  O279  1  0.49293420  0.84384580  -0.00931966  1
  O2-  O280  1  0.49947832  0.84871451  0.33175797  1
  O2-  O281  1  0.49211078  0.83059633  0.66373989  1
  O2-  O282  1  0.83208150  0.33602943  0.00431582  1
  O2-  O283  1  0.82688364  0.34381270  0.32539858  1
  O2-  O284  1  0.82689498  0.32761155  0.66214268  1
  O2-  O285  1  0.83251700  0.84619122  0.00080060  1
  O2-  O286  1  0.83449344  0.85265180  0.33598195  1
  O2-  O287  1  0.83628596  0.84138792  0.66961711  1
  O2-  O288  1  -0.00478766  0.18738993  0.16831340  1
  O2-  O289  1  0.00178041  0.18219773  0.49628578  1
  O2-  O290  1  0.01060625  0.17677071  0.84367542  1
  O2-  O291  1  -0.00913910  0.68084247  0.16438479  1
  O2-  O292  1  -0.00035986  0.66914296  0.50683720  1
  O2-  O293  1  0.00100037  0.67851291  0.82994975  1
  O2-  O294  1  0.32767446  0.18725397  0.17453852  1
  O2-  O295  1  0.33307770  0.17947920  0.51002970  1
  O2-  O296  1  0.33560151  0.19051579  0.82462057  1
  O2-  O297  1  0.32975583  0.67745605  0.16264570  1
  O2-  O298  1  0.34091585  0.67418988  0.50766929  1
  O2-  O299  1  0.33360209  0.69516873  0.83006471  1
  O2-  O300  1  0.66542746  0.18694316  0.17020460  1
  O2-  O301  1  0.66597081  0.18173034  0.49583314  1
  O2-  O302  1  0.67831030  0.17531614  0.83462005  1
  O2-  O303  1  0.66166394  0.67951961  0.16819241  1
  O2-  O304  1  0.66478053  0.67068766  0.50458303  1
  O2-  O305  1  0.66269294  0.69899604  0.82214409  1
  O2-  O306  1  0.16453733  0.19013067  0.16623289  1
  O2-  O307  1  0.17073908  0.17670010  0.49255932  1
  O2-  O308  1  0.16979891  0.16903643  0.83409990  1
  O2-  O309  1  0.17133919  0.68315096  0.16377546  1
  O2-  O310  1  0.16574670  0.67479620  0.51096216  1
  O2-  O311  1  0.16665147  0.69052486  0.83609568  1
  O2-  O312  1  0.50059671  0.18022027  0.17429469  1
  O2-  O313  1  0.49688233  0.17703284  0.51102786  1
  O2-  O314  1  0.51010677  0.18494162  0.81255145  1
  O2-  O315  1  0.49237333  0.67945949  0.17508430  1
  O2-  O316  1  0.49884383  0.67879412  0.49816531  1
  O2-  O317  1  0.49969501  0.68196643  0.83179002  1
  O2-  O318  1  0.83484763  0.18690555  0.16997249  1
  O2-  O319  1  0.83545617  0.18075712  0.49296488  1
  O2-  O320  1  0.83744953  0.18050905  0.84367545  1
  O2-  O321  1  0.82992295  0.67356945  0.16183507  1
  O2-  O322  1  0.83446655  0.67494702  0.50808677  1
  O2-  O323  1  0.84376667  0.68598150  0.82523599  1
  O2-  O324  1  0.00326497  0.31661365  0.17088323  1
  O2-  O325  1  -0.00645009  0.31984621  0.49724161  1
  O2-  O326  1  -0.00247527  0.32433892  0.83053585  1
  O2-  O327  1  0.00523383  0.82168531  0.17141805  1
  O2-  O328  1  0.00300600  0.82914538  0.50653760  1
  O2-  O329  1  -0.00545488  0.82007053  0.82684905  1
  O2-  O330  1  0.33017419  0.31421341  0.16258282  1
  O2-  O331  1  0.33543119  0.32959280  0.50777078  1
  O2-  O332  1  0.33767760  0.31381635  0.83407280  1
  O2-  O333  1  0.34078662  0.82343744  0.17527846  1
  O2-  O334  1  0.33528040  0.82426267  0.50401737  1
  O2-  O335  1  0.33396792  0.81286157  0.83649902  1
  O2-  O336  1  0.67255569  0.31719831  0.17601428  1
  O2-  O337  1  0.66624109  0.32625089  0.50423568  1
  O2-  O338  1  0.66663170  0.32531948  0.82905462  1
  O2-  O339  1  0.66644436  0.81920868  0.16868150  1
  O2-  O340  1  0.66589534  0.82705557  0.49636184  1
  O2-  O341  1  0.67176252  0.81927167  0.83756120  1
  O2-  O342  1  0.16338268  0.31838297  0.17157347  1
  O2-  O343  1  0.16820915  0.31752210  0.50274087  1
  O2-  O344  1  0.16896214  0.32955921  0.83411633  1
  O2-  O345  1  0.16851851  0.81407687  0.16764175  1
  O2-  O346  1  0.16373400  0.82471115  0.50481202  1
  O2-  O347  1  0.16590884  0.81900682  0.82925962  1
  O2-  O348  1  0.50099870  0.30330709  0.16776548  1
  O2-  O349  1  0.50121213  0.33133585  0.50158686  1
  O2-  O350  1  0.50150269  0.31754229  0.82703437  1
  O2-  O351  1  0.50408864  0.82378312  0.16369450  1
  O2-  O352  1  0.50115229  0.82757690  0.49689205  1
  O2-  O353  1  0.49811095  0.80357404  0.83266541  1
  O2-  O354  1  0.83643579  0.32135103  0.16027856  1
  O2-  O355  1  0.83016148  0.31568265  0.50181352  1
  O2-  O356  1  0.83289256  0.30963063  0.83438275  1
  O2-  O357  1  0.82871998  0.83005830  0.17591818  1
  O2-  O358  1  0.83323321  0.82414395  0.50244759  1
  O2-  O359  1  0.82965395  0.81846681  0.83646858  1
  O2-  O360  1  0.07705503  0.07804774  0.12502175  1
  O2-  O361  1  0.07934408  0.08904556  0.42905393  1
  O2-  O362  1  0.08410121  0.07965613  0.77504714  1
  O2-  O363  1  0.08665210  0.58046993  0.13002795  1
  O2-  O364  1  0.06725885  0.56874893  0.45487210  1
  O2-  O365  1  0.09016653  0.58837754  0.77585968  1
  O2-  O366  1  0.42167826  0.07601095  0.11686560  1
  O2-  O367  1  0.39916556  0.08006552  0.44190389  1
  O2-  O368  1  0.42879154  0.08181289  0.77704061  1
  O2-  O369  1  0.41005073  0.58343930  0.11420032  1
  O2-  O370  1  0.43485396  0.58172607  0.44308803  1
  O2-  O371  1  0.40474397  0.58065762  0.78546832  1
  O2-  O372  1  0.76092453  0.08276774  0.12733119  1
  O2-  O373  1  0.77169369  0.08371024  0.42336660  1
  O2-  O374  1  0.74470325  0.07623508  0.77641817  1
  O2-  O375  1  0.75387754  0.57709961  0.11115186  1
  O2-  O376  1  0.73101910  0.57064180  0.44988184  1
  O2-  O377  1  0.77142897  0.57765268  0.77642332  1
  O2-  O378  1  0.25226598  0.07945978  0.20708458  1
  O2-  O379  1  0.26536731  0.08184788  0.55208323  1
  O2-  O380  1  0.25760949  0.08226741  0.88725403  1
  O2-  O381  1  0.24150656  0.58202689  0.22061885  1
  O2-  O382  1  0.25288855  0.58728699  0.56469354  1
  O2-  O383  1  0.24393085  0.57698934  0.87609853  1
  O2-  O384  1  0.58047750  0.08213173  0.20992561  1
  O2-  O385  1  0.57206066  0.08304280  0.56064700  1
  O2-  O386  1  0.59114347  0.08309167  0.89062961  1
  O2-  O387  1  0.57169705  0.58249819  0.25094508  1
  O2-  O388  1  0.58130164  0.58041026  0.55095563  1
  O2-  O389  1  0.58460838  0.56820670  0.88373528  1
  O2-  O390  1  0.91100039  0.07247881  0.21640676  1
  O2-  O391  1  0.90976274  0.07797855  0.57870449  1
  O2-  O392  1  0.90517445  0.08357253  0.88103695  1
  O2-  O393  1  0.92166569  0.58174214  0.21935244  1
  O2-  O394  1  0.89461867  0.57339540  0.55469201  1
  O2-  O395  1  0.92100056  0.57901137  0.87729139  1
  O2-  O396  1  0.08178746  0.41940593  0.12063200  1
  O2-  O397  1  0.07055947  0.41009214  0.40891186  1
  O2-  O398  1  0.08622327  0.42087862  0.76000555  1
  O2-  O399  1  0.09646710  0.92143112  0.09089369  1
  O2-  O400  1  0.08337329  0.91831922  0.44580051  1
  O2-  O401  1  0.08247398  0.92055790  0.79118841  1
  O2-  O402  1  0.41724081  0.41943631  0.12743257  1
  O2-  O403  1  0.42363234  0.42182931  0.44854304  1
  O2-  O404  1  0.42217774  0.41845490  0.76884055  1
  O2-  O405  1  0.42627082  0.91655550  0.10176699  1
  O2-  O406  1  0.41757889  0.91984618  0.44873809  1
  O2-  O407  1  0.41880628  0.91882531  0.79452321  1
  O2-  O408  1  0.76341897  0.42412824  0.12155108  1
  O2-  O409  1  0.75794259  0.41588057  0.45226636  1
  O2-  O410  1  0.72701800  0.41967017  0.73571916  1
  O2-  O411  1  0.73535748  0.92022141  0.11290021  1
  O2-  O412  1  0.74624303  0.92391885  0.44745478  1
  O2-  O413  1  0.75054126  0.92036311  0.78220964  1
  O2-  O414  1  0.22750279  0.42134506  0.21632417  1
  O2-  O415  1  0.25557653  0.41691555  0.57814285  1
  O2-  O416  1  0.27403611  0.41766753  0.89000956  1
  O2-  O417  1  0.25558882  0.91889943  0.22670485  1
  O2-  O418  1  0.24082446  0.91777443  0.55283008  1
  O2-  O419  1  0.25804215  0.91802582  0.88417313  1
  O2-  O420  1  0.58841034  0.42005882  0.20983944  1
  O2-  O421  1  0.60473167  0.42147714  0.57037316  1
  O2-  O422  1  0.56860280  0.41328395  0.89441889  1
  O2-  O423  1  0.58787970  0.91811505  0.21869877  1
  O2-  O424  1  0.59194375  0.91922802  0.56218152  1
  O2-  O425  1  0.58438703  0.91554447  0.89076915  1
  O2-  O426  1  0.94008716  0.41934919  0.20736323  1
  O2-  O427  1  0.89084156  0.41789821  0.55254899  1
  O2-  O428  1  0.90885783  0.41335369  0.92068495  1
  O2-  O429  1  0.90743546  0.92549514  0.22646291  1
  O2-  O430  1  0.91572724  0.92178989  0.55015459  1
  O2-  O431  1  0.89887353  0.92078579  0.88444303  1
  O2-  O432  1  -0.00313104  0.01290108  -0.00006578  1
  O2-  O433  1  -0.01802359  0.00374803  0.36111465  1
  O2-  O434  1  0.00780279  -0.01889501  0.65441205  1
  O2-  O435  1  0.00161849  0.50953287  -0.00433717  1
  O2-  O436  1  0.00154532  0.49766892  0.33171187  1
  O2-  O437  1  0.00172886  0.52941239  0.67098544  1
  O2-  O438  1  0.34377850  -0.00703690  -0.00526058  1
  O2-  O439  1  0.34371792  0.00833712  0.30546191  1
  O2-  O440  1  0.32532716  -0.00715512  0.67890631  1
  O2-  O441  1  0.32154943  0.50060717  0.01863395  1
  O2-  O442  1  0.36888331  0.50124150  0.29441141  1
  O2-  O443  1  0.33614916  0.50150933  0.64317466  1
  O2-  O444  1  0.65815211  0.00022280  0.00389736  1
  O2-  O445  1  0.67672438  -0.00734636  0.31529447  1
  O2-  O446  1  0.64228267  0.01254804  0.68934222  1
  O2-  O447  1  0.64365045  0.49324439  0.02263344  1
  O2-  O448  1  0.66937859  0.48748718  0.34893693  1
  O2-  O449  1  0.68672414  0.52021643  0.65041562  1
  O2-  O450  1  0.16014072  0.01134236  -0.00486821  1
  O2-  O451  1  0.19048143  0.00108114  0.36407374  1
  O2-  O452  1  0.16892256  -0.00868356  0.67775060  1
  O2-  O453  1  0.16551215  0.50996959  -0.01054757  1
  O2-  O454  1  0.16236675  0.50359409  0.33331555  1
  O2-  O455  1  0.16266866  0.51733780  0.65894090  1
  O2-  O456  1  0.50641094  0.00448171  0.00907956  1
  O2-  O457  1  0.50557858  -0.00868736  0.33017814  1
  O2-  O458  1  0.47995560  -0.00177303  0.63841046  1
  O2-  O459  1  0.48329482  0.49561757  -0.02100534  1
  O2-  O460  1  0.52186205  0.49723415  0.35600517  1
  O2-  O461  1  0.47930573  0.49854736  0.61917310  1
  O2-  O462  1  0.81088145  0.00551796  -0.03301316  1
  O2-  O463  1  0.82642983  -0.00600607  0.31794933  1
  O2-  O464  1  0.84389385  -0.00944935  0.68269739  1
  O2-  O465  1  0.85166972  0.49663875  0.02923708  1
  O2-  O466  1  0.82499750  0.47462841  0.32270756  1
  O2-  O467  1  0.84606526  0.49885546  0.67885850  1
  O2-  O468  1  0.41471166  0.74942207  0.39943774  1
  O2-  O469  1  0.74632749  0.24422655  0.05558153  1
  O2-  O470  1  0.23247395  0.24785646  0.93494419  1
  O2-  O471  1  0.58008114  0.74894570  0.59091824  1
  O2-  O472  1  0.74992003  0.75648948  0.40679859  1
  O2-  O473  1  0.26140151  0.75128071  0.27224249  1
  O2-  O474  1  0.07740565  0.75359622  0.40911081  1
  O2-  O475  1  0.08524905  0.24209569  0.04740675  1
  O2-  O476  1  0.57073356  0.25094348  0.59858936  1
  O2-  O477  1  0.59383017  0.25391069  0.92867409  1
  O2-  O478  1  0.92596813  0.75152640  0.60183276  1
  O2-  O479  1  0.90740913  0.75228632  0.26946956  1
  O2-  O480  1  0.73999782  0.25041845  0.39099322  1
  O2-  O481  1  0.24608252  0.25073828  0.60682404  1
  O2-  O482  1  0.06412294  0.75192402  0.05599555  1
  O2-  O483  1  0.41582857  0.75140230  0.07088773  1
  O2-  O484  1  0.58158732  0.75150218  0.27369650  1
  O2-  O485  1  0.76593653  0.74792007  0.06576583  1
  O2-  O486  1  0.25154214  0.75225571  0.60555989  1
  O2-  O487  1  0.08752150  0.25097031  0.40431554  1
  O2-  O488  1  0.41435701  0.25745056  0.41377634  1
  O2-  O489  1  0.09653348  0.24934933  0.74438079  1
  O2-  O490  1  0.93049219  0.24841566  0.94048030  1
  O2-  O491  1  0.07820917  0.75241436  0.71905794  1
  O2-  O492  1  0.92237005  0.74910320  0.94880055  1
