# generated using pymatgen
data_Ca108Mn108O277
_symmetry_space_group_name_H-M   'P 1'
_cell_length_a   16.02714355
_cell_length_b   22.30731719
_cell_length_c   16.38863538
_cell_angle_alpha   90.00771800
_cell_angle_beta   90.00599203
_cell_angle_gamma   89.99406225
_symmetry_Int_Tables_number   1
_chemical_formula_structural   Ca108Mn108O277
_chemical_formula_sum   'Ca108 Mn108 O277'
_cell_volume   5859.30700456
_cell_formula_units_Z   1
loop_
 _symmetry_equiv_pos_site_id
 _symmetry_equiv_pos_as_xyz
  1  'x, y, z'
loop_
 _atom_type_symbol
 _atom_type_oxidation_number
  Ca2+  2.0
  Mn3.34+  3.34
  O2-  -2.0
loop_
 _atom_site_type_symbol
 _atom_site_label
 _atom_site_symmetry_multiplicity
 _atom_site_fract_x
 _atom_site_fract_y
 _atom_site_fract_z
 _atom_site_occupancy
  Ca2+  Ca0  1  0.08775697  0.26184048  0.24930478  1
  Ca2+  Ca1  1  0.06594281  0.24843184  0.59104152  1
  Ca2+  Ca2  1  0.09750776  0.25029392  0.90103379  1
  Ca2+  Ca3  1  0.09021530  0.76070280  0.24708189  1
  Ca2+  Ca4  1  0.10346232  0.74521060  0.58726068  1
  Ca2+  Ca5  1  0.06650180  0.75652642  0.91948229  1
  Ca2+  Ca6  1  0.42182470  0.24871382  0.24994806  1
  Ca2+  Ca7  1  0.41555844  0.24914921  0.59067147  1
  Ca2+  Ca8  1  0.43667700  0.24026450  0.91531179  1
  Ca2+  Ca9  1  0.41123564  0.74248315  0.23328576  1
  Ca2+  Ca10  1  0.40348732  0.75337131  0.58430354  1
  Ca2+  Ca11  1  0.41729736  0.75307913  0.93136596  1
  Ca2+  Ca12  1  0.74208342  0.24508965  0.24574617  1
  Ca2+  Ca13  1  0.76596629  0.24515500  0.58150118  1
  Ca2+  Ca14  1  0.72857818  0.23616479  0.92970531  1
  Ca2+  Ca15  1  0.74199420  0.74999190  0.24995165  1
  Ca2+  Ca16  1  0.76031748  0.75431309  0.57951957  1
  Ca2+  Ca17  1  0.76680160  0.74087724  0.91704503  1
  Ca2+  Ca18  1  0.26276915  0.25249675  0.07549564  1
  Ca2+  Ca19  1  0.24994877  0.25694666  0.41705407  1
  Ca2+  Ca20  1  0.25191712  0.24725865  0.75350723  1
  Ca2+  Ca21  1  0.26558356  0.75936031  0.08998309  1
  Ca2+  Ca22  1  0.25840321  0.75518706  0.41022793  1
  Ca2+  Ca23  1  0.25973969  0.75752797  0.74199307  1
  Ca2+  Ca24  1  0.59391206  0.24202968  0.07667100  1
  Ca2+  Ca25  1  0.59065717  0.24647802  0.41436131  1
  Ca2+  Ca26  1  0.58936821  0.25288587  0.77083673  1
  Ca2+  Ca27  1  0.55919292  0.74500344  0.09154163  1
  Ca2+  Ca28  1  0.58506705  0.75114333  0.39933907  1
  Ca2+  Ca29  1  0.57843137  0.75162896  0.75860078  1
  Ca2+  Ca30  1  0.88466874  0.24292968  0.08639708  1
  Ca2+  Ca31  1  0.90632700  0.25408723  0.43235038  1
  Ca2+  Ca32  1  0.91126740  0.24720553  0.73265033  1
  Ca2+  Ca33  1  0.91162902  0.76721394  0.07895496  1
  Ca2+  Ca34  1  0.90441056  0.75385053  0.41156623  1
  Ca2+  Ca35  1  0.91452216  0.74531662  0.77494835  1
  Ca2+  Ca36  1  0.90676220  0.58404125  0.08258594  1
  Ca2+  Ca37  1  0.28670608  0.58629217  0.09615545  1
  Ca2+  Ca38  1  0.89811304  0.57333748  0.40022919  1
  Ca2+  Ca39  1  0.75222433  0.58372900  0.58643662  1
  Ca2+  Ca40  1  0.73978076  0.58327405  0.58465131  1
  Ca2+  Ca41  1  0.88617904  0.57142330  0.40253867  1
  Ca2+  Ca42  1  0.39573146  0.57612578  0.59432347  1
  Ca2+  Ca43  1  0.72485312  0.10818588  0.24190638  1
  Ca2+  Ca44  1  0.91990301  0.60487010  0.76221171  1
  Ca2+  Ca45  1  0.59175459  0.10817097  0.75758812  1
  Ca2+  Ca46  1  0.58813959  0.10614347  0.41178831  1
  Ca2+  Ca47  1  0.08929400  0.57431461  0.25253386  1
  Ca2+  Ca48  1  0.27480685  0.58369484  0.42565667  1
  Ca2+  Ca49  1  0.10911451  0.07915226  0.23800412  1
  Ca2+  Ca50  1  0.27841190  0.09664699  0.39367448  1
  Ca2+  Ca51  1  0.59148383  0.10848036  0.09023693  1
  Ca2+  Ca52  1  0.88386046  0.09306505  0.42777925  1
  Ca2+  Ca53  1  0.29175746  0.59183989  0.09162401  1
  Ca2+  Ca54  1  0.91835831  0.58485788  0.08201841  1
  Ca2+  Ca55  1  0.41857154  0.11729972  0.57528455  1
  Ca2+  Ca56  1  0.09672694  0.08930970  0.92534383  1
  Ca2+  Ca57  1  0.58303294  0.59642547  0.76102714  1
  Ca2+  Ca58  1  0.89370825  0.09115547  0.43046782  1
  Ca2+  Ca59  1  0.07381281  0.10573991  0.59375542  1
  Ca2+  Ca60  1  0.74250156  0.11006972  0.57883458  1
  Ca2+  Ca61  1  0.43859416  0.09874396  0.24456062  1
  Ca2+  Ca62  1  0.27510112  0.09828833  0.40397497  1
  Ca2+  Ca63  1  0.43166634  0.09143232  0.93845494  1
  Ca2+  Ca64  1  0.25265514  0.10690647  0.74367644  1
  Ca2+  Ca65  1  0.88079472  0.10036730  0.08725536  1
  Ca2+  Ca66  1  0.90953962  0.10215130  0.73441992  1
  Ca2+  Ca67  1  0.58240619  0.11084010  0.76088192  1
  Ca2+  Ca68  1  0.72778742  0.10120494  0.93051934  1
  Ca2+  Ca69  1  0.07591277  0.58724960  0.91258965  1
  Ca2+  Ca70  1  0.24568234  0.57959181  0.72185681  1
  Ca2+  Ca71  1  0.08883771  0.58591827  0.91154395  1
  Ca2+  Ca72  1  0.91054282  0.40252585  0.08772225  1
  Ca2+  Ca73  1  0.74147409  0.90049142  0.91905854  1
  Ca2+  Ca74  1  0.73558332  0.39807399  0.91062340  1
  Ca2+  Ca75  1  0.25118858  0.41315589  0.74786597  1
  Ca2+  Ca76  1  0.90384433  0.91337920  0.40373978  1
  Ca2+  Ca77  1  0.41407425  0.40416616  0.92086167  1
  Ca2+  Ca78  1  0.92324907  0.40147213  0.08853999  1
  Ca2+  Ca79  1  0.09385260  0.91874582  0.94562020  1
  Ca2+  Ca80  1  0.09051984  0.89318077  0.58495925  1
  Ca2+  Ca81  1  0.09168317  0.40542172  0.58451107  1
  Ca2+  Ca82  1  0.89287311  0.91669973  0.40679555  1
  Ca2+  Ca83  1  0.08055169  0.89626280  0.58826753  1
  Ca2+  Ca84  1  0.58236269  0.91236949  0.40258333  1
  Ca2+  Ca85  1  0.41473045  0.91317882  0.93824112  1
  Ca2+  Ca86  1  0.75147567  0.91291449  0.58614948  1
  Ca2+  Ca87  1  0.90541438  0.40884762  0.41467229  1
  Ca2+  Ca88  1  0.26794401  0.41193297  0.41746283  1
  Ca2+  Ca89  1  0.09477619  0.41213505  0.92487222  1
  Ca2+  Ca90  1  0.58305849  0.40207865  0.75027091  1
  Ca2+  Ca91  1  0.74519026  0.40841280  0.26244368  1
  Ca2+  Ca92  1  0.74697383  0.39760509  0.91097252  1
  Ca2+  Ca93  1  0.58330406  0.89638775  0.75555677  1
  Ca2+  Ca94  1  0.09985462  0.91339411  0.23477560  1
  Ca2+  Ca95  1  0.25473222  0.92016562  0.08551772  1
  Ca2+  Ca96  1  0.57953714  0.40194257  0.41037641  1
  Ca2+  Ca97  1  0.09353384  0.41212488  0.24476462  1
  Ca2+  Ca98  1  0.40721676  0.40956074  0.58498250  1
  Ca2+  Ca99  1  0.75549632  0.40344650  0.57869214  1
  Ca2+  Ca100  1  0.91284970  0.89843986  0.75143570  1
  Ca2+  Ca101  1  0.26225215  0.41329987  0.74727610  1
  Ca2+  Ca102  1  0.56785207  0.90938198  0.08565780  1
  Ca2+  Ca103  1  0.74407723  0.90598818  0.24720888  1
  Ca2+  Ca104  1  0.73950378  0.91060886  0.58365067  1
  Ca2+  Ca105  1  0.10668269  0.41506041  0.92223167  1
  Ca2+  Ca106  1  0.26084368  0.40750971  0.08382566  1
  Ca2+  Ca107  1  0.40154618  0.91088659  0.24497039  1
  Mn3.34+  Mn108  1  0.08457492  0.33189838  0.08664206  1
  Mn3.34+  Mn109  1  0.08505277  0.33774617  0.41703107  1
  Mn3.34+  Mn110  1  0.07751352  0.33548657  0.75110034  1
  Mn3.34+  Mn111  1  0.08757176  0.83991306  0.08350713  1
  Mn3.34+  Mn112  1  0.08583638  0.83326045  0.41331158  1
  Mn3.34+  Mn113  1  0.08588864  0.82901217  0.75935667  1
  Mn3.34+  Mn114  1  0.42566205  0.33675134  0.09315025  1
  Mn3.34+  Mn115  1  0.42089569  0.33363848  0.42100495  1
  Mn3.34+  Mn116  1  0.41980783  0.33273168  0.75093206  1
  Mn3.34+  Mn117  1  0.41319842  0.83714843  0.08659070  1
  Mn3.34+  Mn118  1  0.41696211  0.83918325  0.41923872  1
  Mn3.34+  Mn119  1  0.41493940  0.83041321  0.75298978  1
  Mn3.34+  Mn120  1  0.74240064  0.33325103  0.09301931  1
  Mn3.34+  Mn121  1  0.74523615  0.33401349  0.41880647  1
  Mn3.34+  Mn122  1  0.75329077  0.33313170  0.74572840  1
  Mn3.34+  Mn123  1  0.74698671  0.83545797  0.08501091  1
  Mn3.34+  Mn124  1  0.74392110  0.83208207  0.41621461  1
  Mn3.34+  Mn125  1  0.74789274  0.82925752  0.75371425  1
  Mn3.34+  Mn126  1  0.25725923  0.33379037  0.25085728  1
  Mn3.34+  Mn127  1  0.24951314  0.33629710  0.57800859  1
  Mn3.34+  Mn128  1  0.25616131  0.33332702  0.91624425  1
  Mn3.34+  Mn129  1  0.25124824  0.83753426  0.25115745  1
  Mn3.34+  Mn130  1  0.26071107  0.83143029  0.58115225  1
  Mn3.34+  Mn131  1  0.25014902  0.83528061  0.91276240  1
  Mn3.34+  Mn132  1  0.57643256  0.33396904  0.24566918  1
  Mn3.34+  Mn133  1  0.58369466  0.32655976  0.58051318  1
  Mn3.34+  Mn134  1  0.57776254  0.33311646  0.92255942  1
  Mn3.34+  Mn135  1  0.57937865  0.83400157  0.24711469  1
  Mn3.34+  Mn136  1  0.57561860  0.83078838  0.57909177  1
  Mn3.34+  Mn137  1  0.58164586  0.82990407  0.92005187  1
  Mn3.34+  Mn138  1  0.91747816  0.32894849  0.25685186  1
  Mn3.34+  Mn139  1  0.91855607  0.33476557  0.58284159  1
  Mn3.34+  Mn140  1  0.91570563  0.32391294  0.91431706  1
  Mn3.34+  Mn141  1  0.91719688  0.83496134  0.24354094  1
  Mn3.34+  Mn142  1  0.91662774  0.83178687  0.58213953  1
  Mn3.34+  Mn143  1  0.91530190  0.83347033  0.92150374  1
  Mn3.34+  Mn144  1  0.73687254  0.66019233  0.08348244  1
  Mn3.34+  Mn145  1  0.41867244  0.66677034  0.75011121  1
  Mn3.34+  Mn146  1  0.75212267  0.17027599  0.75079423  1
  Mn3.34+  Mn147  1  0.25612958  0.16612363  0.91806114  1
  Mn3.34+  Mn148  1  0.91704272  0.16856783  0.90945439  1
  Mn3.34+  Mn149  1  0.41793797  0.15988292  0.08748107  1
  Mn3.34+  Mn150  1  0.07485787  0.16846498  0.08491498  1
  Mn3.34+  Mn151  1  0.07664989  0.16976195  0.41380056  1
  Mn3.34+  Mn152  1  0.42249919  0.65472135  0.41583261  1
  Mn3.34+  Mn153  1  0.91321390  0.66829590  0.25156585  1
  Mn3.34+  Mn154  1  0.74425089  0.17237463  0.41712049  1
  Mn3.34+  Mn155  1  0.74653628  0.66580251  0.08369092  1
  Mn3.34+  Mn156  1  0.09127595  0.66879380  0.75159999  1
  Mn3.34+  Mn157  1  0.58313647  0.67199795  0.57616945  1
  Mn3.34+  Mn158  1  0.57426984  0.67793296  0.57811602  1
  Mn3.34+  Mn159  1  0.91467582  0.16635254  0.25005282  1
  Mn3.34+  Mn160  1  0.08392548  0.17120611  0.75251363  1
  Mn3.34+  Mn161  1  0.74760633  0.66752371  0.75766251  1
  Mn3.34+  Mn162  1  0.57892911  0.65966747  0.91633010  1
  Mn3.34+  Mn163  1  0.25501038  0.66539513  0.25465967  1
  Mn3.34+  Mn164  1  0.91727586  0.66493935  0.58443373  1
  Mn3.34+  Mn165  1  0.25189340  0.66811123  0.91333363  1
  Mn3.34+  Mn166  1  0.41479462  0.16928004  0.75157721  1
  Mn3.34+  Mn167  1  0.25563521  0.66406319  0.57975614  1
  Mn3.34+  Mn168  1  0.09305713  0.65742006  0.41764564  1
  Mn3.34+  Mn169  1  0.08681315  0.16506785  0.41602851  1
  Mn3.34+  Mn170  1  0.74145508  0.66392363  0.41046934  1
  Mn3.34+  Mn171  1  0.26397471  0.66104650  0.91047128  1
  Mn3.34+  Mn172  1  0.07773549  0.66928153  0.08844512  1
  Mn3.34+  Mn173  1  0.07987985  0.66397166  0.41409301  1
  Mn3.34+  Mn174  1  0.57370683  0.66668236  0.25040318  1
  Mn3.34+  Mn175  1  0.92856412  0.66005157  0.58408761  1
  Mn3.34+  Mn176  1  0.09059190  0.66242063  0.09109656  1
  Mn3.34+  Mn177  1  0.25789777  0.17121330  0.24020323  1
  Mn3.34+  Mn178  1  0.42470291  0.17646611  0.41681224  1
  Mn3.34+  Mn179  1  0.08631674  0.16032583  0.08661576  1
  Mn3.34+  Mn180  1  0.07772148  0.49999476  0.74044317  1
  Mn3.34+  Mn181  1  0.74897408  -0.00086456  0.75224329  1
  Mn3.34+  Mn182  1  0.91715931  -0.00147913  0.58607765  1
  Mn3.34+  Mn183  1  0.40323989  -0.00741812  0.75738874  1
  Mn3.34+  Mn184  1  0.57016284  0.50189763  0.56342414  1
  Mn3.34+  Mn185  1  0.58879973  -0.00006062  0.26090233  1
  Mn3.34+  Mn186  1  0.57616451  0.00538325  0.57739837  1
  Mn3.34+  Mn187  1  0.75715997  0.50132238  0.74617394  1
  Mn3.34+  Mn188  1  0.92599366  0.49674917  0.59388652  1
  Mn3.34+  Mn189  1  0.10976304  -0.00241337  0.40387869  1
  Mn3.34+  Mn190  1  0.41595842  -0.00045739  0.75940377  1
  Mn3.34+  Mn191  1  0.09448019  -0.00187164  0.40734198  1
  Mn3.34+  Mn192  1  0.89504764  0.50014989  0.91711184  1
  Mn3.34+  Mn193  1  0.56361066  -0.00220671  0.57783327  1
  Mn3.34+  Mn194  1  0.09824109  -0.00251846  0.75587196  1
  Mn3.34+  Mn195  1  0.26432799  0.49519925  0.26737942  1
  Mn3.34+  Mn196  1  0.91277688  0.00392722  0.25031482  1
  Mn3.34+  Mn197  1  0.42046656  0.00071369  0.41786365  1
  Mn3.34+  Mn198  1  0.42266557  0.50268529  0.75591139  1
  Mn3.34+  Mn199  1  0.91197321  0.50134955  0.91469151  1
  Mn3.34+  Mn200  1  0.58046860  0.49640924  0.56396081  1
  Mn3.34+  Mn201  1  0.72342398  0.49756222  0.08093176  1
  Mn3.34+  Mn202  1  0.25407856  0.00067021  0.57415323  1
  Mn3.34+  Mn203  1  0.26634316  -0.00664666  0.57768420  1
  Mn3.34+  Mn204  1  0.08943435  0.49814904  0.41354621  1
  Mn3.34+  Mn205  1  0.25433774  0.00136078  0.92265459  1
  Mn3.34+  Mn206  1  0.56842182  0.50055244  0.26312649  1
  Mn3.34+  Mn207  1  0.91137396  0.00452068  0.92289253  1
  Mn3.34+  Mn208  1  0.92360862  -0.00271597  0.92090791  1
  Mn3.34+  Mn209  1  0.08344010  0.00297878  0.75580573  1
  Mn3.34+  Mn210  1  0.74515866  -0.00170232  0.08360316  1
  Mn3.34+  Mn211  1  0.42279035  0.49504941  0.06826023  1
  Mn3.34+  Mn212  1  0.58003448  0.50721468  0.26295178  1
  Mn3.34+  Mn213  1  0.90946216  0.49640747  0.25339809  1
  Mn3.34+  Mn214  1  0.58163652  -0.00407492  0.92605609  1
  Mn3.34+  Mn215  1  0.58475547  0.50000342  0.93491569  1
  O2-  O216  1  0.00062909  0.16995926  -0.00258161  1
  O2-  O217  1  0.00156152  0.13805643  0.33500794  1
  O2-  O218  1  0.00048107  0.16460122  0.67709061  1
  O2-  O219  1  0.00255838  0.64680755  0.00546825  1
  O2-  O220  1  0.00157620  0.63921061  0.33361868  1
  O2-  O221  1  0.00100249  0.67301427  0.67582200  1
  O2-  O222  1  0.33997454  0.17092745  -0.00172140  1
  O2-  O223  1  0.34402548  0.16896666  0.32437972  1
  O2-  O224  1  0.33492027  0.16779530  0.66866327  1
  O2-  O225  1  0.33689797  0.64757567  -0.00316479  1
  O2-  O226  1  0.33146503  0.66336660  0.34099166  1
  O2-  O227  1  0.33850983  0.65285041  0.66355370  1
  O2-  O228  1  0.66217623  0.16338620  0.00381767  1
  O2-  O229  1  0.66561733  0.16926959  0.33565479  1
  O2-  O230  1  0.66654359  0.15992633  0.67290018  1
  O2-  O231  1  0.66810848  0.67162349  -0.00780414  1
  O2-  O232  1  0.66302419  0.66540567  0.33158555  1
  O2-  O233  1  0.66443629  0.65888037  0.66203464  1
  O2-  O234  1  0.16536736  0.16450784  0.00063747  1
  O2-  O235  1  0.16895961  0.15112173  0.33564542  1
  O2-  O236  1  0.16185753  0.16002098  0.67145804  1
  O2-  O237  1  0.16663094  0.64400550  0.00005147  1
  O2-  O238  1  0.17015755  0.64160558  0.33448880  1
  O2-  O239  1  0.17313609  0.66965387  0.67005091  1
  O2-  O240  1  0.49453061  0.16785662  0.00789226  1
  O2-  O241  1  0.50276797  0.17203481  0.33703386  1
  O2-  O242  1  0.49875675  0.15933900  0.67456867  1
  O2-  O243  1  0.51030927  0.69050265  -0.01307776  1
  O2-  O244  1  0.49329685  0.68260106  0.33545468  1
  O2-  O245  1  0.50104272  0.65877645  0.66410209  1
  O2-  O246  1  0.83579555  0.16543893  -0.01118536  1
  O2-  O247  1  0.83198122  0.14825533  0.33006724  1
  O2-  O248  1  0.82719574  0.16131904  0.66750052  1
  O2-  O249  1  0.83283809  0.65095186  0.01033799  1
  O2-  O250  1  0.84053908  0.65299157  0.34008264  1
  O2-  O251  1  0.82979219  0.64275431  0.66463076  1
  O2-  O252  1  -0.00270412  0.32544155  0.00319865  1
  O2-  O253  1  0.00474358  0.35535349  0.33144903  1
  O2-  O254  1  0.00732143  0.34280709  0.65976375  1
  O2-  O255  1  0.00493478  0.84522424  -0.00412857  1
  O2-  O256  1  -0.00569545  0.85364374  0.34066666  1
  O2-  O257  1  -0.00013960  0.84158023  0.66926764  1
  O2-  O258  1  0.33301764  0.33865094  0.00354524  1
  O2-  O259  1  0.33434303  0.33267114  0.34416275  1
  O2-  O260  1  0.33138758  0.34176195  0.66707291  1
  O2-  O261  1  0.32957342  0.85060509  0.00573095  1
  O2-  O262  1  0.33821580  0.83157431  0.33123184  1
  O2-  O263  1  0.33512788  0.84201159  0.66873788  1
  O2-  O264  1  0.66498904  0.34677604  0.00192351  1
  O2-  O265  1  0.65962290  0.33693271  0.33582254  1
  O2-  O266  1  0.66333808  0.34418280  0.66636528  1
  O2-  O267  1  0.66116782  0.84136038  0.00356248  1
  O2-  O268  1  0.66279690  0.84702444  0.33411240  1
  O2-  O269  1  0.66617466  0.84379320  0.66167576  1
  O2-  O270  1  0.16729830  0.34410861  -0.00071884  1
  O2-  O271  1  0.17115672  0.35229945  0.33504772  1
  O2-  O272  1  0.17354445  0.34851640  0.67013844  1
  O2-  O273  1  0.17012506  0.84460929  -0.00144380  1
  O2-  O274  1  0.15954309  0.84625954  0.32522209  1
  O2-  O275  1  0.15787202  0.82922185  0.66624581  1
  O2-  O276  1  0.49036231  0.33417993  -0.00408634  1
  O2-  O277  1  0.50077200  0.31698149  0.33691668  1
  O2-  O278  1  0.49707432  0.33881214  0.66356561  1
  O2-  O279  1  0.49687186  0.84131551  0.00074886  1
  O2-  O280  1  0.50135804  0.84100947  0.33437004  1
  O2-  O281  1  0.50756601  0.83056063  0.67342481  1
  O2-  O282  1  0.83147483  0.34434456  0.00447190  1
  O2-  O283  1  0.83107860  0.34867662  0.33431750  1
  O2-  O284  1  0.83344566  0.34298457  0.66378648  1
  O2-  O285  1  0.82903788  0.84600232  -0.00106497  1
  O2-  O286  1  0.82772418  0.84650716  0.33478178  1
  O2-  O287  1  0.82872633  0.85122169  0.65940991  1
  O2-  O288  1  -0.00178166  0.18967013  0.16677638  1
  O2-  O289  1  -0.00404717  0.17524062  0.49403560  1
  O2-  O290  1  0.00293797  0.18918508  0.83619322  1
  O2-  O291  1  -0.00526611  0.68199540  0.16859216  1
  O2-  O292  1  0.00117874  0.68489020  0.49509811  1
  O2-  O293  1  0.01397669  0.67961968  0.83279965  1
  O2-  O294  1  0.33380260  0.18912988  0.16050721  1
  O2-  O295  1  0.32883258  0.18192549  0.48041539  1
  O2-  O296  1  0.33327402  0.17771681  0.83281022  1
  O2-  O297  1  0.32192125  0.67364479  0.16580198  1
  O2-  O298  1  0.33497572  0.68204389  0.49599604  1
  O2-  O299  1  0.33237766  0.68067332  0.82119968  1
  O2-  O300  1  0.65829204  0.18189149  0.17004606  1
  O2-  O301  1  0.67114385  0.18337663  0.49863792  1
  O2-  O302  1  0.66837474  0.17498854  0.83072953  1
  O2-  O303  1  0.66156845  0.67854457  0.16304065  1
  O2-  O304  1  0.66975864  0.69035238  0.50351096  1
  O2-  O305  1  0.66231517  0.68549481  0.83027958  1
  O2-  O306  1  0.16314622  0.18289481  0.16873006  1
  O2-  O307  1  0.16064770  0.18079343  0.49935270  1
  O2-  O308  1  0.17025357  0.17440598  0.83455558  1
  O2-  O309  1  0.16204714  0.67545869  0.17662215  1
  O2-  O310  1  0.16960109  0.68276888  0.49707971  1
  O2-  O311  1  0.16854966  0.68459604  0.83880464  1
  O2-  O312  1  0.49166889  0.18028304  0.16331780  1
  O2-  O313  1  0.49379820  0.19113976  0.50038306  1
  O2-  O314  1  0.50104494  0.17238573  0.82901810  1
  O2-  O315  1  0.49951560  0.67876520  0.17404156  1
  O2-  O316  1  0.49700216  0.69038199  0.49544742  1
  O2-  O317  1  0.50382324  0.68066576  0.82777032  1
  O2-  O318  1  0.83275500  0.17737984  0.17592235  1
  O2-  O319  1  0.83351004  0.17402522  0.49139721  1
  O2-  O320  1  0.83846492  0.18472579  0.82690190  1
  O2-  O321  1  0.82981515  0.68017057  0.16537851  1
  O2-  O322  1  0.82866954  0.67542500  0.50336482  1
  O2-  O323  1  0.83154825  0.67502207  0.82690959  1
  O2-  O324  1  -0.00271004  0.31743458  0.16489773  1
  O2-  O325  1  -0.00049710  0.32355611  0.49577945  1
  O2-  O326  1  0.00570655  0.31981580  0.84115430  1
  O2-  O327  1  0.00709669  0.82544175  0.16939025  1
  O2-  O328  1  0.00597684  0.82172687  0.50648352  1
  O2-  O329  1  -0.00512147  0.81981965  0.83039182  1
  O2-  O330  1  0.33611252  0.31628327  0.16494109  1
  O2-  O331  1  0.33570735  0.31191753  0.50553986  1
  O2-  O332  1  0.32890361  0.32920539  0.82600808  1
  O2-  O333  1  0.33569177  0.82524379  0.17217592  1
  O2-  O334  1  0.33484706  0.81632267  0.49409463  1
  O2-  O335  1  0.33824656  0.82032116  0.83918848  1
  O2-  O336  1  0.67172939  0.32265342  0.18006793  1
  O2-  O337  1  0.67018091  0.31029507  0.50484825  1
  O2-  O338  1  0.66517594  0.32768398  0.83535213  1
  O2-  O339  1  0.66656291  0.82516234  0.17030914  1
  O2-  O340  1  0.67113998  0.81885994  0.50645493  1
  O2-  O341  1  0.66548417  0.81419878  0.83775403  1
  O2-  O342  1  0.16855909  0.32229376  0.16355877  1
  O2-  O343  1  0.16349033  0.31305809  0.50778070  1
  O2-  O344  1  0.16890183  0.33112561  0.83293823  1
  O2-  O345  1  0.17027036  0.82147678  0.16412846  1
  O2-  O346  1  0.16137679  0.82321273  0.50536842  1
  O2-  O347  1  0.16558315  0.80629957  0.83532517  1
  O2-  O348  1  0.50593387  0.30345394  0.16328334  1
  O2-  O349  1  0.50158765  0.30925333  0.49969303  1
  O2-  O350  1  0.50043402  0.32765488  0.83242478  1
  O2-  O351  1  0.49893230  0.82514233  0.16715026  1
  O2-  O352  1  0.50204971  0.80716083  0.49664301  1
  O2-  O353  1  0.50198760  0.81279099  0.83825136  1
  O2-  O354  1  0.83779157  0.32023251  0.16593125  1
  O2-  O355  1  0.83156968  0.32829230  0.49964188  1
  O2-  O356  1  0.82270535  0.31912023  0.84442176  1
  O2-  O357  1  0.82864411  0.82212435  0.17089061  1
  O2-  O358  1  0.83549346  0.82544680  0.49577193  1
  O2-  O359  1  0.83393628  0.82230730  0.83219333  1
  O2-  O360  1  0.06597280  0.07968554  0.11076119  1
  O2-  O361  1  0.07945158  0.07524912  0.46123451  1
  O2-  O362  1  0.08126636  0.08388439  0.78274510  1
  O2-  O363  1  0.07174970  0.58073551  0.11696681  1
  O2-  O364  1  0.07925826  0.57949554  0.45439042  1
  O2-  O365  1  0.09159299  0.57891588  0.77696141  1
  O2-  O366  1  0.42855956  0.08322328  0.10292048  1
  O2-  O367  1  0.41570728  0.08371355  0.44231572  1
  O2-  O368  1  0.41287050  0.08015982  0.78499046  1
  O2-  O369  1  0.41811380  0.56046263  0.12645759  1
  O2-  O370  1  0.41687976  0.58007737  0.45922842  1
  O2-  O371  1  0.42970019  0.58391755  0.76716616  1
  O2-  O372  1  0.74511245  0.07503957  0.11314888  1
  O2-  O373  1  0.74586974  0.08646058  0.44203031  1
  O2-  O374  1  0.74340955  0.08372853  0.77893176  1
  O2-  O375  1  0.76174131  0.57912026  0.11577604  1
  O2-  O376  1  0.75898188  0.57870268  0.45256498  1
  O2-  O377  1  0.73370630  0.58412389  0.76888373  1
  O2-  O378  1  0.26374426  0.09109392  0.24318777  1
  O2-  O379  1  0.26464715  0.07699998  0.53568048  1
  O2-  O380  1  0.24861719  0.07646381  0.88241652  1
  O2-  O381  1  0.24597488  0.57396744  0.22404889  1
  O2-  O382  1  0.25773197  0.58277759  0.56474217  1
  O2-  O383  1  0.23497637  0.58345738  0.87971570  1
  O2-  O384  1  0.58339939  0.07173235  0.21890216  1
  O2-  O385  1  0.56482093  0.08258651  0.54560236  1
  O2-  O386  1  0.57784239  0.06958870  0.88390128  1
  O2-  O387  1  0.58012112  0.58163804  0.23015420  1
  O2-  O388  1  0.60121632  0.58420908  0.54792432  1
  O2-  O389  1  0.58272669  0.57672638  0.89327420  1
  O2-  O390  1  0.92012609  0.08339933  0.21670519  1
  O2-  O391  1  0.91953860  0.07838998  0.56370305  1
  O2-  O392  1  0.92346178  0.07956012  0.87317175  1
  O2-  O393  1  0.91844877  0.57813722  0.21775693  1
  O2-  O394  1  0.91391028  0.57537069  0.53650891  1
  O2-  O395  1  0.93768100  0.57925677  0.88607923  1
  O2-  O396  1  0.06201346  0.41962157  0.09575059  1
  O2-  O397  1  0.09579389  0.41882794  0.45187669  1
  O2-  O398  1  0.08196015  0.42170432  0.78611583  1
  O2-  O399  1  0.10157572  0.91943483  0.09936764  1
  O2-  O400  1  0.06628539  0.92632000  0.46061762  1
  O2-  O401  1  0.08146874  0.91688888  0.77976776  1
  O2-  O402  1  0.41233417  0.42289814  0.10829731  1
  O2-  O403  1  0.42079862  0.41111193  0.45002213  1
  O2-  O404  1  0.41406575  0.41934927  0.77738935  1
  O2-  O405  1  0.41759378  0.91980292  0.10686462  1
  O2-  O406  1  0.44221471  0.92432716  0.44677615  1
  O2-  O407  1  0.43401110  0.91441426  0.78468552  1
  O2-  O408  1  0.76956702  0.41946007  0.12059013  1
  O2-  O409  1  0.72884968  0.41369670  0.44338856  1
  O2-  O410  1  0.74375493  0.41840507  0.77691745  1
  O2-  O411  1  0.73124721  0.91930715  0.10943892  1
  O2-  O412  1  0.75987180  0.91978087  0.45107803  1
  O2-  O413  1  0.73809554  0.91459511  0.77951493  1
  O2-  O414  1  0.24887011  0.42081421  0.21961736  1
  O2-  O415  1  0.25512544  0.41588372  0.55770789  1
  O2-  O416  1  0.24745692  0.41936553  0.89092720  1
  O2-  O417  1  0.25356683  0.91713870  0.22471943  1
  O2-  O418  1  0.22899561  0.91459176  0.56990719  1
  O2-  O419  1  0.24586858  0.92693454  0.88461973  1
  O2-  O420  1  0.57729287  0.42467891  0.22615242  1
  O2-  O421  1  0.57244634  0.41412916  0.54832356  1
  O2-  O422  1  0.58939812  0.42108695  0.88880070  1
  O2-  O423  1  0.57527217  0.92191971  0.22580173  1
  O2-  O424  1  0.60057526  0.92032831  0.54541577  1
  O2-  O425  1  0.58848168  0.92043643  0.88831658  1
  O2-  O426  1  0.92065534  0.41591439  0.22103518  1
  O2-  O427  1  0.91865443  0.41975719  0.55149153  1
  O2-  O428  1  0.91135083  0.41518684  0.90551585  1
  O2-  O429  1  0.90166361  0.92116380  0.24069185  1
  O2-  O430  1  0.92151468  0.91886528  0.54671903  1
  O2-  O431  1  0.90599303  0.91999719  0.88419032  1
  O2-  O432  1  0.02022484  0.00901461  -0.02440856  1
  O2-  O433  1  0.01703355  -0.00430112  0.31740775  1
  O2-  O434  1  0.00728071  -0.00859678  0.66405791  1
  O2-  O435  1  -0.01032723  0.51536068  0.00410496  1
  O2-  O436  1  -0.00269425  0.50979069  0.33602667  1
  O2-  O437  1  -0.02168448  0.51752501  0.69245558  1
  O2-  O438  1  0.34229950  0.00000309  -0.02043270  1
  O2-  O439  1  0.32906176  0.00765340  0.35780354  1
  O2-  O440  1  0.33144536  0.01516189  0.67017202  1
  O2-  O441  1  0.31026221  0.49851722  0.03742576  1
  O2-  O442  1  0.31363919  0.49913843  0.36195107  1
  O2-  O443  1  0.32974257  0.49551038  0.68980985  1
  O2-  O444  1  0.67228042  0.00400496  -0.00894804  1
  O2-  O445  1  0.67723529  -0.00795295  0.31932662  1
  O2-  O446  1  0.66503328  -0.00308359  0.65751899  1
  O2-  O447  1  0.70039060  0.48999342  -0.04134332  1
  O2-  O448  1  0.67751529  0.49597437  0.30650177  1
  O2-  O449  1  0.66036952  0.50314557  0.65439987  1
  O2-  O450  1  0.17120445  0.00319809  -0.01425416  1
  O2-  O451  1  0.17281138  0.01123270  0.31697218  1
  O2-  O452  1  0.16740543  0.01320495  0.65847944  1
  O2-  O453  1  0.13217531  0.50279925  -0.05346601  1
  O2-  O454  1  0.15705099  0.49529288  0.31255933  1
  O2-  O455  1  0.17811182  0.48894087  0.69409480  1
  O2-  O456  1  0.49976831  -0.00497434  -0.00881528  1
  O2-  O457  1  0.50218587  0.00924623  0.33283405  1
  O2-  O458  1  0.49925235  -0.00028513  0.67553493  1
  O2-  O459  1  0.47177063  0.49153562  -0.03134007  1
  O2-  O460  1  0.50520133  0.48746471  0.34711678  1
  O2-  O461  1  0.49061448  0.49736934  0.65234342  1
  O2-  O462  1  0.83670977  0.00689127  0.00972075  1
  O2-  O463  1  0.86290628  0.00454566  0.36447311  1
  O2-  O464  1  0.82846743  -0.01775904  0.65992202  1
  O2-  O465  1  0.84797612  0.49935143  0.02849912  1
  O2-  O466  1  0.84183987  0.49002232  0.34835413  1
  O2-  O467  1  0.81468635  0.50576043  0.63546776  1
  O2-  O468  1  0.74346324  0.25543147  0.06886188  1
  O2-  O469  1  0.76370266  0.25253997  0.38945546  1
  O2-  O470  1  0.74608159  0.25231805  0.72598077  1
  O2-  O471  1  0.76006735  0.74864913  0.72021542  1
  O2-  O472  1  0.92235181  0.24739402  0.28789510  1
  O2-  O473  1  0.08825740  0.74914759  0.05953026  1
  O2-  O474  1  0.08308105  0.74437350  0.38513877  1
  O2-  O475  1  0.24112101  0.74816588  0.27015020  1
  O2-  O476  1  0.41120111  0.74844395  0.72516126  1
  O2-  O477  1  0.75793957  0.74980274  0.06384352  1
  O2-  O478  1  0.25574741  0.74994822  0.60075048  1
  O2-  O479  1  0.75661909  0.75046848  0.39293995  1
  O2-  O480  1  0.58353656  0.25456854  0.92694334  1
  O2-  O481  1  0.92162420  0.75218528  0.27662515  1
  O2-  O482  1  0.23843724  0.25202383  0.27533639  1
  O2-  O483  1  0.40887524  0.75594865  0.07315166  1
  O2-  O484  1  0.59231560  0.75287938  0.26208177  1
  O2-  O485  1  0.26420011  0.74569199  0.94926212  1
  O2-  O486  1  0.09601744  0.25405348  0.73270448  1
  O2-  O487  1  0.24477480  0.25228002  0.92861859  1
  O2-  O488  1  0.08219147  0.25343584  0.38497127  1
  O2-  O489  1  0.91740893  0.25557775  0.59462444  1
  O2-  O490  1  0.90600230  0.75060240  0.60480955  1
  O2-  O491  1  0.41485172  0.25199624  0.73863466  1
  O2-  O492  1  0.91557803  0.75455327  0.93865879  1
