# generated using pymatgen
data_Ca108Mn108O277
_symmetry_space_group_name_H-M   'P 1'
_cell_length_a   16.03468982
_cell_length_b   22.31351341
_cell_length_c   16.39319808
_cell_angle_alpha   89.99276811
_cell_angle_beta   89.99959949
_cell_angle_gamma   90.00334420
_symmetry_Int_Tables_number   1
_chemical_formula_structural   Ca108Mn108O277
_chemical_formula_sum   'Ca108 Mn108 O277'
_cell_volume   5865.32665003
_cell_formula_units_Z   1
loop_
 _symmetry_equiv_pos_site_id
 _symmetry_equiv_pos_as_xyz
  1  'x, y, z'
loop_
 _atom_type_symbol
 _atom_type_oxidation_number
  Ca2+  2.0
  Mn3.34+  3.34
  O2-  -2.0
loop_
 _atom_site_type_symbol
 _atom_site_label
 _atom_site_symmetry_multiplicity
 _atom_site_fract_x
 _atom_site_fract_y
 _atom_site_fract_z
 _atom_site_occupancy
  Ca2+  Ca0  1  0.07942381  0.26344894  0.25930075  1
  Ca2+  Ca1  1  0.06286420  0.25380188  0.58438614  1
  Ca2+  Ca2  1  0.07099846  0.25886897  0.90400463  1
  Ca2+  Ca3  1  0.11081948  0.73667837  0.25970023  1
  Ca2+  Ca4  1  0.09716412  0.73065494  0.60708541  1
  Ca2+  Ca5  1  0.08839998  0.74835703  0.89368013  1
  Ca2+  Ca6  1  0.40596462  0.25714469  0.24316195  1
  Ca2+  Ca7  1  0.41446434  0.26658339  0.58325690  1
  Ca2+  Ca8  1  0.42800912  0.23872353  0.91928751  1
  Ca2+  Ca9  1  0.39734267  0.73148829  0.25331500  1
  Ca2+  Ca10  1  0.41759858  0.73913781  0.57146996  1
  Ca2+  Ca11  1  0.42547903  0.76014330  0.92216596  1
  Ca2+  Ca12  1  0.76304643  0.26492572  0.25291009  1
  Ca2+  Ca13  1  0.77511248  0.25196177  0.57983945  1
  Ca2+  Ca14  1  0.75863625  0.25053258  0.91402905  1
  Ca2+  Ca15  1  0.74543866  0.74645762  0.25124930  1
  Ca2+  Ca16  1  0.72972109  0.74140661  0.58060190  1
  Ca2+  Ca17  1  0.73339708  0.74517024  0.91993437  1
  Ca2+  Ca18  1  0.26908730  0.24627234  0.08073350  1
  Ca2+  Ca19  1  0.23188414  0.25746483  0.41647614  1
  Ca2+  Ca20  1  0.24142090  0.25402639  0.75413373  1
  Ca2+  Ca21  1  0.26816702  0.75463919  0.07897891  1
  Ca2+  Ca22  1  0.24603069  0.74530568  0.41541732  1
  Ca2+  Ca23  1  0.23575228  0.74724095  0.75540487  1
  Ca2+  Ca24  1  0.57748652  0.24474924  0.06449868  1
  Ca2+  Ca25  1  0.59905902  0.26088825  0.42152926  1
  Ca2+  Ca26  1  0.58059130  0.25198738  0.77018277  1
  Ca2+  Ca27  1  0.58138515  0.74103869  0.06752840  1
  Ca2+  Ca28  1  0.58513472  0.74951394  0.41547495  1
  Ca2+  Ca29  1  0.58315819  0.74043953  0.76706670  1
  Ca2+  Ca30  1  0.91135583  0.25472207  0.06633431  1
  Ca2+  Ca31  1  0.91918675  0.25852884  0.42608203  1
  Ca2+  Ca32  1  0.92219615  0.25076624  0.74953750  1
  Ca2+  Ca33  1  0.89792208  0.76218970  0.08033173  1
  Ca2+  Ca34  1  0.92203417  0.75017791  0.41249585  1
  Ca2+  Ca35  1  0.93437205  0.74418573  0.76142625  1
  Ca2+  Ca36  1  0.45313452  0.59943654  0.92888612  1
  Ca2+  Ca37  1  0.21562872  0.59059685  0.74756973  1
  Ca2+  Ca38  1  0.57107161  0.08991683  0.07014524  1
  Ca2+  Ca39  1  0.42242214  0.07618990  0.25693819  1
  Ca2+  Ca40  1  0.73120311  0.11074512  0.91717883  1
  Ca2+  Ca41  1  0.56653727  0.07172715  0.40828394  1
  Ca2+  Ca42  1  0.91197771  0.09400174  0.07752713  1
  Ca2+  Ca43  1  0.73954306  0.59113419  0.26588925  1
  Ca2+  Ca44  1  0.72943192  0.58850876  0.91775335  1
  Ca2+  Ca45  1  0.42294629  0.07886574  0.58987350  1
  Ca2+  Ca46  1  0.88578899  0.56853075  0.06549662  1
  Ca2+  Ca47  1  0.28217139  0.60665146  0.40527883  1
  Ca2+  Ca48  1  0.91385952  0.11356427  0.75634199  1
  Ca2+  Ca49  1  0.87788068  0.57219195  0.07017294  1
  Ca2+  Ca50  1  0.89915782  0.09396240  0.07868623  1
  Ca2+  Ca51  1  0.40959993  0.07719109  0.25646618  1
  Ca2+  Ca52  1  0.75732621  0.07767679  0.26293619  1
  Ca2+  Ca53  1  0.26593119  0.60476168  0.10298760  1
  Ca2+  Ca54  1  0.44226985  0.59788537  0.93122790  1
  Ca2+  Ca55  1  0.57641145  0.07531966  0.40677084  1
  Ca2+  Ca56  1  0.57776411  0.10672950  0.76914872  1
  Ca2+  Ca57  1  0.73675122  0.58368170  0.91448493  1
  Ca2+  Ca58  1  0.57577901  0.60747664  0.42206508  1
  Ca2+  Ca59  1  0.29230779  0.60762894  0.40725466  1
  Ca2+  Ca60  1  0.07537107  0.09462872  0.26061836  1
  Ca2+  Ca61  1  0.56541474  0.60845154  0.42144236  1
  Ca2+  Ca62  1  0.91347064  0.11191808  0.42640236  1
  Ca2+  Ca63  1  0.77653073  0.10672360  0.58583051  1
  Ca2+  Ca64  1  0.09577451  0.58072280  0.27202670  1
  Ca2+  Ca65  1  0.62373645  0.57032541  0.70373090  1
  Ca2+  Ca66  1  0.05187191  0.11022884  0.58198552  1
  Ca2+  Ca67  1  0.09220957  0.10090624  0.90177208  1
  Ca2+  Ca68  1  0.08058969  0.10053591  0.90232848  1
  Ca2+  Ca69  1  0.93584149  0.59180223  0.76201834  1
  Ca2+  Ca70  1  0.08274130  0.60307687  0.90336544  1
  Ca2+  Ca71  1  0.40623020  0.08445543  0.93753415  1
  Ca2+  Ca72  1  0.58385562  0.90059506  0.74758446  1
  Ca2+  Ca73  1  0.09025335  0.40724831  0.58334055  1
  Ca2+  Ca74  1  0.74454908  0.42005123  0.59413789  1
  Ca2+  Ca75  1  0.77074453  0.42567718  0.93153891  1
  Ca2+  Ca76  1  0.27645007  0.91510591  0.05851856  1
  Ca2+  Ca77  1  0.43564002  0.90936932  0.24101885  1
  Ca2+  Ca78  1  0.40768558  0.40819531  0.91472244  1
  Ca2+  Ca79  1  0.06873144  0.89578949  0.23638557  1
  Ca2+  Ca80  1  0.60803932  0.41170408  0.08096667  1
  Ca2+  Ca81  1  0.74279937  0.89894906  0.58487745  1
  Ca2+  Ca82  1  0.08305594  0.89700036  0.58886583  1
  Ca2+  Ca83  1  0.28443131  0.90782456  0.41280750  1
  Ca2+  Ca84  1  0.41798293  0.40940667  0.25679455  1
  Ca2+  Ca85  1  0.55833787  0.91868087  0.39632235  1
  Ca2+  Ca86  1  0.24824221  0.40985263  0.74546712  1
  Ca2+  Ca87  1  0.73394788  0.41948376  0.59381484  1
  Ca2+  Ca88  1  0.58397542  0.41752432  0.74456874  1
  Ca2+  Ca89  1  0.24598242  0.40466228  0.08345428  1
  Ca2+  Ca90  1  0.57586929  0.41597870  0.42014390  1
  Ca2+  Ca91  1  0.42728603  0.91189344  0.58855720  1
  Ca2+  Ca92  1  0.27200918  0.90963012  0.41144870  1
  Ca2+  Ca93  1  0.91377610  0.89223835  0.75537526  1
  Ca2+  Ca94  1  0.59466490  0.41713993  0.74531755  1
  Ca2+  Ca95  1  0.07167947  0.89601481  0.58992811  1
  Ca2+  Ca96  1  0.25886997  0.40520426  0.08392890  1
  Ca2+  Ca97  1  0.24502392  0.41162706  0.41456164  1
  Ca2+  Ca98  1  0.92002650  0.42874659  0.36221234  1
  Ca2+  Ca99  1  0.09831971  0.90023038  0.91610803  1
  Ca2+  Ca100  1  0.90194326  0.41105723  0.07419365  1
  Ca2+  Ca101  1  0.58509469  0.41221962  0.41760147  1
  Ca2+  Ca102  1  0.41925950  0.40855150  0.91554485  1
  Ca2+  Ca103  1  0.74083672  0.90078799  0.24917107  1
  Ca2+  Ca104  1  0.75091763  0.89379478  0.91175976  1
  Ca2+  Ca105  1  0.56911342  0.92030664  0.39687652  1
  Ca2+  Ca106  1  0.08086211  0.89600712  0.23776479  1
  Ca2+  Ca107  1  0.90292846  0.90016109  0.40933413  1
  Mn3.34+  Mn108  1  0.08150929  0.33095486  0.08472066  1
  Mn3.34+  Mn109  1  0.07799629  0.34094016  0.41597864  1
  Mn3.34+  Mn110  1  0.08083780  0.33749470  0.75014667  1
  Mn3.34+  Mn111  1  0.08586130  0.83204779  0.07871021  1
  Mn3.34+  Mn112  1  0.08458166  0.82914080  0.41938598  1
  Mn3.34+  Mn113  1  0.08651330  0.83337553  0.75651787  1
  Mn3.34+  Mn114  1  0.42441951  0.33337370  0.08771502  1
  Mn3.34+  Mn115  1  0.41335550  0.33482507  0.41986549  1
  Mn3.34+  Mn116  1  0.41489403  0.33541522  0.75015060  1
  Mn3.34+  Mn117  1  0.42506206  0.83978206  0.08288944  1
  Mn3.34+  Mn118  1  0.42020076  0.82290695  0.41483580  1
  Mn3.34+  Mn119  1  0.41551781  0.83447823  0.75005512  1
  Mn3.34+  Mn120  1  0.75158766  0.33730241  0.08567152  1
  Mn3.34+  Mn121  1  0.75764272  0.34017844  0.41218414  1
  Mn3.34+  Mn122  1  0.75714681  0.34500884  0.76029007  1
  Mn3.34+  Mn123  1  0.74341403  0.83307366  0.08266887  1
  Mn3.34+  Mn124  1  0.74742528  0.82855643  0.41826704  1
  Mn3.34+  Mn125  1  0.75020447  0.82862354  0.75007387  1
  Mn3.34+  Mn126  1  0.24509352  0.33347252  0.25144169  1
  Mn3.34+  Mn127  1  0.24887608  0.33719862  0.58138007  1
  Mn3.34+  Mn128  1  0.24630509  0.33070084  0.91184273  1
  Mn3.34+  Mn129  1  0.25415834  0.83095837  0.24231115  1
  Mn3.34+  Mn130  1  0.25812428  0.82876897  0.58794887  1
  Mn3.34+  Mn131  1  0.26031312  0.83304869  0.91300135  1
  Mn3.34+  Mn132  1  0.58787495  0.33611348  0.24592656  1
  Mn3.34+  Mn133  1  0.58212083  0.33562981  0.58292036  1
  Mn3.34+  Mn134  1  0.58812853  0.33096455  0.91719499  1
  Mn3.34+  Mn135  1  0.58284094  0.83097130  0.24232882  1
  Mn3.34+  Mn136  1  0.58051184  0.82759424  0.58222905  1
  Mn3.34+  Mn137  1  0.58042941  0.83099528  0.91686670  1
  Mn3.34+  Mn138  1  0.91984224  0.33781270  0.24093492  1
  Mn3.34+  Mn139  1  0.91845687  0.33794209  0.58305856  1
  Mn3.34+  Mn140  1  0.92001719  0.33442279  0.91274467  1
  Mn3.34+  Mn141  1  0.91127062  0.82927541  0.24388801  1
  Mn3.34+  Mn142  1  0.91156155  0.82161707  0.58178327  1
  Mn3.34+  Mn143  1  0.91562606  0.82709518  0.92121867  1
  Mn3.34+  Mn144  1  0.41363789  0.16331084  0.08564817  1
  Mn3.34+  Mn145  1  0.74134967  0.66553732  0.08814311  1
  Mn3.34+  Mn146  1  0.09664885  0.16589772  0.09004201  1
  Mn3.34+  Mn147  1  0.42209950  0.67127583  0.08715103  1
  Mn3.34+  Mn148  1  0.90276846  0.66804195  0.57799918  1
  Mn3.34+  Mn149  1  0.40938344  0.15826649  0.75510916  1
  Mn3.34+  Mn150  1  0.24432466  0.16469083  0.57981055  1
  Mn3.34+  Mn151  1  0.91652363  0.67368090  0.57888483  1
  Mn3.34+  Mn152  1  0.08574873  0.16956154  0.74709898  1
  Mn3.34+  Mn153  1  0.74841320  0.16762641  0.08774932  1
  Mn3.34+  Mn154  1  0.91159952  0.66502003  0.91385786  1
  Mn3.34+  Mn155  1  0.75055041  0.16534275  0.75408871  1
  Mn3.34+  Mn156  1  0.92372914  0.66396773  0.25094754  1
  Mn3.34+  Mn157  1  0.07600699  0.67307679  0.08037622  1
  Mn3.34+  Mn158  1  0.75170229  0.16872369  0.41409873  1
  Mn3.34+  Mn159  1  0.08101992  0.17246806  0.41365750  1
  Mn3.34+  Mn160  1  0.58077028  0.17283649  0.24980341  1
  Mn3.34+  Mn161  1  0.91356666  0.17326267  0.24960935  1
  Mn3.34+  Mn162  1  0.41199243  0.66409110  0.74408166  1
  Mn3.34+  Mn163  1  0.41091115  0.16257765  0.42339350  1
  Mn3.34+  Mn164  1  0.57657072  0.17141313  0.58270680  1
  Mn3.34+  Mn165  1  0.58652768  0.16544871  0.58075120  1
  Mn3.34+  Mn166  1  0.25582581  0.16842331  0.91238905  1
  Mn3.34+  Mn167  1  0.58442854  0.66517400  0.58188170  1
  Mn3.34+  Mn168  1  0.08483717  0.17336587  0.08751083  1
  Mn3.34+  Mn169  1  0.59310706  0.16584611  0.24675051  1
  Mn3.34+  Mn170  1  0.25199692  0.17032788  0.25426507  1
  Mn3.34+  Mn171  1  0.25235206  0.66570242  0.91362329  1
  Mn3.34+  Mn172  1  0.42105803  0.65821143  0.74637140  1
  Mn3.34+  Mn173  1  0.75294131  0.66022295  0.75068528  1
  Mn3.34+  Mn174  1  0.08540776  0.66128045  0.42583920  1
  Mn3.34+  Mn175  1  0.25475530  0.17162750  0.58220734  1
  Mn3.34+  Mn176  1  0.25010790  0.66288912  0.58228047  1
  Mn3.34+  Mn177  1  0.57859183  0.66690787  0.24516310  1
  Mn3.34+  Mn178  1  0.91029000  0.65709802  0.25030298  1
  Mn3.34+  Mn179  1  0.08504677  0.66725368  0.08278474  1
  Mn3.34+  Mn180  1  0.41300797  0.50417435  0.72728020  1
  Mn3.34+  Mn181  1  0.09887754  0.00536839  0.06848914  1
  Mn3.34+  Mn182  1  0.74912334  0.50392812  0.39784359  1
  Mn3.34+  Mn183  1  0.25447345  0.00207157  0.58609552  1
  Mn3.34+  Mn184  1  0.42232698  0.50013488  0.08534731  1
  Mn3.34+  Mn185  1  0.90913397  -0.00017667  0.91591253  1
  Mn3.34+  Mn186  1  0.09066259  -0.00225722  0.74602547  1
  Mn3.34+  Mn187  1  0.90583600  -0.00407103  0.57700847  1
  Mn3.34+  Mn188  1  0.24936928  0.00199904  0.91693507  1
  Mn3.34+  Mn189  1  0.74682998  -0.00421147  0.08641920  1
  Mn3.34+  Mn190  1  0.25335408  0.49797891  0.26051038  1
  Mn3.34+  Mn191  1  0.24418240  0.00838797  0.58660474  1
  Mn3.34+  Mn192  1  0.42002966  -0.00223822  0.75190627  1
  Mn3.34+  Mn193  1  0.24681134  0.49996747  0.91920675  1
  Mn3.34+  Mn194  1  0.08221401  0.49780129  0.09971868  1
  Mn3.34+  Mn195  1  0.75035928  0.00028360  0.75299504  1
  Mn3.34+  Mn196  1  0.58251541  0.49702121  0.91599868  1
  Mn3.34+  Mn197  1  0.56576268  -0.01053801  0.93236275  1
  Mn3.34+  Mn198  1  0.57983464  -0.00760248  0.92706827  1
  Mn3.34+  Mn199  1  0.24978836  0.50382967  0.59121711  1
  Mn3.34+  Mn200  1  0.91431119  -0.00039091  0.24210785  1
  Mn3.34+  Mn201  1  0.42036342  0.49995679  0.42559971  1
  Mn3.34+  Mn202  1  0.92543939  0.50236950  0.57660546  1
  Mn3.34+  Mn203  1  0.08984969  0.00522623  0.41899571  1
  Mn3.34+  Mn204  1  0.24843055  -0.00307354  0.22755030  1
  Mn3.34+  Mn205  1  0.58149281  0.50108905  0.24968635  1
  Mn3.34+  Mn206  1  0.76102003  -0.00057905  0.42333899  1
  Mn3.34+  Mn207  1  0.07501370  0.00019678  0.41569665  1
  Mn3.34+  Mn208  1  0.07854276  0.50418378  0.40965676  1
  Mn3.34+  Mn209  1  0.91663895  0.00086308  0.57679046  1
  Mn3.34+  Mn210  1  0.92092021  -0.00702073  0.91985718  1
  Mn3.34+  Mn211  1  0.59191044  -0.00250747  0.59093631  1
  Mn3.34+  Mn212  1  0.07602724  0.49120783  0.74300953  1
  Mn3.34+  Mn213  1  0.91474652  0.50672399  0.57533798  1
  Mn3.34+  Mn214  1  0.08093811  0.50134488  0.08797512  1
  Mn3.34+  Mn215  1  0.23852172  0.00218414  0.23034904  1
  O2-  O216  1  0.00515633  0.15097996  0.00644840  1
  O2-  O217  1  -0.00407350  0.15475695  0.33127842  1
  O2-  O218  1  -0.00012296  0.16635005  0.67507179  1
  O2-  O219  1  -0.00895698  0.64438354  0.00952026  1
  O2-  O220  1  0.00251916  0.64888408  0.33306244  1
  O2-  O221  1  -0.01370474  0.66680579  0.66669396  1
  O2-  O222  1  0.33153255  0.15715735  -0.00047329  1
  O2-  O223  1  0.34179615  0.15052934  0.33001168  1
  O2-  O224  1  0.33831193  0.16039008  0.65958255  1
  O2-  O225  1  0.34016076  0.65253469  -0.00704589  1
  O2-  O226  1  0.33638865  0.68229929  0.34884088  1
  O2-  O227  1  0.33445176  0.64534666  0.66617707  1
  O2-  O228  1  0.66425974  0.16508865  0.01395912  1
  O2-  O229  1  0.66178938  0.13803017  0.33807316  1
  O2-  O230  1  0.66561743  0.14697222  0.66697748  1
  O2-  O231  1  0.67253315  0.65209540  0.00326998  1
  O2-  O232  1  0.66057461  0.68002251  0.32537553  1
  O2-  O233  1  0.67092141  0.66634378  0.67049355  1
  O2-  O234  1  0.16571883  0.15560372  -0.00144647  1
  O2-  O235  1  0.16216474  0.15782351  0.32733516  1
  O2-  O236  1  0.16698359  0.14395754  0.66169470  1
  O2-  O237  1  0.16529193  0.65262527  -0.00035080  1
  O2-  O238  1  0.16703360  0.64826912  0.34740129  1
  O2-  O239  1  0.17140245  0.65710316  0.66334335  1
  O2-  O240  1  0.49115777  0.15464700  0.00519470  1
  O2-  O241  1  0.50066727  0.14980721  0.33599429  1
  O2-  O242  1  0.49518798  0.15140818  0.66336374  1
  O2-  O243  1  0.50260298  0.66559010  0.00488100  1
  O2-  O244  1  0.50831939  0.67931667  0.33243448  1
  O2-  O245  1  0.50740841  0.64573067  0.67278205  1
  O2-  O246  1  0.82871043  0.15847011  0.00498004  1
  O2-  O247  1  0.82664755  0.15016194  0.32622340  1
  O2-  O248  1  0.82387756  0.17595277  0.67020959  1
  O2-  O249  1  0.82630355  0.65024554  0.00070801  1
  O2-  O250  1  0.82870826  0.65953683  0.32655089  1
  O2-  O251  1  0.82996813  0.68890498  0.66555527  1
  O2-  O252  1  0.00205566  0.32797381  0.00318189  1
  O2-  O253  1  -0.00074623  0.34532584  0.33091408  1
  O2-  O254  1  0.00635345  0.34766232  0.66097335  1
  O2-  O255  1  0.01069410  0.83328480  -0.00839820  1
  O2-  O256  1  0.00078557  0.84419301  0.33702538  1
  O2-  O257  1  -0.00413483  0.83782183  0.66826257  1
  O2-  O258  1  0.33744487  0.34855499  0.00023898  1
  O2-  O259  1  0.33649702  0.34556443  0.33102701  1
  O2-  O260  1  0.33262842  0.32840417  0.67063077  1
  O2-  O261  1  0.34023591  0.84003889  -0.00418407  1
  O2-  O262  1  0.34196423  0.85051860  0.32318786  1
  O2-  O263  1  0.34342887  0.84672060  0.65813314  1
  O2-  O264  1  0.66943689  0.33556306  -0.00044879  1
  O2-  O265  1  0.66116987  0.35278986  0.33963159  1
  O2-  O266  1  0.66772336  0.34853621  0.67101988  1
  O2-  O267  1  0.67103557  0.83971566  -0.00779202  1
  O2-  O268  1  0.66606214  0.82131522  0.33205146  1
  O2-  O269  1  0.66690981  0.84110167  0.66437616  1
  O2-  O270  1  0.17377606  0.34035247  0.00391290  1
  O2-  O271  1  0.16901238  0.34581969  0.33769573  1
  O2-  O272  1  0.17002708  0.35096698  0.66747682  1
  O2-  O273  1  0.17667541  0.83826981  0.00765478  1
  O2-  O274  1  0.17242143  0.86140832  0.33597407  1
  O2-  O275  1  0.16460896  0.84701727  0.66717471  1
  O2-  O276  1  0.50457693  0.35758949  0.00408867  1
  O2-  O277  1  0.50140771  0.34343509  0.33766593  1
  O2-  O278  1  0.50581312  0.33939431  0.67366379  1
  O2-  O279  1  0.50526736  0.84375404  0.00061408  1
  O2-  O280  1  0.50731464  0.83125735  0.33763340  1
  O2-  O281  1  0.50298116  0.84959503  0.66148581  1
  O2-  O282  1  0.82836651  0.32715538  -0.00002641  1
  O2-  O283  1  0.83490128  0.34897418  0.32739684  1
  O2-  O284  1  0.82461479  0.34737075  0.66206462  1
  O2-  O285  1  0.83394931  0.84325640  0.00289051  1
  O2-  O286  1  0.82816880  0.83787009  0.33150309  1
  O2-  O287  1  0.82910212  0.82415746  0.66311715  1
  O2-  O288  1  0.00468896  0.18704355  0.16840480  1
  O2-  O289  1  0.00120991  0.18214449  0.49120308  1
  O2-  O290  1  0.01225176  0.17695811  0.83194616  1
  O2-  O291  1  0.00312281  0.69055822  0.16920028  1
  O2-  O292  1  -0.00060907  0.68942094  0.50272386  1
  O2-  O293  1  -0.00114263  0.67357068  0.84431499  1
  O2-  O294  1  0.33912714  0.18241571  0.17583877  1
  O2-  O295  1  0.32939690  0.19450997  0.49824406  1
  O2-  O296  1  0.33068764  0.18876871  0.82969645  1
  O2-  O297  1  0.33333793  0.67921649  0.15478479  1
  O2-  O298  1  0.32553230  0.68051755  0.49978739  1
  O2-  O299  1  0.33528635  0.68126073  0.82957242  1
  O2-  O300  1  0.67452874  0.18834540  0.17264971  1
  O2-  O301  1  0.66617672  0.18122585  0.49746159  1
  O2-  O302  1  0.66911901  0.18363486  0.82534081  1
  O2-  O303  1  0.66528799  0.68583451  0.16764625  1
  O2-  O304  1  0.65616544  0.68086115  0.49611032  1
  O2-  O305  1  0.67992771  0.67499153  0.83074975  1
  O2-  O306  1  0.17307767  0.19060449  0.16685807  1
  O2-  O307  1  0.16197813  0.17982675  0.50237778  1
  O2-  O308  1  0.16371656  0.18056367  0.83977529  1
  O2-  O309  1  0.16990626  0.69023173  0.15213664  1
  O2-  O310  1  0.16776746  0.68236326  0.50222878  1
  O2-  O311  1  0.16994044  0.67366682  0.83847055  1
  O2-  O312  1  0.50219531  0.18683893  0.16646889  1
  O2-  O313  1  0.49820891  0.19409666  0.49663284  1
  O2-  O314  1  0.49299092  0.18376435  0.81905994  1
  O2-  O315  1  0.49954600  0.68964119  0.16792564  1
  O2-  O316  1  0.50596877  0.67952416  0.50077843  1
  O2-  O317  1  0.49151949  0.67331649  0.83469451  1
  O2-  O318  1  0.84114643  0.18646326  0.15924072  1
  O2-  O319  1  0.83076047  0.18233441  0.48939831  1
  O2-  O320  1  0.82913910  0.18280348  0.82605163  1
  O2-  O321  1  0.83802788  0.68354214  0.16469127  1
  O2-  O322  1  0.83309564  0.69700205  0.49974858  1
  O2-  O323  1  0.83629514  0.68381615  0.82794739  1
  O2-  O324  1  -0.00047697  0.30886086  0.16207901  1
  O2-  O325  1  0.00071581  0.32374296  0.50032429  1
  O2-  O326  1  -0.00259953  0.32259111  0.82569043  1
  O2-  O327  1  0.00244295  0.81728699  0.16564421  1
  O2-  O328  1  0.00442563  0.81739436  0.51154984  1
  O2-  O329  1  -0.00320797  0.82033442  0.83396733  1
  O2-  O330  1  0.33033319  0.32293086  0.16033374  1
  O2-  O331  1  0.32748004  0.31559864  0.49450261  1
  O2-  O332  1  0.33940685  0.31938915  0.83860150  1
  O2-  O333  1  0.33011655  0.82131990  0.16180607  1
  O2-  O334  1  0.32682607  0.81575664  0.48319618  1
  O2-  O335  1  0.33316000  0.81366272  0.82787764  1
  O2-  O336  1  0.66670891  0.31706396  0.15918670  1
  O2-  O337  1  0.66807847  0.33110903  0.50123845  1
  O2-  O338  1  0.66786521  0.31681283  0.82966375  1
  O2-  O339  1  0.66320584  0.81363356  0.16722031  1
  O2-  O340  1  0.66807256  0.81406967  0.50151797  1
  O2-  O341  1  0.66924733  0.81641031  0.82872194  1
  O2-  O342  1  0.17131818  0.31376694  0.16109385  1
  O2-  O343  1  0.16200068  0.32799296  0.50147924  1
  O2-  O344  1  0.16754278  0.31876448  0.83106787  1
  O2-  O345  1  0.15606703  0.81685057  0.17639090  1
  O2-  O346  1  0.16856577  0.83651680  0.50217094  1
  O2-  O347  1  0.16575078  0.82493891  0.84004880  1
  O2-  O348  1  0.49991515  0.31525332  0.17082942  1
  O2-  O349  1  0.50431945  0.31727289  0.49756862  1
  O2-  O350  1  0.49544960  0.32753218  0.83771437  1
  O2-  O351  1  0.49264712  0.82114351  0.17638361  1
  O2-  O352  1  0.49734463  0.81162631  0.50020379  1
  O2-  O353  1  0.50434354  0.82036241  0.82555959  1
  O2-  O354  1  0.83742502  0.31729521  0.15798358  1
  O2-  O355  1  0.83109434  0.32721065  0.50208969  1
  O2-  O356  1  0.83363372  0.31666038  0.83119833  1
  O2-  O357  1  0.82235844  0.81972853  0.17144045  1
  O2-  O358  1  0.83710438  0.81494469  0.49209680  1
  O2-  O359  1  0.83407560  0.81417311  0.83229855  1
  O2-  O360  1  0.07314139  0.08141353  0.12708535  1
  O2-  O361  1  0.07558996  0.08579830  0.44447284  1
  O2-  O362  1  0.07777614  0.08232398  0.76954117  1
  O2-  O363  1  0.08878513  0.58359396  0.13064917  1
  O2-  O364  1  0.09028180  0.57710078  0.45302439  1
  O2-  O365  1  0.07713566  0.56480968  0.78462633  1
  O2-  O366  1  0.42454725  0.08450510  0.12413928  1
  O2-  O367  1  0.43659628  0.07900201  0.45496612  1
  O2-  O368  1  0.43058512  0.07438533  0.79592238  1
  O2-  O369  1  0.41521099  0.58321281  0.08832161  1
  O2-  O370  1  0.42429163  0.58145015  0.43152991  1
  O2-  O371  1  0.41021411  0.57688247  0.79218174  1
  O2-  O372  1  0.76587460  0.07662707  0.12554981  1
  O2-  O373  1  0.75455082  0.08184499  0.45020636  1
  O2-  O374  1  0.75466220  0.08203822  0.78156992  1
  O2-  O375  1  0.75790914  0.58485381  0.12507036  1
  O2-  O376  1  0.70992132  0.57381321  0.42092569  1
  O2-  O377  1  0.75759661  0.57980367  0.77714443  1
  O2-  O378  1  0.25821200  0.08467390  0.22487994  1
  O2-  O379  1  0.26974612  0.08428813  0.53989593  1
  O2-  O380  1  0.24145113  0.08364249  0.88475283  1
  O2-  O381  1  0.23780433  0.57377742  0.23005319  1
  O2-  O382  1  0.25693611  0.58033850  0.54253881  1
  O2-  O383  1  0.24969798  0.58169811  0.88675536  1
  O2-  O384  1  0.56977149  0.08416422  0.22340275  1
  O2-  O385  1  0.57976260  0.08078692  0.54500999  1
  O2-  O386  1  0.59679332  0.06965177  0.88706789  1
  O2-  O387  1  0.59641872  0.58308531  0.25789256  1
  O2-  O388  1  0.58779789  0.58423943  0.55679645  1
  O2-  O389  1  0.58364107  0.57412972  0.88075121  1
  O2-  O390  1  0.91741102  0.08528863  0.21257157  1
  O2-  O391  1  0.91558068  0.08294346  0.55737002  1
  O2-  O392  1  0.93958516  0.07607705  0.88000864  1
  O2-  O393  1  0.92437441  0.58195790  0.20367667  1
  O2-  O394  1  0.91385258  0.58657722  0.54724119  1
  O2-  O395  1  0.90468072  0.58479605  0.89349196  1
  O2-  O396  1  0.10572476  0.41647009  0.11272370  1
  O2-  O397  1  0.07972770  0.42676481  0.44679127  1
  O2-  O398  1  0.10033031  0.41850417  0.77979261  1
  O2-  O399  1  0.09550257  0.92344255  0.11004629  1
  O2-  O400  1  0.06395054  0.92196218  0.45669673  1
  O2-  O401  1  0.06393233  0.91769487  0.77990806  1
  O2-  O402  1  0.40788948  0.41838078  0.11996691  1
  O2-  O403  1  0.43580302  0.41966652  0.44746746  1
  O2-  O404  1  0.41981265  0.42671458  0.77960548  1
  O2-  O405  1  0.40589914  0.91814727  0.11307363  1
  O2-  O406  1  0.41975258  0.91696011  0.44373918  1
  O2-  O407  1  0.43259369  0.91816438  0.77036515  1
  O2-  O408  1  0.75382892  0.41689763  0.09017408  1
  O2-  O409  1  0.74661154  0.43617294  0.45829316  1
  O2-  O410  1  0.73303105  0.41939117  0.79399242  1
  O2-  O411  1  0.74283345  0.91555713  0.11407936  1
  O2-  O412  1  0.75908231  0.91773642  0.44793803  1
  O2-  O413  1  0.76939630  0.91898962  0.77468890  1
  O2-  O414  1  0.25757209  0.41945666  0.21850019  1
  O2-  O415  1  0.24939428  0.42302656  0.55466106  1
  O2-  O416  1  0.26685741  0.41632408  0.88326457  1
  O2-  O417  1  0.23148191  0.91570874  0.20611717  1
  O2-  O418  1  0.26932774  0.92162676  0.54611721  1
  O2-  O419  1  0.24281178  0.91926785  0.90761248  1
  O2-  O420  1  0.56313701  0.42325355  0.21199940  1
  O2-  O421  1  0.58951804  0.41842040  0.55621385  1
  O2-  O422  1  0.57694447  0.41745563  0.88474068  1
  O2-  O423  1  0.58994745  0.91362896  0.25615521  1
  O2-  O424  1  0.58574259  0.91683015  0.53768141  1
  O2-  O425  1  0.60456304  0.91669503  0.88213021  1
  O2-  O426  1  0.92476936  0.41538696  0.21476974  1
  O2-  O427  1  0.92523660  0.42205164  0.54386811  1
  O2-  O428  1  0.90889050  0.41346728  0.92748075  1
  O2-  O429  1  0.93262127  0.91464556  0.22858466  1
  O2-  O430  1  0.91320708  0.91357250  0.55538146  1
  O2-  O431  1  0.90838994  0.91311143  0.89260116  1
  O2-  O432  1  -0.01488858  0.01626591  0.01672936  1
  O2-  O433  1  0.01457921  0.00565128  0.31512006  1
  O2-  O434  1  -0.00364708  -0.00878342  0.66155598  1
  O2-  O435  1  -0.02603136  0.49976531  0.04051223  1
  O2-  O436  1  0.00450278  0.50881575  0.33502385  1
  O2-  O437  1  -0.01942686  0.50448666  0.68307596  1
  O2-  O438  1  0.31939970  0.00706510  -0.00287781  1
  O2-  O439  1  0.34263659  -0.01173478  0.30029843  1
  O2-  O440  1  0.33714142  0.00879598  0.66649270  1
  O2-  O441  1  0.33145422  0.47630286  0.00567865  1
  O2-  O442  1  0.32991589  0.49147353  0.34984134  1
  O2-  O443  1  0.30120529  0.50146166  0.70175054  1
  O2-  O444  1  0.66103223  0.00942985  0.00900736  1
  O2-  O445  1  0.65303522  -0.00241051  0.37200413  1
  O2-  O446  1  0.66175972  -0.01589039  0.68166310  1
  O2-  O447  1  0.67072785  0.49686954  -0.02253004  1
  O2-  O448  1  0.66998647  0.47824992  0.32879191  1
  O2-  O449  1  0.66609869  0.47652072  0.67294930  1
  O2-  O450  1  0.13230744  0.00640026  -0.05312766  1
  O2-  O451  1  0.17750996  -0.00819591  0.33723273  1
  O2-  O452  1  0.14695416  -0.01948430  0.63695148  1
  O2-  O453  1  0.17582919  0.50180332  0.01966548  1
  O2-  O454  1  0.16915739  0.49775200  0.34277406  1
  O2-  O455  1  0.14955032  0.49720355  0.65729752  1
  O2-  O456  1  0.48986390  0.01707836  0.00078666  1
  O2-  O457  1  0.49971638  0.00411423  0.33782947  1
  O2-  O458  1  0.49377423  0.00376467  0.65754762  1
  O2-  O459  1  0.47915881  0.49709758  -0.03103343  1
  O2-  O460  1  0.51665881  0.49543637  0.35447633  1
  O2-  O461  1  0.52359449  0.50340715  0.71536838  1
  O2-  O462  1  0.82658065  0.01545331  -0.00139798  1
  O2-  O463  1  0.82161154  -0.00516402  0.32038042  1
  O2-  O464  1  0.82429791  0.01209370  0.65890658  1
  O2-  O465  1  0.81526488  0.51698823  -0.01903386  1
  O2-  O466  1  0.83168575  0.51078399  0.33536710  1
  O2-  O467  1  0.81851174  0.49522651  0.63582232  1
  O2-  O468  1  0.41755204  0.25183850  0.05902172  1
  O2-  O469  1  0.91700567  0.25970351  0.60150171  1
  O2-  O470  1  0.24878120  0.74830014  0.93817635  1
  O2-  O471  1  0.57705356  0.74944192  0.61662572  1
  O2-  O472  1  0.09167492  0.25240579  0.72504104  1
  O2-  O473  1  0.91738016  0.74585900  0.27673588  1
  O2-  O474  1  0.75087143  0.74888846  0.05833041  1
  O2-  O475  1  0.23090205  0.25081612  0.60991397  1
  O2-  O476  1  0.42241790  0.74656587  0.71788455  1
  O2-  O477  1  0.24866411  0.75746543  0.27749180  1
  O2-  O478  1  0.92187414  0.25201520  0.92767582  1
  O2-  O479  1  0.59674375  0.25227984  0.61352758  1
  O2-  O480  1  0.25986287  0.25117268  0.28152669  1
  O2-  O481  1  0.57212372  0.25418055  0.93054674  1
  O2-  O482  1  0.08798035  0.75409231  0.74176557  1
  O2-  O483  1  0.91269360  0.25140658  0.28271852  1
  O2-  O484  1  0.25108072  0.24984779  0.94262948  1
  O2-  O485  1  0.08825527  0.74578221  0.39285279  1
  O2-  O486  1  0.08508455  0.25426177  0.39492943  1
  O2-  O487  1  0.41659587  0.75281947  0.05981713  1
  O2-  O488  1  0.58075051  0.75265340  0.92779097  1
  O2-  O489  1  0.59590647  0.24894287  0.28621757  1
  O2-  O490  1  0.91670242  0.74649089  0.94556370  1
  O2-  O491  1  0.74225388  0.24912840  0.38885838  1
  O2-  O492  1  0.25039780  0.74727232  0.61299844  1
