# generated using pymatgen
data_Ca108Mn108O277
_symmetry_space_group_name_H-M   'P 1'
_cell_length_a   16.02368207
_cell_length_b   22.30080387
_cell_length_c   16.38690543
_cell_angle_alpha   89.99926743
_cell_angle_beta   89.99745719
_cell_angle_gamma   90.00008118
_symmetry_Int_Tables_number   1
_chemical_formula_structural   Ca108Mn108O277
_chemical_formula_sum   'Ca108 Mn108 O277'
_cell_volume   5855.71302101
_cell_formula_units_Z   1
loop_
 _symmetry_equiv_pos_site_id
 _symmetry_equiv_pos_as_xyz
  1  'x, y, z'
loop_
 _atom_type_symbol
 _atom_type_oxidation_number
  Ca2+  2.0
  Mn3.34+  3.34
  O2-  -2.0
loop_
 _atom_site_type_symbol
 _atom_site_label
 _atom_site_symmetry_multiplicity
 _atom_site_fract_x
 _atom_site_fract_y
 _atom_site_fract_z
 _atom_site_occupancy
  Ca2+  Ca0  1  0.10565762  0.24354283  0.23859816  1
  Ca2+  Ca1  1  0.09668288  0.25642299  0.59420625  1
  Ca2+  Ca2  1  0.07044973  0.24151120  0.91423107  1
  Ca2+  Ca3  1  0.06920744  0.76433700  0.25309947  1
  Ca2+  Ca4  1  0.07708795  0.76682949  0.57859983  1
  Ca2+  Ca5  1  0.06251077  0.75209171  0.91804064  1
  Ca2+  Ca6  1  0.41679651  0.25116127  0.25343122  1
  Ca2+  Ca7  1  0.42291721  0.23295374  0.57716048  1
  Ca2+  Ca8  1  0.43033604  0.24810769  0.90898553  1
  Ca2+  Ca9  1  0.43085334  0.74752484  0.24997130  1
  Ca2+  Ca10  1  0.42104877  0.75940334  0.58240142  1
  Ca2+  Ca11  1  0.42883654  0.74758718  0.92154966  1
  Ca2+  Ca12  1  0.73706185  0.24778067  0.24884442  1
  Ca2+  Ca13  1  0.73085307  0.23486194  0.57063881  1
  Ca2+  Ca14  1  0.75118773  0.24194471  0.92903961  1
  Ca2+  Ca15  1  0.76157406  0.74952656  0.25256831  1
  Ca2+  Ca16  1  0.75024147  0.77350545  0.58247876  1
  Ca2+  Ca17  1  0.76834969  0.74695227  0.92987211  1
  Ca2+  Ca18  1  0.24990369  0.24945823  0.10360816  1
  Ca2+  Ca19  1  0.26687807  0.23979011  0.40043723  1
  Ca2+  Ca20  1  0.24641967  0.23905044  0.74514053  1
  Ca2+  Ca21  1  0.26504891  0.75517153  0.08656713  1
  Ca2+  Ca22  1  0.25996229  0.76279405  0.41372330  1
  Ca2+  Ca23  1  0.26023547  0.75624662  0.75058983  1
  Ca2+  Ca24  1  0.60380065  0.24699100  0.08727881  1
  Ca2+  Ca25  1  0.59378845  0.24097678  0.40535957  1
  Ca2+  Ca26  1  0.58301612  0.23263653  0.74549195  1
  Ca2+  Ca27  1  0.58679998  0.74973678  0.09167159  1
  Ca2+  Ca28  1  0.58636869  0.76028023  0.40303240  1
  Ca2+  Ca29  1  0.57796964  0.76918050  0.75463487  1
  Ca2+  Ca30  1  0.89792601  0.23144966  0.07289597  1
  Ca2+  Ca31  1  0.88506242  0.25102706  0.40868819  1
  Ca2+  Ca32  1  0.91445195  0.24528530  0.76837253  1
  Ca2+  Ca33  1  0.91152057  0.73061898  0.09402310  1
  Ca2+  Ca34  1  0.90761726  0.76471984  0.40439972  1
  Ca2+  Ca35  1  0.91309011  0.75918284  0.76550487  1
  Ca2+  Ca36  1  0.04782701  0.59575286  0.23260412  1
  Ca2+  Ca37  1  0.73762407  0.09874517  0.25384261  1
  Ca2+  Ca38  1  0.90511516  0.58795067  0.39712819  1
  Ca2+  Ca39  1  0.10855891  0.10162736  0.25002621  1
  Ca2+  Ca40  1  0.27122966  0.09980894  0.41666209  1
  Ca2+  Ca41  1  0.42945951  0.09096319  0.59576410  1
  Ca2+  Ca42  1  0.06293137  0.60063216  0.92726019  1
  Ca2+  Ca43  1  0.74709760  0.57709038  0.57858756  1
  Ca2+  Ca44  1  0.23541014  0.11075075  0.10055299  1
  Ca2+  Ca45  1  0.06001540  0.59597488  0.23658522  1
  Ca2+  Ca46  1  0.58296923  0.58181947  0.37792684  1
  Ca2+  Ca47  1  0.92697155  0.59763367  0.75781715  1
  Ca2+  Ca48  1  0.60720332  0.10592897  0.08663752  1
  Ca2+  Ca49  1  0.40617594  0.59769361  0.58409659  1
  Ca2+  Ca50  1  0.09942817  0.08023280  0.60076779  1
  Ca2+  Ca51  1  0.74816533  0.60230176  0.24874981  1
  Ca2+  Ca52  1  0.24308101  0.10565298  0.09768665  1
  Ca2+  Ca53  1  0.86859689  0.09696189  0.75631524  1
  Ca2+  Ca54  1  0.75236240  0.10684678  0.90902795  1
  Ca2+  Ca55  1  0.26804807  0.58207070  0.06917953  1
  Ca2+  Ca56  1  0.59057003  0.10180365  0.43024011  1
  Ca2+  Ca57  1  0.41440940  0.10528567  0.26157823  1
  Ca2+  Ca58  1  0.54745964  0.57632916  0.74555284  1
  Ca2+  Ca59  1  0.55928582  0.57709186  0.74732102  1
  Ca2+  Ca60  1  0.89468735  0.58458748  0.39780666  1
  Ca2+  Ca61  1  0.05128738  0.60115663  0.92204175  1
  Ca2+  Ca62  1  0.41172990  0.58559039  0.93468067  1
  Ca2+  Ca63  1  0.40350204  0.10540896  0.26009332  1
  Ca2+  Ca64  1  0.08867713  0.58962023  0.60132880  1
  Ca2+  Ca65  1  0.28084478  0.08506527  0.73940097  1
  Ca2+  Ca66  1  0.78351792  0.59689749  0.93467256  1
  Ca2+  Ca67  1  0.56853432  0.59108088  0.09772435  1
  Ca2+  Ca68  1  0.42468614  0.10156893  0.88638181  1
  Ca2+  Ca69  1  0.58240439  0.09403426  0.73207121  1
  Ca2+  Ca70  1  0.26415070  0.59278276  0.75487579  1
  Ca2+  Ca71  1  0.25160817  0.59058134  0.75400398  1
  Ca2+  Ca72  1  0.23259033  0.91590823  0.41690260  1
  Ca2+  Ca73  1  0.42867237  0.40162434  0.58450615  1
  Ca2+  Ca74  1  0.08675545  0.40235434  0.25320248  1
  Ca2+  Ca75  1  0.57977455  0.40341907  0.74662085  1
  Ca2+  Ca76  1  0.91845402  0.89579077  0.08535789  1
  Ca2+  Ca77  1  0.91350757  0.39523722  0.08876691  1
  Ca2+  Ca78  1  0.42167834  0.90905929  0.24976418  1
  Ca2+  Ca79  1  0.90797309  0.91115241  0.73923481  1
  Ca2+  Ca80  1  0.75215095  0.90787170  0.90860574  1
  Ca2+  Ca81  1  0.76677203  0.40020130  0.58200047  1
  Ca2+  Ca82  1  0.58667641  0.90646136  0.08623112  1
  Ca2+  Ca83  1  0.76351033  0.90783869  0.90832595  1
  Ca2+  Ca84  1  0.40885452  0.90885153  0.24996135  1
  Ca2+  Ca85  1  0.74630708  0.90779606  0.25745102  1
  Ca2+  Ca86  1  0.92416537  0.39503682  0.08844673  1
  Ca2+  Ca87  1  0.42363261  0.92358948  0.59917622  1
  Ca2+  Ca88  1  0.38947428  0.91537871  0.90930325  1
  Ca2+  Ca89  1  0.91952464  0.40593044  0.41547496  1
  Ca2+  Ca90  1  0.59826508  0.92743825  0.72173962  1
  Ca2+  Ca91  1  0.40388552  0.41526873  0.93443581  1
  Ca2+  Ca92  1  0.40117179  0.91208982  0.91140637  1
  Ca2+  Ca93  1  0.25714024  0.40472670  0.75457067  1
  Ca2+  Ca94  1  0.75510319  0.40104392  0.58238902  1
  Ca2+  Ca95  1  0.24778150  0.90844318  0.07530126  1
  Ca2+  Ca96  1  0.41480348  0.41538727  0.93293638  1
  Ca2+  Ca97  1  0.43761964  0.41749352  0.23569741  1
  Ca2+  Ca98  1  0.24428292  0.40473552  0.75476945  1
  Ca2+  Ca99  1  0.59222388  0.40194925  0.74760226  1
  Ca2+  Ca100  1  0.24136458  0.39633713  0.40919962  1
  Ca2+  Ca101  1  0.43383408  0.92468857  0.59728871  1
  Ca2+  Ca102  1  0.08706874  0.90509484  0.91424341  1
  Ca2+  Ca103  1  0.91527048  0.39407626  0.75252776  1
  Ca2+  Ca104  1  0.24919424  0.92002260  0.74732690  1
  Ca2+  Ca105  1  0.07829066  0.40205054  0.91779259  1
  Ca2+  Ca106  1  0.41631415  0.40364840  0.58651431  1
  Ca2+  Ca107  1  0.25471997  0.40389864  0.08690084  1
  Mn3.34+  Mn108  1  0.08431539  0.32735738  0.08407075  1
  Mn3.34+  Mn109  1  0.08009707  0.32908699  0.41839464  1
  Mn3.34+  Mn110  1  0.08299956  0.33079157  0.74919451  1
  Mn3.34+  Mn111  1  0.08242784  0.82743663  0.08465776  1
  Mn3.34+  Mn112  1  0.07791260  0.84429972  0.41651542  1
  Mn3.34+  Mn113  1  0.08617769  0.83542950  0.74761925  1
  Mn3.34+  Mn114  1  0.42319504  0.33866975  0.08836124  1
  Mn3.34+  Mn115  1  0.42085009  0.33367067  0.41402300  1
  Mn3.34+  Mn116  1  0.41551128  0.33151432  0.75554032  1
  Mn3.34+  Mn117  1  0.41793030  0.83350887  0.08328439  1
  Mn3.34+  Mn118  1  0.41691943  0.83666973  0.42227718  1
  Mn3.34+  Mn119  1  0.41405599  0.83502254  0.75224387  1
  Mn3.34+  Mn120  1  0.74569286  0.32998846  0.08522789  1
  Mn3.34+  Mn121  1  0.74391037  0.33436577  0.40785584  1
  Mn3.34+  Mn122  1  0.74879623  0.32350128  0.75182718  1
  Mn3.34+  Mn123  1  0.75014981  0.83566092  0.08795072  1
  Mn3.34+  Mn124  1  0.75047070  0.84103159  0.41901070  1
  Mn3.34+  Mn125  1  0.74826269  0.83935743  0.74569843  1
  Mn3.34+  Mn126  1  0.25303523  0.32989730  0.24943594  1
  Mn3.34+  Mn127  1  0.24679611  0.32829420  0.57523282  1
  Mn3.34+  Mn128  1  0.24765464  0.32832793  0.91892482  1
  Mn3.34+  Mn129  1  0.24242551  0.83617639  0.24939411  1
  Mn3.34+  Mn130  1  0.24439503  0.83755956  0.58070962  1
  Mn3.34+  Mn131  1  0.24345408  0.83015692  0.91266585  1
  Mn3.34+  Mn132  1  0.58642162  0.33917208  0.24658139  1
  Mn3.34+  Mn133  1  0.58472656  0.32730307  0.57538113  1
  Mn3.34+  Mn134  1  0.58994763  0.33013012  0.92018554  1
  Mn3.34+  Mn135  1  0.58591086  0.83492742  0.25185394  1
  Mn3.34+  Mn136  1  0.58775342  0.84250730  0.57662280  1
  Mn3.34+  Mn137  1  0.58377795  0.83494826  0.91616201  1
  Mn3.34+  Mn138  1  0.91475187  0.33143964  0.25278382  1
  Mn3.34+  Mn139  1  0.92263696  0.32615600  0.57887448  1
  Mn3.34+  Mn140  1  0.91200200  0.33115105  0.91428324  1
  Mn3.34+  Mn141  1  0.91701407  0.83196748  0.25097112  1
  Mn3.34+  Mn142  1  0.91685345  0.83464076  0.57901695  1
  Mn3.34+  Mn143  1  0.91990184  0.83302909  0.91540655  1
  Mn3.34+  Mn144  1  0.58087316  0.66531687  0.24719560  1
  Mn3.34+  Mn145  1  0.25440838  0.16800955  0.58241088  1
  Mn3.34+  Mn146  1  0.10196878  0.66230959  0.42307781  1
  Mn3.34+  Mn147  1  0.90541229  0.17171665  0.58388196  1
  Mn3.34+  Mn148  1  0.58564258  0.66795117  0.92255204  1
  Mn3.34+  Mn149  1  0.74895697  0.66961211  0.08769844  1
  Mn3.34+  Mn150  1  0.08877491  0.67578688  0.75305953  1
  Mn3.34+  Mn151  1  0.08759752  0.66768785  0.42031795  1
  Mn3.34+  Mn152  1  0.08454443  0.15597982  0.42525763  1
  Mn3.34+  Mn153  1  0.58359483  0.16971488  0.25066282  1
  Mn3.34+  Mn154  1  0.91633872  0.16533402  0.58060786  1
  Mn3.34+  Mn155  1  0.92103838  0.16593323  0.24529239  1
  Mn3.34+  Mn156  1  0.91092206  0.16123392  0.24536826  1
  Mn3.34+  Mn157  1  0.25296136  0.16307780  0.91136593  1
  Mn3.34+  Mn158  1  0.90820331  0.66622280  0.58376480  1
  Mn3.34+  Mn159  1  0.74793219  0.67059496  0.41282122  1
  Mn3.34+  Mn160  1  0.75379226  0.66187116  0.75647816  1
  Mn3.34+  Mn161  1  0.26232855  0.65954057  0.24813452  1
  Mn3.34+  Mn162  1  0.58064041  0.67119777  0.58047785  1
  Mn3.34+  Mn163  1  0.07374656  0.16041226  0.42481218  1
  Mn3.34+  Mn164  1  0.58549570  0.17159402  0.91092216  1
  Mn3.34+  Mn165  1  0.24974131  0.67566364  0.91765888  1
  Mn3.34+  Mn166  1  0.25294675  0.67527949  0.58387017  1
  Mn3.34+  Mn167  1  0.91869390  0.16393774  0.91879702  1
  Mn3.34+  Mn168  1  0.42272569  0.16658491  0.08124787  1
  Mn3.34+  Mn169  1  0.74142313  0.66768664  0.75401210  1
  Mn3.34+  Mn170  1  0.08025627  0.16281655  0.75014804  1
  Mn3.34+  Mn171  1  0.08895758  0.67518613  0.08484270  1
  Mn3.34+  Mn172  1  0.24345278  0.15749494  0.91138749  1
  Mn3.34+  Mn173  1  0.25205628  0.66489215  0.24904568  1
  Mn3.34+  Mn174  1  0.41995404  0.66391978  0.08246077  1
  Mn3.34+  Mn175  1  0.41767616  0.67120012  0.75602438  1
  Mn3.34+  Mn176  1  0.59126621  0.66638064  0.57852011  1
  Mn3.34+  Mn177  1  0.41588919  0.67004870  0.41676527  1
  Mn3.34+  Mn178  1  0.91935661  0.66143831  0.58282816  1
  Mn3.34+  Mn179  1  0.58388708  0.16207543  0.58219237  1
  Mn3.34+  Mn180  1  0.92851867  0.49672087  0.59032524  1
  Mn3.34+  Mn181  1  0.08601869  0.00244658  0.08133776  1
  Mn3.34+  Mn182  1  0.08215959  0.00234087  0.74615008  1
  Mn3.34+  Mn183  1  0.59413540  0.00258348  0.90712952  1
  Mn3.34+  Mn184  1  0.09062655  0.50040722  0.41357166  1
  Mn3.34+  Mn185  1  0.24401015  0.50109976  0.91825046  1
  Mn3.34+  Mn186  1  0.07968771  0.50028858  0.07883611  1
  Mn3.34+  Mn187  1  0.76148277  0.00093365  0.07568327  1
  Mn3.34+  Mn188  1  0.73570779  0.49331332  0.39750133  1
  Mn3.34+  Mn189  1  0.41276324  0.50620530  0.40335648  1
  Mn3.34+  Mn190  1  0.58844040  0.49860192  0.92435347  1
  Mn3.34+  Mn191  1  0.90985347  0.49617745  0.25160359  1
  Mn3.34+  Mn192  1  0.24001250  0.49686550  0.57408255  1
  Mn3.34+  Mn193  1  0.58249363  0.00303882  0.25432320  1
  Mn3.34+  Mn194  1  0.24620548  0.49791680  0.24838350  1
  Mn3.34+  Mn195  1  0.42335564  0.50083404  0.40405133  1
  Mn3.34+  Mn196  1  0.92022469  0.00278554  0.91337082  1
  Mn3.34+  Mn197  1  0.25094197  0.50186410  0.57316536  1
  Mn3.34+  Mn198  1  0.74714004  0.49635715  0.09943320  1
  Mn3.34+  Mn199  1  0.91174229  0.49536862  0.91808269  1
  Mn3.34+  Mn200  1  0.74684232  0.00031888  0.40860708  1
  Mn3.34+  Mn201  1  0.07194325  -0.00237308  0.08525890  1
  Mn3.34+  Mn202  1  0.07654167  0.50109772  0.75692357  1
  Mn3.34+  Mn203  1  0.75552588  0.49977941  0.75034084  1
  Mn3.34+  Mn204  1  0.58103598  0.49915069  0.58084987  1
  Mn3.34+  Mn205  1  0.91258227  -0.00307620  0.57917696  1
  Mn3.34+  Mn206  1  0.58305212  0.00627819  0.90858140  1
  Mn3.34+  Mn207  1  0.90089808  0.00373138  0.58114764  1
  Mn3.34+  Mn208  1  0.75689713  0.50193084  0.10000943  1
  Mn3.34+  Mn209  1  0.92625548  -0.00633745  0.27105893  1
  Mn3.34+  Mn210  1  0.42387897  -0.00205337  0.41345100  1
  Mn3.34+  Mn211  1  0.93638206  0.00109758  0.26767010  1
  Mn3.34+  Mn212  1  0.24942562  0.00228679  0.58478164  1
  Mn3.34+  Mn213  1  0.23942496  -0.00319184  0.26651114  1
  Mn3.34+  Mn214  1  0.60028268  0.49363543  0.92436689  1
  Mn3.34+  Mn215  1  0.41007642  0.00086780  0.07464632  1
  O2-  O216  1  0.00026834  0.17907576  -0.00406197  1
  O2-  O217  1  0.00376601  0.15991052  0.33150739  1
  O2-  O218  1  -0.00039041  0.16267934  0.65923355  1
  O2-  O219  1  0.00852387  0.67290354  0.00452241  1
  O2-  O220  1  0.00227653  0.64661216  0.34269248  1
  O2-  O221  1  0.00566084  0.65883777  0.66936016  1
  O2-  O222  1  0.33311088  0.15898620  -0.00007155  1
  O2-  O223  1  0.33654669  0.16451207  0.33316093  1
  O2-  O224  1  0.33223290  0.16145925  0.66079969  1
  O2-  O225  1  0.33185425  0.66728872  -0.00099685  1
  O2-  O226  1  0.32767390  0.65541453  0.34071490  1
  O2-  O227  1  0.33139594  0.65914244  0.67187360  1
  O2-  O228  1  0.66574151  0.16065788  -0.00873550  1
  O2-  O229  1  0.65950663  0.15825134  0.32962285  1
  O2-  O230  1  0.66310795  0.17023568  0.66509803  1
  O2-  O231  1  0.66480843  0.64828732  0.00186781  1
  O2-  O232  1  0.66474606  0.66128527  0.33457903  1
  O2-  O233  1  0.66280644  0.64032773  0.67682836  1
  O2-  O234  1  0.16964535  0.15989599  -0.00222105  1
  O2-  O235  1  0.16343214  0.16683665  0.34217926  1
  O2-  O236  1  0.16693360  0.15373450  0.66871572  1
  O2-  O237  1  0.16475064  0.66630202  -0.00477203  1
  O2-  O238  1  0.15694603  0.64386894  0.31876003  1
  O2-  O239  1  0.17466008  0.66396676  0.67384407  1
  O2-  O240  1  0.49993637  0.16204595  -0.00188150  1
  O2-  O241  1  0.49916545  0.16349788  0.32934448  1
  O2-  O242  1  0.49880789  0.16823348  0.66307684  1
  O2-  O243  1  0.49805534  0.65445218  -0.00387559  1
  O2-  O244  1  0.50171914  0.66086328  0.33623112  1
  O2-  O245  1  0.49914255  0.64644621  0.66520058  1
  O2-  O246  1  0.83595364  0.16207070  -0.00862442  1
  O2-  O247  1  0.83525325  0.15601741  0.32584907  1
  O2-  O248  1  0.83727046  0.18813664  0.66853737  1
  O2-  O249  1  0.82866934  0.66742063  0.00935080  1
  O2-  O250  1  0.82826309  0.65708484  0.33603076  1
  O2-  O251  1  0.82608841  0.63847385  0.66597878  1
  O2-  O252  1  0.00026976  0.33921512  -0.00022775  1
  O2-  O253  1  -0.00055485  0.33998373  0.33406483  1
  O2-  O254  1  -0.00481404  0.32954066  0.67071507  1
  O2-  O255  1  0.00513925  0.84215456  -0.00537196  1
  O2-  O256  1  0.00018388  0.83848263  0.33094271  1
  O2-  O257  1  -0.00050493  0.82896130  0.67190617  1
  O2-  O258  1  0.33567104  0.33767992  -0.00153786  1
  O2-  O259  1  0.33080886  0.33744997  0.33725828  1
  O2-  O260  1  0.33664885  0.34945504  0.66801864  1
  O2-  O261  1  0.32980023  0.84086495  -0.00098705  1
  O2-  O262  1  0.33138430  0.85339490  0.33775609  1
  O2-  O263  1  0.33124055  0.84258728  0.66576559  1
  O2-  O264  1  0.67126293  0.33741510  -0.00294092  1
  O2-  O265  1  0.66128248  0.33917373  0.33439383  1
  O2-  O266  1  0.66659060  0.34123685  0.66279446  1
  O2-  O267  1  0.67065650  0.85444841  -0.00188529  1
  O2-  O268  1  0.66870542  0.83913408  0.32951037  1
  O2-  O269  1  0.66338483  0.84241158  0.66883171  1
  O2-  O270  1  0.16659605  0.34092220  0.00194708  1
  O2-  O271  1  0.16291600  0.33472408  0.32805854  1
  O2-  O272  1  0.17241299  0.34601033  0.66891163  1
  O2-  O273  1  0.16564911  0.81841181  -0.00099892  1
  O2-  O274  1  0.16890038  0.84059768  0.33751511  1
  O2-  O275  1  0.17026176  0.81107427  0.66843508  1
  O2-  O276  1  0.49278686  0.34258084  -0.00832101  1
  O2-  O277  1  0.49157008  0.33070644  0.32558679  1
  O2-  O278  1  0.49917074  0.34186422  0.67168221  1
  O2-  O279  1  0.49396087  0.85725372  -0.00535466  1
  O2-  O280  1  0.49479163  0.84678279  0.32911126  1
  O2-  O281  1  0.49712969  0.84881443  0.67114308  1
  O2-  O282  1  0.83962173  0.34077254  0.00328291  1
  O2-  O283  1  0.83747303  0.34572989  0.33806711  1
  O2-  O284  1  0.83135291  0.33206109  0.66420043  1
  O2-  O285  1  0.83206753  0.84826121  -0.00278413  1
  O2-  O286  1  0.82939430  0.84276381  0.32712208  1
  O2-  O287  1  0.83603092  0.83998341  0.67125079  1
  O2-  O288  1  0.00356678  0.17910937  0.17450183  1
  O2-  O289  1  -0.00300025  0.18899916  0.50258116  1
  O2-  O290  1  -0.00211037  0.17807926  0.82640078  1
  O2-  O291  1  0.01806092  0.68125359  0.17334805  1
  O2-  O292  1  0.00462007  0.68077655  0.50234333  1
  O2-  O293  1  0.00736592  0.67762811  0.83037461  1
  O2-  O294  1  0.33790993  0.17659240  0.15712056  1
  O2-  O295  1  0.32696177  0.17989337  0.50060962  1
  O2-  O296  1  0.33204725  0.17750563  0.83214930  1
  O2-  O297  1  0.33783532  0.67908673  0.16221324  1
  O2-  O298  1  0.33722840  0.68876106  0.50966151  1
  O2-  O299  1  0.32922245  0.68306220  0.83439345  1
  O2-  O300  1  0.66286269  0.17399330  0.17087390  1
  O2-  O301  1  0.65605784  0.17546975  0.49606939  1
  O2-  O302  1  0.66603696  0.18070939  0.83576964  1
  O2-  O303  1  0.66226466  0.68295813  0.16826281  1
  O2-  O304  1  0.67625324  0.67830771  0.50291881  1
  O2-  O305  1  0.66606724  0.68098111  0.83907791  1
  O2-  O306  1  0.17068905  0.17733059  0.16095506  1
  O2-  O307  1  0.16257333  0.18695371  0.50105327  1
  O2-  O308  1  0.16461699  0.17420295  0.83020494  1
  O2-  O309  1  0.17893258  0.68258686  0.16144636  1
  O2-  O310  1  0.16489922  0.69061247  0.51186340  1
  O2-  O311  1  0.17080346  0.69161985  0.83416547  1
  O2-  O312  1  0.49497438  0.17845209  0.16916023  1
  O2-  O313  1  0.50380290  0.17724709  0.49969895  1
  O2-  O314  1  0.49848126  0.18211485  0.83493940  1
  O2-  O315  1  0.50256053  0.67650756  0.16165771  1
  O2-  O316  1  0.49529109  0.68370371  0.50190094  1
  O2-  O317  1  0.50625226  0.67197901  0.82885059  1
  O2-  O318  1  0.82991681  0.17273194  0.16946342  1
  O2-  O319  1  0.83365995  0.18701610  0.50265888  1
  O2-  O320  1  0.83444558  0.17663237  0.83561178  1
  O2-  O321  1  0.82012014  0.67877976  0.16963230  1
  O2-  O322  1  0.83698197  0.67093440  0.48967034  1
  O2-  O323  1  0.83565875  0.67677201  0.83099629  1
  O2-  O324  1  0.00022331  0.31798932  0.16382060  1
  O2-  O325  1  -0.00140362  0.30305950  0.49714106  1
  O2-  O326  1  0.00265002  0.32508977  0.83447495  1
  O2-  O327  1  -0.00762628  0.81711189  0.15614036  1
  O2-  O328  1  -0.00310820  0.81902923  0.49527933  1
  O2-  O329  1  0.00203349  0.82418412  0.83246240  1
  O2-  O330  1  0.33572875  0.32038973  0.16295580  1
  O2-  O331  1  0.34008894  0.31822474  0.50179397  1
  O2-  O332  1  0.32811058  0.31603201  0.82812842  1
  O2-  O333  1  0.33731705  0.82534391  0.17060797  1
  O2-  O334  1  0.33304619  0.81804501  0.50409399  1
  O2-  O335  1  0.33513449  0.81446489  0.83988261  1
  O2-  O336  1  0.66907820  0.32031028  0.16774899  1
  O2-  O337  1  0.67612835  0.33206234  0.50690531  1
  O2-  O338  1  0.65465419  0.31811500  0.81962888  1
  O2-  O339  1  0.66275892  0.82863486  0.16354515  1
  O2-  O340  1  0.66322661  0.82192166  0.49546614  1
  O2-  O341  1  0.67308476  0.82286549  0.83822909  1
  O2-  O342  1  0.16784259  0.32181390  0.16435076  1
  O2-  O343  1  0.17088516  0.31285830  0.48696708  1
  O2-  O344  1  0.17046692  0.32893684  0.83167582  1
  O2-  O345  1  0.16756868  0.81287953  0.16100124  1
  O2-  O346  1  0.16878248  0.81899408  0.49790183  1
  O2-  O347  1  0.16345136  0.81176395  0.83292931  1
  O2-  O348  1  0.49929785  0.31469648  0.16229116  1
  O2-  O349  1  0.49273187  0.32179819  0.50611034  1
  O2-  O350  1  0.50027073  0.32249324  0.83081456  1
  O2-  O351  1  0.49945840  0.82837981  0.16624638  1
  O2-  O352  1  0.49595042  0.82505948  0.50699263  1
  O2-  O353  1  0.49246634  0.82796370  0.83875996  1
  O2-  O354  1  0.84395440  0.32394678  0.16083861  1
  O2-  O355  1  0.83184672  0.32215768  0.50407252  1
  O2-  O356  1  0.83485587  0.32078334  0.82818020  1
  O2-  O357  1  0.83312205  0.82345485  0.16443792  1
  O2-  O358  1  0.83331708  0.82230265  0.49747604  1
  O2-  O359  1  0.83053195  0.82941411  0.83577635  1
  O2-  O360  1  0.09810138  0.07885212  0.11705891  1
  O2-  O361  1  0.09129485  0.07855632  0.46404745  1
  O2-  O362  1  0.07254746  0.08111130  0.76739315  1
  O2-  O363  1  0.08938159  0.58216437  0.10378396  1
  O2-  O364  1  0.08940427  0.58134565  0.46088222  1
  O2-  O365  1  0.10935344  0.58308184  0.79454897  1
  O2-  O366  1  0.40028790  0.07735989  0.11684111  1
  O2-  O367  1  0.41496918  0.07414832  0.44069832  1
  O2-  O368  1  0.42328890  0.06469025  0.76431250  1
  O2-  O369  1  0.41361144  0.58351118  0.08636614  1
  O2-  O370  1  0.42017765  0.58306642  0.45233726  1
  O2-  O371  1  0.40488484  0.58340590  0.77765528  1
  O2-  O372  1  0.73273982  0.06766900  0.12331847  1
  O2-  O373  1  0.73378649  0.06951330  0.44785021  1
  O2-  O374  1  0.73003868  0.06431190  0.78666881  1
  O2-  O375  1  0.73855451  0.58363711  0.11561635  1
  O2-  O376  1  0.75652545  0.57465083  0.44189834  1
  O2-  O377  1  0.75063012  0.58024236  0.79441663  1
  O2-  O378  1  0.25792143  0.07281141  0.22472898  1
  O2-  O379  1  0.24520160  0.08299322  0.55578336  1
  O2-  O380  1  0.26598174  0.07855812  0.88681525  1
  O2-  O381  1  0.24392407  0.57852475  0.20767153  1
  O2-  O382  1  0.24571591  0.58537086  0.56553523  1
  O2-  O383  1  0.25079876  0.58289833  0.88969206  1
  O2-  O384  1  0.56654924  0.08212449  0.22330121  1
  O2-  O385  1  0.57161074  0.08338395  0.57172845  1
  O2-  O386  1  0.57343011  0.08764493  0.88799516  1
  O2-  O387  1  0.59484805  0.58709528  0.22897113  1
  O2-  O388  1  0.58536285  0.58217498  0.54702800  1
  O2-  O389  1  0.58124469  0.57581433  0.87753538  1
  O2-  O390  1  0.92050985  0.07467811  0.22205899  1
  O2-  O391  1  0.91875348  0.08356989  0.55067484  1
  O2-  O392  1  0.90748898  0.08190196  0.88979118  1
  O2-  O393  1  0.91462363  0.57830814  0.23545808  1
  O2-  O394  1  0.91787784  0.57667497  0.53653822  1
  O2-  O395  1  0.92519384  0.57601811  0.88631630  1
  O2-  O396  1  0.06551773  0.41946234  0.10686028  1
  O2-  O397  1  0.08399685  0.41829656  0.43344911  1
  O2-  O398  1  0.09762119  0.41782221  0.77659196  1
  O2-  O399  1  0.08494615  0.91643863  0.10157881  1
  O2-  O400  1  0.09369675  0.91835723  0.43973958  1
  O2-  O401  1  0.09347186  0.92291586  0.78031108  1
  O2-  O402  1  0.40300006  0.41890593  0.09569697  1
  O2-  O403  1  0.40757240  0.42427675  0.45597295  1
  O2-  O404  1  0.40378433  0.42154656  0.79409601  1
  O2-  O405  1  0.41688763  0.92170729  0.11415667  1
  O2-  O406  1  0.40977387  0.92134394  0.45591433  1
  O2-  O407  1  0.39871796  0.91708104  0.77451711  1
  O2-  O408  1  0.77222012  0.41510176  0.10725490  1
  O2-  O409  1  0.75939965  0.42255962  0.45062759  1
  O2-  O410  1  0.73369940  0.41676419  0.75515931  1
  O2-  O411  1  0.75511431  0.92223825  0.11601817  1
  O2-  O412  1  0.75172968  0.92317900  0.43521090  1
  O2-  O413  1  0.74781824  0.91921151  0.77475657  1
  O2-  O414  1  0.24213458  0.41650131  0.22269519  1
  O2-  O415  1  0.25688808  0.41489730  0.55071683  1
  O2-  O416  1  0.25793079  0.41926917  0.88979207  1
  O2-  O417  1  0.26439550  0.92541629  0.21315217  1
  O2-  O418  1  0.26450640  0.92299712  0.55567217  1
  O2-  O419  1  0.25243589  0.91734655  0.88497933  1
  O2-  O420  1  0.57215283  0.41475574  0.22683503  1
  O2-  O421  1  0.56963851  0.41372274  0.57608807  1
  O2-  O422  1  0.58281815  0.41488621  0.88267534  1
  O2-  O423  1  0.57378574  0.92189421  0.22370629  1
  O2-  O424  1  0.56842655  0.92226728  0.57342441  1
  O2-  O425  1  0.59284615  0.92015151  0.87918389  1
  O2-  O426  1  0.93278038  0.41619180  0.22386621  1
  O2-  O427  1  0.90488667  0.41618250  0.55688755  1
  O2-  O428  1  0.92333764  0.41514612  0.89054535  1
  O2-  O429  1  0.91380128  0.92328456  0.22083326  1
  O2-  O430  1  0.91559949  0.91674217  0.57322387  1
  O2-  O431  1  0.91386808  0.92117591  0.88165667  1
  O2-  O432  1  0.00104715  -0.01105922  -0.00314629  1
  O2-  O433  1  0.03122185  0.01349853  0.31400123  1
  O2-  O434  1  0.01142360  0.00336289  0.65000714  1
  O2-  O435  1  0.01769419  0.50351505  -0.02464956  1
  O2-  O436  1  -0.00769718  0.51472671  0.34413689  1
  O2-  O437  1  -0.00412653  0.52837298  0.67767694  1
  O2-  O438  1  0.33830957  -0.01999491  -0.00247372  1
  O2-  O439  1  0.33696920  -0.00717248  0.32866988  1
  O2-  O440  1  0.34554323  0.00187165  0.64078986  1
  O2-  O441  1  0.33323530  0.49923179  -0.02034971  1
  O2-  O442  1  0.32747612  0.48289966  0.32947967  1
  O2-  O443  1  0.33316165  0.49513908  0.65859024  1
  O2-  O444  1  0.66329074  -0.00724597  0.00344784  1
  O2-  O445  1  0.67664305  0.00472196  0.31518045  1
  O2-  O446  1  0.65432083  0.01405629  0.69979224  1
  O2-  O447  1  0.66555864  0.50972533  0.01624161  1
  O2-  O448  1  0.67569764  0.51875726  0.31829721  1
  O2-  O449  1  0.65578362  0.51364704  0.68197301  1
  O2-  O450  1  0.18472338  0.00119299  0.02940728  1
  O2-  O451  1  0.18246045  0.01522624  0.35062008  1
  O2-  O452  1  0.18628928  0.00589307  0.68548929  1
  O2-  O453  1  0.17772462  0.50098997  0.01408213  1
  O2-  O454  1  0.14455187  0.50247525  0.30469634  1
  O2-  O455  1  0.17384204  0.50839927  0.67523160  1
  O2-  O456  1  0.49557022  -0.00513114  -0.01125238  1
  O2-  O457  1  0.47918867  -0.00068971  0.30538694  1
  O2-  O458  1  0.50098402  -0.00278964  0.66868573  1
  O2-  O459  1  0.48258141  0.49675208  -0.02948727  1
  O2-  O460  1  0.50163264  0.50557117  0.32207049  1
  O2-  O461  1  0.50373660  0.49656350  0.67999321  1
  O2-  O462  1  0.82143729  -0.01292898  -0.02130246  1
  O2-  O463  1  0.83006594  0.00396967  0.32117301  1
  O2-  O464  1  0.84870899  0.00501736  0.68239970  1
  O2-  O465  1  0.83644255  0.50668036  0.01016672  1
  O2-  O466  1  0.84106288  0.49760600  0.34979910  1
  O2-  O467  1  0.81829501  0.49751778  0.64649347  1
  O2-  O468  1  0.24440551  0.24422221  0.93197672  1
  O2-  O469  1  0.73812159  0.75392523  0.06336536  1
  O2-  O470  1  0.24581204  0.25075916  0.61044884  1
  O2-  O471  1  0.25397955  0.25261070  0.26002935  1
  O2-  O472  1  0.91311190  0.75546359  0.92860720  1
  O2-  O473  1  0.41772643  0.75422083  0.39156245  1
  O2-  O474  1  0.90809928  0.74985774  0.60325843  1
  O2-  O475  1  0.25874036  0.74759582  0.27391457  1
  O2-  O476  1  0.91525111  0.75340042  0.26650208  1
  O2-  O477  1  0.58676133  0.25121491  0.26392554  1
  O2-  O478  1  0.58424338  0.25069313  0.59852415  1
  O2-  O479  1  0.58480437  0.75270548  0.61128024  1
  O2-  O480  1  0.09489719  0.24865036  0.73501153  1
  O2-  O481  1  0.42680540  0.75164745  0.72633533  1
  O2-  O482  1  0.75132823  0.25218660  0.07075522  1
  O2-  O483  1  0.57867842  0.25185087  0.94112457  1
  O2-  O484  1  0.57635987  0.75283215  0.26460037  1
  O2-  O485  1  0.42375256  0.75212023  0.06335739  1
  O2-  O486  1  0.91548254  0.25112897  0.92526924  1
  O2-  O487  1  0.75128546  0.75214474  0.39903305  1
  O2-  O488  1  0.90982472  0.24924170  0.27211216  1
  O2-  O489  1  0.74356934  0.25533153  0.39850537  1
  O2-  O490  1  0.57721205  0.75476720  0.94053928  1
  O2-  O491  1  0.08785155  0.74776552  0.39126892  1
  O2-  O492  1  0.75271785  0.74935545  0.72622471  1
