# generated using pymatgen
data_Ca108Mn108O277
_symmetry_space_group_name_H-M   'P 1'
_cell_length_a   16.02852499
_cell_length_b   22.30761515
_cell_length_c   16.39116151
_cell_angle_alpha   89.99611840
_cell_angle_beta   89.99881914
_cell_angle_gamma   90.00095947
_symmetry_Int_Tables_number   1
_chemical_formula_structural   Ca108Mn108O277
_chemical_formula_sum   'Ca108 Mn108 O277'
_cell_volume   5860.79364713
_cell_formula_units_Z   1
loop_
 _symmetry_equiv_pos_site_id
 _symmetry_equiv_pos_as_xyz
  1  'x, y, z'
loop_
 _atom_type_symbol
 _atom_type_oxidation_number
  Ca2+  2.0
  Mn3.34+  3.34
  O2-  -2.0
loop_
 _atom_site_type_symbol
 _atom_site_label
 _atom_site_symmetry_multiplicity
 _atom_site_fract_x
 _atom_site_fract_y
 _atom_site_fract_z
 _atom_site_occupancy
  Ca2+  Ca0  1  0.06819810  0.27384990  0.25652500  1
  Ca2+  Ca1  1  0.07640319  0.26021835  0.57645863  1
  Ca2+  Ca2  1  0.06533959  0.25473833  0.91259852  1
  Ca2+  Ca3  1  0.07309156  0.73544824  0.25873830  1
  Ca2+  Ca4  1  0.06522652  0.74493570  0.58137562  1
  Ca2+  Ca5  1  0.08794060  0.74782927  0.91294450  1
  Ca2+  Ca6  1  0.42755304  0.26837804  0.24393299  1
  Ca2+  Ca7  1  0.43003779  0.25064936  0.58310070  1
  Ca2+  Ca8  1  0.42511154  0.25509990  0.92283708  1
  Ca2+  Ca9  1  0.43325081  0.73472348  0.27911361  1
  Ca2+  Ca10  1  0.43240473  0.73567392  0.57346460  1
  Ca2+  Ca11  1  0.40588539  0.75495039  0.89426602  1
  Ca2+  Ca12  1  0.76469192  0.25597022  0.25298386  1
  Ca2+  Ca13  1  0.74221508  0.26636073  0.58738599  1
  Ca2+  Ca14  1  0.76365860  0.24766785  0.91158363  1
  Ca2+  Ca15  1  0.74885258  0.74039013  0.26683592  1
  Ca2+  Ca16  1  0.75173404  0.73209761  0.57196474  1
  Ca2+  Ca17  1  0.75425108  0.74725986  0.91753942  1
  Ca2+  Ca18  1  0.25681956  0.27488743  0.07796759  1
  Ca2+  Ca19  1  0.23960416  0.27171827  0.41188009  1
  Ca2+  Ca20  1  0.24518093  0.25077891  0.76332332  1
  Ca2+  Ca21  1  0.23895988  0.74999870  0.08126542  1
  Ca2+  Ca22  1  0.26786957  0.74088619  0.41041212  1
  Ca2+  Ca23  1  0.26778805  0.74565052  0.74728194  1
  Ca2+  Ca24  1  0.58231169  0.25550167  0.08009955  1
  Ca2+  Ca25  1  0.59199490  0.25806584  0.41616664  1
  Ca2+  Ca26  1  0.59459525  0.25833494  0.74706386  1
  Ca2+  Ca27  1  0.59185213  0.74063987  0.09974166  1
  Ca2+  Ca28  1  0.58588098  0.74924287  0.42845106  1
  Ca2+  Ca29  1  0.56434258  0.74432177  0.72777922  1
  Ca2+  Ca30  1  0.90697459  0.25112624  0.09147458  1
  Ca2+  Ca31  1  0.91392599  0.26358329  0.40171180  1
  Ca2+  Ca32  1  0.91159075  0.25549013  0.76848253  1
  Ca2+  Ca33  1  0.90780208  0.72150885  0.09224490  1
  Ca2+  Ca34  1  0.90833370  0.72586088  0.42084154  1
  Ca2+  Ca35  1  0.91645632  0.73659507  0.72920522  1
  Ca2+  Ca36  1  0.27709381  0.09278635  0.42630382  1
  Ca2+  Ca37  1  0.05660265  0.09750480  0.25196469  1
  Ca2+  Ca38  1  0.58918109  0.09679565  0.07723677  1
  Ca2+  Ca39  1  0.26534261  0.09071224  0.42278130  1
  Ca2+  Ca40  1  0.73865836  0.08476300  0.58830783  1
  Ca2+  Ca41  1  0.90204388  0.09169927  0.40114784  1
  Ca2+  Ca42  1  0.09113759  0.09191999  0.58991854  1
  Ca2+  Ca43  1  0.08417130  0.10240960  0.90602872  1
  Ca2+  Ca44  1  0.05985324  0.58747095  0.26319104  1
  Ca2+  Ca45  1  0.74650599  0.59394881  0.94050642  1
  Ca2+  Ca46  1  0.43210865  0.08763380  0.24556678  1
  Ca2+  Ca47  1  0.26515063  0.08755621  0.07231101  1
  Ca2+  Ca48  1  0.57933892  0.09781308  0.74890932  1
  Ca2+  Ca49  1  0.06910554  0.59109488  0.93600067  1
  Ca2+  Ca50  1  0.58532132  0.09371371  0.41503745  1
  Ca2+  Ca51  1  0.42859602  0.58390782  0.92110465  1
  Ca2+  Ca52  1  0.10373922  0.09108673  0.58852453  1
  Ca2+  Ca53  1  0.76201876  0.11087941  0.24342571  1
  Ca2+  Ca54  1  0.43630910  0.09001590  0.25470772  1
  Ca2+  Ca55  1  0.88526241  0.58343780  0.70102951  1
  Ca2+  Ca56  1  0.04423280  0.09928256  0.25183860  1
  Ca2+  Ca57  1  0.72668292  0.08384344  0.58865371  1
  Ca2+  Ca58  1  0.75909325  0.59622416  0.94007158  1
  Ca2+  Ca59  1  0.07136557  0.10282263  0.90505243  1
  Ca2+  Ca60  1  0.76393088  0.59154130  0.24231240  1
  Ca2+  Ca61  1  0.89735635  0.10298050  0.76537229  1
  Ca2+  Ca62  1  0.27298699  0.59268101  0.40887178  1
  Ca2+  Ca63  1  0.42279785  0.57845501  0.27964133  1
  Ca2+  Ca64  1  0.28340885  0.58954500  0.74744589  1
  Ca2+  Ca65  1  0.41788770  0.08934690  0.91693545  1
  Ca2+  Ca66  1  0.26728426  0.09897441  0.74560142  1
  Ca2+  Ca67  1  0.56718448  0.59488809  0.42951438  1
  Ca2+  Ca68  1  0.04197640  0.60598892  0.55362739  1
  Ca2+  Ca69  1  0.43054682  0.09005754  0.91565878  1
  Ca2+  Ca70  1  0.57754736  0.59451681  0.43018882  1
  Ca2+  Ca71  1  0.89038031  0.09093108  0.40068933  1
  Ca2+  Ca72  1  0.74102640  0.89602939  0.58220979  1
  Ca2+  Ca73  1  0.89810709  0.43590226  0.39354654  1
  Ca2+  Ca74  1  0.90426309  0.89162536  0.08919204  1
  Ca2+  Ca75  1  0.27080428  0.90132067  0.75744234  1
  Ca2+  Ca76  1  0.74604542  0.88933467  0.90827583  1
  Ca2+  Ca77  1  0.26634816  0.40992815  0.74642854  1
  Ca2+  Ca78  1  0.57975310  0.41038318  0.08368485  1
  Ca2+  Ca79  1  0.43156727  0.89956040  0.25399586  1
  Ca2+  Ca80  1  0.42563248  0.41720879  0.93479342  1
  Ca2+  Ca81  1  0.08570525  0.41121576  0.92829994  1
  Ca2+  Ca82  1  0.58603749  0.42311464  0.41281571  1
  Ca2+  Ca83  1  0.05741289  0.41614814  0.57421814  1
  Ca2+  Ca84  1  0.26524968  0.89753404  0.08558370  1
  Ca2+  Ca85  1  0.09244143  0.89400394  0.25310391  1
  Ca2+  Ca86  1  0.59658543  0.42287699  0.41300126  1
  Ca2+  Ca87  1  0.41995196  0.89994139  0.25532123  1
  Ca2+  Ca88  1  0.42810761  0.41690949  0.57549420  1
  Ca2+  Ca89  1  0.26001303  0.90317218  0.75516273  1
  Ca2+  Ca90  1  0.07922753  0.40507812  0.92929548  1
  Ca2+  Ca91  1  0.25372430  0.40979148  0.74599635  1
  Ca2+  Ca92  1  0.73735574  0.89452283  0.90785061  1
  Ca2+  Ca93  1  0.74752363  0.43082606  0.59569134  1
  Ca2+  Ca94  1  0.90867751  0.89571288  0.74253893  1
  Ca2+  Ca95  1  0.75551169  0.41952303  0.25786965  1
  Ca2+  Ca96  1  0.91712088  0.89237140  0.08930594  1
  Ca2+  Ca97  1  0.08243499  0.89314329  0.57323962  1
  Ca2+  Ca98  1  0.06895660  0.41887740  0.57687320  1
  Ca2+  Ca99  1  0.57601137  0.88895676  0.08212171  1
  Ca2+  Ca100  1  0.89185160  0.41770999  0.73486191  1
  Ca2+  Ca101  1  0.07954041  0.89473455  0.25306199  1
  Ca2+  Ca102  1  0.44083604  0.41736174  0.57660259  1
  Ca2+  Ca103  1  0.90647781  0.89581116  0.42441956  1
  Ca2+  Ca104  1  0.08670005  0.89561792  0.91196250  1
  Ca2+  Ca105  1  0.25578730  0.89211243  0.41710657  1
  Ca2+  Ca106  1  0.43634108  0.41739395  0.93472737  1
  Ca2+  Ca107  1  0.91599354  0.40952323  0.09950432  1
  Mn3.34+  Mn108  1  0.08457069  0.33955765  0.09155415  1
  Mn3.34+  Mn109  1  0.08251387  0.34325256  0.40957878  1
  Mn3.34+  Mn110  1  0.08047174  0.33676645  0.74892333  1
  Mn3.34+  Mn111  1  0.08439399  0.82521100  0.08086422  1
  Mn3.34+  Mn112  1  0.08239414  0.81478426  0.41987868  1
  Mn3.34+  Mn113  1  0.08335740  0.82697707  0.74653567  1
  Mn3.34+  Mn114  1  0.41777250  0.34144628  0.08873577  1
  Mn3.34+  Mn115  1  0.41374122  0.34362235  0.41232048  1
  Mn3.34+  Mn116  1  0.42340804  0.33457912  0.75342499  1
  Mn3.34+  Mn117  1  0.41764908  0.82208606  0.08360335  1
  Mn3.34+  Mn118  1  0.42347355  0.83014934  0.42432576  1
  Mn3.34+  Mn119  1  0.42738230  0.83232336  0.74152702  1
  Mn3.34+  Mn120  1  0.74902764  0.34009893  0.08567636  1
  Mn3.34+  Mn121  1  0.75092708  0.34065707  0.42099189  1
  Mn3.34+  Mn122  1  0.74435984  0.34266066  0.75183233  1
  Mn3.34+  Mn123  1  0.74625543  0.81879161  0.08798335  1
  Mn3.34+  Mn124  1  0.74666961  0.82971704  0.41750195  1
  Mn3.34+  Mn125  1  0.74381058  0.82471040  0.74495227  1
  Mn3.34+  Mn126  1  0.24994255  0.34434439  0.24917687  1
  Mn3.34+  Mn127  1  0.25422187  0.33185534  0.57905654  1
  Mn3.34+  Mn128  1  0.25215065  0.33423934  0.91727993  1
  Mn3.34+  Mn129  1  0.25207532  0.81844098  0.24851863  1
  Mn3.34+  Mn130  1  0.25320116  0.83446074  0.57920333  1
  Mn3.34+  Mn131  1  0.25304962  0.83421365  0.91841101  1
  Mn3.34+  Mn132  1  0.58683448  0.33672033  0.24707824  1
  Mn3.34+  Mn133  1  0.58637151  0.33557056  0.58169936  1
  Mn3.34+  Mn134  1  0.59278398  0.33211211  0.91459328  1
  Mn3.34+  Mn135  1  0.59151795  0.82967700  0.25625808  1
  Mn3.34+  Mn136  1  0.58291672  0.83251326  0.58042102  1
  Mn3.34+  Mn137  1  0.57457956  0.82756158  0.91235563  1
  Mn3.34+  Mn138  1  0.91357053  0.34057331  0.25052788  1
  Mn3.34+  Mn139  1  0.90997424  0.33980164  0.57745125  1
  Mn3.34+  Mn140  1  0.90868615  0.33333605  0.91697619  1
  Mn3.34+  Mn141  1  0.91024149  0.82545297  0.25522925  1
  Mn3.34+  Mn142  1  0.91359168  0.82575871  0.58017644  1
  Mn3.34+  Mn143  1  0.91733485  0.81951874  0.91139984  1
  Mn3.34+  Mn144  1  0.91650963  0.67453095  0.91006024  1
  Mn3.34+  Mn145  1  0.25618156  0.17230908  0.24795523  1
  Mn3.34+  Mn146  1  0.23980930  0.66704553  0.58352978  1
  Mn3.34+  Mn147  1  0.24351680  0.66288477  0.91862641  1
  Mn3.34+  Mn148  1  0.90814803  0.17212222  0.58598564  1
  Mn3.34+  Mn149  1  0.25483945  0.66211050  0.58152937  1
  Mn3.34+  Mn150  1  0.25379074  0.65781048  0.91816079  1
  Mn3.34+  Mn151  1  0.58606367  0.67623939  0.91245777  1
  Mn3.34+  Mn152  1  0.58241575  0.65563620  0.59212822  1
  Mn3.34+  Mn153  1  0.74535855  0.16954114  0.75450102  1
  Mn3.34+  Mn154  1  0.74200168  0.65610476  0.75097374  1
  Mn3.34+  Mn155  1  0.07969666  0.66558844  0.75147063  1
  Mn3.34+  Mn156  1  0.40642944  0.64839950  0.10248767  1
  Mn3.34+  Mn157  1  0.58991038  0.16983642  0.91491116  1
  Mn3.34+  Mn158  1  0.58797998  0.17215164  0.24666550  1
  Mn3.34+  Mn159  1  0.57931665  0.16913094  0.58178974  1
  Mn3.34+  Mn160  1  0.91342057  0.65908132  0.25495257  1
  Mn3.34+  Mn161  1  0.08393270  0.17421641  0.08179530  1
  Mn3.34+  Mn162  1  0.24611110  0.16655436  0.24611305  1
  Mn3.34+  Mn163  1  0.75309156  0.65100171  0.42389434  1
  Mn3.34+  Mn164  1  0.74382755  0.17322086  0.41562353  1
  Mn3.34+  Mn165  1  0.08786830  0.17368257  0.42023416  1
  Mn3.34+  Mn166  1  0.25854925  0.17673479  0.58267945  1
  Mn3.34+  Mn167  1  0.42430076  0.17276936  0.42036841  1
  Mn3.34+  Mn168  1  0.24803885  0.65979653  0.24281424  1
  Mn3.34+  Mn169  1  0.41915750  0.17150794  0.74890302  1
  Mn3.34+  Mn170  1  0.59078192  0.66378620  0.24777345  1
  Mn3.34+  Mn171  1  0.91841156  0.16645087  0.58560352  1
  Mn3.34+  Mn172  1  0.08189135  0.66354343  0.09098693  1
  Mn3.34+  Mn173  1  0.25373742  0.17002573  0.91646001  1
  Mn3.34+  Mn174  1  0.75316755  0.16933905  0.08104029  1
  Mn3.34+  Mn175  1  0.41647766  0.65265166  0.09617740  1
  Mn3.34+  Mn176  1  0.08443825  0.17193232  0.74665988  1
  Mn3.34+  Mn177  1  0.57351053  0.67391032  0.91465671  1
  Mn3.34+  Mn178  1  0.42049800  0.17155703  0.08357613  1
  Mn3.34+  Mn179  1  0.06969064  0.16919184  0.08275527  1
  Mn3.34+  Mn180  1  0.42472169  -0.00286165  0.41915935  1
  Mn3.34+  Mn181  1  0.43333004  0.50246532  0.73724545  1
  Mn3.34+  Mn182  1  0.91017497  -0.00284217  0.58237095  1
  Mn3.34+  Mn183  1  0.75539823  0.00280390  0.09215194  1
  Mn3.34+  Mn184  1  0.74534781  0.50291048  0.08105375  1
  Mn3.34+  Mn185  1  0.58741162  0.50265158  0.25510846  1
  Mn3.34+  Mn186  1  0.07285795  0.50510458  0.74429688  1
  Mn3.34+  Mn187  1  0.90395355  0.49812210  0.90954668  1
  Mn3.34+  Mn188  1  0.42075631  -0.00223284  0.73831074  1
  Mn3.34+  Mn189  1  0.42406433  -0.00290480  0.07630568  1
  Mn3.34+  Mn190  1  0.91577547  -0.00555644  0.90837143  1
  Mn3.34+  Mn191  1  0.08501372  0.50104055  0.39499059  1
  Mn3.34+  Mn192  1  0.07314885  -0.00541715  0.74351432  1
  Mn3.34+  Mn193  1  0.89748367  -0.00393832  0.24930549  1
  Mn3.34+  Mn194  1  0.09443629  -0.00664958  0.41986767  1
  Mn3.34+  Mn195  1  0.07943159  -0.00356081  0.08502486  1
  Mn3.34+  Mn196  1  0.59711017  0.49902958  0.90728197  1
  Mn3.34+  Mn197  1  0.59801913  -0.00304787  0.25093947  1
  Mn3.34+  Mn198  1  0.25491221  0.00233764  0.91255886  1
  Mn3.34+  Mn199  1  0.07872991  -0.00186658  0.42093618  1
  Mn3.34+  Mn200  1  0.57131423  -0.00716209  0.58952838  1
  Mn3.34+  Mn201  1  0.91395625  0.50397120  0.90891325  1
  Mn3.34+  Mn202  1  0.08935150  -0.00180191  0.74446436  1
  Mn3.34+  Mn203  1  0.73901846  -0.00940771  0.40558664  1
  Mn3.34+  Mn204  1  0.74518822  0.00097715  0.74706387  1
  Mn3.34+  Mn205  1  0.27634514  -0.00466248  0.59224927  1
  Mn3.34+  Mn206  1  0.09044777  0.00064174  0.08157794  1
  Mn3.34+  Mn207  1  0.08606664  0.51197149  0.74182498  1
  Mn3.34+  Mn208  1  0.25721902  0.50003904  0.25888935  1
  Mn3.34+  Mn209  1  0.74210369  -0.00412324  0.09149915  1
  Mn3.34+  Mn210  1  0.08976400  0.50384912  0.08480621  1
  Mn3.34+  Mn211  1  0.25318016  -0.00012231  0.24952872  1
  Mn3.34+  Mn212  1  0.90310439  0.00209177  0.91020894  1
  Mn3.34+  Mn213  1  0.25701048  0.49980551  0.57610662  1
  Mn3.34+  Mn214  1  0.58862427  0.00051770  0.91211105  1
  Mn3.34+  Mn215  1  0.24965113  0.50004129  0.94016546  1
  O2-  O216  1  0.00736511  0.16067997  -0.00972980  1
  O2-  O217  1  0.00008841  0.15082226  0.35076641  1
  O2-  O218  1  -0.00136911  0.14108441  0.66939873  1
  O2-  O219  1  -0.00007351  0.66595478  -0.00325598  1
  O2-  O220  1  0.00117013  0.66592548  0.33059538  1
  O2-  O221  1  0.00044473  0.65320118  0.67596706  1
  O2-  O222  1  0.34140776  0.15070009  -0.00274207  1
  O2-  O223  1  0.34300153  0.15135882  0.33247742  1
  O2-  O224  1  0.33216896  0.18960541  0.67151524  1
  O2-  O225  1  0.33922969  0.66895519  0.00093789  1
  O2-  O226  1  0.33155284  0.66264698  0.31829974  1
  O2-  O227  1  0.33018887  0.65699516  0.66236532  1
  O2-  O228  1  0.66343632  0.16547979  0.00275080  1
  O2-  O229  1  0.66514901  0.15485265  0.33218104  1
  O2-  O230  1  0.66284644  0.14992262  0.66435233  1
  O2-  O231  1  0.66671938  0.68269215  -0.00653669  1
  O2-  O232  1  0.66662017  0.65429866  0.33109706  1
  O2-  O233  1  0.66640441  0.67826723  0.67200235  1
  O2-  O234  1  0.16424842  0.14247491  0.00332379  1
  O2-  O235  1  0.16921818  0.13923531  0.33597613  1
  O2-  O236  1  0.17121040  0.15434340  0.66544524  1
  O2-  O237  1  0.16741729  0.65046142  0.00147747  1
  O2-  O238  1  0.17624744  0.67877538  0.32356404  1
  O2-  O239  1  0.16903293  0.64254355  0.66913613  1
  O2-  O240  1  0.50056876  0.15234483  -0.00013847  1
  O2-  O241  1  0.50141449  0.15171151  0.33277253  1
  O2-  O242  1  0.50166188  0.17061122  0.66942771  1
  O2-  O243  1  0.50005289  0.67403501  0.00293268  1
  O2-  O244  1  0.50795476  0.65126977  0.32800969  1
  O2-  O245  1  0.50308041  0.66399538  0.66173526  1
  O2-  O246  1  0.82644926  0.18912520  0.00787055  1
  O2-  O247  1  0.82757147  0.16196336  0.33966711  1
  O2-  O248  1  0.82201964  0.14713269  0.66067354  1
  O2-  O249  1  0.83114238  0.67830388  -0.01157925  1
  O2-  O250  1  0.82940378  0.65963909  0.33477203  1
  O2-  O251  1  0.82106542  0.67166111  0.67732989  1
  O2-  O252  1  -0.00129352  0.34480293  -0.00383989  1
  O2-  O253  1  -0.00932569  0.35144062  0.33970770  1
  O2-  O254  1  -0.00157048  0.35760012  0.66646698  1
  O2-  O255  1  -0.00632402  0.84579151  -0.00075688  1
  O2-  O256  1  0.00301418  0.83968948  0.33171989  1
  O2-  O257  1  -0.00000064  0.83774492  0.66486178  1
  O2-  O258  1  0.34090854  0.34467706  -0.00788133  1
  O2-  O259  1  0.33901103  0.32002099  0.33428422  1
  O2-  O260  1  0.33027501  0.32712724  0.67392997  1
  O2-  O261  1  0.33354881  0.82787763  0.00458396  1
  O2-  O262  1  0.33692662  0.83061755  0.32517597  1
  O2-  O263  1  0.33204626  0.84757016  0.66598771  1
  O2-  O264  1  0.66323592  0.33219979  0.00838609  1
  O2-  O265  1  0.66506392  0.35362183  0.33647014  1
  O2-  O266  1  0.66784753  0.34561287  0.66031889  1
  O2-  O267  1  0.66773713  0.82490211  -0.00298937  1
  O2-  O268  1  0.67152125  0.83832001  0.33232009  1
  O2-  O269  1  0.66668760  0.82917799  0.66474412  1
  O2-  O270  1  0.16738478  0.34860386  -0.00053180  1
  O2-  O271  1  0.16735153  0.34405103  0.33358732  1
  O2-  O272  1  0.16802981  0.35266588  0.66481396  1
  O2-  O273  1  0.16916328  0.84750200  0.00258335  1
  O2-  O274  1  0.16723126  0.82150860  0.33283661  1
  O2-  O275  1  0.17025103  0.85578467  0.66996315  1
  O2-  O276  1  0.50265522  0.33995541  -0.00286204  1
  O2-  O277  1  0.50585938  0.34169365  0.33874432  1
  O2-  O278  1  0.49149197  0.34016396  0.65770782  1
  O2-  O279  1  0.50418124  0.81003545  0.00496378  1
  O2-  O280  1  0.50011584  0.84047437  0.33148222  1
  O2-  O281  1  0.50266455  0.83485554  0.66244404  1
  O2-  O282  1  0.83594965  0.33294488  0.00651170  1
  O2-  O283  1  0.82923347  0.34664756  0.33580839  1
  O2-  O284  1  0.82855904  0.34656783  0.65840926  1
  O2-  O285  1  0.82824869  0.83028536  -0.00532689  1
  O2-  O286  1  0.83391472  0.84108122  0.33521182  1
  O2-  O287  1  0.83273981  0.83425459  0.66680615  1
  O2-  O288  1  0.00905436  0.18080896  0.17978744  1
  O2-  O289  1  0.01204334  0.17600656  0.51470292  1
  O2-  O290  1  0.00680795  0.17536669  0.82566621  1
  O2-  O291  1  0.00178499  0.67587382  0.17049003  1
  O2-  O292  1  0.00890069  0.68767623  0.49108871  1
  O2-  O293  1  0.00208826  0.69041775  0.83373124  1
  O2-  O294  1  0.33445340  0.18192663  0.16003999  1
  O2-  O295  1  0.32809704  0.18619372  0.48778238  1
  O2-  O296  1  0.33792547  0.18452365  0.83067323  1
  O2-  O297  1  0.33103533  0.69810055  0.16368330  1
  O2-  O298  1  0.32505745  0.67597308  0.49786093  1
  O2-  O299  1  0.32933844  0.67242267  0.83634979  1
  O2-  O300  1  0.66124336  0.18351022  0.16281944  1
  O2-  O301  1  0.67197966  0.17021796  0.50572331  1
  O2-  O302  1  0.65931116  0.18408532  0.82662296  1
  O2-  O303  1  0.67143387  0.68343141  0.17533727  1
  O2-  O304  1  0.66283312  0.67222117  0.49308920  1
  O2-  O305  1  0.66249739  0.69270279  0.83149554  1
  O2-  O306  1  0.16134721  0.16697101  0.16268840  1
  O2-  O307  1  0.16833651  0.18234317  0.50338467  1
  O2-  O308  1  0.16348644  0.17835722  0.83613199  1
  O2-  O309  1  0.16545598  0.68701370  0.16569012  1
  O2-  O310  1  0.16472476  0.68221576  0.50522340  1
  O2-  O311  1  0.16677226  0.67915404  0.83193263  1
  O2-  O312  1  0.49432631  0.18018714  0.17328089  1
  O2-  O313  1  0.50865220  0.18954325  0.49328343  1
  O2-  O314  1  0.49466032  0.17553751  0.83897627  1
  O2-  O315  1  0.50076870  0.68200120  0.16869738  1
  O2-  O316  1  0.50983959  0.66829206  0.50176783  1
  O2-  O317  1  0.49182414  0.67928772  0.84047864  1
  O2-  O318  1  0.81999208  0.18717101  0.16551073  1
  O2-  O319  1  0.83758815  0.17598341  0.49171252  1
  O2-  O320  1  0.83114645  0.17947281  0.82187085  1
  O2-  O321  1  0.82929154  0.67952008  0.18085359  1
  O2-  O322  1  0.82857959  0.66195376  0.49824928  1
  O2-  O323  1  0.83021264  0.69202952  0.83128289  1
  O2-  O324  1  -0.00633955  0.32787146  0.16195104  1
  O2-  O325  1  0.00548201  0.32932225  0.50582488  1
  O2-  O326  1  0.00640909  0.32842916  0.83709051  1
  O2-  O327  1  0.00213353  0.82508218  0.16937167  1
  O2-  O328  1  -0.00210028  0.82280103  0.49780212  1
  O2-  O329  1  0.00439146  0.81653433  0.83661625  1
  O2-  O330  1  0.33656847  0.32495332  0.16791422  1
  O2-  O331  1  0.33788415  0.31160356  0.50163824  1
  O2-  O332  1  0.33051820  0.32154446  0.82757196  1
  O2-  O333  1  0.33058816  0.82171880  0.16479368  1
  O2-  O334  1  0.32682084  0.82238360  0.49147990  1
  O2-  O335  1  0.32815227  0.82539963  0.82812559  1
  O2-  O336  1  0.67065927  0.31593695  0.16927535  1
  O2-  O337  1  0.66174039  0.32538660  0.49515041  1
  O2-  O338  1  0.67106422  0.31708378  0.83463099  1
  O2-  O339  1  0.65908984  0.82045879  0.16206334  1
  O2-  O340  1  0.67225552  0.82036226  0.50426932  1
  O2-  O341  1  0.67193066  0.81736876  0.84018552  1
  O2-  O342  1  0.16500830  0.32260114  0.16725743  1
  O2-  O343  1  0.16308986  0.32600277  0.50774467  1
  O2-  O344  1  0.16808324  0.32715432  0.83149097  1
  O2-  O345  1  0.16404424  0.81843130  0.17226501  1
  O2-  O346  1  0.16264017  0.81357290  0.50449254  1
  O2-  O347  1  0.16805982  0.82873013  0.82921466  1
  O2-  O348  1  0.50762597  0.32535762  0.16043484  1
  O2-  O349  1  0.49827757  0.31923720  0.50161378  1
  O2-  O350  1  0.49984076  0.31835220  0.83459749  1
  O2-  O351  1  0.49418624  0.81988766  0.17114273  1
  O2-  O352  1  0.50283855  0.82560218  0.49929971  1
  O2-  O353  1  0.50143392  0.81296376  0.82969362  1
  O2-  O354  1  0.83282414  0.32279896  0.16499377  1
  O2-  O355  1  0.83350910  0.31694332  0.49801535  1
  O2-  O356  1  0.83576513  0.32888639  0.82668403  1
  O2-  O357  1  0.84406590  0.81608861  0.15544929  1
  O2-  O358  1  0.83216165  0.82371718  0.50091594  1
  O2-  O359  1  0.82871668  0.81674595  0.83110743  1
  O2-  O360  1  0.06961118  0.08086764  0.11752389  1
  O2-  O361  1  0.08916717  0.07830371  0.45755270  1
  O2-  O362  1  0.09667759  0.08014511  0.77596851  1
  O2-  O363  1  0.08772448  0.58267619  0.11963242  1
  O2-  O364  1  0.10735909  0.56522634  0.44545999  1
  O2-  O365  1  0.07703684  0.58394657  0.79837016  1
  O2-  O366  1  0.41887354  0.08105944  0.11800744  1
  O2-  O367  1  0.41238582  0.08027999  0.45289877  1
  O2-  O368  1  0.41070373  0.07809370  0.78174134  1
  O2-  O369  1  0.41719658  0.56792485  0.12484080  1
  O2-  O370  1  0.43293402  0.57547130  0.42542201  1
  O2-  O371  1  0.40966151  0.56479428  0.79500523  1
  O2-  O372  1  0.73822661  0.08306779  0.11298596  1
  O2-  O373  1  0.76195650  0.07241620  0.45749630  1
  O2-  O374  1  0.73972432  0.08249225  0.77474592  1
  O2-  O375  1  0.74874597  0.57959994  0.09468629  1
  O2-  O376  1  0.71710327  0.57640866  0.42474711  1
  O2-  O377  1  0.76294903  0.58350802  0.80436786  1
  O2-  O378  1  0.26479601  0.08159713  0.20917263  1
  O2-  O379  1  0.24023876  0.07932974  0.55420103  1
  O2-  O380  1  0.25509085  0.08564958  0.88094452  1
  O2-  O381  1  0.25364554  0.57722261  0.22067914  1
  O2-  O382  1  0.24494387  0.58223802  0.54964593  1
  O2-  O383  1  0.24384686  0.57541639  0.88553557  1
  O2-  O384  1  0.57283899  0.08249652  0.21361654  1
  O2-  O385  1  0.59109514  0.07467134  0.54991670  1
  O2-  O386  1  0.57103148  0.08236418  0.88469791  1
  O2-  O387  1  0.58724865  0.57849535  0.22093835  1
  O2-  O388  1  0.59267286  0.57832073  0.56675271  1
  O2-  O389  1  0.60823897  0.58548689  0.89493813  1
  O2-  O390  1  0.91250078  0.08206842  0.24519127  1
  O2-  O391  1  0.92372540  0.07783788  0.53492613  1
  O2-  O392  1  0.93979404  0.07952739  0.89133057  1
  O2-  O393  1  0.91561047  0.58255432  0.23410171  1
  O2-  O394  1  0.91118737  0.57444853  0.56811061  1
  O2-  O395  1  0.90115344  0.58668221  0.89356687  1
  O2-  O396  1  0.06767183  0.42177347  0.08898011  1
  O2-  O397  1  0.08808710  0.42906915  0.44459012  1
  O2-  O398  1  0.09721161  0.42913116  0.79375121  1
  O2-  O399  1  0.08312127  0.91474010  0.11308970  1
  O2-  O400  1  0.09352557  0.91035798  0.42166281  1
  O2-  O401  1  0.06090965  0.91571677  0.77742117  1
  O2-  O402  1  0.43452962  0.42075253  0.07792270  1
  O2-  O403  1  0.44807804  0.42388952  0.44488238  1
  O2-  O404  1  0.40151618  0.42675902  0.79125522  1
  O2-  O405  1  0.40815763  0.91767227  0.11815454  1
  O2-  O406  1  0.39821298  0.91623519  0.40339488  1
  O2-  O407  1  0.40933878  0.91849636  0.77257888  1
  O2-  O408  1  0.74657221  0.42593144  0.11834347  1
  O2-  O409  1  0.74068718  0.42096662  0.44763164  1
  O2-  O410  1  0.75137052  0.42160346  0.75895631  1
  O2-  O411  1  0.76607465  0.91360445  0.09757533  1
  O2-  O412  1  0.76216285  0.91664433  0.44858910  1
  O2-  O413  1  0.76069067  0.91929685  0.77852967  1
  O2-  O414  1  0.25479553  0.42636338  0.22234227  1
  O2-  O415  1  0.28876513  0.41742951  0.56912914  1
  O2-  O416  1  0.24287200  0.42494272  0.88166012  1
  O2-  O417  1  0.22995886  0.91590934  0.23145238  1
  O2-  O418  1  0.23476321  0.92021539  0.54677157  1
  O2-  O419  1  0.23775031  0.92005316  0.89024650  1
  O2-  O420  1  0.58789489  0.42360028  0.21940529  1
  O2-  O421  1  0.57836119  0.41796275  0.55071358  1
  O2-  O422  1  0.57394010  0.41651612  0.89933113  1
  O2-  O423  1  0.56490410  0.91649551  0.21540482  1
  O2-  O424  1  0.59713079  0.91681201  0.56283570  1
  O2-  O425  1  0.60329010  0.91661967  0.91467557  1
  O2-  O426  1  0.90014209  0.42162022  0.23229210  1
  O2-  O427  1  0.92167329  0.41993061  0.54741081  1
  O2-  O428  1  0.93230744  0.41871040  0.88483958  1
  O2-  O429  1  0.93412736  0.91642262  0.21807080  1
  O2-  O430  1  0.92450167  0.91404479  0.56593680  1
  O2-  O431  1  0.89253944  0.91425080  0.89008984  1
  O2-  O432  1  -0.00336677  -0.01319349  -0.00096002  1
  O2-  O433  1  0.01062709  0.00257145  0.32045783  1
  O2-  O434  1  0.00695061  0.01610708  0.65273718  1
  O2-  O435  1  -0.00422102  0.50516896  -0.00408561  1
  O2-  O436  1  -0.00480830  0.50545627  0.34359349  1
  O2-  O437  1  0.00317585  0.49501812  0.65323812  1
  O2-  O438  1  0.33218891  0.01543994  0.00184552  1
  O2-  O439  1  0.32699295  0.02121909  0.34408987  1
  O2-  O440  1  0.30199432  -0.00161234  0.71638528  1
  O2-  O441  1  0.35770890  0.50170070  -0.04311349  1
  O2-  O442  1  0.32812731  0.51239970  0.33539381  1
  O2-  O443  1  0.32496542  0.49714814  0.68558599  1
  O2-  O444  1  0.66693331  0.00578871  0.00354049  1
  O2-  O445  1  0.66768103  0.02914403  0.33590315  1
  O2-  O446  1  0.68174498  0.00134525  0.64397096  1
  O2-  O447  1  0.67879539  0.50501729  -0.01366829  1
  O2-  O448  1  0.66945185  0.48838960  0.32576853  1
  O2-  O449  1  0.68757797  0.50734984  0.66538557  1
  O2-  O450  1  0.15667907  0.01775532  -0.01123727  1
  O2-  O451  1  0.16588172  0.01940801  0.33211762  1
  O2-  O452  1  0.15799396  0.00741106  0.64882853  1
  O2-  O453  1  0.13894518  0.49816211  -0.03277331  1
  O2-  O454  1  0.15858080  0.51233024  0.31537385  1
  O2-  O455  1  0.16471976  0.48098244  0.66018373  1
  O2-  O456  1  0.49854697  0.01530857  -0.01245344  1
  O2-  O457  1  0.48340547  0.00395896  0.30874494  1
  O2-  O458  1  0.51777479  0.01673776  0.68596349  1
  O2-  O459  1  0.50328203  0.50496590  -0.03565915  1
  O2-  O460  1  0.51769918  0.50258322  0.34173001  1
  O2-  O461  1  0.49055116  0.48678046  0.65026086  1
  O2-  O462  1  0.83719501  -0.00510351  0.00676437  1
  O2-  O463  1  0.85100413  -0.00078174  0.36255115  1
  O2-  O464  1  0.83920506  0.01515862  0.67581852  1
  O2-  O465  1  0.83210059  0.50286189  0.00118707  1
  O2-  O466  1  0.82071557  0.50080019  0.31258130  1
  O2-  O467  1  0.82802827  0.49491387  0.67094289  1
  O2-  O468  1  0.08648896  0.25655987  0.05758164  1
  O2-  O469  1  0.09867125  0.74687054  0.72014881  1
  O2-  O470  1  0.75126835  0.74765694  0.40675342  1
  O2-  O471  1  0.91648359  0.74717639  0.59091781  1
  O2-  O472  1  0.41601609  0.25199611  0.06248946  1
  O2-  O473  1  0.42232449  0.75131747  0.41273735  1
  O2-  O474  1  0.40973362  0.75434602  0.73242468  1
  O2-  O475  1  0.57533636  0.24945796  0.93732402  1
  O2-  O476  1  0.92622076  0.25546081  0.61299977  1
  O2-  O477  1  0.08590671  0.25125462  0.71796031  1
  O2-  O478  1  0.24292520  0.24983485  0.94255995  1
  O2-  O479  1  0.91985447  0.25509613  0.91889456  1
  O2-  O480  1  0.07828313  0.25661359  0.39465216  1
  O2-  O481  1  0.91927062  0.25948307  0.26870879  1
  O2-  O482  1  0.91960971  0.74769227  0.27091822  1
  O2-  O483  1  0.74222682  0.25491606  0.39624142  1
  O2-  O484  1  0.75005481  0.25036767  0.72383543  1
  O2-  O485  1  0.23945796  0.74808522  0.93450088  1
  O2-  O486  1  0.57890257  0.25191967  0.27685879  1
  O2-  O487  1  0.08643353  0.74630785  0.05471114  1
  O2-  O488  1  0.57950673  0.74936336  0.58564408  1
  O2-  O489  1  0.25145210  0.74831340  0.61105082  1
  O2-  O490  1  0.59506158  0.25264336  0.60437131  1
  O2-  O491  1  0.58152565  0.74794924  0.27620146  1
  O2-  O492  1  0.23476075  0.25355643  0.26863108  1
