# generated using pymatgen
data_Ca108Mn108O277
_symmetry_space_group_name_H-M   'P 1'
_cell_length_a   16.03168126
_cell_length_b   22.31040126
_cell_length_c   16.39073595
_cell_angle_alpha   89.99508842
_cell_angle_beta   90.00232118
_cell_angle_gamma   89.99437315
_symmetry_Int_Tables_number   1
_chemical_formula_structural   Ca108Mn108O277
_chemical_formula_sum   'Ca108 Mn108 O277'
_cell_volume   5862.52760679
_cell_formula_units_Z   1
loop_
 _symmetry_equiv_pos_site_id
 _symmetry_equiv_pos_as_xyz
  1  'x, y, z'
loop_
 _atom_type_symbol
 _atom_type_oxidation_number
  Ca2+  2.0
  Mn3.34+  3.34
  O2-  -2.0
loop_
 _atom_site_type_symbol
 _atom_site_label
 _atom_site_symmetry_multiplicity
 _atom_site_fract_x
 _atom_site_fract_y
 _atom_site_fract_z
 _atom_site_occupancy
  Ca2+  Ca0  1  0.09006962  0.26073129  0.25991714  1
  Ca2+  Ca1  1  0.09455022  0.25257157  0.58313372  1
  Ca2+  Ca2  1  0.09535215  0.24286678  0.90805049  1
  Ca2+  Ca3  1  0.06669393  0.75292987  0.25557527  1
  Ca2+  Ca4  1  0.07864072  0.74766545  0.57794399  1
  Ca2+  Ca5  1  0.08186897  0.75850132  0.91500783  1
  Ca2+  Ca6  1  0.40907258  0.25287300  0.22218167  1
  Ca2+  Ca7  1  0.40975003  0.26478958  0.58867169  1
  Ca2+  Ca8  1  0.38765371  0.23932109  0.93297115  1
  Ca2+  Ca9  1  0.44245658  0.74064432  0.25479952  1
  Ca2+  Ca10  1  0.44638522  0.74552458  0.57496149  1
  Ca2+  Ca11  1  0.43504613  0.74912600  0.92657048  1
  Ca2+  Ca12  1  0.74211408  0.26551549  0.26168251  1
  Ca2+  Ca13  1  0.74433462  0.25195134  0.55293779  1
  Ca2+  Ca14  1  0.76413306  0.26311832  0.91747711  1
  Ca2+  Ca15  1  0.73371368  0.72575678  0.25550329  1
  Ca2+  Ca16  1  0.73868794  0.74213280  0.58348224  1
  Ca2+  Ca17  1  0.74217135  0.74086222  0.90927928  1
  Ca2+  Ca18  1  0.26072729  0.25193404  0.07643970  1
  Ca2+  Ca19  1  0.21934515  0.23993328  0.41121317  1
  Ca2+  Ca20  1  0.24107255  0.24384191  0.75958458  1
  Ca2+  Ca21  1  0.26891178  0.74684495  0.08265544  1
  Ca2+  Ca22  1  0.25964857  0.76758630  0.41743484  1
  Ca2+  Ca23  1  0.25569402  0.75670802  0.75204879  1
  Ca2+  Ca24  1  0.56065166  0.25256194  0.08691647  1
  Ca2+  Ca25  1  0.60386892  0.25228032  0.41121222  1
  Ca2+  Ca26  1  0.56858018  0.25278422  0.74556559  1
  Ca2+  Ca27  1  0.58727044  0.74613353  0.08934888  1
  Ca2+  Ca28  1  0.58785324  0.74835060  0.41882978  1
  Ca2+  Ca29  1  0.60301687  0.72798953  0.73795038  1
  Ca2+  Ca30  1  0.92573660  0.26679165  0.07414614  1
  Ca2+  Ca31  1  0.92480762  0.25774791  0.41664697  1
  Ca2+  Ca32  1  0.94605509  0.24883995  0.75875512  1
  Ca2+  Ca33  1  0.89406013  0.74723233  0.09572597  1
  Ca2+  Ca34  1  0.90437914  0.74207802  0.41240499  1
  Ca2+  Ca35  1  0.88533752  0.74766387  0.74061107  1
  Ca2+  Ca36  1  0.57807306  0.60689238  0.10468604  1
  Ca2+  Ca37  1  0.25931655  0.58355041  0.40801870  1
  Ca2+  Ca38  1  0.10719138  0.08236466  0.30949950  1
  Ca2+  Ca39  1  0.44647137  0.59743948  0.23785207  1
  Ca2+  Ca40  1  0.39152458  0.09916182  0.91160945  1
  Ca2+  Ca41  1  0.91672817  0.07087029  0.05626324  1
  Ca2+  Ca42  1  0.01610440  0.58441205  0.57086304  1
  Ca2+  Ca43  1  0.89940916  0.58819324  0.10499175  1
  Ca2+  Ca44  1  0.24645048  0.58417888  0.40774543  1
  Ca2+  Ca45  1  0.61058234  0.60448782  0.39369028  1
  Ca2+  Ca46  1  0.42408761  0.08649387  0.59437958  1
  Ca2+  Ca47  1  0.58520004  0.07438368  0.73555617  1
  Ca2+  Ca48  1  0.56736369  0.09892923  0.08575741  1
  Ca2+  Ca49  1  0.07591569  0.56664777  0.94030518  1
  Ca2+  Ca50  1  0.73474646  0.08880702  0.26681989  1
  Ca2+  Ca51  1  0.09608446  0.10509471  0.57467172  1
  Ca2+  Ca52  1  0.60816105  0.59895676  0.39967374  1
  Ca2+  Ca53  1  0.22470866  0.10917039  0.77369846  1
  Ca2+  Ca54  1  0.76382975  0.60826866  0.57543728  1
  Ca2+  Ca55  1  0.26219965  0.09793963  0.07644941  1
  Ca2+  Ca56  1  0.46955983  0.60296723  0.58835875  1
  Ca2+  Ca57  1  0.41734130  0.60380034  0.95321361  1
  Ca2+  Ca58  1  0.95133541  0.09290985  0.42142555  1
  Ca2+  Ca59  1  0.88506388  0.61075767  0.74121871  1
  Ca2+  Ca60  1  0.26775673  0.10364760  0.07255747  1
  Ca2+  Ca61  1  0.26510565  0.59116362  0.76475919  1
  Ca2+  Ca62  1  0.74280587  0.08641071  0.58373564  1
  Ca2+  Ca63  1  0.08674349  0.56874876  0.94175071  1
  Ca2+  Ca64  1  0.73129225  0.08694277  0.58418330  1
  Ca2+  Ca65  1  0.59737676  0.09692682  0.41959491  1
  Ca2+  Ca66  1  0.74723442  0.08976936  0.26902320  1
  Ca2+  Ca67  1  0.96118979  0.09505895  0.76660785  1
  Ca2+  Ca68  1  0.40825410  0.10509756  0.23877130  1
  Ca2+  Ca69  1  0.02570160  0.58746781  0.57082935  1
  Ca2+  Ca70  1  0.41113990  0.08608458  0.59442163  1
  Ca2+  Ca71  1  0.88130253  0.59241487  0.40539232  1
  Ca2+  Ca72  1  0.07511925  0.90165629  0.57193081  1
  Ca2+  Ca73  1  0.94885884  0.42831593  0.09692362  1
  Ca2+  Ca74  1  0.89897914  0.90670260  0.75089203  1
  Ca2+  Ca75  1  0.25404659  0.90194537  0.75910425  1
  Ca2+  Ca76  1  0.57868893  0.40540898  0.74087292  1
  Ca2+  Ca77  1  0.74895712  0.91630573  0.91975815  1
  Ca2+  Ca78  1  0.74888255  0.40905862  0.57929724  1
  Ca2+  Ca79  1  0.41213124  0.89690533  0.25177451  1
  Ca2+  Ca80  1  0.93227801  0.41140189  0.74915820  1
  Ca2+  Ca81  1  0.59181755  0.90255201  0.75267305  1
  Ca2+  Ca82  1  0.08759971  0.90019060  0.57272335  1
  Ca2+  Ca83  1  0.23834004  0.90277680  0.08437981  1
  Ca2+  Ca84  1  0.41179962  0.40903939  0.92642205  1
  Ca2+  Ca85  1  0.07043699  0.41272553  0.57982333  1
  Ca2+  Ca86  1  0.56708773  0.40639134  0.74163306  1
  Ca2+  Ca87  1  0.74606020  0.89151707  0.24411392  1
  Ca2+  Ca88  1  0.91435402  0.42154763  0.40097192  1
  Ca2+  Ca89  1  0.58311734  0.40970352  0.10318432  1
  Ca2+  Ca90  1  0.57439730  0.41968058  0.37950251  1
  Ca2+  Ca91  1  0.24113994  0.40467667  0.75954257  1
  Ca2+  Ca92  1  0.26537000  0.40389131  0.40099640  1
  Ca2+  Ca93  1  0.91534239  0.90857495  0.07839261  1
  Ca2+  Ca94  1  0.90396193  0.42101151  0.39949119  1
  Ca2+  Ca95  1  0.42238129  0.89747320  0.58298193  1
  Ca2+  Ca96  1  0.92159149  0.41211390  0.74591619  1
  Ca2+  Ca97  1  0.58213581  0.89865876  0.42292206  1
  Ca2+  Ca98  1  0.90387940  0.90884835  0.07816729  1
  Ca2+  Ca99  1  0.07665653  0.91403170  0.93105884  1
  Ca2+  Ca100  1  0.09011112  0.90585170  0.25947007  1
  Ca2+  Ca101  1  0.23261980  0.40988500  0.08872964  1
  Ca2+  Ca102  1  0.25249871  0.40441362  0.75853819  1
  Ca2+  Ca103  1  0.42405434  0.89886588  0.91220595  1
  Ca2+  Ca104  1  0.74257410  0.91242245  0.59607588  1
  Ca2+  Ca105  1  0.23070329  0.90873785  0.08346681  1
  Ca2+  Ca106  1  0.25394625  0.40366393  0.40036590  1
  Ca2+  Ca107  1  0.75644826  0.41023294  0.94073252  1
  Mn3.34+  Mn108  1  0.08313530  0.34045960  0.08676485  1
  Mn3.34+  Mn109  1  0.08115963  0.33515421  0.41577385  1
  Mn3.34+  Mn110  1  0.08571568  0.33401096  0.74748216  1
  Mn3.34+  Mn111  1  0.08079462  0.82970008  0.08713483  1
  Mn3.34+  Mn112  1  0.07821695  0.83631695  0.41553102  1
  Mn3.34+  Mn113  1  0.08085080  0.83402307  0.75296037  1
  Mn3.34+  Mn114  1  0.41597519  0.33825066  0.08358575  1
  Mn3.34+  Mn115  1  0.42045420  0.33134822  0.41435887  1
  Mn3.34+  Mn116  1  0.41415828  0.33318423  0.75180509  1
  Mn3.34+  Mn117  1  0.42132823  0.82950207  0.08730990  1
  Mn3.34+  Mn118  1  0.41678630  0.83434862  0.41857481  1
  Mn3.34+  Mn119  1  0.42201771  0.83044211  0.75292459  1
  Mn3.34+  Mn120  1  0.75047221  0.33644256  0.09245476  1
  Mn3.34+  Mn121  1  0.74872045  0.33520212  0.41224547  1
  Mn3.34+  Mn122  1  0.75073849  0.33273257  0.75027442  1
  Mn3.34+  Mn123  1  0.74233090  0.83528379  0.08293794  1
  Mn3.34+  Mn124  1  0.75218177  0.83361229  0.42089719  1
  Mn3.34+  Mn125  1  0.74726453  0.83350766  0.75262420  1
  Mn3.34+  Mn126  1  0.25055246  0.33123407  0.24221916  1
  Mn3.34+  Mn127  1  0.25276401  0.33364060  0.57844994  1
  Mn3.34+  Mn128  1  0.24486600  0.33308660  0.92307288  1
  Mn3.34+  Mn129  1  0.25085149  0.83218494  0.25411302  1
  Mn3.34+  Mn130  1  0.25235625  0.83238164  0.58325216  1
  Mn3.34+  Mn131  1  0.25319200  0.82795462  0.91553024  1
  Mn3.34+  Mn132  1  0.57999658  0.33603666  0.24835029  1
  Mn3.34+  Mn133  1  0.57813612  0.33352092  0.57246963  1
  Mn3.34+  Mn134  1  0.58514173  0.33285573  0.91900117  1
  Mn3.34+  Mn135  1  0.58381729  0.82645965  0.25016250  1
  Mn3.34+  Mn136  1  0.58769257  0.82881168  0.58420490  1
  Mn3.34+  Mn137  1  0.58806038  0.83370466  0.91986609  1
  Mn3.34+  Mn138  1  0.91658578  0.34023967  0.24410811  1
  Mn3.34+  Mn139  1  0.91477554  0.34162885  0.57707729  1
  Mn3.34+  Mn140  1  0.92312893  0.33764815  0.91948943  1
  Mn3.34+  Mn141  1  0.91258026  0.82793612  0.25282626  1
  Mn3.34+  Mn142  1  0.90992840  0.82483316  0.57633848  1
  Mn3.34+  Mn143  1  0.91409552  0.83099317  0.91050649  1
  Mn3.34+  Mn144  1  0.07195993  0.15857213  0.08386280  1
  Mn3.34+  Mn145  1  0.91109609  0.17431057  0.58121851  1
  Mn3.34+  Mn146  1  0.42106405  0.66635887  0.41965479  1
  Mn3.34+  Mn147  1  0.91281230  0.66440288  0.91649110  1
  Mn3.34+  Mn148  1  0.92086450  0.16847557  0.91347789  1
  Mn3.34+  Mn149  1  0.24495887  0.66889382  0.58405509  1
  Mn3.34+  Mn150  1  0.07693491  0.67005710  0.75346731  1
  Mn3.34+  Mn151  1  0.42186726  0.66519993  0.76147676  1
  Mn3.34+  Mn152  1  0.75818644  0.16436381  0.08344320  1
  Mn3.34+  Mn153  1  0.24904307  0.17237237  0.58406345  1
  Mn3.34+  Mn154  1  0.25565065  0.67300885  0.91850898  1
  Mn3.34+  Mn155  1  0.08419119  0.16640912  0.08294171  1
  Mn3.34+  Mn156  1  0.09167352  0.66505167  0.75869065  1
  Mn3.34+  Mn157  1  0.08124517  0.66518285  0.41361373  1
  Mn3.34+  Mn158  1  0.57566747  0.16574326  0.91224817  1
  Mn3.34+  Mn159  1  0.41905567  0.17276198  0.41610975  1
  Mn3.34+  Mn160  1  0.58667839  0.66984768  0.91626265  1
  Mn3.34+  Mn161  1  0.08770748  0.66983137  0.08601218  1
  Mn3.34+  Mn162  1  0.92388044  0.17002227  0.58379077  1
  Mn3.34+  Mn163  1  0.59019789  0.16035059  0.91067807  1
  Mn3.34+  Mn164  1  0.75824527  0.15900294  0.76295647  1
  Mn3.34+  Mn165  1  0.74589900  0.66478290  0.08180014  1
  Mn3.34+  Mn166  1  0.41233326  0.16793198  0.75071850  1
  Mn3.34+  Mn167  1  0.74935123  0.15831198  0.08511434  1
  Mn3.34+  Mn168  1  0.92611221  0.16540360  0.24779432  1
  Mn3.34+  Mn169  1  0.25761111  0.66837125  0.24438331  1
  Mn3.34+  Mn170  1  0.25640353  0.66458953  0.58301803  1
  Mn3.34+  Mn171  1  0.74714732  0.15529304  0.76421935  1
  Mn3.34+  Mn172  1  0.07953223  0.66361651  0.08926468  1
  Mn3.34+  Mn173  1  0.58205394  0.17214410  0.58327047  1
  Mn3.34+  Mn174  1  0.24538760  0.16735312  0.25024830  1
  Mn3.34+  Mn175  1  0.40799608  0.16740534  0.41820403  1
  Mn3.34+  Mn176  1  0.24708568  0.66400731  0.24190253  1
  Mn3.34+  Mn177  1  0.91289631  0.17157847  0.25109423  1
  Mn3.34+  Mn178  1  0.58024681  0.17135710  0.24841536  1
  Mn3.34+  Mn179  1  0.91021738  0.66216462  0.25332904  1
  Mn3.34+  Mn180  1  0.24986820  -0.00101103  0.55927139  1
  Mn3.34+  Mn181  1  0.57560716  -0.00274179  0.57332902  1
  Mn3.34+  Mn182  1  0.25399620  0.49410406  0.59150269  1
  Mn3.34+  Mn183  1  0.26781169  0.50052377  0.59255186  1
  Mn3.34+  Mn184  1  0.59389648  0.51203780  0.92159631  1
  Mn3.34+  Mn185  1  0.40994395  0.00002603  0.74955916  1
  Mn3.34+  Mn186  1  0.23943603  0.00547089  0.55982208  1
  Mn3.34+  Mn187  1  0.93134317  -0.00359739  0.57209065  1
  Mn3.34+  Mn188  1  0.08239836  0.50120301  0.39769696  1
  Mn3.34+  Mn189  1  0.58590584  0.49596669  0.58016293  1
  Mn3.34+  Mn190  1  0.07879365  0.50579189  0.74986562  1
  Mn3.34+  Mn191  1  0.59652036  0.00052184  0.92554693  1
  Mn3.34+  Mn192  1  0.56754960  -0.00073672  0.25020660  1
  Mn3.34+  Mn193  1  0.42214691  -0.00197833  0.08207357  1
  Mn3.34+  Mn194  1  0.74516469  0.49669442  0.39953628  1
  Mn3.34+  Mn195  1  0.92015745  0.00018824  0.57157098  1
  Mn3.34+  Mn196  1  0.91683672  -0.00003330  0.92316293  1
  Mn3.34+  Mn197  1  0.40459996  -0.00176993  0.40138955  1
  Mn3.34+  Mn198  1  0.75842867  -0.00707320  0.41423044  1
  Mn3.34+  Mn199  1  0.43392448  -0.00980420  0.07996379  1
  Mn3.34+  Mn200  1  0.90523394  0.50381074  0.92886791  1
  Mn3.34+  Mn201  1  0.25094833  0.49761196  0.24399542  1
  Mn3.34+  Mn202  1  0.25132800  0.50168724  0.92762401  1
  Mn3.34+  Mn203  1  0.57897324  -0.00543349  0.24819602  1
  Mn3.34+  Mn204  1  0.42829423  0.50646627  0.75781398  1
  Mn3.34+  Mn205  1  0.74852017  0.50000569  0.09470805  1
  Mn3.34+  Mn206  1  0.74789347  0.50899107  0.76082539  1
  Mn3.34+  Mn207  1  0.41330780  0.49912725  0.07882362  1
  Mn3.34+  Mn208  1  0.24090874  -0.00108451  0.92607058  1
  Mn3.34+  Mn209  1  0.73362774  0.50325954  0.75751535  1
  Mn3.34+  Mn210  1  0.93205296  0.00556177  0.24986901  1
  Mn3.34+  Mn211  1  0.42023232  0.50274131  0.41877268  1
  Mn3.34+  Mn212  1  0.08938452  -0.00449274  0.74865024  1
  Mn3.34+  Mn213  1  0.25446412  -0.00134261  0.26643611  1
  Mn3.34+  Mn214  1  0.58509895  0.50534497  0.91878499  1
  Mn3.34+  Mn215  1  0.92043687  -0.00174450  0.25114866  1
  O2-  O216  1  -0.00548802  0.14699638  0.00331594  1
  O2-  O217  1  0.00402219  0.15233802  0.32636693  1
  O2-  O218  1  -0.00168921  0.15708259  0.66046542  1
  O2-  O219  1  0.00403841  0.68048768  -0.00531903  1
  O2-  O220  1  -0.00058490  0.67594248  0.33683815  1
  O2-  O221  1  -0.00378954  0.65372406  0.67191048  1
  O2-  O222  1  0.33229838  0.15904025  0.00058958  1
  O2-  O223  1  0.33418392  0.16082580  0.33151240  1
  O2-  O224  1  0.33752556  0.15150474  0.66505388  1
  O2-  O225  1  0.33701561  0.68800999  -0.00759142  1
  O2-  O226  1  0.33504491  0.64598584  0.33457936  1
  O2-  O227  1  0.33037731  0.65746497  0.67640735  1
  O2-  O228  1  0.66133636  0.16000146  0.00452967  1
  O2-  O229  1  0.66391065  0.15539020  0.32788801  1
  O2-  O230  1  0.66647423  0.15608401  0.67010467  1
  O2-  O231  1  0.66560570  0.65132816  0.00017649  1
  O2-  O232  1  0.66970875  0.68023396  0.35577351  1
  O2-  O233  1  0.67179440  0.66319430  0.64981648  1
  O2-  O234  1  0.16469965  0.15227515  0.00636920  1
  O2-  O235  1  0.16737185  0.16758860  0.32807245  1
  O2-  O236  1  0.17599659  0.15638501  0.66254722  1
  O2-  O237  1  0.16704483  0.68250731  -0.00032326  1
  O2-  O238  1  0.16912771  0.65492820  0.32922701  1
  O2-  O239  1  0.15984977  0.63687188  0.66440751  1
  O2-  O240  1  0.49794184  0.14406143  -0.01153299  1
  O2-  O241  1  0.49818197  0.14994957  0.33576625  1
  O2-  O242  1  0.50037046  0.15200786  0.66482446  1
  O2-  O243  1  0.50562606  0.66980449  0.00043863  1
  O2-  O244  1  0.49803539  0.65298721  0.34068148  1
  O2-  O245  1  0.49001470  0.67633736  0.67517872  1
  O2-  O246  1  0.83487845  0.16574577  -0.00210891  1
  O2-  O247  1  0.84146460  0.14164030  0.33235264  1
  O2-  O248  1  0.83018194  0.15246419  0.66512492  1
  O2-  O249  1  0.84315628  0.66477292  0.00653182  1
  O2-  O250  1  0.83365238  0.66893445  0.33155212  1
  O2-  O251  1  0.83861795  0.67894458  0.64771068  1
  O2-  O252  1  -0.00620458  0.35173274  0.00966825  1
  O2-  O253  1  -0.00540820  0.35242455  0.34134853  1
  O2-  O254  1  -0.00151351  0.35037175  0.66377495  1
  O2-  O255  1  -0.00069682  0.83424223  -0.00226384  1
  O2-  O256  1  0.00200468  0.83131850  0.32901061  1
  O2-  O257  1  0.00003973  0.83693154  0.65660477  1
  O2-  O258  1  0.33136678  0.34707305  0.00052085  1
  O2-  O259  1  0.33313491  0.33406302  0.33136629  1
  O2-  O260  1  0.32864645  0.35308192  0.67038258  1
  O2-  O261  1  0.32930965  0.83440340  0.00598819  1
  O2-  O262  1  0.33093785  0.84618532  0.33914921  1
  O2-  O263  1  0.33208689  0.83867869  0.67509577  1
  O2-  O264  1  0.67368716  0.33410125  -0.00213055  1
  O2-  O265  1  0.66450901  0.34280334  0.33553774  1
  O2-  O266  1  0.66530523  0.34740862  0.66867309  1
  O2-  O267  1  0.67090729  0.85241071  -0.00377408  1
  O2-  O268  1  0.66406514  0.83962997  0.33820411  1
  O2-  O269  1  0.66705447  0.84744305  0.66679111  1
  O2-  O270  1  0.16885247  0.34134636  0.00682915  1
  O2-  O271  1  0.16953108  0.34168871  0.33634923  1
  O2-  O272  1  0.16692669  0.35709843  0.66114537  1
  O2-  O273  1  0.16602088  0.82803915  0.00114160  1
  O2-  O274  1  0.15914474  0.83005909  0.33287903  1
  O2-  O275  1  0.16474966  0.85695539  0.66758871  1
  O2-  O276  1  0.50472653  0.35484193  0.00408793  1
  O2-  O277  1  0.50326271  0.32831257  0.33703375  1
  O2-  O278  1  0.49833709  0.34331219  0.66399373  1
  O2-  O279  1  0.49473766  0.83596312  -0.00342319  1
  O2-  O280  1  0.49884760  0.84387125  0.33420706  1
  O2-  O281  1  0.50043935  0.83885284  0.66575879  1
  O2-  O282  1  0.83103714  0.33415094  0.00181548  1
  O2-  O283  1  0.83492746  0.34648254  0.33580171  1
  O2-  O284  1  0.83397153  0.35655836  0.66767015  1
  O2-  O285  1  0.83699382  0.84374812  -0.00112132  1
  O2-  O286  1  0.82659153  0.83048283  0.32980841  1
  O2-  O287  1  0.83394980  0.84042360  0.66529807  1
  O2-  O288  1  -0.00723123  0.18857816  0.15888145  1
  O2-  O289  1  -0.00047198  0.18040658  0.49986753  1
  O2-  O290  1  -0.00046375  0.17556403  0.83711595  1
  O2-  O291  1  -0.00304763  0.68288543  0.16496691  1
  O2-  O292  1  0.01151544  0.67638470  0.50272854  1
  O2-  O293  1  0.00116516  0.69066952  0.83764254  1
  O2-  O294  1  0.32331692  0.17090148  0.16413085  1
  O2-  O295  1  0.33815591  0.19170882  0.50328623  1
  O2-  O296  1  0.33481577  0.17716538  0.82747068  1
  O2-  O297  1  0.34100759  0.68306127  0.17069459  1
  O2-  O298  1  0.33534909  0.68501640  0.49880890  1
  O2-  O299  1  0.33075609  0.68771845  0.83179287  1
  O2-  O300  1  0.66646903  0.18155342  0.16439788  1
  O2-  O301  1  0.66560639  0.17174308  0.50955613  1
  O2-  O302  1  0.66731196  0.19345473  0.83639729  1
  O2-  O303  1  0.66642907  0.67556448  0.15664012  1
  O2-  O304  1  0.67681832  0.67497081  0.49136840  1
  O2-  O305  1  0.66322232  0.67650988  0.84024093  1
  O2-  O306  1  0.16395902  0.17902869  0.16218609  1
  O2-  O307  1  0.16725975  0.18197093  0.51163437  1
  O2-  O308  1  0.16428565  0.18368790  0.83087275  1
  O2-  O309  1  0.16579186  0.69654360  0.16461611  1
  O2-  O310  1  0.17526888  0.68396999  0.48718849  1
  O2-  O311  1  0.17196365  0.69020706  0.83500225  1
  O2-  O312  1  0.50072252  0.17756709  0.17098793  1
  O2-  O313  1  0.49980346  0.18390285  0.49726594  1
  O2-  O314  1  0.50482953  0.17757594  0.82261391  1
  O2-  O315  1  0.50114048  0.68025093  0.16340345  1
  O2-  O316  1  0.50335437  0.67282580  0.49383762  1
  O2-  O317  1  0.50034658  0.69183618  0.83612714  1
  O2-  O318  1  0.83019914  0.18932456  0.17415800  1
  O2-  O319  1  0.82961452  0.17394533  0.51031594  1
  O2-  O320  1  0.83822725  0.19386317  0.83135682  1
  O2-  O321  1  0.83229868  0.67423975  0.16503245  1
  O2-  O322  1  0.83017623  0.68006325  0.49821796  1
  O2-  O323  1  0.84107389  0.68216484  0.83688655  1
  O2-  O324  1  -0.00011742  0.32154585  0.16787411  1
  O2-  O325  1  0.00199707  0.32532520  0.50439885  1
  O2-  O326  1  -0.00359411  0.33270908  0.82309579  1
  O2-  O327  1  -0.00495014  0.81961039  0.16090866  1
  O2-  O328  1  0.00019618  0.80928102  0.49841301  1
  O2-  O329  1  -0.00296156  0.81507487  0.83040028  1
  O2-  O330  1  0.32686485  0.32189407  0.15828097  1
  O2-  O331  1  0.32816391  0.31697396  0.48899436  1
  O2-  O332  1  0.33067630  0.32836299  0.83268832  1
  O2-  O333  1  0.33149271  0.81769717  0.16465134  1
  O2-  O334  1  0.34278714  0.81836133  0.51100786  1
  O2-  O335  1  0.34031517  0.81374406  0.83947353  1
  O2-  O336  1  0.66027358  0.31575285  0.16099226  1
  O2-  O337  1  0.66931098  0.32556855  0.49937258  1
  O2-  O338  1  0.66690200  0.31312369  0.82809857  1
  O2-  O339  1  0.67089694  0.81962751  0.17165028  1
  O2-  O340  1  0.66658037  0.81865422  0.49894508  1
  O2-  O341  1  0.66542912  0.82772403  0.83433034  1
  O2-  O342  1  0.16801037  0.31596171  0.16391581  1
  O2-  O343  1  0.16661970  0.32391104  0.49838693  1
  O2-  O344  1  0.17357067  0.32914374  0.82505671  1
  O2-  O345  1  0.16835667  0.81724165  0.16357893  1
  O2-  O346  1  0.15720815  0.81743972  0.50162677  1
  O2-  O347  1  0.17345228  0.81715055  0.83363324  1
  O2-  O348  1  0.49938184  0.32414619  0.16488701  1
  O2-  O349  1  0.49972292  0.30736791  0.49482613  1
  O2-  O350  1  0.50811512  0.32867532  0.82515401  1
  O2-  O351  1  0.49663247  0.81526276  0.17105211  1
  O2-  O352  1  0.50493719  0.82129856  0.49817922  1
  O2-  O353  1  0.50343093  0.82393305  0.83473232  1
  O2-  O354  1  0.83249987  0.31215987  0.16769559  1
  O2-  O355  1  0.83365164  0.32574406  0.49831542  1
  O2-  O356  1  0.83798546  0.32186534  0.82653377  1
  O2-  O357  1  0.83780869  0.82847593  0.16099038  1
  O2-  O358  1  0.82875566  0.80437932  0.49983991  1
  O2-  O359  1  0.83111084  0.81678177  0.83397972  1
  O2-  O360  1  0.07546218  0.08160312  0.11764427  1
  O2-  O361  1  0.07326309  0.05528989  0.46909666  1
  O2-  O362  1  0.09276001  0.07196372  0.77458677  1
  O2-  O363  1  0.06352418  0.58026786  0.07606151  1
  O2-  O364  1  0.10698086  0.57633227  0.45323548  1
  O2-  O365  1  0.08959160  0.58509080  0.79968604  1
  O2-  O366  1  0.42144874  0.07574391  0.11264911  1
  O2-  O367  1  0.41957897  0.07948460  0.45946150  1
  O2-  O368  1  0.41896984  0.08210594  0.77394840  1
  O2-  O369  1  0.43287348  0.57432980  0.10301766  1
  O2-  O370  1  0.39475662  0.58071138  0.45746661  1
  O2-  O371  1  0.40103398  0.58208344  0.80074035  1
  O2-  O372  1  0.75541473  0.07824878  0.13452634  1
  O2-  O373  1  0.73607567  0.07053390  0.45435536  1
  O2-  O374  1  0.73227901  0.07286072  0.76389987  1
  O2-  O375  1  0.75649293  0.58081633  0.10623498  1
  O2-  O376  1  0.74281534  0.56505746  0.45053451  1
  O2-  O377  1  0.75196055  0.58750326  0.74782636  1
  O2-  O378  1  0.24660175  0.07918393  0.22018747  1
  O2-  O379  1  0.27061854  0.08638573  0.55070588  1
  O2-  O380  1  0.25420626  0.07325506  0.89741476  1
  O2-  O381  1  0.24916497  0.58219099  0.22130021  1
  O2-  O382  1  0.25419745  0.57721807  0.54350412  1
  O2-  O383  1  0.22635649  0.58253148  0.90025257  1
  O2-  O384  1  0.58941583  0.08223244  0.21858517  1
  O2-  O385  1  0.57123564  0.08261917  0.55619632  1
  O2-  O386  1  0.58720047  0.07877581  0.87530740  1
  O2-  O387  1  0.58129084  0.57814699  0.24017494  1
  O2-  O388  1  0.58265643  0.56811794  0.52780525  1
  O2-  O389  1  0.55991775  0.58778245  0.89060430  1
  O2-  O390  1  0.90925294  0.08187043  0.19781648  1
  O2-  O391  1  0.91876375  0.08359384  0.55525026  1
  O2-  O392  1  0.90961750  0.08018551  0.89472107  1
  O2-  O393  1  0.92100171  0.58526501  0.23922026  1
  O2-  O394  1  0.89879668  0.56838960  0.53991874  1
  O2-  O395  1  0.94365868  0.57745423  0.88242160  1
  O2-  O396  1  0.09021768  0.41738290  0.11161784  1
  O2-  O397  1  0.09082687  0.42380187  0.44362900  1
  O2-  O398  1  0.08512440  0.42126683  0.76929431  1
  O2-  O399  1  0.09298705  0.91425595  0.11113104  1
  O2-  O400  1  0.07895223  0.91450773  0.44053670  1
  O2-  O401  1  0.08531986  0.91874676  0.79113546  1
  O2-  O402  1  0.40819620  0.42190929  0.10934765  1
  O2-  O403  1  0.40627203  0.42062576  0.43230861  1
  O2-  O404  1  0.42910062  0.42132586  0.78401803  1
  O2-  O405  1  0.39513964  0.91605745  0.11236918  1
  O2-  O406  1  0.42565927  0.91831374  0.44750673  1
  O2-  O407  1  0.40478220  0.91984758  0.77949822  1
  O2-  O408  1  0.73909694  0.41863669  0.11124614  1
  O2-  O409  1  0.76108867  0.42425551  0.44488619  1
  O2-  O410  1  0.72964867  0.42417158  0.79017024  1
  O2-  O411  1  0.76979962  0.91698952  0.11189559  1
  O2-  O412  1  0.73854303  0.91720748  0.45496054  1
  O2-  O413  1  0.75541306  0.91719408  0.77320321  1
  O2-  O414  1  0.25159933  0.41419168  0.23350220  1
  O2-  O415  1  0.25481387  0.42095905  0.53744901  1
  O2-  O416  1  0.26210362  0.42313236  0.89020503  1
  O2-  O417  1  0.25141397  0.91902135  0.21786571  1
  O2-  O418  1  0.23446679  0.91696365  0.54698715  1
  O2-  O419  1  0.24676428  0.91831357  0.89870786  1
  O2-  O420  1  0.57691591  0.41514978  0.23885439  1
  O2-  O421  1  0.58751307  0.41669622  0.55209159  1
  O2-  O422  1  0.59457796  0.42569163  0.87546260  1
  O2-  O423  1  0.57829826  0.91262889  0.22735816  1
  O2-  O424  1  0.57908304  0.91580579  0.56246444  1
  O2-  O425  1  0.57771293  0.92301324  0.88959661  1
  O2-  O426  1  0.91448077  0.41956221  0.23284693  1
  O2-  O427  1  0.91710448  0.42122582  0.54643099  1
  O2-  O428  1  0.89256292  0.42634501  0.87906106  1
  O2-  O429  1  0.92439603  0.91623388  0.22543621  1
  O2-  O430  1  0.93440139  0.91357985  0.55291327  1
  O2-  O431  1  0.91888202  0.92200275  0.88487713  1
  O2-  O432  1  -0.00572599  -0.01722016  0.00472015  1
  O2-  O433  1  -0.00381898  0.02122168  0.33761465  1
  O2-  O434  1  -0.01291902  -0.00474957  0.68123052  1
  O2-  O435  1  -0.00378991  0.49425533  -0.01502294  1
  O2-  O436  1  -0.02660897  0.50955974  0.38671810  1
  O2-  O437  1  0.00544691  0.50704333  0.65794331  1
  O2-  O438  1  0.34079174  0.00289349  -0.00474111  1
  O2-  O439  1  0.37311026  0.00121232  0.27881181  1
  O2-  O440  1  0.33622020  0.00071680  0.64780142  1
  O2-  O441  1  0.34914108  0.50820035  -0.01885724  1
  O2-  O442  1  0.33145338  0.50599516  0.34497128  1
  O2-  O443  1  0.32499801  0.49568373  0.69497010  1
  O2-  O444  1  0.67138346  0.00600718  -0.00424719  1
  O2-  O445  1  0.67676065  0.00909188  0.31672375  1
  O2-  O446  1  0.66523974  0.00812563  0.63793242  1
  O2-  O447  1  0.67045751  0.49059102  0.00541229  1
  O2-  O448  1  0.65644210  0.50149221  0.34648620  1
  O2-  O449  1  0.68322198  0.49119840  0.65234977  1
  O2-  O450  1  0.18664478  -0.00605202  0.02584060  1
  O2-  O451  1  0.14806947  -0.00982120  0.29407788  1
  O2-  O452  1  0.15742613  -0.00589976  0.64928842  1
  O2-  O453  1  0.16102102  0.49253559  -0.01364904  1
  O2-  O454  1  0.18881802  0.49744796  0.35721809  1
  O2-  O455  1  0.17233252  0.50323609  0.67196961  1
  O2-  O456  1  0.50164853  0.00786147  -0.01022141  1
  O2-  O457  1  0.52290729  0.00643446  0.35910517  1
  O2-  O458  1  0.49806336  0.00808404  0.66547978  1
  O2-  O459  1  0.50162634  0.48874466  -0.00123011  1
  O2-  O460  1  0.51220889  0.51737034  0.36846149  1
  O2-  O461  1  0.51490496  0.49496290  0.67573907  1
  O2-  O462  1  0.84092637  -0.01164550  0.00302851  1
  O2-  O463  1  0.82883207  0.01550728  0.32048183  1
  O2-  O464  1  0.81779426  0.00333565  0.62682725  1
  O2-  O465  1  0.84402876  0.49070656  0.02450423  1
  O2-  O466  1  0.83123069  0.49990456  0.34092224  1
  O2-  O467  1  0.84669237  0.48900107  0.70602336  1
  O2-  O468  1  0.07389795  0.25731274  0.39749017  1
  O2-  O469  1  0.91398041  0.74937135  0.25598783  1
  O2-  O470  1  0.75332166  0.25527812  0.40158515  1
  O2-  O471  1  0.41580831  0.74916936  0.39424151  1
  O2-  O472  1  0.92587169  0.25369784  0.28045373  1
  O2-  O473  1  0.74754669  0.75120582  0.05986037  1
  O2-  O474  1  0.08641003  0.25619946  0.72648677  1
  O2-  O475  1  0.25565751  0.74709822  0.28086890  1
  O2-  O476  1  0.07520663  0.24671431  0.05545265  1
  O2-  O477  1  0.59057511  0.25207968  0.60865661  1
  O2-  O478  1  0.58894476  0.75120536  0.59870882  1
  O2-  O479  1  0.58389372  0.74960349  0.26972122  1
  O2-  O480  1  0.56636711  0.24574967  0.94358191  1
  O2-  O481  1  0.25133802  0.24995534  0.26617378  1
  O2-  O482  1  0.24439453  0.25423636  0.93282981  1
  O2-  O483  1  0.93324158  0.25175964  0.93599964  1
  O2-  O484  1  0.09758591  0.74855848  0.71698187  1
  O2-  O485  1  0.41838309  0.25022816  0.72546110  1
  O2-  O486  1  0.90850488  0.25662285  0.61058673  1
  O2-  O487  1  0.25216825  0.25418474  0.61621796  1
  O2-  O488  1  0.58754209  0.24978161  0.27284387  1
  O2-  O489  1  0.41741829  0.25814755  0.06644744  1
  O2-  O490  1  0.59621394  0.75323215  0.94428994  1
  O2-  O491  1  0.74256174  0.75396638  0.73260725  1
  O2-  O492  1  0.23165283  0.75097321  0.61617089  1
