# generated using pymatgen
data_Ca108Mn108O277
_symmetry_space_group_name_H-M   'P 1'
_cell_length_a   16.02508376
_cell_length_b   22.30492001
_cell_length_c   16.38971380
_cell_angle_alpha   90.00524123
_cell_angle_beta   89.99636148
_cell_angle_gamma   89.99852818
_symmetry_Int_Tables_number   1
_chemical_formula_structural   Ca108Mn108O277
_chemical_formula_sum   'Ca108 Mn108 O277'
_cell_volume   5858.30995068
_cell_formula_units_Z   1
loop_
 _symmetry_equiv_pos_site_id
 _symmetry_equiv_pos_as_xyz
  1  'x, y, z'
loop_
 _atom_type_symbol
 _atom_type_oxidation_number
  Ca2+  2.0
  Mn3.34+  3.34
  O2-  -2.0
loop_
 _atom_site_type_symbol
 _atom_site_label
 _atom_site_symmetry_multiplicity
 _atom_site_fract_x
 _atom_site_fract_y
 _atom_site_fract_z
 _atom_site_occupancy
  Ca2+  Ca0  1  0.06296828  0.24704777  0.24750610  1
  Ca2+  Ca1  1  0.05933513  0.23429849  0.58326768  1
  Ca2+  Ca2  1  0.07510889  0.23143635  0.91390481  1
  Ca2+  Ca3  1  0.08669893  0.75584967  0.25812233  1
  Ca2+  Ca4  1  0.07677675  0.76205796  0.58101420  1
  Ca2+  Ca5  1  0.06136022  0.75340391  0.91244564  1
  Ca2+  Ca6  1  0.42333463  0.25359323  0.22631644  1
  Ca2+  Ca7  1  0.42034898  0.26364310  0.58501109  1
  Ca2+  Ca8  1  0.42454332  0.25830528  0.92959358  1
  Ca2+  Ca9  1  0.41652020  0.75486729  0.24650490  1
  Ca2+  Ca10  1  0.41148345  0.73505029  0.59310199  1
  Ca2+  Ca11  1  0.44587211  0.74015324  0.90648524  1
  Ca2+  Ca12  1  0.76242512  0.25144354  0.23373938  1
  Ca2+  Ca13  1  0.76917880  0.25392986  0.59090389  1
  Ca2+  Ca14  1  0.75448156  0.25887585  0.92341600  1
  Ca2+  Ca15  1  0.74655539  0.75824927  0.23230547  1
  Ca2+  Ca16  1  0.75009582  0.75365806  0.60478501  1
  Ca2+  Ca17  1  0.74668598  0.74204162  0.90946770  1
  Ca2+  Ca18  1  0.26230951  0.25067510  0.08583283  1
  Ca2+  Ca19  1  0.24112547  0.25963778  0.41402332  1
  Ca2+  Ca20  1  0.25382624  0.25317635  0.75192420  1
  Ca2+  Ca21  1  0.26313566  0.75712671  0.08190327  1
  Ca2+  Ca22  1  0.25140902  0.74656138  0.42551265  1
  Ca2+  Ca23  1  0.26885334  0.74528156  0.74760090  1
  Ca2+  Ca24  1  0.58102924  0.26089060  0.08579165  1
  Ca2+  Ca25  1  0.58163045  0.26138993  0.40803314  1
  Ca2+  Ca26  1  0.58939809  0.27154797  0.74762961  1
  Ca2+  Ca27  1  0.60373761  0.73790863  0.05959243  1
  Ca2+  Ca28  1  0.57697064  0.75639189  0.41813080  1
  Ca2+  Ca29  1  0.60224681  0.73439318  0.76557076  1
  Ca2+  Ca30  1  0.92038872  0.24932806  0.08956579  1
  Ca2+  Ca31  1  0.92281745  0.25250246  0.41617184  1
  Ca2+  Ca32  1  0.90950786  0.24277338  0.74360795  1
  Ca2+  Ca33  1  0.88332892  0.72886638  0.06093061  1
  Ca2+  Ca34  1  0.92295849  0.75223427  0.42209623  1
  Ca2+  Ca35  1  0.89164493  0.74776276  0.77395215  1
  Ca2+  Ca36  1  0.29553914  0.59421041  0.44350772  1
  Ca2+  Ca37  1  0.79803410  0.08519686  0.60434766  1
  Ca2+  Ca38  1  0.07121624  0.58073704  0.93371781  1
  Ca2+  Ca39  1  0.25033622  0.09808387  0.40511273  1
  Ca2+  Ca40  1  0.22023617  0.09896091  0.76671321  1
  Ca2+  Ca41  1  0.06492263  0.58089264  0.23918749  1
  Ca2+  Ca42  1  0.40082391  0.07230686  0.94182034  1
  Ca2+  Ca43  1  0.24216787  0.08853235  0.07468199  1
  Ca2+  Ca44  1  0.75397598  0.60227096  0.23552008  1
  Ca2+  Ca45  1  0.88814015  0.58422427  0.40816769  1
  Ca2+  Ca46  1  0.58630220  0.57863177  0.42682496  1
  Ca2+  Ca47  1  0.72266771  0.59442540  0.92489550  1
  Ca2+  Ca48  1  0.56067911  0.09398558  0.39950430  1
  Ca2+  Ca49  1  0.58976073  0.08580256  0.74536698  1
  Ca2+  Ca50  1  0.23181285  0.08829216  0.07281037  1
  Ca2+  Ca51  1  0.39232016  0.07478821  0.93664609  1
  Ca2+  Ca52  1  0.78537759  0.10456537  0.90706706  1
  Ca2+  Ca53  1  0.54487911  0.09712923  0.09364367  1
  Ca2+  Ca54  1  0.28538954  0.59415681  0.43792534  1
  Ca2+  Ca55  1  0.94133505  0.10104734  0.41944868  1
  Ca2+  Ca56  1  0.78905860  0.09028429  0.60948659  1
  Ca2+  Ca57  1  0.40743568  0.11144872  0.24120395  1
  Ca2+  Ca58  1  0.23238621  0.09815566  0.76201679  1
  Ca2+  Ca59  1  0.07708636  0.57796123  0.23985453  1
  Ca2+  Ca60  1  0.76515820  0.60246170  0.23473208  1
  Ca2+  Ca61  1  0.92669023  0.10688999  0.07473096  1
  Ca2+  Ca62  1  0.93370874  0.10433010  0.06717004  1
  Ca2+  Ca63  1  0.27320615  0.59243990  0.73697727  1
  Ca2+  Ca64  1  0.07367795  0.10584817  0.24155041  1
  Ca2+  Ca65  1  0.93548144  0.09628686  0.42511659  1
  Ca2+  Ca66  1  0.08405442  0.58091524  0.93416685  1
  Ca2+  Ca67  1  0.11036631  0.59208606  0.58110516  1
  Ca2+  Ca68  1  0.57435715  0.58194222  0.42706686  1
  Ca2+  Ca69  1  0.86963815  0.59589197  0.75838849  1
  Ca2+  Ca70  1  0.55705236  0.09634691  0.09104424  1
  Ca2+  Ca71  1  0.09805643  0.59056339  0.58357835  1
  Ca2+  Ca72  1  0.25729022  0.90512036  0.42399055  1
  Ca2+  Ca73  1  0.92025180  0.90211849  0.07828527  1
  Ca2+  Ca74  1  0.58733529  0.89504278  0.75560273  1
  Ca2+  Ca75  1  0.42132874  0.40887795  0.57934961  1
  Ca2+  Ca76  1  0.08133102  0.92498119  0.94379788  1
  Ca2+  Ca77  1  0.56842368  0.41641672  0.41115163  1
  Ca2+  Ca78  1  0.08126376  0.40213869  0.58706014  1
  Ca2+  Ca79  1  0.74494660  0.41958707  0.61316816  1
  Ca2+  Ca80  1  0.89330365  0.41581418  0.41451774  1
  Ca2+  Ca81  1  0.42071285  0.89461051  0.58732384  1
  Ca2+  Ca82  1  0.90038512  0.40963803  0.41554567  1
  Ca2+  Ca83  1  0.90960188  0.89371570  0.42254993  1
  Ca2+  Ca84  1  0.06324346  0.91383101  0.58289687  1
  Ca2+  Ca85  1  0.24887371  0.41169730  0.75344472  1
  Ca2+  Ca86  1  0.09311697  0.40132221  0.58711380  1
  Ca2+  Ca87  1  0.24455500  0.90508039  0.42389626  1
  Ca2+  Ca88  1  0.57891508  0.90030433  0.07533436  1
  Ca2+  Ca89  1  0.75033700  0.90156098  0.90992070  1
  Ca2+  Ca90  1  0.26786323  0.41160511  0.08146709  1
  Ca2+  Ca91  1  0.26368074  0.92896639  0.05088954  1
  Ca2+  Ca92  1  0.57881161  0.41607327  0.41269338  1
  Ca2+  Ca93  1  0.42937512  0.90762253  0.24311450  1
  Ca2+  Ca94  1  0.27478651  0.93010376  0.05142956  1
  Ca2+  Ca95  1  0.55870987  0.41607449  0.08692971  1
  Ca2+  Ca96  1  0.92700268  0.40191144  0.08552673  1
  Ca2+  Ca97  1  0.24955043  0.91031128  0.76310279  1
  Ca2+  Ca98  1  0.75293818  0.42256047  0.60768493  1
  Ca2+  Ca99  1  0.41777829  0.90787254  0.24378581  1
  Ca2+  Ca100  1  0.41906579  0.41880393  0.93617152  1
  Ca2+  Ca101  1  0.26119141  0.40938146  0.75512139  1
  Ca2+  Ca102  1  0.08815811  0.41100513  0.93005609  1
  Ca2+  Ca103  1  0.09215809  0.40109826  0.23694042  1
  Ca2+  Ca104  1  0.91501536  0.40150342  0.08602481  1
  Ca2+  Ca105  1  0.07733882  0.90024842  0.23806702  1
  Ca2+  Ca106  1  0.26191064  0.90811330  0.76509384  1
  Ca2+  Ca107  1  0.08870923  0.92320353  0.93688001  1
  Mn3.34+  Mn108  1  0.09018617  0.33376299  0.08503404  1
  Mn3.34+  Mn109  1  0.08743529  0.33311655  0.41421492  1
  Mn3.34+  Mn110  1  0.07942747  0.32862948  0.76012166  1
  Mn3.34+  Mn111  1  0.08368135  0.82950648  0.08665896  1
  Mn3.34+  Mn112  1  0.08166130  0.83370200  0.41759103  1
  Mn3.34+  Mn113  1  0.07634322  0.83802085  0.75130989  1
  Mn3.34+  Mn114  1  0.41755881  0.33421268  0.08408518  1
  Mn3.34+  Mn115  1  0.40365943  0.34557527  0.40603787  1
  Mn3.34+  Mn116  1  0.42340356  0.33587716  0.75588615  1
  Mn3.34+  Mn117  1  0.41933519  0.83276912  0.07913391  1
  Mn3.34+  Mn118  1  0.42345476  0.83252308  0.42262607  1
  Mn3.34+  Mn119  1  0.42354892  0.82958290  0.75427561  1
  Mn3.34+  Mn120  1  0.74548303  0.33535594  0.08262969  1
  Mn3.34+  Mn121  1  0.74546538  0.33886824  0.41886193  1
  Mn3.34+  Mn122  1  0.75367719  0.33774452  0.76040280  1
  Mn3.34+  Mn123  1  0.75075859  0.83114006  0.08176776  1
  Mn3.34+  Mn124  1  0.74817719  0.82362485  0.42086397  1
  Mn3.34+  Mn125  1  0.75131579  0.83496251  0.74945870  1
  Mn3.34+  Mn126  1  0.25890569  0.33937669  0.25051199  1
  Mn3.34+  Mn127  1  0.25290567  0.33160459  0.57941376  1
  Mn3.34+  Mn128  1  0.24896931  0.33270904  0.91740449  1
  Mn3.34+  Mn129  1  0.24847615  0.82975880  0.24669693  1
  Mn3.34+  Mn130  1  0.24829438  0.83259318  0.58672480  1
  Mn3.34+  Mn131  1  0.24856096  0.82655704  0.91423735  1
  Mn3.34+  Mn132  1  0.58530287  0.33886814  0.24612875  1
  Mn3.34+  Mn133  1  0.58248118  0.33730580  0.58365725  1
  Mn3.34+  Mn134  1  0.58842097  0.34405070  0.91510393  1
  Mn3.34+  Mn135  1  0.59178126  0.83332862  0.25215293  1
  Mn3.34+  Mn136  1  0.58817990  0.82906082  0.58220392  1
  Mn3.34+  Mn137  1  0.58508155  0.83215025  0.91594178  1
  Mn3.34+  Mn138  1  0.91361617  0.33273254  0.25191329  1
  Mn3.34+  Mn139  1  0.91614921  0.33128559  0.58536338  1
  Mn3.34+  Mn140  1  0.91749554  0.32876562  0.90953410  1
  Mn3.34+  Mn141  1  0.91168733  0.82804862  0.24596210  1
  Mn3.34+  Mn142  1  0.90946302  0.84039315  0.58816088  1
  Mn3.34+  Mn143  1  0.91520225  0.83597006  0.91332440  1
  Mn3.34+  Mn144  1  0.26347721  0.65198577  0.24521198  1
  Mn3.34+  Mn145  1  0.24823057  0.17914075  0.25019712  1
  Mn3.34+  Mn146  1  0.58503236  0.17465411  0.24667212  1
  Mn3.34+  Mn147  1  0.08543100  0.17113817  0.41509067  1
  Mn3.34+  Mn148  1  0.74298709  0.66507715  0.42225571  1
  Mn3.34+  Mn149  1  0.74322451  0.16276252  0.41307053  1
  Mn3.34+  Mn150  1  0.08568868  0.66713343  0.41622107  1
  Mn3.34+  Mn151  1  0.07855194  0.67069274  0.08469408  1
  Mn3.34+  Mn152  1  0.25317472  0.65812371  0.24714846  1
  Mn3.34+  Mn153  1  0.41434018  0.17196046  0.41511539  1
  Mn3.34+  Mn154  1  0.91402554  0.66783134  0.58429723  1
  Mn3.34+  Mn155  1  0.59051392  0.16287286  0.91090321  1
  Mn3.34+  Mn156  1  0.58504549  0.65996188  0.58996789  1
  Mn3.34+  Mn157  1  0.58085363  0.16849628  0.91292842  1
  Mn3.34+  Mn158  1  0.41292399  0.65934290  0.07274915  1
  Mn3.34+  Mn159  1  0.75151046  0.16862490  0.08691659  1
  Mn3.34+  Mn160  1  0.25191224  0.17116439  0.91651463  1
  Mn3.34+  Mn161  1  0.24693987  0.16274369  0.57929637  1
  Mn3.34+  Mn162  1  0.58138974  0.66722897  0.24583113  1
  Mn3.34+  Mn163  1  0.58444823  0.16854476  0.58320886  1
  Mn3.34+  Mn164  1  0.42193669  0.65325827  0.07211616  1
  Mn3.34+  Mn165  1  0.90352640  0.66315705  0.58257904  1
  Mn3.34+  Mn166  1  0.07812950  0.66400185  0.75558593  1
  Mn3.34+  Mn167  1  0.56999853  0.16321239  0.58034777  1
  Mn3.34+  Mn168  1  0.41617468  0.16825047  0.75342113  1
  Mn3.34+  Mn169  1  0.75301547  0.16831714  0.41202285  1
  Mn3.34+  Mn170  1  0.75615260  0.17175865  0.75441142  1
  Mn3.34+  Mn171  1  0.25937985  0.16766039  0.58122446  1
  Mn3.34+  Mn172  1  0.56996253  0.65925423  0.24526186  1
  Mn3.34+  Mn173  1  0.08765060  0.67664676  0.08336137  1
  Mn3.34+  Mn174  1  0.25671248  0.66182521  0.91071466  1
  Mn3.34+  Mn175  1  0.91828556  0.67556995  0.25310024  1
  Mn3.34+  Mn176  1  0.08676801  0.17408480  0.08345892  1
  Mn3.34+  Mn177  1  0.42573393  0.66377390  0.75079631  1
  Mn3.34+  Mn178  1  0.42717263  0.67301015  0.42444540  1
  Mn3.34+  Mn179  1  0.08795659  0.66953343  0.75494365  1
  Mn3.34+  Mn180  1  0.58943170  -0.00482517  0.58139520  1
  Mn3.34+  Mn181  1  0.04256837  0.00947885  0.73636361  1
  Mn3.34+  Mn182  1  0.57693110  0.50015114  0.93272683  1
  Mn3.34+  Mn183  1  0.90173372  0.00144851  0.25281544  1
  Mn3.34+  Mn184  1  0.57707760  0.50249098  0.61536791  1
  Mn3.34+  Mn185  1  0.25465235  0.50424712  0.93099022  1
  Mn3.34+  Mn186  1  0.09154401  0.49982678  0.41029269  1
  Mn3.34+  Mn187  1  0.26854329  0.49587980  0.59311768  1
  Mn3.34+  Mn188  1  0.10391195  0.49614293  0.40827339  1
  Mn3.34+  Mn189  1  0.74543474  0.49451825  0.08056702  1
  Mn3.34+  Mn190  1  0.91271486  0.50355398  0.59401854  1
  Mn3.34+  Mn191  1  0.91480282  -0.00511612  0.25550223  1
  Mn3.34+  Mn192  1  0.92127699  0.00200198  0.92363879  1
  Mn3.34+  Mn193  1  0.42767790  0.50140585  0.75363547  1
  Mn3.34+  Mn194  1  0.05788315  0.00922203  0.73988954  1
  Mn3.34+  Mn195  1  0.76166967  -0.00780249  0.43677099  1
  Mn3.34+  Mn196  1  0.59194218  0.00268607  0.25425173  1
  Mn3.34+  Mn197  1  0.89208681  0.49713021  0.90876388  1
  Mn3.34+  Mn198  1  0.25522118  0.00488950  0.59672979  1
  Mn3.34+  Mn199  1  0.90714788  0.49605399  0.90625412  1
  Mn3.34+  Mn200  1  0.27259211  0.49505562  0.26194865  1
  Mn3.34+  Mn201  1  0.41959430  0.00049254  0.75507264  1
  Mn3.34+  Mn202  1  0.76017688  -0.00041881  0.74837994  1
  Mn3.34+  Mn203  1  0.60453002  -0.00132004  0.25460349  1
  Mn3.34+  Mn204  1  0.57620950  0.00151043  0.58068838  1
  Mn3.34+  Mn205  1  0.58177617  0.50034869  0.26202774  1
  Mn3.34+  Mn206  1  0.42154993  -0.00064291  0.42302545  1
  Mn3.34+  Mn207  1  0.75856873  0.00167810  0.09138468  1
  Mn3.34+  Mn208  1  0.74671926  -0.00360799  0.43619607  1
  Mn3.34+  Mn209  1  0.24880456  -0.00246867  0.24684575  1
  Mn3.34+  Mn210  1  0.90088248  0.49797178  0.24881534  1
  Mn3.34+  Mn211  1  0.23802685  0.00232362  0.24679978  1
  Mn3.34+  Mn212  1  0.74398907  -0.00397440  0.09149525  1
  Mn3.34+  Mn213  1  0.06781103  0.49820177  0.74299030  1
  Mn3.34+  Mn214  1  0.58163168  -0.00187663  0.92100840  1
  Mn3.34+  Mn215  1  0.08278567  0.00092974  0.42904474  1
  O2-  O216  1  0.00494981  0.17010622  0.00325399  1
  O2-  O217  1  0.00586799  0.15843930  0.33420533  1
  O2-  O218  1  0.00950600  0.18022939  0.68861097  1
  O2-  O219  1  0.00407738  0.66362563  -0.00278805  1
  O2-  O220  1  0.00581656  0.65454728  0.32999110  1
  O2-  O221  1  -0.00017036  0.63638702  0.66470322  1
  O2-  O222  1  0.32864489  0.15074074  0.00049461  1
  O2-  O223  1  0.32868699  0.17326477  0.33677284  1
  O2-  O224  1  0.32780786  0.14490414  0.67834119  1
  O2-  O225  1  0.33137849  0.67755252  -0.00420546  1
  O2-  O226  1  0.34276179  0.65281731  0.33724083  1
  O2-  O227  1  0.33198475  0.67018978  0.67481192  1
  O2-  O228  1  0.66380306  0.14381502  -0.00030620  1
  O2-  O229  1  0.66324105  0.15193533  0.33213921  1
  O2-  O230  1  0.67256964  0.14235803  0.65602781  1
  O2-  O231  1  0.67812187  0.67188306  -0.00757473  1
  O2-  O232  1  0.67058740  0.66458277  0.32873687  1
  O2-  O233  1  0.66121153  0.68618038  0.65483047  1
  O2-  O234  1  0.17602308  0.16729806  0.00593604  1
  O2-  O235  1  0.16757556  0.16553836  0.33308171  1
  O2-  O236  1  0.17014522  0.15950592  0.66511731  1
  O2-  O237  1  0.16610112  0.67156975  -0.00581952  1
  O2-  O238  1  0.16997738  0.63823215  0.33061101  1
  O2-  O239  1  0.16397338  0.65732391  0.66977097  1
  O2-  O240  1  0.49504887  0.14806714  -0.01166734  1
  O2-  O241  1  0.49740071  0.17000275  0.32950102  1
  O2-  O242  1  0.50157802  0.14893649  0.67328101  1
  O2-  O243  1  0.50471533  0.66275478  -0.00084721  1
  O2-  O244  1  0.50997079  0.64922703  0.34281276  1
  O2-  O245  1  0.50146198  0.67280477  0.66217641  1
  O2-  O246  1  0.83194950  0.16456063  0.00559633  1
  O2-  O247  1  0.84048954  0.14777928  0.34297597  1
  O2-  O248  1  0.83427809  0.16591247  0.67277506  1
  O2-  O249  1  0.81639501  0.66116699  -0.01824388  1
  O2-  O250  1  0.83167445  0.66399586  0.33750955  1
  O2-  O251  1  0.83193440  0.66600425  0.66895088  1
  O2-  O252  1  -0.00110022  0.34057215  -0.00010820  1
  O2-  O253  1  -0.00447902  0.35615151  0.33721069  1
  O2-  O254  1  0.00728057  0.33986858  0.66378851  1
  O2-  O255  1  0.00530008  0.84422004  -0.00120311  1
  O2-  O256  1  -0.00389227  0.84131846  0.32892528  1
  O2-  O257  1  0.00380592  0.84669488  0.65957712  1
  O2-  O258  1  0.33312153  0.33278541  -0.00295128  1
  O2-  O259  1  0.33552169  0.30257767  0.32737999  1
  O2-  O260  1  0.33331881  0.35114979  0.66689004  1
  O2-  O261  1  0.32250943  0.83812511  0.00725880  1
  O2-  O262  1  0.33283832  0.85488580  0.33037223  1
  O2-  O263  1  0.33036066  0.83743804  0.66931735  1
  O2-  O264  1  0.65949237  0.34920739  0.00995713  1
  O2-  O265  1  0.65839327  0.35238615  0.34304278  1
  O2-  O266  1  0.66844305  0.34614992  0.66277923  1
  O2-  O267  1  0.66866771  0.84867469  -0.00076315  1
  O2-  O268  1  0.67071943  0.81186241  0.33586213  1
  O2-  O269  1  0.66315360  0.83105830  0.67118462  1
  O2-  O270  1  0.17182663  0.34693824  0.00388599  1
  O2-  O271  1  0.16826639  0.33088449  0.32708295  1
  O2-  O272  1  0.16922820  0.33899784  0.67490138  1
  O2-  O273  1  0.16187175  0.82311438  -0.00294401  1
  O2-  O274  1  0.16705064  0.84966388  0.33078829  1
  O2-  O275  1  0.16826216  0.85083718  0.67163545  1
  O2-  O276  1  0.49885852  0.34675076  -0.00186201  1
  O2-  O277  1  0.50144621  0.34003914  0.33749601  1
  O2-  O278  1  0.49611900  0.34374519  0.66203561  1
  O2-  O279  1  0.50237529  0.83752010  0.00057043  1
  O2-  O280  1  0.50070959  0.85201843  0.33097643  1
  O2-  O281  1  0.50123482  0.83956246  0.66844471  1
  O2-  O282  1  0.84176484  0.32964784  0.00262996  1
  O2-  O283  1  0.83053313  0.34799396  0.33567346  1
  O2-  O284  1  0.82853971  0.34007556  0.65886142  1
  O2-  O285  1  0.83507551  0.84881770  -0.00088150  1
  O2-  O286  1  0.83732927  0.80691065  0.33426273  1
  O2-  O287  1  0.83232628  0.83278252  0.66796592  1
  O2-  O288  1  0.00216428  0.17557167  0.15826525  1
  O2-  O289  1  -0.00243338  0.17402455  0.48971329  1
  O2-  O290  1  -0.00079897  0.18843662  0.81498771  1
  O2-  O291  1  0.00134755  0.68989283  0.17042351  1
  O2-  O292  1  -0.00164163  0.67487731  0.50656498  1
  O2-  O293  1  -0.00182895  0.67797859  0.83147652  1
  O2-  O294  1  0.32627986  0.18275019  0.17152084  1
  O2-  O295  1  0.33312399  0.18636125  0.49867325  1
  O2-  O296  1  0.33574603  0.18590284  0.83591060  1
  O2-  O297  1  0.33217979  0.67608625  0.15604114  1
  O2-  O298  1  0.33648180  0.68346869  0.49275398  1
  O2-  O299  1  0.33618184  0.67953589  0.83443707  1
  O2-  O300  1  0.65707671  0.17520832  0.15756144  1
  O2-  O301  1  0.66014761  0.18106570  0.49147591  1
  O2-  O302  1  0.66109173  0.17878285  0.82458640  1
  O2-  O303  1  0.66788242  0.67670688  0.17260553  1
  O2-  O304  1  0.65610592  0.67851015  0.49079083  1
  O2-  O305  1  0.67902243  0.66601092  0.83625099  1
  O2-  O306  1  0.16462719  0.18547499  0.17053134  1
  O2-  O307  1  0.17044671  0.18594981  0.49295498  1
  O2-  O308  1  0.17793238  0.18509075  0.83240283  1
  O2-  O309  1  0.16447717  0.68847775  0.16987401  1
  O2-  O310  1  0.16514036  0.67315713  0.49688210  1
  O2-  O311  1  0.17030647  0.69139386  0.83626737  1
  O2-  O312  1  0.50476483  0.17725477  0.16726622  1
  O2-  O313  1  0.49962787  0.19029698  0.49314378  1
  O2-  O314  1  0.50139954  0.18405674  0.83173283  1
  O2-  O315  1  0.49014724  0.67117191  0.16389968  1
  O2-  O316  1  0.50645820  0.68782346  0.50210338  1
  O2-  O317  1  0.50513183  0.67466585  0.82476178  1
  O2-  O318  1  0.83822270  0.17696056  0.15457384  1
  O2-  O319  1  0.82885721  0.17009413  0.50135027  1
  O2-  O320  1  0.82367564  0.18730577  0.83786059  1
  O2-  O321  1  0.83103539  0.68244341  0.18231434  1
  O2-  O322  1  0.82939604  0.68641875  0.49496571  1
  O2-  O323  1  0.81969614  0.66741997  0.84339054  1
  O2-  O324  1  -0.00007681  0.32334094  0.16737828  1
  O2-  O325  1  -0.00147237  0.33637377  0.50021996  1
  O2-  O326  1  0.00161048  0.30330981  0.83694409  1
  O2-  O327  1  0.00473480  0.81506582  0.16956131  1
  O2-  O328  1  -0.00055382  0.82342384  0.49709845  1
  O2-  O329  1  0.00639245  0.82836290  0.84014954  1
  O2-  O330  1  0.33116954  0.32083031  0.16347386  1
  O2-  O331  1  0.33330454  0.32092796  0.49732805  1
  O2-  O332  1  0.32745923  0.32117328  0.83037631  1
  O2-  O333  1  0.33818495  0.82241275  0.17345448  1
  O2-  O334  1  0.32670554  0.81785016  0.49869622  1
  O2-  O335  1  0.32805782  0.82438724  0.82933419  1
  O2-  O336  1  0.67017246  0.32559498  0.16942819  1
  O2-  O337  1  0.66483008  0.32834189  0.49933526  1
  O2-  O338  1  0.67202335  0.32237326  0.83888087  1
  O2-  O339  1  0.65978820  0.82069333  0.15849180  1
  O2-  O340  1  0.66866684  0.80272563  0.50429849  1
  O2-  O341  1  0.66911719  0.82856954  0.83564679  1
  O2-  O342  1  0.16689657  0.31951672  0.16787660  1
  O2-  O343  1  0.15696143  0.31780285  0.51346596  1
  O2-  O344  1  0.16714923  0.31212809  0.83712569  1
  O2-  O345  1  0.16611375  0.80884054  0.16542255  1
  O2-  O346  1  0.17149201  0.81679164  0.50200452  1
  O2-  O347  1  0.16996445  0.81811871  0.82848314  1
  O2-  O348  1  0.50544091  0.32600452  0.16329630  1
  O2-  O349  1  0.50300066  0.32158178  0.49830390  1
  O2-  O350  1  0.50000627  0.32012579  0.83794849  1
  O2-  O351  1  0.49301434  0.83327978  0.17062454  1
  O2-  O352  1  0.49514186  0.81275274  0.51221037  1
  O2-  O353  1  0.50596299  0.82413152  0.83064430  1
  O2-  O354  1  0.84166397  0.32165539  0.15996613  1
  O2-  O355  1  0.83858253  0.32449741  0.49241280  1
  O2-  O356  1  0.83592457  0.31084770  0.83214302  1
  O2-  O357  1  0.83993253  0.81423702  0.15755898  1
  O2-  O358  1  0.83792550  0.81434323  0.49712313  1
  O2-  O359  1  0.83065904  0.83293048  0.83688592  1
  O2-  O360  1  0.09605934  0.08954845  0.10571869  1
  O2-  O361  1  0.08652317  0.08650002  0.43457555  1
  O2-  O362  1  0.09580637  0.07325445  0.79889479  1
  O2-  O363  1  0.07864138  0.58267633  0.10592439  1
  O2-  O364  1  0.07471082  0.57801111  0.45160979  1
  O2-  O365  1  0.08948269  0.58110983  0.78996453  1
  O2-  O366  1  0.42357961  0.07206972  0.12387278  1
  O2-  O367  1  0.41460347  0.08460742  0.42684810  1
  O2-  O368  1  0.42086385  0.08004156  0.79747059  1
  O2-  O369  1  0.41130220  0.57650480  0.09757635  1
  O2-  O370  1  0.43208535  0.59031911  0.45312083  1
  O2-  O371  1  0.41096010  0.58141534  0.76888052  1
  O2-  O372  1  0.75048587  0.08239727  0.11203629  1
  O2-  O373  1  0.73475614  0.07824795  0.46638571  1
  O2-  O374  1  0.75090083  0.08247385  0.77541360  1
  O2-  O375  1  0.74988687  0.57048344  0.11423486  1
  O2-  O376  1  0.73292869  0.58509936  0.42618874  1
  O2-  O377  1  0.75108269  0.56937803  0.79784482  1
  O2-  O378  1  0.25037088  0.08524131  0.23159062  1
  O2-  O379  1  0.25106610  0.08254235  0.54142480  1
  O2-  O380  1  0.26610354  0.07784788  0.88935994  1
  O2-  O381  1  0.22822497  0.57421913  0.20724959  1
  O2-  O382  1  0.23755059  0.57534082  0.55784672  1
  O2-  O383  1  0.22856938  0.57609831  0.88047749  1
  O2-  O384  1  0.57598474  0.08436298  0.22887192  1
  O2-  O385  1  0.57838366  0.07960196  0.53557779  1
  O2-  O386  1  0.58856473  0.07837547  0.87823846  1
  O2-  O387  1  0.60452686  0.57925887  0.22496665  1
  O2-  O388  1  0.58180638  0.57656609  0.56135820  1
  O2-  O389  1  0.58239363  0.56267061  0.88277822  1
  O2-  O390  1  0.93250292  0.07332929  0.20324325  1
  O2-  O391  1  0.88149127  0.04853493  0.51695547  1
  O2-  O392  1  0.91743679  0.08093113  0.92679930  1
  O2-  O393  1  0.91911297  0.58292931  0.23077086  1
  O2-  O394  1  0.91003308  0.58098882  0.54579149  1
  O2-  O395  1  0.94018433  0.57369811  0.87688399  1
  O2-  O396  1  0.06596877  0.41671690  0.10300383  1
  O2-  O397  1  0.09369330  0.41752893  0.44869061  1
  O2-  O398  1  0.10808326  0.41955088  0.78075437  1
  O2-  O399  1  0.09419966  0.91205947  0.10177833  1
  O2-  O400  1  0.10278665  0.91691116  0.44984778  1
  O2-  O401  1  0.09325356  0.93245484  0.79632210  1
  O2-  O402  1  0.41149235  0.41499476  0.09355101  1
  O2-  O403  1  0.43707990  0.42070553  0.44616842  1
  O2-  O404  1  0.40252993  0.42113947  0.78980072  1
  O2-  O405  1  0.40180009  0.92040210  0.10936028  1
  O2-  O406  1  0.39920333  0.91681282  0.45466251  1
  O2-  O407  1  0.40490481  0.91662357  0.76453330  1
  O2-  O408  1  0.77661878  0.41659272  0.10341481  1
  O2-  O409  1  0.75885417  0.42111799  0.45898903  1
  O2-  O410  1  0.75814735  0.41617613  0.75433997  1
  O2-  O411  1  0.75621451  0.91589182  0.11383133  1
  O2-  O412  1  0.76556849  0.91029840  0.42398079  1
  O2-  O413  1  0.73189429  0.92253951  0.77201749  1
  O2-  O414  1  0.23818554  0.42419123  0.21312929  1
  O2-  O415  1  0.23308558  0.41472626  0.56529798  1
  O2-  O416  1  0.24975018  0.42649395  0.88771734  1
  O2-  O417  1  0.24284234  0.91991191  0.20273012  1
  O2-  O418  1  0.25495069  0.92255498  0.55585953  1
  O2-  O419  1  0.22939259  0.92029620  0.90066549  1
  O2-  O420  1  0.57426869  0.42312256  0.22768513  1
  O2-  O421  1  0.58758129  0.42707946  0.55272645  1
  O2-  O422  1  0.56828982  0.43206648  0.88477216  1
  O2-  O423  1  0.57568723  0.92168091  0.21150409  1
  O2-  O424  1  0.57382350  0.91605450  0.55607081  1
  O2-  O425  1  0.58989568  0.91916578  0.89461801  1
  O2-  O426  1  0.92343830  0.41835252  0.21971943  1
  O2-  O427  1  0.91305136  0.42344515  0.55669388  1
  O2-  O428  1  0.92337794  0.41501740  0.89066141  1
  O2-  O429  1  0.92335791  0.91770156  0.21662943  1
  O2-  O430  1  0.91755241  0.91467554  0.55108108  1
  O2-  O431  1  0.93305738  0.92196609  0.89533072  1
  O2-  O432  1  -0.00074950  -0.00965717  0.00414367  1
  O2-  O433  1  -0.00348542  0.00408771  0.34042985  1
  O2-  O434  1  0.00335226  -0.00602992  0.63828791  1
  O2-  O435  1  0.00325205  0.49840776  -0.02457202  1
  O2-  O436  1  0.00773729  0.50585164  0.32338069  1
  O2-  O437  1  0.02505673  0.50066524  0.61810669  1
  O2-  O438  1  0.32300852  0.01714737  0.02323304  1
  O2-  O439  1  0.33103440  -0.01746976  0.33185257  1
  O2-  O440  1  0.31012774  0.00335499  0.70989876  1
  O2-  O441  1  0.32749141  0.48769733  0.00230527  1
  O2-  O442  1  0.31199704  0.51754583  0.36058515  1
  O2-  O443  1  0.31280666  0.49490134  0.70719950  1
  O2-  O444  1  0.65673816  -0.00024146  0.01490668  1
  O2-  O445  1  0.66233170  0.00891244  0.35269558  1
  O2-  O446  1  0.66976016  0.01613195  0.66380681  1
  O2-  O447  1  0.66454178  0.49703978  -0.00387009  1
  O2-  O448  1  0.66259232  0.50071127  0.33479974  1
  O2-  O449  1  0.67957116  0.50142937  0.64746557  1
  O2-  O450  1  0.17390842  -0.00367475  0.02163936  1
  O2-  O451  1  0.17183163  -0.00574091  0.34433813  1
  O2-  O452  1  0.16002572  0.00201935  0.67811945  1
  O2-  O453  1  0.15567009  0.49978306  -0.02331312  1
  O2-  O454  1  0.15524507  0.50356049  0.30278387  1
  O2-  O455  1  0.16160936  0.50516338  0.66094978  1
  O2-  O456  1  0.49849302  0.02192204  -0.00420196  1
  O2-  O457  1  0.49092195  -0.00478127  0.31804273  1
  O2-  O458  1  0.50238536  0.00105994  0.67189845  1
  O2-  O459  1  0.50082242  0.49530641  0.00101128  1
  O2-  O460  1  0.51605919  0.50415893  0.35724979  1
  O2-  O461  1  0.46991166  0.48949066  0.64512928  1
  O2-  O462  1  0.82782506  -0.00679319  -0.00156995  1
  O2-  O463  1  0.83569259  0.01327608  0.34759273  1
  O2-  O464  1  0.83690902  0.00814538  0.67246238  1
  O2-  O465  1  0.83821494  0.49913715  0.00625975  1
  O2-  O466  1  0.85033376  0.49732878  0.35562270  1
  O2-  O467  1  0.83184885  0.50204716  0.66347441  1
  O2-  O468  1  0.59034365  0.75271037  0.92325222  1
  O2-  O469  1  0.26210315  0.24909382  0.61075859  1
  O2-  O470  1  0.07075993  0.25303729  0.39679931  1
  O2-  O471  1  0.08373611  0.25438854  0.06073083  1
  O2-  O472  1  0.41613624  0.75046938  0.73881340  1
  O2-  O473  1  0.41501080  0.24982477  0.72261541  1
  O2-  O474  1  0.07171286  0.74876528  0.72073651  1
  O2-  O475  1  0.25689435  0.74231395  0.28088926  1
  O2-  O476  1  0.91755163  0.25264499  0.59276076  1
  O2-  O477  1  0.42101639  0.75281973  0.38503350  1
  O2-  O478  1  0.73602480  0.25072683  0.72501654  1
  O2-  O479  1  0.59574190  0.25458364  0.26856450  1
  O2-  O480  1  0.08455314  0.75067216  0.39420054  1
  O2-  O481  1  0.91430752  0.25502414  0.27434785  1
  O2-  O482  1  0.73663985  0.25068601  0.06630543  1
  O2-  O483  1  0.75333004  0.75442633  0.75156319  1
  O2-  O484  1  0.42544263  0.25349114  0.06819866  1
  O2-  O485  1  0.93037462  0.74924230  0.60550855  1
  O2-  O486  1  0.74683805  0.75360657  0.06092011  1
  O2-  O487  1  0.58660559  0.24986653  0.94383609  1
  O2-  O488  1  0.55812929  0.74685589  0.26478582  1
  O2-  O489  1  0.74253791  0.25363312  0.39365866  1
  O2-  O490  1  0.41914533  0.74625272  0.07388016  1
  O2-  O491  1  0.91407704  0.75651086  0.92471573  1
  O2-  O492  1  0.58698210  0.25044787  0.60856549  1
