# generated using pymatgen
data_Ca108Mn108O277
_symmetry_space_group_name_H-M   'P 1'
_cell_length_a   16.01783163
_cell_length_b   22.29337883
_cell_length_c   16.38115176
_cell_angle_alpha   89.99885050
_cell_angle_beta   90.00041593
_cell_angle_gamma   89.99821267
_symmetry_Int_Tables_number   1
_chemical_formula_structural   Ca108Mn108O277
_chemical_formula_sum   'Ca108 Mn108 O277'
_cell_volume   5849.57149947
_cell_formula_units_Z   1
loop_
 _symmetry_equiv_pos_site_id
 _symmetry_equiv_pos_as_xyz
  1  'x, y, z'
loop_
 _atom_type_symbol
 _atom_type_oxidation_number
  Ca2+  2.0
  Mn3.34+  3.34
  O2-  -2.0
loop_
 _atom_site_type_symbol
 _atom_site_label
 _atom_site_symmetry_multiplicity
 _atom_site_fract_x
 _atom_site_fract_y
 _atom_site_fract_z
 _atom_site_occupancy
  Ca2+  Ca0  1  0.09639262  0.24659818  0.25347396  1
  Ca2+  Ca1  1  0.08035042  0.26023110  0.56292280  1
  Ca2+  Ca2  1  0.09225330  0.25493618  0.93225552  1
  Ca2+  Ca3  1  0.08776171  0.74651148  0.23266113  1
  Ca2+  Ca4  1  0.07061802  0.73202328  0.58776153  1
  Ca2+  Ca5  1  0.07570646  0.74754159  0.93985690  1
  Ca2+  Ca6  1  0.41606414  0.23407762  0.25607899  1
  Ca2+  Ca7  1  0.42219431  0.25981430  0.56049034  1
  Ca2+  Ca8  1  0.41362098  0.24624795  0.93284699  1
  Ca2+  Ca9  1  0.40337227  0.74420788  0.22299816  1
  Ca2+  Ca10  1  0.40938241  0.75322927  0.59196046  1
  Ca2+  Ca11  1  0.42294474  0.74258366  0.92692569  1
  Ca2+  Ca12  1  0.73662173  0.24493994  0.24341217  1
  Ca2+  Ca13  1  0.74776654  0.25430286  0.56981233  1
  Ca2+  Ca14  1  0.74246109  0.25359656  0.92758436  1
  Ca2+  Ca15  1  0.76575393  0.74795226  0.22206983  1
  Ca2+  Ca16  1  0.75146885  0.75689546  0.57384464  1
  Ca2+  Ca17  1  0.75509010  0.74080011  0.94433550  1
  Ca2+  Ca18  1  0.24760081  0.25021036  0.10019423  1
  Ca2+  Ca19  1  0.24950467  0.24581169  0.39529062  1
  Ca2+  Ca20  1  0.24951766  0.25752371  0.76911191  1
  Ca2+  Ca21  1  0.23714662  0.73803566  0.08903340  1
  Ca2+  Ca22  1  0.23629623  0.74199971  0.40136464  1
  Ca2+  Ca23  1  0.24958914  0.74901538  0.75519520  1
  Ca2+  Ca24  1  0.57600688  0.24680226  0.09720001  1
  Ca2+  Ca25  1  0.56629430  0.24542372  0.39767402  1
  Ca2+  Ca26  1  0.58183364  0.25283004  0.76664736  1
  Ca2+  Ca27  1  0.58388973  0.74605179  0.06974394  1
  Ca2+  Ca28  1  0.58292388  0.76320839  0.41707917  1
  Ca2+  Ca29  1  0.56844969  0.75623079  0.76209922  1
  Ca2+  Ca30  1  0.92516828  0.25404902  0.08966070  1
  Ca2+  Ca31  1  0.93761914  0.25085808  0.39887734  1
  Ca2+  Ca32  1  0.91924609  0.25712840  0.76294263  1
  Ca2+  Ca33  1  0.92595181  0.75345496  0.08554577  1
  Ca2+  Ca34  1  0.93339356  0.74921261  0.40960260  1
  Ca2+  Ca35  1  0.93428976  0.74929144  0.75998017  1
  Ca2+  Ca36  1  0.10630942  0.59343731  0.23908127  1
  Ca2+  Ca37  1  0.75663012  0.09217001  0.59265514  1
  Ca2+  Ca38  1  0.92658061  0.59898921  0.07636952  1
  Ca2+  Ca39  1  0.57189285  0.10562111  0.09478744  1
  Ca2+  Ca40  1  0.72809241  0.59869274  0.93177603  1
  Ca2+  Ca41  1  0.23732893  0.59683585  0.74004325  1
  Ca2+  Ca42  1  0.43329823  0.10925334  0.57411114  1
  Ca2+  Ca43  1  0.56714031  0.61043502  0.78575176  1
  Ca2+  Ca44  1  0.76526535  0.60178220  0.23091690  1
  Ca2+  Ca45  1  0.57701978  0.57673058  0.41441803  1
  Ca2+  Ca46  1  0.24863736  0.08893705  0.09303856  1
  Ca2+  Ca47  1  0.91829123  0.09394412  0.40424784  1
  Ca2+  Ca48  1  0.93752117  0.08807725  0.08860223  1
  Ca2+  Ca49  1  0.94093004  0.58694590  0.75453865  1
  Ca2+  Ca50  1  0.74378935  0.09252296  0.59165550  1
  Ca2+  Ca51  1  0.07287892  0.58185540  0.93157370  1
  Ca2+  Ca52  1  0.43701239  0.60267523  0.93226208  1
  Ca2+  Ca53  1  0.25982452  0.09506992  0.76295967  1
  Ca2+  Ca54  1  0.93442668  0.59544347  0.08126269  1
  Ca2+  Ca55  1  0.41613939  0.08521295  0.94127679  1
  Ca2+  Ca56  1  0.09616121  0.09655587  0.24639405  1
  Ca2+  Ca57  1  0.56542447  0.10866806  0.39695996  1
  Ca2+  Ca58  1  0.42025534  0.10929031  0.57376112  1
  Ca2+  Ca59  1  0.74022519  0.10425086  0.24453511  1
  Ca2+  Ca60  1  0.56462953  0.57458189  0.41613083  1
  Ca2+  Ca61  1  0.94486369  0.59018672  0.74611930  1
  Ca2+  Ca62  1  0.94146340  0.59713777  0.43549064  1
  Ca2+  Ca63  1  0.57756526  0.59878019  0.05006092  1
  Ca2+  Ca64  1  0.08189989  0.10339737  0.58253551  1
  Ca2+  Ca65  1  0.58324158  0.10115742  0.75708301  1
  Ca2+  Ca66  1  0.93059660  0.09559098  0.40717306  1
  Ca2+  Ca67  1  0.10079476  0.59190091  0.23087275  1
  Ca2+  Ca68  1  0.74293468  0.08847082  0.91909855  1
  Ca2+  Ca69  1  0.24717694  0.09633996  0.76319821  1
  Ca2+  Ca70  1  0.77618218  0.58982165  0.59272182  1
  Ca2+  Ca71  1  0.55723355  0.61166688  0.78281717  1
  Ca2+  Ca72  1  0.57803310  0.40424183  0.07559658  1
  Ca2+  Ca73  1  0.24634223  0.90335350  0.41173238  1
  Ca2+  Ca74  1  0.74537020  0.41015056  0.59199121  1
  Ca2+  Ca75  1  0.92565231  0.41254250  0.41326530  1
  Ca2+  Ca76  1  0.57005599  0.40338043  0.41973309  1
  Ca2+  Ca77  1  0.07325593  0.41719617  0.92761899  1
  Ca2+  Ca78  1  0.38915819  0.41241391  0.25643818  1
  Ca2+  Ca79  1  0.91461824  0.90527896  0.75051779  1
  Ca2+  Ca80  1  0.93743367  0.41012071  0.41628045  1
  Ca2+  Ca81  1  0.75706834  0.39802399  0.24836304  1
  Ca2+  Ca82  1  0.91028950  0.90382292  0.41302400  1
  Ca2+  Ca83  1  0.93721987  0.41839081  0.07268688  1
  Ca2+  Ca84  1  0.41854950  0.41074651  0.92154798  1
  Ca2+  Ca85  1  0.75374268  0.90023335  0.58403518  1
  Ca2+  Ca86  1  0.58773361  0.90094260  0.42060615  1
  Ca2+  Ca87  1  0.93809386  0.41520985  0.76162999  1
  Ca2+  Ca88  1  0.42000313  0.91373230  0.92974674  1
  Ca2+  Ca89  1  0.73999723  0.90932565  0.92402619  1
  Ca2+  Ca90  1  0.75896534  0.89889226  0.23982666  1
  Ca2+  Ca91  1  0.40724171  0.90781125  0.23275708  1
  Ca2+  Ca92  1  0.59022666  0.40489818  0.75733879  1
  Ca2+  Ca93  1  0.39750100  0.90943748  0.22754763  1
  Ca2+  Ca94  1  0.75814373  0.40972794  0.59163842  1
  Ca2+  Ca95  1  0.11079383  0.41496975  0.23733823  1
  Ca2+  Ca96  1  0.75934826  0.40751122  0.91359481  1
  Ca2+  Ca97  1  0.23461239  0.91462470  0.08406987  1
  Ca2+  Ca98  1  0.22293607  0.40939243  0.74934008  1
  Ca2+  Ca99  1  0.40920988  0.91316448  0.93159164  1
  Ca2+  Ca100  1  0.25636091  0.90058359  0.40522933  1
  Ca2+  Ca101  1  0.25232949  0.89942709  0.75360564  1
  Ca2+  Ca102  1  0.42976313  0.41068721  0.92120442  1
  Ca2+  Ca103  1  0.75138581  0.90957766  0.92374642  1
  Ca2+  Ca104  1  0.07986005  0.89791378  0.58983878  1
  Ca2+  Ca105  1  0.08352959  0.90839596  0.23699008  1
  Ca2+  Ca106  1  0.55803616  0.40330320  0.42415407  1
  Ca2+  Ca107  1  0.92741466  0.90512292  0.75288037  1
  Mn3.34+  Mn108  1  0.08831332  0.33740213  0.08579961  1
  Mn3.34+  Mn109  1  0.09448108  0.33336684  0.41472294  1
  Mn3.34+  Mn110  1  0.08342164  0.33535896  0.75064298  1
  Mn3.34+  Mn111  1  0.08092559  0.83912866  0.08086285  1
  Mn3.34+  Mn112  1  0.08140977  0.82884037  0.41667332  1
  Mn3.34+  Mn113  1  0.08746834  0.83110223  0.75511134  1
  Mn3.34+  Mn114  1  0.41113024  0.33413395  0.09043380  1
  Mn3.34+  Mn115  1  0.40341981  0.33335557  0.41519723  1
  Mn3.34+  Mn116  1  0.41343815  0.32737848  0.74664653  1
  Mn3.34+  Mn117  1  0.41601426  0.83115163  0.08085191  1
  Mn3.34+  Mn118  1  0.41840322  0.83086452  0.41902572  1
  Mn3.34+  Mn119  1  0.41597635  0.83453905  0.75249545  1
  Mn3.34+  Mn120  1  0.75238436  0.33073625  0.08289404  1
  Mn3.34+  Mn121  1  0.75062336  0.33191577  0.41779046  1
  Mn3.34+  Mn122  1  0.75246366  0.32703978  0.75332193  1
  Mn3.34+  Mn123  1  0.75027756  0.83204274  0.08490396  1
  Mn3.34+  Mn124  1  0.75120354  0.83490541  0.41443052  1
  Mn3.34+  Mn125  1  0.74691316  0.82853395  0.75321850  1
  Mn3.34+  Mn126  1  0.24998917  0.33556466  0.24822844  1
  Mn3.34+  Mn127  1  0.24972402  0.33002588  0.58162209  1
  Mn3.34+  Mn128  1  0.24845830  0.33713227  0.91993093  1
  Mn3.34+  Mn129  1  0.24556722  0.83177391  0.24221934  1
  Mn3.34+  Mn130  1  0.25036861  0.82623082  0.58244393  1
  Mn3.34+  Mn131  1  0.24412196  0.83568068  0.91865373  1
  Mn3.34+  Mn132  1  0.57991066  0.32949531  0.24594108  1
  Mn3.34+  Mn133  1  0.57968210  0.32830807  0.58578874  1
  Mn3.34+  Mn134  1  0.58349198  0.33360285  0.91636092  1
  Mn3.34+  Mn135  1  0.58314245  0.83475741  0.24598819  1
  Mn3.34+  Mn136  1  0.57852209  0.83135028  0.58912084  1
  Mn3.34+  Mn137  1  0.58265992  0.83142085  0.91378088  1
  Mn3.34+  Mn138  1  0.92089628  0.33363731  0.24419065  1
  Mn3.34+  Mn139  1  0.92218885  0.33263790  0.58483765  1
  Mn3.34+  Mn140  1  0.91874980  0.33588386  0.91744276  1
  Mn3.34+  Mn141  1  0.92065233  0.83358220  0.24730187  1
  Mn3.34+  Mn142  1  0.91699805  0.82707264  0.58059434  1
  Mn3.34+  Mn143  1  0.91998813  0.83318748  0.92174487  1
  Mn3.34+  Mn144  1  0.08721594  0.16402849  0.08640401  1
  Mn3.34+  Mn145  1  0.75644620  0.67720162  0.74587134  1
  Mn3.34+  Mn146  1  0.25600868  0.66005896  0.91606504  1
  Mn3.34+  Mn147  1  0.24566188  0.66387361  0.91883658  1
  Mn3.34+  Mn148  1  0.08519771  0.66697018  0.75218342  1
  Mn3.34+  Mn149  1  0.92370776  0.17871376  0.58648574  1
  Mn3.34+  Mn150  1  0.24774761  0.16920886  0.92524431  1
  Mn3.34+  Mn151  1  0.25456939  0.15620456  0.25916487  1
  Mn3.34+  Mn152  1  0.24439371  0.18402486  0.58148904  1
  Mn3.34+  Mn153  1  0.41237770  0.16287464  0.09252451  1
  Mn3.34+  Mn154  1  0.25243639  0.17732138  0.58085417  1
  Mn3.34+  Mn155  1  0.58671596  0.18110872  0.58548207  1
  Mn3.34+  Mn156  1  0.92417581  0.66670755  0.24761583  1
  Mn3.34+  Mn157  1  0.08469515  0.16897026  0.75626970  1
  Mn3.34+  Mn158  1  0.91255485  0.17816608  0.59015494  1
  Mn3.34+  Mn159  1  0.57214400  0.66520474  0.24372107  1
  Mn3.34+  Mn160  1  0.75955469  0.66056023  0.41818300  1
  Mn3.34+  Mn161  1  0.74822574  0.17198383  0.75633043  1
  Mn3.34+  Mn162  1  0.40883352  0.66196183  0.41555112  1
  Mn3.34+  Mn163  1  0.74714052  0.16910985  0.41604089  1
  Mn3.34+  Mn164  1  0.08935723  0.66488408  0.42071948  1
  Mn3.34+  Mn165  1  0.58235133  0.16875185  0.92049244  1
  Mn3.34+  Mn166  1  0.56952472  0.66034043  0.58530395  1
  Mn3.34+  Mn167  1  0.58618969  0.67101652  0.24612296  1
  Mn3.34+  Mn168  1  0.74903889  0.16529670  0.08423076  1
  Mn3.34+  Mn169  1  0.91758676  0.16810028  0.24350230  1
  Mn3.34+  Mn170  1  0.25698967  0.65900690  0.23847440  1
  Mn3.34+  Mn171  1  0.75046107  0.67786154  0.75583575  1
  Mn3.34+  Mn172  1  0.58288614  0.66657850  0.58519910  1
  Mn3.34+  Mn173  1  0.92592384  0.15959224  0.91375932  1
  Mn3.34+  Mn174  1  0.24720619  0.66957645  0.58369670  1
  Mn3.34+  Mn175  1  0.39933838  0.65636914  0.41859356  1
  Mn3.34+  Mn176  1  0.91496154  0.16446801  0.91455897  1
  Mn3.34+  Mn177  1  0.91816748  0.66402122  0.91645433  1
  Mn3.34+  Mn178  1  0.74713664  0.66860036  0.41546258  1
  Mn3.34+  Mn179  1  0.41870034  0.17425512  0.75658319  1
  Mn3.34+  Mn180  1  0.41529604  0.49901900  0.74986537  1
  Mn3.34+  Mn181  1  0.74899680  0.50084607  0.75006699  1
  Mn3.34+  Mn182  1  0.40484853  0.00538082  0.41234237  1
  Mn3.34+  Mn183  1  0.75221084  -0.00055736  0.07788011  1
  Mn3.34+  Mn184  1  0.26087954  -0.00268890  0.58227099  1
  Mn3.34+  Mn185  1  0.75427132  0.49676255  0.08055319  1
  Mn3.34+  Mn186  1  0.23691612  0.50328431  0.58038735  1
  Mn3.34+  Mn187  1  0.57488698  0.49737246  0.59163036  1
  Mn3.34+  Mn188  1  0.93165081  0.49804010  0.59576544  1
  Mn3.34+  Mn189  1  0.93200405  -0.00202985  0.93638866  1
  Mn3.34+  Mn190  1  0.92186282  0.49880222  0.25377972  1
  Mn3.34+  Mn191  1  0.42101338  0.00146685  0.75327732  1
  Mn3.34+  Mn192  1  0.92022828  -0.00029491  0.58334824  1
  Mn3.34+  Mn193  1  0.57835649  0.00579430  0.24139815  1
  Mn3.34+  Mn194  1  0.58326195  0.49508971  0.24270518  1
  Mn3.34+  Mn195  1  0.73963660  0.50143868  0.08519575  1
  Mn3.34+  Mn196  1  0.57095186  -0.00396475  0.57891900  1
  Mn3.34+  Mn197  1  0.24619497  0.00327750  0.58113796  1
  Mn3.34+  Mn198  1  0.23971186  0.00013346  0.93574254  1
  Mn3.34+  Mn199  1  0.24459879  0.49859520  0.93769766  1
  Mn3.34+  Mn200  1  0.08287342  -0.00029305  0.75309572  1
  Mn3.34+  Mn201  1  0.24942248  0.49669479  0.57791408  1
  Mn3.34+  Mn202  1  0.56875456  0.50071830  0.24353798  1
  Mn3.34+  Mn203  1  0.09895270  0.50152570  0.40482479  1
  Mn3.34+  Mn204  1  0.40178101  0.50518853  0.75044491  1
  Mn3.34+  Mn205  1  0.74982739  0.00068053  0.41589805  1
  Mn3.34+  Mn206  1  0.08710553  -0.00006016  0.41528292  1
  Mn3.34+  Mn207  1  0.75146295  0.00259733  0.74850456  1
  Mn3.34+  Mn208  1  0.91436565  0.00011485  0.24821653  1
  Mn3.34+  Mn209  1  0.75539540  0.49956126  0.41511779  1
  Mn3.34+  Mn210  1  0.41815326  -0.00148272  0.41437755  1
  Mn3.34+  Mn211  1  0.58384926  0.00126236  0.91910869  1
  Mn3.34+  Mn212  1  0.42001661  0.50114031  0.07253480  1
  Mn3.34+  Mn213  1  0.59055409  -0.00090478  0.24142492  1
  Mn3.34+  Mn214  1  0.10123255  0.00459577  0.41203261  1
  Mn3.34+  Mn215  1  0.58201000  0.00093611  0.57884161  1
  O2-  O216  1  -0.00177068  0.15906846  0.00416926  1
  O2-  O217  1  -0.00576842  0.15537242  0.32764317  1
  O2-  O218  1  0.00938077  0.17705310  0.66600303  1
  O2-  O219  1  -0.00147731  0.65903849  -0.00524206  1
  O2-  O220  1  0.00400256  0.65083539  0.33227710  1
  O2-  O221  1  -0.00330046  0.66543083  0.67893776  1
  O2-  O222  1  0.33450565  0.15829137  -0.00395029  1
  O2-  O223  1  0.33161708  0.16421205  0.32909929  1
  O2-  O224  1  0.33379769  0.16630645  0.66778060  1
  O2-  O225  1  0.33807755  0.66016662  -0.00769846  1
  O2-  O226  1  0.32900667  0.66393862  0.33034452  1
  O2-  O227  1  0.32079757  0.69001425  0.66333186  1
  O2-  O228  1  0.66760400  0.15347983  -0.00200050  1
  O2-  O229  1  0.66898318  0.16055097  0.34057606  1
  O2-  O230  1  0.66799000  0.17092981  0.66842432  1
  O2-  O231  1  0.65712640  0.67362639  -0.00471361  1
  O2-  O232  1  0.66201793  0.64332433  0.33552030  1
  O2-  O233  1  0.66940825  0.65318977  0.66787236  1
  O2-  O234  1  0.16884646  0.16107472  0.00358239  1
  O2-  O235  1  0.16781707  0.16425273  0.32428214  1
  O2-  O236  1  0.17170643  0.17182521  0.67228304  1
  O2-  O237  1  0.16469148  0.65742508  -0.00668940  1
  O2-  O238  1  0.16319764  0.65815815  0.33003589  1
  O2-  O239  1  0.16517730  0.66921480  0.66885445  1
  O2-  O240  1  0.49884312  0.16094087  -0.00286499  1
  O2-  O241  1  0.49541107  0.17364191  0.33299937  1
  O2-  O242  1  0.49983445  0.16723651  0.66681713  1
  O2-  O243  1  0.51354916  0.67684578  -0.00776858  1
  O2-  O244  1  0.50769694  0.64918384  0.33804855  1
  O2-  O245  1  0.50152476  0.67062978  0.67525458  1
  O2-  O246  1  0.83220711  0.14999256  -0.00311404  1
  O2-  O247  1  0.83396093  0.15277364  0.33603401  1
  O2-  O248  1  0.82506540  0.17420946  0.66504448  1
  O2-  O249  1  0.83908712  0.64881016  -0.00551363  1
  O2-  O250  1  0.83595889  0.65526088  0.32955252  1
  O2-  O251  1  0.83350785  0.67922225  0.66497024  1
  O2-  O252  1  -0.00035013  0.34137761  -0.00100214  1
  O2-  O253  1  -0.00082514  0.34650484  0.33323227  1
  O2-  O254  1  -0.00025696  0.31437050  0.66957106  1
  O2-  O255  1  -0.00167895  0.83270080  0.00154805  1
  O2-  O256  1  -0.00216937  0.84571893  0.33845464  1
  O2-  O257  1  -0.00477032  0.83447744  0.66922518  1
  O2-  O258  1  0.34139093  0.34720426  -0.00615879  1
  O2-  O259  1  0.33351457  0.33350329  0.32922455  1
  O2-  O260  1  0.33197519  0.30601894  0.66616983  1
  O2-  O261  1  0.33384121  0.84691206  -0.00291334  1
  O2-  O262  1  0.33512897  0.84544800  0.32864526  1
  O2-  O263  1  0.32855646  0.82149172  0.67164027  1
  O2-  O264  1  0.66913949  0.34786812  -0.00517135  1
  O2-  O265  1  0.66195664  0.35021582  0.33858798  1
  O2-  O266  1  0.66951674  0.32789976  0.66518678  1
  O2-  O267  1  0.66924240  0.83306537  -0.00591291  1
  O2-  O268  1  0.66634832  0.84990216  0.33411535  1
  O2-  O269  1  0.67370216  0.82461761  0.66354655  1
  O2-  O270  1  0.16050690  0.34177972  -0.00728493  1
  O2-  O271  1  0.16367872  0.33824671  0.32689170  1
  O2-  O272  1  0.16702982  0.31527903  0.67009653  1
  O2-  O273  1  0.17127830  0.83790644  0.00556647  1
  O2-  O274  1  0.16734897  0.84712713  0.33278441  1
  O2-  O275  1  0.16545119  0.83831798  0.66490257  1
  O2-  O276  1  0.49793060  0.34444261  -0.00217331  1
  O2-  O277  1  0.50130375  0.34263199  0.33244174  1
  O2-  O278  1  0.50302521  0.31034013  0.67071762  1
  O2-  O279  1  0.49739464  0.83650837  -0.00474810  1
  O2-  O280  1  0.49753986  0.85218262  0.33346889  1
  O2-  O281  1  0.49466535  0.81621976  0.67219258  1
  O2-  O282  1  0.83369173  0.34503911  -0.00198717  1
  O2-  O283  1  0.84031655  0.34992323  0.34007628  1
  O2-  O284  1  0.83217886  0.32751951  0.66409369  1
  O2-  O285  1  0.82605240  0.84411617  -0.00779889  1
  O2-  O286  1  0.83295176  0.84094419  0.33265717  1
  O2-  O287  1  0.83500729  0.82718268  0.66836228  1
  O2-  O288  1  -0.00213781  0.17808844  0.16537934  1
  O2-  O289  1  -0.00835920  0.17979489  0.49713508  1
  O2-  O290  1  0.00358839  0.18756552  0.83345441  1
  O2-  O291  1  0.00435389  0.66956829  0.17090915  1
  O2-  O292  1  0.00069607  0.68083241  0.48980535  1
  O2-  O293  1  0.00129204  0.67638493  0.83410480  1
  O2-  O294  1  0.32572546  0.17299776  0.16061273  1
  O2-  O295  1  0.34081208  0.18073619  0.50859401  1
  O2-  O296  1  0.32781162  0.17823416  0.82875142  1
  O2-  O297  1  0.32784173  0.67531803  0.16477943  1
  O2-  O298  1  0.32943177  0.68814094  0.50276907  1
  O2-  O299  1  0.32811959  0.67505598  0.83436279  1
  O2-  O300  1  0.66903358  0.17548177  0.15832834  1
  O2-  O301  1  0.67404708  0.17667861  0.50906425  1
  O2-  O302  1  0.66580522  0.18312847  0.83481781  1
  O2-  O303  1  0.67234262  0.67570715  0.17417272  1
  O2-  O304  1  0.65879888  0.67237675  0.49689851  1
  O2-  O305  1  0.66628694  0.68204431  0.82996785  1
  O2-  O306  1  0.16528340  0.17545554  0.16447494  1
  O2-  O307  1  0.15712779  0.18049269  0.50953805  1
  O2-  O308  1  0.17309805  0.17840303  0.82921570  1
  O2-  O309  1  0.16650932  0.67221812  0.17302939  1
  O2-  O310  1  0.16612963  0.68973899  0.50121140  1
  O2-  O311  1  0.17166331  0.67265599  0.83173122  1
  O2-  O312  1  0.49558891  0.17688350  0.15930968  1
  O2-  O313  1  0.50579199  0.18147258  0.50832741  1
  O2-  O314  1  0.50320434  0.18188127  0.83334303  1
  O2-  O315  1  0.50565391  0.68150655  0.15844185  1
  O2-  O316  1  0.49695234  0.67316074  0.49132497  1
  O2-  O317  1  0.50145714  0.68584893  0.83603110  1
  O2-  O318  1  0.83005726  0.17597657  0.16707134  1
  O2-  O319  1  0.83005871  0.17888773  0.50457489  1
  O2-  O320  1  0.83258813  0.18362592  0.83347845  1
  O2-  O321  1  0.84759139  0.67112130  0.16410297  1
  O2-  O322  1  0.83050566  0.68053568  0.50334789  1
  O2-  O323  1  0.83691081  0.68344890  0.83417676  1
  O2-  O324  1  -0.00058906  0.32266756  0.16526439  1
  O2-  O325  1  -0.00669347  0.32628023  0.49346241  1
  O2-  O326  1  0.00114781  0.31971100  0.83221223  1
  O2-  O327  1  0.00523795  0.82569182  0.17351962  1
  O2-  O328  1  0.00355321  0.81767190  0.50444286  1
  O2-  O329  1  -0.00728041  0.83022497  0.82766291  1
  O2-  O330  1  0.33621180  0.32396088  0.17070350  1
  O2-  O331  1  0.32802892  0.31446196  0.49826655  1
  O2-  O332  1  0.33584769  0.32505060  0.83380527  1
  O2-  O333  1  0.33345637  0.82511896  0.16634902  1
  O2-  O334  1  0.32544909  0.81787354  0.49140794  1
  O2-  O335  1  0.33300146  0.82429750  0.83478527  1
  O2-  O336  1  0.66960552  0.32453739  0.16780007  1
  O2-  O337  1  0.66574750  0.31909268  0.50351729  1
  O2-  O338  1  0.66539635  0.32200699  0.83183793  1
  O2-  O339  1  0.67108186  0.82225579  0.17166359  1
  O2-  O340  1  0.67040318  0.82871325  0.49822351  1
  O2-  O341  1  0.67042942  0.81026498  0.83803638  1
  O2-  O342  1  0.16415851  0.32445554  0.16885071  1
  O2-  O343  1  0.17105779  0.31526906  0.49812852  1
  O2-  O344  1  0.16623477  0.32311097  0.83095939  1
  O2-  O345  1  0.16463048  0.82482700  0.16728568  1
  O2-  O346  1  0.16983986  0.82463229  0.49386824  1
  O2-  O347  1  0.17282339  0.82974707  0.82734689  1
  O2-  O348  1  0.50470938  0.32556834  0.15864693  1
  O2-  O349  1  0.50698447  0.32418405  0.49500556  1
  O2-  O350  1  0.49582497  0.32026646  0.83476536  1
  O2-  O351  1  0.48791377  0.82739289  0.17474397  1
  O2-  O352  1  0.50485365  0.82569647  0.49531727  1
  O2-  O353  1  0.49356516  0.81704141  0.84058561  1
  O2-  O354  1  0.83092016  0.32298039  0.17178119  1
  O2-  O355  1  0.83163182  0.32335591  0.50763585  1
  O2-  O356  1  0.83213397  0.31924594  0.83573079  1
  O2-  O357  1  0.83629014  0.82650827  0.16776218  1
  O2-  O358  1  0.83581952  0.81698202  0.49767784  1
  O2-  O359  1  0.83551215  0.82576399  0.82983208  1
  O2-  O360  1  0.08070231  0.08468737  0.11186415  1
  O2-  O361  1  0.05900453  0.07832205  0.45519473  1
  O2-  O362  1  0.10952438  0.08121343  0.75780978  1
  O2-  O363  1  0.05137545  0.56343088  0.12187212  1
  O2-  O364  1  0.08440529  0.57926586  0.44062508  1
  O2-  O365  1  0.08006518  0.58544642  0.77569464  1
  O2-  O366  1  0.41958510  0.08286051  0.08997590  1
  O2-  O367  1  0.43108162  0.08220198  0.44749673  1
  O2-  O368  1  0.40460057  0.08305793  0.77864133  1
  O2-  O369  1  0.44060760  0.57290034  0.09815960  1
  O2-  O370  1  0.42896698  0.57729867  0.44156203  1
  O2-  O371  1  0.42357516  0.58262412  0.78652966  1
  O2-  O372  1  0.74995600  0.07961439  0.10796672  1
  O2-  O373  1  0.75574090  0.08184580  0.45741280  1
  O2-  O374  1  0.73412224  0.08433951  0.76895289  1
  O2-  O375  1  0.74535743  0.58140843  0.09887917  1
  O2-  O376  1  0.73405382  0.57908568  0.45669876  1
  O2-  O377  1  0.75531546  0.58342358  0.77433125  1
  O2-  O378  1  0.23891582  0.08087825  0.22965726  1
  O2-  O379  1  0.26151112  0.08653055  0.56885726  1
  O2-  O380  1  0.25422413  0.07766063  0.89343947  1
  O2-  O381  1  0.24346499  0.58101564  0.23226155  1
  O2-  O382  1  0.24770209  0.58264801  0.56805813  1
  O2-  O383  1  0.25036474  0.57704142  0.88648044  1
  O2-  O384  1  0.59392979  0.08515392  0.23100277  1
  O2-  O385  1  0.58084243  0.08447883  0.55610048  1
  O2-  O386  1  0.58260088  0.08282410  0.89031215  1
  O2-  O387  1  0.58549717  0.58118955  0.21926906  1
  O2-  O388  1  0.58361142  0.57885876  0.55005541  1
  O2-  O389  1  0.58349769  0.57236589  0.89677430  1
  O2-  O390  1  0.91498265  0.08156297  0.22497744  1
  O2-  O391  1  0.90476766  0.08382449  0.55728358  1
  O2-  O392  1  0.91224145  0.07695291  0.88764461  1
  O2-  O393  1  0.91163727  0.57956881  0.22310038  1
  O2-  O394  1  0.91075379  0.57411471  0.56601682  1
  O2-  O395  1  0.91914985  0.58136871  0.88254761  1
  O2-  O396  1  0.07532514  0.41690673  0.10116820  1
  O2-  O397  1  0.07514038  0.42187843  0.43818986  1
  O2-  O398  1  0.08179184  0.41483436  0.77506209  1
  O2-  O399  1  0.09534318  0.91884083  0.10672414  1
  O2-  O400  1  0.08485087  0.91860868  0.45001772  1
  O2-  O401  1  0.06920808  0.91680758  0.76050036  1
  O2-  O402  1  0.42254276  0.42381413  0.11393013  1
  O2-  O403  1  0.42694335  0.41549932  0.43012895  1
  O2-  O404  1  0.41652337  0.41753637  0.77246616  1
  O2-  O405  1  0.40817594  0.91891976  0.09793072  1
  O2-  O406  1  0.40512293  0.91985913  0.44907673  1
  O2-  O407  1  0.41031119  0.92199073  0.78626642  1
  O2-  O408  1  0.75394025  0.41730398  0.10633300  1
  O2-  O409  1  0.74724147  0.41781143  0.45554244  1
  O2-  O410  1  0.74587593  0.41776980  0.76610838  1
  O2-  O411  1  0.74449762  0.91872660  0.09931457  1
  O2-  O412  1  0.75875608  0.91802342  0.44550897  1
  O2-  O413  1  0.76866414  0.92017899  0.77380904  1
  O2-  O414  1  0.25207044  0.41667731  0.23753237  1
  O2-  O415  1  0.24645434  0.41618855  0.58132284  1
  O2-  O416  1  0.25926148  0.42315387  0.88533332  1
  O2-  O417  1  0.25922028  0.91515188  0.22317770  1
  O2-  O418  1  0.24689780  0.91722105  0.55361042  1
  O2-  O419  1  0.25871933  0.92542605  0.88837767  1
  O2-  O420  1  0.58401782  0.41477746  0.22283821  1
  O2-  O421  1  0.60403729  0.41763781  0.55340178  1
  O2-  O422  1  0.56726825  0.41517360  0.88768320  1
  O2-  O423  1  0.57240324  0.91951492  0.22672841  1
  O2-  O424  1  0.58937267  0.91441067  0.56961369  1
  O2-  O425  1  0.59794660  0.92066778  0.89174425  1
  O2-  O426  1  0.91494687  0.41862054  0.22226612  1
  O2-  O427  1  0.89967259  0.42315508  0.55043854  1
  O2-  O428  1  0.91715125  0.41639349  0.89462345  1
  O2-  O429  1  0.91222877  0.91833303  0.24086225  1
  O2-  O430  1  0.91292185  0.91708379  0.56331359  1
  O2-  O431  1  0.90467443  0.92458481  0.88398339  1
  O2-  O432  1  -0.00457607  0.01172847  0.01544228  1
  O2-  O433  1  0.00629323  0.00611476  0.32861989  1
  O2-  O434  1  -0.00567417  -0.00457155  0.67398143  1
  O2-  O435  1  -0.01069961  0.51284067  0.01172923  1
  O2-  O436  1  -0.01143408  0.49803243  0.35538441  1
  O2-  O437  1  -0.01972795  0.50128291  0.69786404  1
  O2-  O438  1  0.33907731  -0.00389615  -0.01996586  1
  O2-  O439  1  0.33569161  -0.02185411  0.32872398  1
  O2-  O440  1  0.32308419  0.00832611  0.68369645  1
  O2-  O441  1  0.35310882  0.49642847  -0.02219556  1
  O2-  O442  1  0.33203675  0.49783283  0.32359012  1
  O2-  O443  1  0.34072272  0.50407672  0.65307932  1
  O2-  O444  1  0.68080206  0.00071640  -0.02121100  1
  O2-  O445  1  0.66798231  0.00188388  0.32864759  1
  O2-  O446  1  0.66853673  0.01068468  0.65678263  1
  O2-  O447  1  0.66642876  0.50032044  -0.00006611  1
  O2-  O448  1  0.66395988  0.50648383  0.33409077  1
  O2-  O449  1  0.67607209  0.49441373  0.65592556  1
  O2-  O450  1  0.18145169  0.00404467  0.02144670  1
  O2-  O451  1  0.17182975  -0.01994277  0.33532103  1
  O2-  O452  1  0.16618035  -0.00697897  0.66604854  1
  O2-  O453  1  0.13959008  0.49892110  -0.03465659  1
  O2-  O454  1  0.14542274  0.50509863  0.30762097  1
  O2-  O455  1  0.18156128  0.50237571  0.67956275  1
  O2-  O456  1  0.48499266  -0.00341804  -0.03388182  1
  O2-  O457  1  0.50117315  0.00362226  0.33158344  1
  O2-  O458  1  0.49133833  0.02059694  0.66114569  1
  O2-  O459  1  0.50099263  0.48546821  0.00450180  1
  O2-  O460  1  0.51271204  0.49825337  0.35031097  1
  O2-  O461  1  0.51452521  0.50593298  0.69139613  1
  O2-  O462  1  0.82778143  -0.00313953  -0.01690040  1
  O2-  O463  1  0.84624834  0.01213605  0.34600899  1
  O2-  O464  1  0.82083723  0.00628479  0.64872950  1
  O2-  O465  1  0.83850848  0.49655582  0.01126400  1
  O2-  O466  1  0.83349542  0.49104719  0.32997866  1
  O2-  O467  1  0.82532925  0.49479730  0.65461626  1
  O2-  O468  1  0.08090085  0.25061307  0.06803494  1
  O2-  O469  1  0.08287459  0.75441399  0.07728267  1
  O2-  O470  1  0.73629727  0.75097801  0.39573491  1
  O2-  O471  1  0.91501536  0.74952609  0.93284368  1
  O2-  O472  1  0.08477595  0.75078093  0.74354087  1
  O2-  O473  1  0.08437661  0.74938876  0.38745873  1
  O2-  O474  1  0.91755334  0.74967182  0.26758865  1
  O2-  O475  1  0.75434905  0.24871636  0.06272223  1
  O2-  O476  1  0.24595492  0.74808522  0.92993358  1
  O2-  O477  1  0.41301625  0.75315217  0.07115725  1
  O2-  O478  1  0.41328889  0.25252691  0.06762804  1
  O2-  O479  1  0.24928162  0.75068301  0.26375633  1
  O2-  O480  1  0.58003279  0.75191921  0.27867003  1
  O2-  O481  1  0.75859575  0.75346506  0.07793209  1
  O2-  O482  1  0.91127670  0.25053601  0.26616962  1
  O2-  O483  1  0.75638872  0.25087859  0.39632446  1
  O2-  O484  1  0.91565595  0.24769533  0.93789758  1
  O2-  O485  1  0.42431247  0.74382176  0.39276264  1
  O2-  O486  1  0.58667480  0.25084908  0.94105895  1
  O2-  O487  1  0.24847526  0.24978717  0.25506912  1
  O2-  O488  1  0.58667802  0.25198839  0.26002175  1
  O2-  O489  1  0.07973063  0.25564384  0.40009297  1
  O2-  O490  1  0.25313676  0.25238523  0.93322893  1
  O2-  O491  1  0.42111672  0.25379311  0.40400038  1
  O2-  O492  1  0.58601795  0.74800158  0.57995125  1
