# generated using pymatgen
data_Ca108Mn108O277
_symmetry_space_group_name_H-M   'P 1'
_cell_length_a   16.02823642
_cell_length_b   22.30779172
_cell_length_c   16.39024335
_cell_angle_alpha   90.00230722
_cell_angle_beta   89.99811405
_cell_angle_gamma   90.00140762
_symmetry_Int_Tables_number   1
_chemical_formula_structural   Ca108Mn108O277
_chemical_formula_sum   'Ca108 Mn108 O277'
_cell_volume   5860.40623747
_cell_formula_units_Z   1
loop_
 _symmetry_equiv_pos_site_id
 _symmetry_equiv_pos_as_xyz
  1  'x, y, z'
loop_
 _atom_type_symbol
 _atom_type_oxidation_number
  Ca2+  2.0
  Mn3.34+  3.34
  O2-  -2.0
loop_
 _atom_site_type_symbol
 _atom_site_label
 _atom_site_symmetry_multiplicity
 _atom_site_fract_x
 _atom_site_fract_y
 _atom_site_fract_z
 _atom_site_occupancy
  Ca2+  Ca0  1  0.08128297  0.24939143  0.26248521  1
  Ca2+  Ca1  1  0.08553012  0.25808252  0.57481339  1
  Ca2+  Ca2  1  0.06542727  0.25438245  0.91588815  1
  Ca2+  Ca3  1  0.08560355  0.75289391  0.23927112  1
  Ca2+  Ca4  1  0.09775160  0.74643326  0.59076348  1
  Ca2+  Ca5  1  0.08565762  0.74886165  0.92144877  1
  Ca2+  Ca6  1  0.42893452  0.23876319  0.26250129  1
  Ca2+  Ca7  1  0.42743729  0.24097436  0.57879364  1
  Ca2+  Ca8  1  0.42346361  0.25479183  0.91049437  1
  Ca2+  Ca9  1  0.42842491  0.74718212  0.26358459  1
  Ca2+  Ca10  1  0.40319407  0.75620858  0.57638136  1
  Ca2+  Ca11  1  0.43124497  0.75634768  0.91759941  1
  Ca2+  Ca12  1  0.72553847  0.23328159  0.26164817  1
  Ca2+  Ca13  1  0.73379249  0.23600757  0.57296313  1
  Ca2+  Ca14  1  0.76063537  0.25248742  0.91252627  1
  Ca2+  Ca15  1  0.73883288  0.75186089  0.26134420  1
  Ca2+  Ca16  1  0.75110089  0.76136665  0.56983806  1
  Ca2+  Ca17  1  0.73310341  0.75874304  0.91699568  1
  Ca2+  Ca18  1  0.24318500  0.24644450  0.10244473  1
  Ca2+  Ca19  1  0.24112561  0.24038607  0.41467650  1
  Ca2+  Ca20  1  0.24616386  0.26661557  0.73840352  1
  Ca2+  Ca21  1  0.24034220  0.75415948  0.08909706  1
  Ca2+  Ca22  1  0.27203559  0.74207740  0.42815617  1
  Ca2+  Ca23  1  0.23914061  0.75901510  0.74260774  1
  Ca2+  Ca24  1  0.57207878  0.26346161  0.09548307  1
  Ca2+  Ca25  1  0.57715943  0.24237754  0.41970201  1
  Ca2+  Ca26  1  0.57468892  0.24331054  0.73368730  1
  Ca2+  Ca27  1  0.57229039  0.76703910  0.08323428  1
  Ca2+  Ca28  1  0.57767063  0.75511894  0.41372518  1
  Ca2+  Ca29  1  0.57495436  0.76439483  0.76208194  1
  Ca2+  Ca30  1  0.93176909  0.24748183  0.07408010  1
  Ca2+  Ca31  1  0.93523458  0.23789238  0.41817243  1
  Ca2+  Ca32  1  0.92382059  0.23960821  0.75408854  1
  Ca2+  Ca33  1  0.93821481  0.74732243  0.08779214  1
  Ca2+  Ca34  1  0.89450386  0.74638230  0.41115820  1
  Ca2+  Ca35  1  0.95239826  0.74757956  0.74736365  1
  Ca2+  Ca36  1  0.56315897  0.58697665  0.75141595  1
  Ca2+  Ca37  1  0.07818331  0.11090131  0.55637898  1
  Ca2+  Ca38  1  0.75433298  0.10079275  0.89582141  1
  Ca2+  Ca39  1  0.76367229  0.10306290  0.89948663  1
  Ca2+  Ca40  1  0.43741555  0.09246313  0.91224071  1
  Ca2+  Ca41  1  0.09598023  0.56512117  0.57106043  1
  Ca2+  Ca42  1  0.21760807  0.59139086  0.73268842  1
  Ca2+  Ca43  1  0.42784749  0.08878223  0.91610185  1
  Ca2+  Ca44  1  0.74852688  0.59167638  0.93626040  1
  Ca2+  Ca45  1  0.22792592  0.59001474  0.72900382  1
  Ca2+  Ca46  1  0.39437217  0.09811726  0.26747488  1
  Ca2+  Ca47  1  0.42286468  0.59072732  0.92416037  1
  Ca2+  Ca48  1  0.37782904  0.59063347  0.56363208  1
  Ca2+  Ca49  1  0.56647121  0.59103705  0.41042583  1
  Ca2+  Ca50  1  0.04884013  0.10941876  0.92046835  1
  Ca2+  Ca51  1  0.06475995  0.58224381  0.94036707  1
  Ca2+  Ca52  1  0.57292734  0.10553007  0.42115456  1
  Ca2+  Ca53  1  0.26429469  0.09940481  0.73585905  1
  Ca2+  Ca54  1  0.57638935  0.58862786  0.40735500  1
  Ca2+  Ca55  1  0.56695560  0.10134793  0.10364459  1
  Ca2+  Ca56  1  0.10547322  0.10544020  0.25953103  1
  Ca2+  Ca57  1  0.74625881  0.59379830  0.25901935  1
  Ca2+  Ca58  1  0.38912329  0.59041884  0.56838437  1
  Ca2+  Ca59  1  0.76137485  0.58566079  0.57287182  1
  Ca2+  Ca60  1  0.20460561  0.58112480  0.09840551  1
  Ca2+  Ca61  1  0.57474933  0.58824184  0.75052408  1
  Ca2+  Ca62  1  0.59083054  0.59895602  0.08330375  1
  Ca2+  Ca63  1  0.25114409  0.10056092  0.73392577  1
  Ca2+  Ca64  1  0.19288686  0.58018770  0.10056314  1
  Ca2+  Ca65  1  0.06114905  0.58053110  0.95092206  1
  Ca2+  Ca66  1  0.57795547  0.59932454  0.08394258  1
  Ca2+  Ca67  1  0.57867938  0.10174599  0.10438739  1
  Ca2+  Ca68  1  0.93752122  0.08848878  0.09172394  1
  Ca2+  Ca69  1  0.75849494  0.59099961  0.25823157  1
  Ca2+  Ca70  1  0.74913899  0.58314030  0.57358246  1
  Ca2+  Ca71  1  0.40768060  0.58727784  0.27236975  1
  Ca2+  Ca72  1  0.39443057  0.40191318  0.25716113  1
  Ca2+  Ca73  1  0.74872626  0.39711889  0.57959706  1
  Ca2+  Ca74  1  0.75938944  0.39698512  0.57917605  1
  Ca2+  Ca75  1  0.42526893  0.90865384  0.57810699  1
  Ca2+  Ca76  1  0.08152332  0.40191926  0.91694916  1
  Ca2+  Ca77  1  0.41988782  0.90467528  0.91933234  1
  Ca2+  Ca78  1  0.76257995  0.39718895  0.24555248  1
  Ca2+  Ca79  1  0.08036335  0.90350382  0.58074411  1
  Ca2+  Ca80  1  0.58324074  0.91285941  0.74971608  1
  Ca2+  Ca81  1  0.92652241  0.40362112  0.74137817  1
  Ca2+  Ca82  1  0.93354524  0.91323571  0.39969607  1
  Ca2+  Ca83  1  0.89125762  0.91061020  0.74417129  1
  Ca2+  Ca84  1  0.75062298  0.39687470  0.24588878  1
  Ca2+  Ca85  1  0.41921705  0.39189697  0.91181612  1
  Ca2+  Ca86  1  0.73337967  0.91081367  0.92287588  1
  Ca2+  Ca87  1  0.90235369  0.90705461  0.74055800  1
  Ca2+  Ca88  1  0.10369760  0.42772237  0.26328771  1
  Ca2+  Ca89  1  0.92120604  0.91445620  0.39875137  1
  Ca2+  Ca90  1  0.24117346  0.91122890  0.08323503  1
  Ca2+  Ca91  1  0.26055366  0.90737070  0.40821664  1
  Ca2+  Ca92  1  0.75339191  0.39740560  0.91043208  1
  Ca2+  Ca93  1  0.94660861  0.41299101  0.42397293  1
  Ca2+  Ca94  1  0.07746171  0.91756001  0.24059140  1
  Ca2+  Ca95  1  0.57189270  0.40366868  0.42735977  1
  Ca2+  Ca96  1  0.08989647  0.90916574  0.94096450  1
  Ca2+  Ca97  1  0.58617747  0.39228930  0.75075298  1
  Ca2+  Ca98  1  0.75760091  0.91203915  0.25030000  1
  Ca2+  Ca99  1  0.93712437  0.40981617  0.08340381  1
  Ca2+  Ca100  1  0.56675547  0.91983037  0.41093021  1
  Ca2+  Ca101  1  0.42596866  0.91332037  0.25701903  1
  Ca2+  Ca102  1  0.10093174  0.42335591  0.25591275  1
  Ca2+  Ca103  1  0.40089711  0.39597870  0.25748049  1
  Ca2+  Ca104  1  0.41528959  0.91329777  0.25766909  1
  Ca2+  Ca105  1  0.07885259  0.90956719  0.93913735  1
  Ca2+  Ca106  1  0.74171781  0.91600197  0.59697798  1
  Ca2+  Ca107  1  0.92815563  0.91933323  0.09320974  1
  Mn3.34+  Mn108  1  0.08800306  0.33328763  0.08670311  1
  Mn3.34+  Mn109  1  0.09227033  0.33541136  0.42014297  1
  Mn3.34+  Mn110  1  0.08864478  0.33659412  0.74480678  1
  Mn3.34+  Mn111  1  0.08346734  0.83065743  0.08847205  1
  Mn3.34+  Mn112  1  0.08696104  0.82724008  0.41849861  1
  Mn3.34+  Mn113  1  0.08845071  0.83487065  0.75444819  1
  Mn3.34+  Mn114  1  0.41119095  0.32952209  0.08200680  1
  Mn3.34+  Mn115  1  0.40769510  0.32912187  0.42648079  1
  Mn3.34+  Mn116  1  0.41113571  0.33103044  0.74481266  1
  Mn3.34+  Mn117  1  0.41258641  0.83352028  0.08859602  1
  Mn3.34+  Mn118  1  0.41792874  0.83400650  0.42066978  1
  Mn3.34+  Mn119  1  0.41239586  0.83596780  0.74871720  1
  Mn3.34+  Mn120  1  0.75189106  0.32960508  0.08111977  1
  Mn3.34+  Mn121  1  0.75325114  0.32761408  0.41766028  1
  Mn3.34+  Mn122  1  0.75190980  0.32298651  0.75035218  1
  Mn3.34+  Mn123  1  0.75463966  0.83175203  0.08844441  1
  Mn3.34+  Mn124  1  0.74546660  0.83408516  0.41767273  1
  Mn3.34+  Mn125  1  0.74620193  0.83404755  0.75260381  1
  Mn3.34+  Mn126  1  0.24567590  0.33216475  0.24792759  1
  Mn3.34+  Mn127  1  0.25061644  0.34703182  0.57858178  1
  Mn3.34+  Mn128  1  0.24680789  0.33254826  0.91949369  1
  Mn3.34+  Mn129  1  0.24962905  0.83426361  0.25014763  1
  Mn3.34+  Mn130  1  0.24920165  0.83583791  0.58301240  1
  Mn3.34+  Mn131  1  0.25406915  0.82842985  0.91439179  1
  Mn3.34+  Mn132  1  0.58255320  0.33263380  0.25091600  1
  Mn3.34+  Mn133  1  0.57803859  0.33407491  0.58185118  1
  Mn3.34+  Mn134  1  0.58685086  0.32987938  0.91949295  1
  Mn3.34+  Mn135  1  0.58830473  0.83610910  0.24686670  1
  Mn3.34+  Mn136  1  0.58249337  0.84094518  0.58162863  1
  Mn3.34+  Mn137  1  0.58066539  0.83776001  0.92301620  1
  Mn3.34+  Mn138  1  0.92156040  0.33651923  0.24474495  1
  Mn3.34+  Mn139  1  0.92318162  0.33327943  0.58010686  1
  Mn3.34+  Mn140  1  0.91657629  0.33148785  0.91538314  1
  Mn3.34+  Mn141  1  0.91523518  0.83341211  0.24514172  1
  Mn3.34+  Mn142  1  0.91843204  0.83743434  0.57578659  1
  Mn3.34+  Mn143  1  0.91219373  0.82721083  0.91711637  1
  Mn3.34+  Mn144  1  0.41293775  0.67155467  0.09164310  1
  Mn3.34+  Mn145  1  0.58588535  0.16943527  0.91389764  1
  Mn3.34+  Mn146  1  0.07787087  0.17048351  0.74641577  1
  Mn3.34+  Mn147  1  0.74951343  0.16682727  0.08996551  1
  Mn3.34+  Mn148  1  0.93543897  0.65020626  0.24890261  1
  Mn3.34+  Mn149  1  0.58252063  0.66975846  0.25016661  1
  Mn3.34+  Mn150  1  0.92194020  0.66367154  0.57250795  1
  Mn3.34+  Mn151  1  0.25776725  0.66823692  0.91539421  1
  Mn3.34+  Mn152  1  0.91151315  0.67118325  0.91875757  1
  Mn3.34+  Mn153  1  0.57647855  0.67281710  0.58198294  1
  Mn3.34+  Mn154  1  0.75240954  0.66943015  0.75059876  1
  Mn3.34+  Mn155  1  0.76402236  0.66589440  0.75262496  1
  Mn3.34+  Mn156  1  0.23907553  0.66804029  0.57533255  1
  Mn3.34+  Mn157  1  0.75600069  0.15490386  0.73509483  1
  Mn3.34+  Mn158  1  0.75540289  0.68341796  0.09165118  1
  Mn3.34+  Mn159  1  0.25173955  0.16893362  0.92476577  1
  Mn3.34+  Mn160  1  0.91589430  0.16887263  0.57896219  1
  Mn3.34+  Mn161  1  0.24803681  0.67392736  0.91693108  1
  Mn3.34+  Mn162  1  0.42579958  0.16684491  0.74390135  1
  Mn3.34+  Mn163  1  0.75164184  0.16697194  0.41788430  1
  Mn3.34+  Mn164  1  0.40923636  0.16171872  0.42126407  1
  Mn3.34+  Mn165  1  0.24869301  0.17683038  0.57508115  1
  Mn3.34+  Mn166  1  0.92832129  0.65711331  0.25288891  1
  Mn3.34+  Mn167  1  0.24794767  0.66309413  0.26126822  1
  Mn3.34+  Mn168  1  0.58616334  0.66721833  0.57982452  1
  Mn3.34+  Mn169  1  0.41236723  0.67153301  0.74973214  1
  Mn3.34+  Mn170  1  0.92037709  0.67745676  0.91965144  1
  Mn3.34+  Mn171  1  0.08216027  0.16641034  0.09687871  1
  Mn3.34+  Mn172  1  0.93097002  0.65721050  0.57143134  1
  Mn3.34+  Mn173  1  0.08657621  0.65535276  0.41166550  1
  Mn3.34+  Mn174  1  0.24120994  0.16407548  0.92242392  1
  Mn3.34+  Mn175  1  0.58269198  0.66720923  0.91635725  1
  Mn3.34+  Mn176  1  0.23926652  0.65671331  0.26134995  1
  Mn3.34+  Mn177  1  0.40965790  0.16952181  0.09303622  1
  Mn3.34+  Mn178  1  0.91892956  0.15504386  0.25610856  1
  Mn3.34+  Mn179  1  0.75932740  0.16157038  0.09205514  1
  Mn3.34+  Mn180  1  0.40357839  0.49799603  0.09218941  1
  Mn3.34+  Mn181  1  0.91407449  0.49673182  0.90522902  1
  Mn3.34+  Mn182  1  0.75774113  0.00696373  0.41698620  1
  Mn3.34+  Mn183  1  0.25826879  0.49524678  0.90343321  1
  Mn3.34+  Mn184  1  0.58824290  0.00361948  0.91554433  1
  Mn3.34+  Mn185  1  0.40142776  0.49488971  0.40395495  1
  Mn3.34+  Mn186  1  0.41622298  0.00094898  0.08379623  1
  Mn3.34+  Mn187  1  0.25021302  0.00776003  0.56737741  1
  Mn3.34+  Mn188  1  0.58861730  0.00170782  0.60236922  1
  Mn3.34+  Mn189  1  0.92006730  0.00477138  0.91031812  1
  Mn3.34+  Mn190  1  0.58297243  0.49272412  0.92533132  1
  Mn3.34+  Mn191  1  0.75260966  0.49912060  0.74987133  1
  Mn3.34+  Mn192  1  0.41387428  0.49412228  0.73374117  1
  Mn3.34+  Mn193  1  0.24550766  0.50182590  0.90074145  1
  Mn3.34+  Mn194  1  0.90566627  -0.00130456  0.91130047  1
  Mn3.34+  Mn195  1  0.75325175  0.49906126  0.08525886  1
  Mn3.34+  Mn196  1  0.24295070  0.00045783  0.90933118  1
  Mn3.34+  Mn197  1  0.07605086  0.00391624  0.74531446  1
  Mn3.34+  Mn198  1  0.41961486  -0.00092790  0.74338413  1
  Mn3.34+  Mn199  1  0.41545484  0.50192138  0.09159467  1
  Mn3.34+  Mn200  1  0.08433002  -0.00016174  0.40317211  1
  Mn3.34+  Mn201  1  0.40153528  0.49019163  0.73258762  1
  Mn3.34+  Mn202  1  0.75960383  0.49701342  0.41040548  1
  Mn3.34+  Mn203  1  0.76843490  0.50316592  0.74759631  1
  Mn3.34+  Mn204  1  0.74560968  -0.00285859  0.08436942  1
  Mn3.34+  Mn205  1  0.25381553  -0.00466439  0.90809307  1
  Mn3.34+  Mn206  1  0.57309538  0.49636829  0.24863538  1
  Mn3.34+  Mn207  1  0.24885104  0.00085572  0.25969228  1
  Mn3.34+  Mn208  1  0.76418706  0.50413411  0.08489941  1
  Mn3.34+  Mn209  1  0.74750998  0.00243362  0.41973605  1
  Mn3.34+  Mn210  1  0.90783346  0.00664101  0.58870550  1
  Mn3.34+  Mn211  1  0.07599557  0.49655791  0.73661788  1
  Mn3.34+  Mn212  1  0.58469397  -0.00232015  0.25470442  1
  Mn3.34+  Mn213  1  0.77114906  0.50118212  0.40822026  1
  Mn3.34+  Mn214  1  0.08967709  -0.00284938  0.74572441  1
  Mn3.34+  Mn215  1  0.26074810  0.00319541  0.56903439  1
  O2-  O216  1  -0.00298339  0.16066718  0.01711274  1
  O2-  O217  1  0.00029377  0.16895954  0.32236737  1
  O2-  O218  1  -0.00035364  0.15592598  0.66908801  1
  O2-  O219  1  0.00049890  0.66947397  -0.00092882  1
  O2-  O220  1  -0.00149720  0.69519211  0.33189817  1
  O2-  O221  1  0.00054908  0.67137845  0.65796965  1
  O2-  O222  1  0.33766923  0.14287677  -0.00161359  1
  O2-  O223  1  0.32936438  0.17443236  0.33734082  1
  O2-  O224  1  0.33345194  0.16297123  0.67266958  1
  O2-  O225  1  0.32952283  0.65414936  0.00473172  1
  O2-  O226  1  0.32812925  0.66059538  0.33888703  1
  O2-  O227  1  0.32546825  0.65066723  0.67422979  1
  O2-  O228  1  0.66854671  0.14228862  -0.00058274  1
  O2-  O229  1  0.66939803  0.15851535  0.34109716  1
  O2-  O230  1  0.67631445  0.18552052  0.68237411  1
  O2-  O231  1  0.66792255  0.65862480  0.00534677  1
  O2-  O232  1  0.66211404  0.64964784  0.33064491  1
  O2-  O233  1  0.66219240  0.64860282  0.66734660  1
  O2-  O234  1  0.16192777  0.14968135  0.00171524  1
  O2-  O235  1  0.17345385  0.18226168  0.32020050  1
  O2-  O236  1  0.16605358  0.15453880  0.66659534  1
  O2-  O237  1  0.16859866  0.65291232  -0.00323159  1
  O2-  O238  1  0.16638410  0.70009774  0.33358303  1
  O2-  O239  1  0.15804824  0.65494988  0.65480912  1
  O2-  O240  1  0.50240291  0.14869958  0.00008853  1
  O2-  O241  1  0.48838852  0.16039705  0.33533985  1
  O2-  O242  1  0.50122435  0.16446729  0.67133977  1
  O2-  O243  1  0.49965007  0.65130179  -0.00112094  1
  O2-  O244  1  0.50104288  0.65231095  0.32510451  1
  O2-  O245  1  0.49492202  0.64358579  0.65730178  1
  O2-  O246  1  0.83046499  0.14643152  0.00553624  1
  O2-  O247  1  0.83995962  0.17613739  0.32859446  1
  O2-  O248  1  0.83326516  0.17237814  0.66716844  1
  O2-  O249  1  0.82963412  0.67638840  -0.00032986  1
  O2-  O250  1  0.84036087  0.65585699  0.32841029  1
  O2-  O251  1  0.83786675  0.65532083  0.65731636  1
  O2-  O252  1  0.00071595  0.34539925  -0.00144219  1
  O2-  O253  1  0.00054890  0.33548419  0.32588992  1
  O2-  O254  1  0.00121537  0.34440198  0.66659606  1
  O2-  O255  1  -0.00455688  0.84325700  0.00260720  1
  O2-  O256  1  -0.00220677  0.83052444  0.33445519  1
  O2-  O257  1  -0.00781284  0.84863957  0.67358488  1
  O2-  O258  1  0.33684614  0.34266325  -0.00429130  1
  O2-  O259  1  0.33135963  0.32687270  0.32944235  1
  O2-  O260  1  0.33491444  0.33397626  0.66694451  1
  O2-  O261  1  0.32968224  0.83723854  0.00205141  1
  O2-  O262  1  0.33801606  0.84633278  0.32797361  1
  O2-  O263  1  0.33888366  0.84636490  0.65651268  1
  O2-  O264  1  0.67466656  0.34344978  -0.00498223  1
  O2-  O265  1  0.66933975  0.34910706  0.33680050  1
  O2-  O266  1  0.67198260  0.33494929  0.66573914  1
  O2-  O267  1  0.67363057  0.83429943  0.00169938  1
  O2-  O268  1  0.66818222  0.85429180  0.33307538  1
  O2-  O269  1  0.66350588  0.84643196  0.66552077  1
  O2-  O270  1  0.16446160  0.34805518  0.00067185  1
  O2-  O271  1  0.16208025  0.33525491  0.32334218  1
  O2-  O272  1  0.16893897  0.34062571  0.66791089  1
  O2-  O273  1  0.16841653  0.84111519  0.00188059  1
  O2-  O274  1  0.16755230  0.83331329  0.33310560  1
  O2-  O275  1  0.16502534  0.84991741  0.66465498  1
  O2-  O276  1  0.50190620  0.34491446  0.00166779  1
  O2-  O277  1  0.49876533  0.34963397  0.32916795  1
  O2-  O278  1  0.50386703  0.33897943  0.67196311  1
  O2-  O279  1  0.49693191  0.84693964  0.00380997  1
  O2-  O280  1  0.50131501  0.84871720  0.33516505  1
  O2-  O281  1  0.50538968  0.84687556  0.66984045  1
  O2-  O282  1  0.83811947  0.34919698  0.00292859  1
  O2-  O283  1  0.83642425  0.34320572  0.33449181  1
  O2-  O284  1  0.83352000  0.34186453  0.66910833  1
  O2-  O285  1  0.83312940  0.81023674  0.00021555  1
  O2-  O286  1  0.83610094  0.84419636  0.33280018  1
  O2-  O287  1  0.83304842  0.84192486  0.65894616  1
  O2-  O288  1  -0.00801726  0.18527973  0.17160208  1
  O2-  O289  1  -0.00036638  0.18162961  0.50927009  1
  O2-  O290  1  0.01134558  0.18030739  0.83360547  1
  O2-  O291  1  0.00546135  0.68227056  0.17289092  1
  O2-  O292  1  0.00166726  0.69357411  0.49385385  1
  O2-  O293  1  0.00392433  0.68146023  0.84194873  1
  O2-  O294  1  0.33882689  0.18396994  0.17107082  1
  O2-  O295  1  0.33283460  0.18484218  0.50376983  1
  O2-  O296  1  0.33543548  0.17298743  0.84249877  1
  O2-  O297  1  0.32909427  0.68929517  0.18093164  1
  O2-  O298  1  0.33767574  0.67517424  0.51661126  1
  O2-  O299  1  0.34056010  0.69122479  0.84273419  1
  O2-  O300  1  0.65950230  0.17862703  0.15651206  1
  O2-  O301  1  0.66538536  0.17544035  0.48926858  1
  O2-  O302  1  0.67255207  0.17777565  0.84463388  1
  O2-  O303  1  0.66912850  0.67990940  0.17229719  1
  O2-  O304  1  0.66644942  0.69118626  0.50660391  1
  O2-  O305  1  0.66592869  0.67682019  0.83406034  1
  O2-  O306  1  0.15826651  0.18467969  0.17664472  1
  O2-  O307  1  0.16595059  0.18127993  0.50658307  1
  O2-  O308  1  0.17802870  0.17748536  0.82529695  1
  O2-  O309  1  0.17184406  0.67058578  0.16988758  1
  O2-  O310  1  0.16528842  0.68347057  0.49314666  1
  O2-  O311  1  0.17398747  0.67846494  0.82974706  1
  O2-  O312  1  0.50262600  0.18131788  0.15440855  1
  O2-  O313  1  0.49633063  0.17377863  0.49384964  1
  O2-  O314  1  0.49297543  0.17456129  0.84303503  1
  O2-  O315  1  0.51079976  0.68104750  0.16001297  1
  O2-  O316  1  0.49919632  0.67695487  0.49822112  1
  O2-  O317  1  0.50417964  0.67510288  0.82284335  1
  O2-  O318  1  0.83711394  0.18472906  0.17125044  1
  O2-  O319  1  0.83576733  0.18630180  0.50012796  1
  O2-  O320  1  0.81644717  0.18155375  0.82335687  1
  O2-  O321  1  0.84057708  0.69036317  0.17892497  1
  O2-  O322  1  0.83178882  0.68416538  0.50965514  1
  O2-  O323  1  0.83403061  0.69711666  0.84068851  1
  O2-  O324  1  -0.00507861  0.31488711  0.16222652  1
  O2-  O325  1  -0.00350314  0.32845333  0.49318771  1
  O2-  O326  1  -0.00196022  0.32724516  0.83282316  1
  O2-  O327  1  -0.00019916  0.81709934  0.16952313  1
  O2-  O328  1  0.00439391  0.81492453  0.50368121  1
  O2-  O329  1  0.00187797  0.81668148  0.84210226  1
  O2-  O330  1  0.33341940  0.31450318  0.17319793  1
  O2-  O331  1  0.33189762  0.31619754  0.50352513  1
  O2-  O332  1  0.33536995  0.32009150  0.83777350  1
  O2-  O333  1  0.32970373  0.81196566  0.17082331  1
  O2-  O334  1  0.32948862  0.82264656  0.49562119  1
  O2-  O335  1  0.33342553  0.80983183  0.83380454  1
  O2-  O336  1  0.67242685  0.32123357  0.17169438  1
  O2-  O337  1  0.67089302  0.32598433  0.50054345  1
  O2-  O338  1  0.66691443  0.31060257  0.82969474  1
  O2-  O339  1  0.67048360  0.81338053  0.16722435  1
  O2-  O340  1  0.66160601  0.82065706  0.49981907  1
  O2-  O341  1  0.66238458  0.82552057  0.83754259  1
  O2-  O342  1  0.16339022  0.31504740  0.17130481  1
  O2-  O343  1  0.16973094  0.32618996  0.50028208  1
  O2-  O344  1  0.16103747  0.32115797  0.83976947  1
  O2-  O345  1  0.16848809  0.82079313  0.16834050  1
  O2-  O346  1  0.16717833  0.81738565  0.50063072  1
  O2-  O347  1  0.16227259  0.81595207  0.84663804  1
  O2-  O348  1  0.49071488  0.32957135  0.17607840  1
  O2-  O349  1  0.50307018  0.33193826  0.49518437  1
  O2-  O350  1  0.50353404  0.32223212  0.83732433  1
  O2-  O351  1  0.49043045  0.82391323  0.17797914  1
  O2-  O352  1  0.49758282  0.81996289  0.50662845  1
  O2-  O353  1  0.49579072  0.82611684  0.83857646  1
  O2-  O354  1  0.82822241  0.31545841  0.17407570  1
  O2-  O355  1  0.82598363  0.31872930  0.50740758  1
  O2-  O356  1  0.83292439  0.31684701  0.83223330  1
  O2-  O357  1  0.83451337  0.80802735  0.17061558  1
  O2-  O358  1  0.83765656  0.81924408  0.49482899  1
  O2-  O359  1  0.83965643  0.81437498  0.82671326  1
  O2-  O360  1  0.07313294  0.08632006  0.12106142  1
  O2-  O361  1  0.09528004  0.07262932  0.42994934  1
  O2-  O362  1  0.10353124  0.08173358  0.78139237  1
  O2-  O363  1  0.07138719  0.57403271  0.08099030  1
  O2-  O364  1  0.06873393  0.58103149  0.44474165  1
  O2-  O365  1  0.11108601  0.55558624  0.81323696  1
  O2-  O366  1  0.42805986  0.08377723  0.12064568  1
  O2-  O367  1  0.41747894  0.08283290  0.41905399  1
  O2-  O368  1  0.39831714  0.08131895  0.78109013  1
  O2-  O369  1  0.42513624  0.58394387  0.12746454  1
  O2-  O370  1  0.43081497  0.57233948  0.44488238  1
  O2-  O371  1  0.42825862  0.57145283  0.79275036  1
  O2-  O372  1  0.73772941  0.08019711  0.12395586  1
  O2-  O373  1  0.75617510  0.08595839  0.44428587  1
  O2-  O374  1  0.75144746  0.07954032  0.76513049  1
  O2-  O375  1  0.74440083  0.58517465  0.12228631  1
  O2-  O376  1  0.74963892  0.58217515  0.43965265  1
  O2-  O377  1  0.76818460  0.58096128  0.80340426  1
  O2-  O378  1  0.24867173  0.07186323  0.22492588  1
  O2-  O379  1  0.24902641  0.08997757  0.57201579  1
  O2-  O380  1  0.25201208  0.08067696  0.87477150  1
  O2-  O381  1  0.26771888  0.58007190  0.21806653  1
  O2-  O382  1  0.24377512  0.58493294  0.55732183  1
  O2-  O383  1  0.27476691  0.58180071  0.86559707  1
  O2-  O384  1  0.56915498  0.07341362  0.22965046  1
  O2-  O385  1  0.59171554  0.06311356  0.54611845  1
  O2-  O386  1  0.57823549  0.08370401  0.88154934  1
  O2-  O387  1  0.59064591  0.58090006  0.21417651  1
  O2-  O388  1  0.61136219  0.58038663  0.53944511  1
  O2-  O389  1  0.58746482  0.57654413  0.88209141  1
  O2-  O390  1  0.92502536  0.08145487  0.22945084  1
  O2-  O391  1  0.93000303  0.08268873  0.56153459  1
  O2-  O392  1  0.90325042  0.08522507  0.88968156  1
  O2-  O393  1  0.88911263  0.57936561  0.20970588  1
  O2-  O394  1  0.89733069  0.57838048  0.54415450  1
  O2-  O395  1  0.92156774  0.58287444  0.89873150  1
  O2-  O396  1  0.07337625  0.41538580  0.12328645  1
  O2-  O397  1  0.08383152  0.41779467  0.40803542  1
  O2-  O398  1  0.07272886  0.42358526  0.77925549  1
  O2-  O399  1  0.08141505  0.91459540  0.10294922  1
  O2-  O400  1  0.07233246  0.92229372  0.44652868  1
  O2-  O401  1  0.07455042  0.92056100  0.79886353  1
  O2-  O402  1  0.40279425  0.41584297  0.11440824  1
  O2-  O403  1  0.41278572  0.41478920  0.41526280  1
  O2-  O404  1  0.42532838  0.41429672  0.77756092  1
  O2-  O405  1  0.39508550  0.91822916  0.11889623  1
  O2-  O406  1  0.41554112  0.91686758  0.44165361  1
  O2-  O407  1  0.42151804  0.91932257  0.78458389  1
  O2-  O408  1  0.75929092  0.41789315  0.11112768  1
  O2-  O409  1  0.75530500  0.41597481  0.44001346  1
  O2-  O410  1  0.74575808  0.41681967  0.77290014  1
  O2-  O411  1  0.77773304  0.91683846  0.11269181  1
  O2-  O412  1  0.75361151  0.92119433  0.45972128  1
  O2-  O413  1  0.76246923  0.91531242  0.78834558  1
  O2-  O414  1  0.25144440  0.41266097  0.23258075  1
  O2-  O415  1  0.26046341  0.42194513  0.57228364  1
  O2-  O416  1  0.25125440  0.41511199  0.89454077  1
  O2-  O417  1  0.25017701  0.92501133  0.21574953  1
  O2-  O418  1  0.24894722  0.92072798  0.54482119  1
  O2-  O419  1  0.24762680  0.91411792  0.88534473  1
  O2-  O420  1  0.61076940  0.41822616  0.22923652  1
  O2-  O421  1  0.61836283  0.42112335  0.56767263  1
  O2-  O422  1  0.59750203  0.41371444  0.88548339  1
  O2-  O423  1  0.58155490  0.91946991  0.21522934  1
  O2-  O424  1  0.58545464  0.93223368  0.54471087  1
  O2-  O425  1  0.58616278  0.92157950  0.89181696  1
  O2-  O426  1  0.89997349  0.41444595  0.21667922  1
  O2-  O427  1  0.89295799  0.41486297  0.55820134  1
  O2-  O428  1  0.89823135  0.41801083  0.87980611  1
  O2-  O429  1  0.92417368  0.91379314  0.22850619  1
  O2-  O430  1  0.92130452  0.92918173  0.53292396  1
  O2-  O431  1  0.91464942  0.91681485  0.88014431  1
  O2-  O432  1  0.00540050  -0.01330735  -0.01164512  1
  O2-  O433  1  0.00462160  -0.01538708  0.33300178  1
  O2-  O434  1  -0.00377135  -0.02260155  0.66693743  1
  O2-  O435  1  0.01705706  0.48775348  -0.04499519  1
  O2-  O436  1  0.00598730  0.48272423  0.32518998  1
  O2-  O437  1  -0.00512169  0.50988309  0.67357183  1
  O2-  O438  1  0.33860736  0.00385644  -0.01149384  1
  O2-  O439  1  0.33744262  -0.01294578  0.31821547  1
  O2-  O440  1  0.32138261  0.00881893  0.67122307  1
  O2-  O441  1  0.33423682  0.51620270  -0.00367468  1
  O2-  O442  1  0.36579807  0.49365849  0.29079145  1
  O2-  O443  1  0.32486666  0.53058717  0.66661253  1
  O2-  O444  1  0.68685520  0.00751345  -0.02361326  1
  O2-  O445  1  0.66525064  -0.01249614  0.33728323  1
  O2-  O446  1  0.66118601  -0.01744809  0.67173795  1
  O2-  O447  1  0.66227729  0.52404703  0.01428642  1
  O2-  O448  1  0.66426407  0.52091486  0.33932043  1
  O2-  O449  1  0.66371477  0.53472156  0.68615160  1
  O2-  O450  1  0.16612998  -0.01795463  -0.00641093  1
  O2-  O451  1  0.16802200  -0.02184733  0.33154852  1
  O2-  O452  1  0.15732895  -0.00191300  0.64728659  1
  O2-  O453  1  0.17279958  0.52036017  -0.01054110  1
  O2-  O454  1  0.14788314  0.50819384  0.31211173  1
  O2-  O455  1  0.16126224  0.51275488  0.67117084  1
  O2-  O456  1  0.49706262  0.01506848  -0.00951917  1
  O2-  O457  1  0.49754747  -0.01477822  0.31958753  1
  O2-  O458  1  0.49795943  -0.01809001  0.65747016  1
  O2-  O459  1  0.49996526  0.52057907  0.01010795  1
  O2-  O460  1  0.51407483  0.50641301  0.35456948  1
  O2-  O461  1  0.50031939  0.52074856  0.66574046  1
  O2-  O462  1  0.84436820  0.00212672  0.01230810  1
  O2-  O463  1  0.83548991  -0.02444396  0.34052166  1
  O2-  O464  1  0.83575198  -0.02714502  0.66245146  1
  O2-  O465  1  0.82256656  0.50400546  -0.01744400  1
  O2-  O466  1  0.81188823  0.49659490  0.29957232  1
  O2-  O467  1  0.80291422  0.50012293  0.63401372  1
  O2-  O468  1  0.42412551  0.75064872  0.05805790  1
  O2-  O469  1  0.73254696  0.75158752  0.71861813  1
  O2-  O470  1  0.25117081  0.75085143  0.60606236  1
  O2-  O471  1  0.58170435  0.24782948  0.95028307  1
  O2-  O472  1  0.08847344  0.25132034  0.05658676  1
  O2-  O473  1  0.74600958  0.75647598  0.39429615  1
  O2-  O474  1  0.09007116  0.75336147  0.06359996  1
  O2-  O475  1  0.57838021  0.25454036  0.58914829  1
  O2-  O476  1  0.41894524  0.75549169  0.39772775  1
  O2-  O477  1  0.41732436  0.24875982  0.74264595  1
  O2-  O478  1  0.74128274  0.25080425  0.39579770  1
  O2-  O479  1  0.09016921  0.75818010  0.72812410  1
  O2-  O480  1  0.58084603  0.25489078  0.26935427  1
  O2-  O481  1  0.42894463  0.75240048  0.71687612  1
  O2-  O482  1  0.91533371  0.25384874  0.93538185  1
  O2-  O483  1  0.58304250  0.75118134  0.27688144  1
  O2-  O484  1  0.24328705  0.25315429  0.60327520  1
  O2-  O485  1  0.08541358  0.25435810  0.40793546  1
  O2-  O486  1  0.75007455  0.24577786  0.05169975  1
  O2-  O487  1  0.08569775  0.25219378  0.72820786  1
  O2-  O488  1  0.24934556  0.25076590  0.94827915  1
  O2-  O489  1  0.42846341  0.25164819  0.40630566  1
  O2-  O490  1  0.57867062  0.75220487  0.93603906  1
  O2-  O491  1  0.92638566  0.25211451  0.60778839  1
  O2-  O492  1  0.41808309  0.24838624  0.05284150  1
