# generated using pymatgen
data_Ca108Mn108O277
_symmetry_space_group_name_H-M   'P 1'
_cell_length_a   16.03386347
_cell_length_b   22.31333287
_cell_length_c   16.39343971
_cell_angle_alpha   89.99947756
_cell_angle_beta   89.99902953
_cell_angle_gamma   89.99841908
_symmetry_Int_Tables_number   1
_chemical_formula_structural   Ca108Mn108O277
_chemical_formula_sum   'Ca108 Mn108 O277'
_cell_volume   5865.06342358
_cell_formula_units_Z   1
loop_
 _symmetry_equiv_pos_site_id
 _symmetry_equiv_pos_as_xyz
  1  'x, y, z'
loop_
 _atom_type_symbol
 _atom_type_oxidation_number
  Ca2+  2.0
  Mn3.34+  3.34
  O2-  -2.0
loop_
 _atom_site_type_symbol
 _atom_site_label
 _atom_site_symmetry_multiplicity
 _atom_site_fract_x
 _atom_site_fract_y
 _atom_site_fract_z
 _atom_site_occupancy
  Ca2+  Ca0  1  0.06695764  0.23624800  0.25312755  1
  Ca2+  Ca1  1  0.08212026  0.25820256  0.57879970  1
  Ca2+  Ca2  1  0.08550156  0.24959859  0.91072302  1
  Ca2+  Ca3  1  0.05196642  0.73850504  0.26061416  1
  Ca2+  Ca4  1  0.09774491  0.75555471  0.58057548  1
  Ca2+  Ca5  1  0.08360936  0.73736367  0.91201602  1
  Ca2+  Ca6  1  0.40272182  0.25384242  0.23339276  1
  Ca2+  Ca7  1  0.43359530  0.25038083  0.57235420  1
  Ca2+  Ca8  1  0.41106167  0.24577144  0.93633342  1
  Ca2+  Ca9  1  0.43460836  0.75517880  0.24536856  1
  Ca2+  Ca10  1  0.40039489  0.74781458  0.59536731  1
  Ca2+  Ca11  1  0.40173519  0.75514427  0.90310724  1
  Ca2+  Ca12  1  0.77697650  0.24164170  0.25357058  1
  Ca2+  Ca13  1  0.73636055  0.24848036  0.58280537  1
  Ca2+  Ca14  1  0.76643506  0.25506482  0.91776982  1
  Ca2+  Ca15  1  0.75906979  0.73484614  0.26888791  1
  Ca2+  Ca16  1  0.75039125  0.75342691  0.55429764  1
  Ca2+  Ca17  1  0.76166023  0.74553066  0.93096610  1
  Ca2+  Ca18  1  0.26361453  0.24770526  0.08327641  1
  Ca2+  Ca19  1  0.23666228  0.25871871  0.40655276  1
  Ca2+  Ca20  1  0.24187638  0.25206126  0.75330178  1
  Ca2+  Ca21  1  0.25629571  0.75740757  0.07315246  1
  Ca2+  Ca22  1  0.24234776  0.75468958  0.42798842  1
  Ca2+  Ca23  1  0.26153431  0.74679997  0.74685639  1
  Ca2+  Ca24  1  0.57675631  0.25421290  0.09148004  1
  Ca2+  Ca25  1  0.59258992  0.25126171  0.42994334  1
  Ca2+  Ca26  1  0.58429209  0.25352685  0.73464245  1
  Ca2+  Ca27  1  0.58874940  0.75130786  0.09995863  1
  Ca2+  Ca28  1  0.60127192  0.74849845  0.40419085  1
  Ca2+  Ca29  1  0.54803530  0.74250205  0.75012214  1
  Ca2+  Ca30  1  0.90475779  0.25762815  0.08954758  1
  Ca2+  Ca31  1  0.92253347  0.24532513  0.40801914  1
  Ca2+  Ca32  1  0.92744655  0.25037627  0.74902964  1
  Ca2+  Ca33  1  0.90832713  0.73940429  0.11002283  1
  Ca2+  Ca34  1  0.90112220  0.74624626  0.40583639  1
  Ca2+  Ca35  1  0.93114156  0.75431191  0.75711361  1
  Ca2+  Ca36  1  0.75786671  0.09699461  0.58815208  1
  Ca2+  Ca37  1  0.11938051  0.57216036  0.58820492  1
  Ca2+  Ca38  1  0.22058327  0.57867217  0.05523657  1
  Ca2+  Ca39  1  0.92985683  0.10761782  0.09204484  1
  Ca2+  Ca40  1  0.95461179  0.58739544  0.04877993  1
  Ca2+  Ca41  1  0.24762686  0.09090313  0.75917018  1
  Ca2+  Ca42  1  0.58141024  0.11054467  0.44569578  1
  Ca2+  Ca43  1  0.11309366  0.10811560  0.91816798  1
  Ca2+  Ca44  1  0.38546090  0.09465972  0.93666685  1
  Ca2+  Ca45  1  0.57282606  0.60262015  0.09348864  1
  Ca2+  Ca46  1  0.06821403  0.58824206  0.24504158  1
  Ca2+  Ca47  1  0.55413825  0.08480445  0.08464825  1
  Ca2+  Ca48  1  0.91376702  0.59140087  0.39666210  1
  Ca2+  Ca49  1  0.89689354  0.08922813  0.73727906  1
  Ca2+  Ca50  1  0.11061130  0.56882760  0.59171200  1
  Ca2+  Ca51  1  0.76805635  0.09624930  0.25990552  1
  Ca2+  Ca52  1  0.94691874  0.58983141  0.04305810  1
  Ca2+  Ca53  1  0.25140144  0.58399752  0.42105903  1
  Ca2+  Ca54  1  0.24090395  0.09148955  0.39606039  1
  Ca2+  Ca55  1  0.27365877  0.59717168  0.74570030  1
  Ca2+  Ca56  1  0.60617584  0.07946885  0.72235948  1
  Ca2+  Ca57  1  0.90681085  0.58866686  0.40340726  1
  Ca2+  Ca58  1  0.42395037  0.58926279  0.26426075  1
  Ca2+  Ca59  1  0.41673598  0.61131001  0.90495960  1
  Ca2+  Ca60  1  0.92898671  0.59640915  0.79821770  1
  Ca2+  Ca61  1  0.74633995  0.59456958  0.26889961  1
  Ca2+  Ca62  1  0.77936267  0.58768076  0.93357456  1
  Ca2+  Ca63  1  0.25730058  0.11521518  0.08530680  1
  Ca2+  Ca64  1  0.39197975  0.08900493  0.93446529  1
  Ca2+  Ca65  1  0.56611543  0.08210382  0.08223541  1
  Ca2+  Ca66  1  0.61436676  0.08497335  0.72083175  1
  Ca2+  Ca67  1  0.92106188  0.10957855  0.08706554  1
  Ca2+  Ca68  1  0.39903601  0.09805562  0.24075905  1
  Ca2+  Ca69  1  0.91157791  0.09827986  0.42176981  1
  Ca2+  Ca70  1  0.58179413  0.60090043  0.08775479  1
  Ca2+  Ca71  1  0.74160452  0.59790118  0.54821413  1
  Ca2+  Ca72  1  0.76036796  0.91495363  0.58248193  1
  Ca2+  Ca73  1  0.75860861  0.41578499  0.26659260  1
  Ca2+  Ca74  1  0.60573604  0.40873819  0.74037354  1
  Ca2+  Ca75  1  0.40064035  0.40844452  0.92303930  1
  Ca2+  Ca76  1  0.23111418  0.42331764  0.72072765  1
  Ca2+  Ca77  1  0.08971185  0.89131390  0.24327423  1
  Ca2+  Ca78  1  0.89563353  0.92082146  0.73789023  1
  Ca2+  Ca79  1  0.88623001  0.92333961  0.74139895  1
  Ca2+  Ca80  1  0.27458168  0.91381597  0.74226994  1
  Ca2+  Ca81  1  0.75455042  0.41240005  0.27484370  1
  Ca2+  Ca82  1  0.08951165  0.90359652  0.92350359  1
  Ca2+  Ca83  1  0.57443789  0.40289381  0.08639408  1
  Ca2+  Ca84  1  0.10169329  0.89157813  0.24216925  1
  Ca2+  Ca85  1  0.57842824  0.90152993  0.08767703  1
  Ca2+  Ca86  1  0.24070777  0.40396329  0.08792925  1
  Ca2+  Ca87  1  0.75126561  0.91234436  0.58626025  1
  Ca2+  Ca88  1  0.05344205  0.43639774  0.94334143  1
  Ca2+  Ca89  1  0.75117733  0.90713289  0.92505625  1
  Ca2+  Ca90  1  0.24184320  0.42264109  0.72044933  1
  Ca2+  Ca91  1  0.41304217  0.90764172  0.91858418  1
  Ca2+  Ca92  1  0.77281689  0.41340002  0.91615839  1
  Ca2+  Ca93  1  0.07793127  0.90320377  0.92313372  1
  Ca2+  Ca94  1  0.89911728  0.41065341  0.75286458  1
  Ca2+  Ca95  1  0.57707066  0.91353207  0.75132330  1
  Ca2+  Ca96  1  0.40993752  0.40411819  0.92432003  1
  Ca2+  Ca97  1  0.59037874  0.90177522  0.08797834  1
  Ca2+  Ca98  1  0.09170760  0.41951142  0.27728633  1
  Ca2+  Ca99  1  0.06392874  0.43434370  0.94617421  1
  Ca2+  Ca100  1  0.91452461  0.90449266  0.07489561  1
  Ca2+  Ca101  1  0.92051773  0.90166937  0.42903491  1
  Ca2+  Ca102  1  0.40495431  0.40637629  0.58465981  1
  Ca2+  Ca103  1  0.92128074  0.41240614  0.08113735  1
  Ca2+  Ca104  1  0.57995663  0.40984889  0.41504034  1
  Ca2+  Ca105  1  0.59260031  0.40962677  0.41488993  1
  Ca2+  Ca106  1  0.92776465  0.40444155  0.42073876  1
  Ca2+  Ca107  1  0.56491528  0.91117897  0.75336560  1
  Mn3.34+  Mn108  1  0.08471558  0.33533566  0.08904266  1
  Mn3.34+  Mn109  1  0.08439273  0.33878357  0.42072525  1
  Mn3.34+  Mn110  1  0.07882738  0.33448869  0.74965935  1
  Mn3.34+  Mn111  1  0.08487008  0.82395993  0.08571720  1
  Mn3.34+  Mn112  1  0.08720643  0.82954433  0.42201617  1
  Mn3.34+  Mn113  1  0.08849303  0.83393827  0.74604314  1
  Mn3.34+  Mn114  1  0.41355079  0.33341863  0.08900423  1
  Mn3.34+  Mn115  1  0.40985081  0.34042010  0.41620026  1
  Mn3.34+  Mn116  1  0.41818700  0.33210359  0.75257940  1
  Mn3.34+  Mn117  1  0.41225393  0.83156996  0.08338501  1
  Mn3.34+  Mn118  1  0.41659430  0.82840552  0.42056685  1
  Mn3.34+  Mn119  1  0.41390711  0.83494568  0.74683742  1
  Mn3.34+  Mn120  1  0.74745944  0.33189467  0.08346260  1
  Mn3.34+  Mn121  1  0.75491599  0.33180514  0.42383601  1
  Mn3.34+  Mn122  1  0.75304871  0.33439385  0.75018339  1
  Mn3.34+  Mn123  1  0.75242975  0.83152686  0.08804731  1
  Mn3.34+  Mn124  1  0.74888652  0.83949019  0.41134504  1
  Mn3.34+  Mn125  1  0.74509828  0.83043568  0.75621999  1
  Mn3.34+  Mn126  1  0.24704260  0.33449514  0.25283355  1
  Mn3.34+  Mn127  1  0.24716069  0.33523501  0.57723344  1
  Mn3.34+  Mn128  1  0.24352796  0.33239240  0.91156116  1
  Mn3.34+  Mn129  1  0.26734930  0.83532339  0.25528441  1
  Mn3.34+  Mn130  1  0.25383332  0.84098773  0.57969528  1
  Mn3.34+  Mn131  1  0.24950902  0.83207844  0.91437194  1
  Mn3.34+  Mn132  1  0.57953041  0.33384068  0.24863798  1
  Mn3.34+  Mn133  1  0.58358647  0.33295533  0.58390671  1
  Mn3.34+  Mn134  1  0.58932926  0.33290102  0.91354363  1
  Mn3.34+  Mn135  1  0.58259649  0.83733555  0.25905706  1
  Mn3.34+  Mn136  1  0.57598949  0.83161871  0.57493685  1
  Mn3.34+  Mn137  1  0.58402092  0.82811303  0.91244412  1
  Mn3.34+  Mn138  1  0.92232226  0.33006784  0.24883467  1
  Mn3.34+  Mn139  1  0.91151986  0.33149949  0.58334084  1
  Mn3.34+  Mn140  1  0.92047264  0.33191910  0.91488404  1
  Mn3.34+  Mn141  1  0.91050256  0.83331989  0.25049056  1
  Mn3.34+  Mn142  1  0.92448952  0.83704217  0.58294621  1
  Mn3.34+  Mn143  1  0.91468226  0.83067368  0.91315405  1
  Mn3.34+  Mn144  1  0.41014950  0.16536895  0.41694866  1
  Mn3.34+  Mn145  1  0.58387484  0.67528109  0.91684051  1
  Mn3.34+  Mn146  1  0.91892299  0.16600956  0.90878675  1
  Mn3.34+  Mn147  1  0.75758690  0.16927937  0.75303377  1
  Mn3.34+  Mn148  1  0.08338327  0.16804059  0.74874262  1
  Mn3.34+  Mn149  1  0.24109127  0.15878139  0.57624460  1
  Mn3.34+  Mn150  1  0.08567760  0.66248088  0.42150090  1
  Mn3.34+  Mn151  1  0.75062177  0.16431768  0.08166908  1
  Mn3.34+  Mn152  1  0.60223727  0.16306531  0.91137396  1
  Mn3.34+  Mn153  1  0.91380522  0.66551032  0.58865839  1
  Mn3.34+  Mn154  1  0.75374825  0.17007923  0.42415790  1
  Mn3.34+  Mn155  1  0.08769310  0.17334929  0.08021598  1
  Mn3.34+  Mn156  1  0.25463557  0.67052435  0.24847986  1
  Mn3.34+  Mn157  1  0.24295061  0.16886676  0.24811022  1
  Mn3.34+  Mn158  1  0.08492128  0.66656709  0.75419211  1
  Mn3.34+  Mn159  1  0.24598106  0.66450993  0.24593651  1
  Mn3.34+  Mn160  1  0.07867447  0.16812725  0.41580906  1
  Mn3.34+  Mn161  1  0.08647697  0.67216833  0.08680364  1
  Mn3.34+  Mn162  1  0.41207985  0.15952726  0.74897394  1
  Mn3.34+  Mn163  1  0.42226829  0.16460962  0.74858283  1
  Mn3.34+  Mn164  1  0.75440412  0.66736424  0.09137662  1
  Mn3.34+  Mn165  1  0.25575524  0.66697721  0.58144909  1
  Mn3.34+  Mn166  1  0.25297522  0.16458873  0.57862603  1
  Mn3.34+  Mn167  1  0.57342101  0.66545060  0.57856328  1
  Mn3.34+  Mn168  1  0.92746879  0.67122440  0.59036567  1
  Mn3.34+  Mn169  1  0.58706585  0.16843710  0.91082477  1
  Mn3.34+  Mn170  1  0.58351808  0.67026623  0.58132838  1
  Mn3.34+  Mn171  1  0.57938174  0.16630543  0.25468482  1
  Mn3.34+  Mn172  1  0.41600419  0.66540852  0.42168188  1
  Mn3.34+  Mn173  1  0.58908630  0.16064764  0.25384300  1
  Mn3.34+  Mn174  1  0.92164150  0.16202431  0.58169366  1
  Mn3.34+  Mn175  1  0.74830735  0.65059221  0.75884323  1
  Mn3.34+  Mn176  1  0.41037156  0.66845720  0.08150645  1
  Mn3.34+  Mn177  1  0.58257406  0.66894654  0.25764305  1
  Mn3.34+  Mn178  1  0.24704479  0.66720388  0.91392336  1
  Mn3.34+  Mn179  1  0.73395414  0.65581871  0.75777490  1
  Mn3.34+  Mn180  1  0.24803659  0.50142728  0.90844375  1
  Mn3.34+  Mn181  1  0.08383542  -0.00143602  0.07797531  1
  Mn3.34+  Mn182  1  0.75417957  0.50245367  0.08812376  1
  Mn3.34+  Mn183  1  0.91501551  -0.00701476  0.26232592  1
  Mn3.34+  Mn184  1  0.42112259  0.50163933  0.74183526  1
  Mn3.34+  Mn185  1  0.58026414  0.50943955  0.90135489  1
  Mn3.34+  Mn186  1  0.24369753  -0.00410991  0.91944084  1
  Mn3.34+  Mn187  1  0.59444745  0.50370035  0.89848325  1
  Mn3.34+  Mn188  1  0.08907455  -0.00077189  0.72996474  1
  Mn3.34+  Mn189  1  0.91556368  0.00529811  0.92392834  1
  Mn3.34+  Mn190  1  0.75031162  0.00043611  0.08717234  1
  Mn3.34+  Mn191  1  0.27303983  0.00022507  0.59524798  1
  Mn3.34+  Mn192  1  0.07177033  0.50330155  0.75335553  1
  Mn3.34+  Mn193  1  0.56654592  -0.00334110  0.57314465  1
  Mn3.34+  Mn194  1  0.41891196  -0.00250314  0.41975855  1
  Mn3.34+  Mn195  1  0.24879821  0.50101242  0.25332260  1
  Mn3.34+  Mn196  1  0.90387409  0.49766075  0.58503777  1
  Mn3.34+  Mn197  1  0.57776855  0.49989374  0.25420702  1
  Mn3.34+  Mn198  1  0.07958341  0.00516135  0.73110633  1
  Mn3.34+  Mn199  1  0.41305113  0.50216734  0.41325209  1
  Mn3.34+  Mn200  1  0.74320160  0.00646610  0.41733126  1
  Mn3.34+  Mn201  1  0.59377209  0.50090595  0.59481081  1
  Mn3.34+  Mn202  1  0.74396916  0.49683811  0.08844866  1
  Mn3.34+  Mn203  1  0.39819733  -0.00716310  0.08480021  1
  Mn3.34+  Mn204  1  0.59330181  0.00537835  0.92020048  1
  Mn3.34+  Mn205  1  0.41316687  0.50210737  0.07939532  1
  Mn3.34+  Mn206  1  0.24529972  0.00135228  0.24892721  1
  Mn3.34+  Mn207  1  0.55076805  -0.00597142  0.57802077  1
  Mn3.34+  Mn208  1  0.59172961  -0.00582278  0.27497073  1
  Mn3.34+  Mn209  1  0.58316940  0.50610238  0.59519779  1
  Mn3.34+  Mn210  1  0.92777086  0.00017195  0.26168395  1
  Mn3.34+  Mn211  1  0.89350182  0.50248108  0.58772959  1
  Mn3.34+  Mn212  1  0.92519375  0.49776745  0.24588054  1
  Mn3.34+  Mn213  1  0.08547602  0.00229927  0.43600675  1
  Mn3.34+  Mn214  1  0.40328056  -0.00246856  0.41860810  1
  Mn3.34+  Mn215  1  0.09779288  -0.00417708  0.43437568  1
  O2-  O216  1  0.00512000  0.15509128  -0.00985286  1
  O2-  O217  1  -0.00289236  0.15654009  0.34571377  1
  O2-  O218  1  -0.01059063  0.16055260  0.67393396  1
  O2-  O219  1  0.00405704  0.68728858  0.01156280  1
  O2-  O220  1  0.00568782  0.64839887  0.33918922  1
  O2-  O221  1  0.00239355  0.64231551  0.66655308  1
  O2-  O222  1  0.33513561  0.16621202  -0.00533088  1
  O2-  O223  1  0.32770986  0.15707790  0.33383040  1
  O2-  O224  1  0.33203397  0.14305554  0.65984206  1
  O2-  O225  1  0.32665749  0.64686020  0.00581849  1
  O2-  O226  1  0.33046197  0.65704326  0.33431756  1
  O2-  O227  1  0.32898566  0.66401997  0.66073533  1
  O2-  O228  1  0.65814985  0.14144499  0.01146776  1
  O2-  O229  1  0.66322822  0.15220069  0.34024459  1
  O2-  O230  1  0.67188566  0.16987874  0.67865253  1
  O2-  O231  1  0.66490448  0.66253767  0.00217603  1
  O2-  O232  1  0.66240284  0.66161676  0.33080277  1
  O2-  O233  1  0.66549028  0.64523699  0.66717127  1
  O2-  O234  1  0.16765291  0.18486120  0.00193388  1
  O2-  O235  1  0.16226275  0.15769082  0.33361221  1
  O2-  O236  1  0.16817021  0.14595497  0.66439813  1
  O2-  O237  1  0.16838569  0.67300352  0.00541126  1
  O2-  O238  1  0.16874340  0.64902548  0.33206455  1
  O2-  O239  1  0.16661803  0.64781882  0.66459802  1
  O2-  O240  1  0.50357012  0.14136433  -0.01532121  1
  O2-  O241  1  0.49214293  0.14906135  0.32894709  1
  O2-  O242  1  0.50943880  0.14581682  0.68166406  1
  O2-  O243  1  0.50125151  0.65410350  0.00357651  1
  O2-  O244  1  0.48980372  0.67011485  0.32796306  1
  O2-  O245  1  0.49755771  0.66453441  0.66017135  1
  O2-  O246  1  0.83695393  0.14938793  -0.00024823  1
  O2-  O247  1  0.83072095  0.15924346  0.34184062  1
  O2-  O248  1  0.83232198  0.17399023  0.66238852  1
  O2-  O249  1  0.83800794  0.65838467  0.01477817  1
  O2-  O250  1  0.83220885  0.65161535  0.33868706  1
  O2-  O251  1  0.82571416  0.66900223  0.67122828  1
  O2-  O252  1  0.00319871  0.34790721  -0.00153959  1
  O2-  O253  1  0.00218409  0.34576481  0.32802478  1
  O2-  O254  1  -0.01445206  0.34237678  0.67649971  1
  O2-  O255  1  -0.00119817  0.83686469  0.00085169  1
  O2-  O256  1  0.00341816  0.84566308  0.32873923  1
  O2-  O257  1  -0.01145354  0.85630765  0.68203338  1
  O2-  O258  1  0.32730945  0.33995664  -0.00191740  1
  O2-  O259  1  0.33862959  0.32255215  0.33219530  1
  O2-  O260  1  0.32686169  0.34597265  0.68000658  1
  O2-  O261  1  0.33413086  0.84495188  -0.00534394  1
  O2-  O262  1  0.33488845  0.79492096  0.33383897  1
  O2-  O263  1  0.33838021  0.84679435  0.66255185  1
  O2-  O264  1  0.67059232  0.35721223  -0.00328046  1
  O2-  O265  1  0.66720695  0.34713289  0.32690967  1
  O2-  O266  1  0.66792508  0.33400338  0.66936003  1
  O2-  O267  1  0.66516589  0.83363937  -0.00241430  1
  O2-  O268  1  0.66789126  0.84013631  0.33260463  1
  O2-  O269  1  0.66578160  0.86079033  0.66928408  1
  O2-  O270  1  0.16260758  0.33025689  -0.00234030  1
  O2-  O271  1  0.16696328  0.34443528  0.33473732  1
  O2-  O272  1  0.16156110  0.34769928  0.66650569  1
  O2-  O273  1  0.16246206  0.83422228  -0.00145562  1
  O2-  O274  1  0.17118314  0.83634964  0.33195913  1
  O2-  O275  1  0.17453671  0.85264952  0.67351933  1
  O2-  O276  1  0.49784463  0.34996965  -0.00342342  1
  O2-  O277  1  0.50752558  0.34407609  0.34184385  1
  O2-  O278  1  0.50202379  0.35070963  0.66623146  1
  O2-  O279  1  0.50594366  0.84265067  -0.00334971  1
  O2-  O280  1  0.49922722  0.81968757  0.33843206  1
  O2-  O281  1  0.50749935  0.84102125  0.67435597  1
  O2-  O282  1  0.83764211  0.34677284  0.00266584  1
  O2-  O283  1  0.83900362  0.34764588  0.33645525  1
  O2-  O284  1  0.83027220  0.30744099  0.66870203  1
  O2-  O285  1  0.83138189  0.83704587  -0.00557769  1
  O2-  O286  1  0.83995411  0.85233328  0.33803171  1
  O2-  O287  1  0.82537246  0.84171578  0.66881316  1
  O2-  O288  1  -0.00457727  0.18725902  0.14463234  1
  O2-  O289  1  -0.00032259  0.18522940  0.50504038  1
  O2-  O290  1  0.00432635  0.18403199  0.83400654  1
  O2-  O291  1  0.00681369  0.67676821  0.16422879  1
  O2-  O292  1  -0.00416342  0.68118371  0.49377815  1
  O2-  O293  1  0.00047130  0.68429155  0.82482339  1
  O2-  O294  1  0.32831646  0.17799083  0.17434620  1
  O2-  O295  1  0.32773900  0.18891124  0.49624513  1
  O2-  O296  1  0.33284981  0.17969996  0.82588492  1
  O2-  O297  1  0.33639496  0.68877591  0.17053186  1
  O2-  O298  1  0.32977576  0.68632402  0.49385233  1
  O2-  O299  1  0.32860449  0.67384388  0.83859410  1
  O2-  O300  1  0.67190188  0.17710679  0.17359917  1
  O2-  O301  1  0.67197849  0.17832194  0.50094756  1
  O2-  O302  1  0.67515240  0.19381060  0.83307009  1
  O2-  O303  1  0.65814480  0.67074954  0.16401485  1
  O2-  O304  1  0.66781316  0.67765042  0.50526394  1
  O2-  O305  1  0.66496175  0.69673326  0.83416862  1
  O2-  O306  1  0.16757351  0.18298721  0.16256498  1
  O2-  O307  1  0.16659448  0.18482526  0.49759906  1
  O2-  O308  1  0.16514237  0.18068096  0.82460303  1
  O2-  O309  1  0.16716293  0.69190097  0.16960969  1
  O2-  O310  1  0.16361791  0.67919306  0.50318722  1
  O2-  O311  1  0.17098357  0.68387961  0.82686184  1
  O2-  O312  1  0.50961658  0.17362214  0.16324536  1
  O2-  O313  1  0.49557878  0.18931685  0.48054187  1
  O2-  O314  1  0.49938932  0.19218978  0.83660047  1
  O2-  O315  1  0.50233349  0.67822378  0.15925693  1
  O2-  O316  1  0.50073510  0.68969605  0.49413534  1
  O2-  O317  1  0.49629569  0.69223571  0.85448146  1
  O2-  O318  1  0.83446256  0.17593701  0.15455698  1
  O2-  O319  1  0.83805917  0.18555846  0.50301195  1
  O2-  O320  1  0.83971861  0.18775586  0.82967592  1
  O2-  O321  1  0.82438864  0.66609538  0.17302294  1
  O2-  O322  1  0.83614817  0.67763515  0.50703017  1
  O2-  O323  1  0.82693260  0.68080782  0.83222349  1
  O2-  O324  1  -0.00415719  0.31931752  0.15899741  1
  O2-  O325  1  -0.00575337  0.31847002  0.49778333  1
  O2-  O326  1  0.00317273  0.31726001  0.83667757  1
  O2-  O327  1  0.00396834  0.81537694  0.16994466  1
  O2-  O328  1  -0.00436492  0.81685497  0.49378710  1
  O2-  O329  1  0.00601734  0.82013080  0.84320275  1
  O2-  O330  1  0.32521837  0.32513293  0.16137830  1
  O2-  O331  1  0.33802541  0.31810169  0.50634814  1
  O2-  O332  1  0.33849450  0.31267790  0.84539715  1
  O2-  O333  1  0.33636902  0.81395285  0.16680362  1
  O2-  O334  1  0.33395984  0.81410320  0.50050739  1
  O2-  O335  1  0.32790186  0.83159230  0.82920829  1
  O2-  O336  1  0.65864260  0.32323738  0.16207097  1
  O2-  O337  1  0.66300721  0.32545425  0.49447116  1
  O2-  O338  1  0.66965481  0.31299109  0.82940576  1
  O2-  O339  1  0.66064960  0.82996713  0.15831179  1
  O2-  O340  1  0.67318111  0.83183886  0.50774912  1
  O2-  O341  1  0.66119790  0.81027768  0.82914991  1
  O2-  O342  1  0.16566711  0.31431060  0.16128216  1
  O2-  O343  1  0.16617519  0.31923297  0.49992114  1
  O2-  O344  1  0.16833303  0.31617949  0.82887301  1
  O2-  O345  1  0.16235701  0.81208300  0.17192972  1
  O2-  O346  1  0.16685950  0.82127958  0.50284103  1
  O2-  O347  1  0.15968594  0.82070410  0.84072850  1
  O2-  O348  1  0.49922459  0.32440107  0.16733261  1
  O2-  O349  1  0.50300904  0.32503785  0.49736785  1
  O2-  O350  1  0.49748705  0.32446633  0.83822158  1
  O2-  O351  1  0.50439035  0.82247286  0.15747208  1
  O2-  O352  1  0.50040540  0.80324274  0.50144971  1
  O2-  O353  1  0.49784446  0.82265149  0.83464388  1
  O2-  O354  1  0.82639454  0.32167708  0.17544821  1
  O2-  O355  1  0.83369921  0.31025499  0.49899461  1
  O2-  O356  1  0.83742745  0.31982922  0.83191045  1
  O2-  O357  1  0.84046375  0.82973432  0.15894471  1
  O2-  O358  1  0.83440514  0.82703010  0.50483329  1
  O2-  O359  1  0.83360684  0.80574026  0.83302870  1
  O2-  O360  1  0.06604087  0.08059038  0.09664194  1
  O2-  O361  1  0.08735926  0.08301247  0.45305968  1
  O2-  O362  1  0.09561549  0.07995639  0.78372160  1
  O2-  O363  1  0.08520668  0.58856747  0.09733319  1
  O2-  O364  1  0.08508141  0.58113482  0.45679991  1
  O2-  O365  1  0.07320919  0.58389829  0.78338665  1
  O2-  O366  1  0.41769365  0.07547087  0.11059907  1
  O2-  O367  1  0.42110594  0.07725505  0.45949814  1
  O2-  O368  1  0.41696268  0.08291329  0.79970619  1
  O2-  O369  1  0.43344092  0.58110284  0.11859922  1
  O2-  O370  1  0.40264355  0.58023086  0.44225675  1
  O2-  O371  1  0.41517745  0.57074407  0.78546093  1
  O2-  O372  1  0.75017749  0.07962192  0.12055060  1
  O2-  O373  1  0.75665477  0.08500031  0.45395149  1
  O2-  O374  1  0.74988643  0.08461380  0.75390774  1
  O2-  O375  1  0.72352427  0.58243218  0.10513298  1
  O2-  O376  1  0.81321975  0.54058767  0.47114053  1
  O2-  O377  1  0.75250328  0.57530790  0.80430031  1
  O2-  O378  1  0.25282531  0.08231858  0.21748735  1
  O2-  O379  1  0.25551706  0.07865321  0.53646345  1
  O2-  O380  1  0.25261027  0.07621439  0.89546280  1
  O2-  O381  1  0.25665148  0.57866708  0.19957856  1
  O2-  O382  1  0.24569802  0.58287684  0.55537931  1
  O2-  O383  1  0.24361014  0.58299601  0.89461873  1
  O2-  O384  1  0.57548115  0.07321574  0.21550730  1
  O2-  O385  1  0.58934282  0.07844305  0.57461540  1
  O2-  O386  1  0.59505754  0.08371131  0.85964232  1
  O2-  O387  1  0.57112145  0.58185685  0.22808674  1
  O2-  O388  1  0.59065215  0.58107115  0.54102229  1
  O2-  O389  1  0.58388528  0.58991988  0.88832734  1
  O2-  O390  1  0.90629977  0.07376184  0.21353162  1
  O2-  O391  1  0.90214139  0.08446830  0.56504989  1
  O2-  O392  1  0.92218677  0.08392332  0.87771117  1
  O2-  O393  1  0.93041885  0.56067850  0.18268630  1
  O2-  O394  1  0.92308009  0.58447574  0.55311217  1
  O2-  O395  1  0.91351077  0.57733986  0.92076029  1
  O2-  O396  1  0.08964372  0.41410783  0.10091566  1
  O2-  O397  1  0.06855514  0.41781208  0.42628171  1
  O2-  O398  1  0.09547932  0.42290285  0.79336103  1
  O2-  O399  1  0.08402548  0.91738061  0.11227905  1
  O2-  O400  1  0.07783060  0.91469650  0.44054172  1
  O2-  O401  1  0.08373566  0.92543792  0.78949472  1
  O2-  O402  1  0.41003294  0.41951619  0.09145255  1
  O2-  O403  1  0.43789052  0.42598126  0.45389877  1
  O2-  O404  1  0.41484214  0.42743920  0.79126699  1
  O2-  O405  1  0.43996625  0.91487143  0.09361533  1
  O2-  O406  1  0.41357959  0.91481205  0.42901894  1
  O2-  O407  1  0.43165790  0.91803234  0.78216123  1
  O2-  O408  1  0.75731211  0.41933320  0.12947350  1
  O2-  O409  1  0.73631313  0.41618597  0.41546332  1
  O2-  O410  1  0.75238690  0.41250616  0.77962414  1
  O2-  O411  1  0.73733087  0.91687713  0.08590873  1
  O2-  O412  1  0.75878831  0.92584274  0.44615440  1
  O2-  O413  1  0.75878327  0.91620571  0.79250005  1
  O2-  O414  1  0.23573820  0.42109544  0.22458352  1
  O2-  O415  1  0.26075916  0.41630771  0.57851457  1
  O2-  O416  1  0.26689386  0.42122451  0.87192368  1
  O2-  O417  1  0.23296956  0.91884689  0.22535953  1
  O2-  O418  1  0.26010887  0.92459914  0.55663928  1
  O2-  O419  1  0.23180632  0.91652369  0.88767782  1
  O2-  O420  1  0.58798323  0.42028264  0.22245614  1
  O2-  O421  1  0.58928922  0.42210120  0.54802571  1
  O2-  O422  1  0.58345294  0.42271489  0.87535700  1
  O2-  O423  1  0.57591942  0.92134878  0.22093696  1
  O2-  O424  1  0.55931925  0.91352187  0.54598248  1
  O2-  O425  1  0.59982427  0.92147501  0.88495419  1
  O2-  O426  1  0.91390153  0.41938806  0.21978874  1
  O2-  O427  1  0.89454764  0.41745015  0.55429752  1
  O2-  O428  1  0.92606801  0.41643515  0.88831970  1
  O2-  O429  1  0.93828305  0.91869489  0.21270922  1
  O2-  O430  1  0.90551727  0.91707173  0.56368195  1
  O2-  O431  1  0.91246659  0.92189749  0.87772038  1
  O2-  O432  1  -0.00077085  -0.02822472  -0.00176531  1
  O2-  O433  1  -0.00258036  -0.00371280  0.35460001  1
  O2-  O434  1  -0.03473880  0.00480271  0.71677763  1
  O2-  O435  1  -0.00961791  0.49286674  0.02525114  1
  O2-  O436  1  -0.01403488  0.51451554  0.33353091  1
  O2-  O437  1  0.01757612  0.50530798  0.63815049  1
  O2-  O438  1  0.34389364  -0.00427601  -0.02542744  1
  O2-  O439  1  0.33286969  0.01628089  0.33328259  1
  O2-  O440  1  0.31899964  0.00675729  0.69337168  1
  O2-  O441  1  0.34365256  0.49556581  -0.01741851  1
  O2-  O442  1  0.33422828  0.51594540  0.32655874  1
  O2-  O443  1  0.32803421  0.49911437  0.68689955  1
  O2-  O444  1  0.63853439  0.00052820  0.04076276  1
  O2-  O445  1  0.67269737  0.03163769  0.33334498  1
  O2-  O446  1  0.66325348  -0.01349315  0.64542999  1
  O2-  O447  1  0.67197206  0.49834001  -0.01007832  1
  O2-  O448  1  0.67721322  0.49791599  0.30039109  1
  O2-  O449  1  0.66349751  0.49820188  0.68347106  1
  O2-  O450  1  0.14180681  0.00016107  -0.03057133  1
  O2-  O451  1  0.16575963  0.00699903  0.34000096  1
  O2-  O452  1  0.16607862  0.00830366  0.64817568  1
  O2-  O453  1  0.17155180  0.48632686  -0.00729448  1
  O2-  O454  1  0.15088919  0.51264274  0.29756306  1
  O2-  O455  1  0.17311558  0.51013780  0.68721303  1
  O2-  O456  1  0.49263625  0.02313636  -0.01265499  1
  O2-  O457  1  0.50106812  0.01265030  0.34611623  1
  O2-  O458  1  0.52349417  0.00137919  0.69718248  1
  O2-  O459  1  0.51201389  0.50095383  0.00182380  1
  O2-  O460  1  0.51493283  0.49661910  0.35197651  1
  O2-  O461  1  0.49043301  0.47767897  0.65872940  1
  O2-  O462  1  0.84524488  -0.00020755  0.02312550  1
  O2-  O463  1  0.83801263  0.01280106  0.34527131  1
  O2-  O464  1  0.81888198  -0.01955968  0.65931851  1
  O2-  O465  1  0.82946945  0.49057230  0.00340727  1
  O2-  O466  1  0.82597136  0.50461824  0.29548081  1
  O2-  O467  1  0.85987978  0.50542610  0.69644244  1
  O2-  O468  1  0.74210716  0.25102024  0.39005492  1
  O2-  O469  1  0.25921192  0.75085445  0.93382669  1
  O2-  O470  1  0.60621529  0.75196316  0.61493193  1
  O2-  O471  1  0.08255410  0.25041273  0.39294199  1
  O2-  O472  1  0.59280460  0.75119730  0.25563765  1
  O2-  O473  1  0.91869244  0.25266158  0.26922145  1
  O2-  O474  1  0.08622953  0.74660310  0.39427060  1
  O2-  O475  1  0.08463114  0.25037493  0.71952744  1
  O2-  O476  1  0.42190032  0.25536900  0.07211326  1
  O2-  O477  1  0.90487260  0.75474170  0.26763351  1
  O2-  O478  1  0.91687081  0.24956845  0.94626271  1
  O2-  O479  1  0.41483275  0.74930035  0.05015937  1
  O2-  O480  1  0.75179986  0.74936845  0.07454210  1
  O2-  O481  1  0.24393464  0.75303561  0.60644340  1
  O2-  O482  1  0.92627965  0.75277169  0.61529108  1
  O2-  O483  1  0.42134241  0.24442496  0.71228882  1
  O2-  O484  1  0.58144522  0.24632450  0.95522141  1
  O2-  O485  1  0.58341240  0.25032869  0.27664707  1
  O2-  O486  1  0.40735639  0.75536335  0.73564296  1
  O2-  O487  1  0.57840039  0.25471777  0.59809433  1
  O2-  O488  1  0.74281867  0.24626890  0.05455023  1
  O2-  O489  1  0.75349987  0.75883543  0.40489746  1
  O2-  O490  1  0.08061757  0.75004495  0.71732980  1
  O2-  O491  1  0.24644570  0.25017694  0.26933630  1
  O2-  O492  1  0.24260015  0.24588369  0.61297338  1
