# generated using pymatgen
data_Ca108Mn108O277
_symmetry_space_group_name_H-M   'P 1'
_cell_length_a   16.03066167
_cell_length_b   22.31115602
_cell_length_c   16.39168305
_cell_angle_alpha   89.99331893
_cell_angle_beta   89.99799780
_cell_angle_gamma   90.00249156
_symmetry_Int_Tables_number   1
_chemical_formula_structural   Ca108Mn108O277
_chemical_formula_sum   'Ca108 Mn108 O277'
_cell_volume   5862.69182340
_cell_formula_units_Z   1
loop_
 _symmetry_equiv_pos_site_id
 _symmetry_equiv_pos_as_xyz
  1  'x, y, z'
loop_
 _atom_type_symbol
 _atom_type_oxidation_number
  Ca2+  2.0
  Mn3.34+  3.34
  O2-  -2.0
loop_
 _atom_site_type_symbol
 _atom_site_label
 _atom_site_symmetry_multiplicity
 _atom_site_fract_x
 _atom_site_fract_y
 _atom_site_fract_z
 _atom_site_occupancy
  Ca2+  Ca0  1  0.08648570  0.25315488  0.25658845  1
  Ca2+  Ca1  1  0.05799050  0.24701963  0.57631751  1
  Ca2+  Ca2  1  0.06163790  0.24580668  0.91680924  1
  Ca2+  Ca3  1  0.08751258  0.74412434  0.24129030  1
  Ca2+  Ca4  1  0.08615354  0.74453749  0.59793003  1
  Ca2+  Ca5  1  0.09087530  0.75106562  0.90472191  1
  Ca2+  Ca6  1  0.42515908  0.24094270  0.26257654  1
  Ca2+  Ca7  1  0.43252013  0.24612936  0.56488586  1
  Ca2+  Ca8  1  0.42017916  0.25588145  0.91941468  1
  Ca2+  Ca9  1  0.41511729  0.76379516  0.24424184  1
  Ca2+  Ca10  1  0.42012514  0.74698138  0.59630222  1
  Ca2+  Ca11  1  0.40499312  0.74938140  0.89976011  1
  Ca2+  Ca12  1  0.72764224  0.24870281  0.25408455  1
  Ca2+  Ca13  1  0.77209443  0.24681047  0.57409747  1
  Ca2+  Ca14  1  0.76816610  0.24728235  0.92977925  1
  Ca2+  Ca15  1  0.75957679  0.75309708  0.22788942  1
  Ca2+  Ca16  1  0.76050044  0.75089505  0.59250888  1
  Ca2+  Ca17  1  0.75379851  0.75013186  0.92077648  1
  Ca2+  Ca18  1  0.24563532  0.25824083  0.09423842  1
  Ca2+  Ca19  1  0.27448811  0.24804618  0.40963598  1
  Ca2+  Ca20  1  0.24846823  0.26138907  0.74402636  1
  Ca2+  Ca21  1  0.22722915  0.75537571  0.08229910  1
  Ca2+  Ca22  1  0.23408664  0.74477206  0.41976750  1
  Ca2+  Ca23  1  0.23442575  0.75477429  0.74557553  1
  Ca2+  Ca24  1  0.58316335  0.24810593  0.11596793  1
  Ca2+  Ca25  1  0.56636735  0.23795190  0.40109799  1
  Ca2+  Ca26  1  0.57678235  0.24997633  0.73858479  1
  Ca2+  Ca27  1  0.60814761  0.74776880  0.08519089  1
  Ca2+  Ca28  1  0.59510681  0.75970263  0.41965469  1
  Ca2+  Ca29  1  0.58258783  0.76045135  0.74627739  1
  Ca2+  Ca30  1  0.91333999  0.26114303  0.08172896  1
  Ca2+  Ca31  1  0.91624249  0.25720691  0.43101006  1
  Ca2+  Ca32  1  0.92495505  0.25212750  0.73926792  1
  Ca2+  Ca33  1  0.93071991  0.73099928  0.08559209  1
  Ca2+  Ca34  1  0.92734850  0.74464620  0.42821742  1
  Ca2+  Ca35  1  0.93519561  0.73534738  0.73622081  1
  Ca2+  Ca36  1  0.23303141  0.61105162  0.73697043  1
  Ca2+  Ca37  1  0.07056074  0.09694697  0.91413731  1
  Ca2+  Ca38  1  0.55253106  0.11502529  0.11353218  1
  Ca2+  Ca39  1  0.38353898  0.59467356  0.58889984  1
  Ca2+  Ca40  1  0.23992825  0.59571604  0.08767772  1
  Ca2+  Ca41  1  0.91385372  0.10237839  0.44032129  1
  Ca2+  Ca42  1  0.25800028  0.11168553  0.10143861  1
  Ca2+  Ca43  1  0.41532023  0.08734126  0.90926814  1
  Ca2+  Ca44  1  0.23876981  0.61473161  0.73019132  1
  Ca2+  Ca45  1  0.92085351  0.09390520  0.76275730  1
  Ca2+  Ca46  1  0.57878619  0.58435833  0.41177359  1
  Ca2+  Ca47  1  0.22825009  0.59642928  0.09235596  1
  Ca2+  Ca48  1  0.08255545  0.59360282  0.26047182  1
  Ca2+  Ca49  1  0.76542334  0.60200230  0.60268507  1
  Ca2+  Ca50  1  0.41735128  0.57437737  0.25634013  1
  Ca2+  Ca51  1  0.41365921  0.08390759  0.28482862  1
  Ca2+  Ca52  1  0.59165334  0.59889818  0.74604244  1
  Ca2+  Ca53  1  0.68975341  0.09448793  0.25347123  1
  Ca2+  Ca54  1  0.45484325  0.07016891  0.58344526  1
  Ca2+  Ca55  1  0.56169668  0.08751979  0.39786722  1
  Ca2+  Ca56  1  0.72390051  0.07327409  0.59535679  1
  Ca2+  Ca57  1  0.11073470  0.60528267  0.57934020  1
  Ca2+  Ca58  1  0.45193144  0.06734276  0.57462233  1
  Ca2+  Ca59  1  0.40480471  0.57423290  0.25700053  1
  Ca2+  Ca60  1  0.90642821  0.10381430  0.03788728  1
  Ca2+  Ca61  1  0.41280894  0.59166780  0.89957234  1
  Ca2+  Ca62  1  0.92942440  0.09631647  0.75783404  1
  Ca2+  Ca63  1  0.74439008  0.58812789  0.93795249  1
  Ca2+  Ca64  1  0.06365205  0.08686820  0.59900378  1
  Ca2+  Ca65  1  0.92521563  0.10134644  0.43918055  1
  Ca2+  Ca66  1  0.37365846  0.59430187  0.59113115  1
  Ca2+  Ca67  1  0.08868897  0.60832283  0.90603334  1
  Ca2+  Ca68  1  0.73340532  0.07547010  0.59897785  1
  Ca2+  Ca69  1  0.25733879  0.08219800  0.74533504  1
  Ca2+  Ca70  1  0.57890944  0.59922195  0.74529933  1
  Ca2+  Ca71  1  0.26996560  0.11213391  0.10263101  1
  Ca2+  Ca72  1  0.08277867  0.39000492  0.91430818  1
  Ca2+  Ca73  1  0.92370366  0.90147829  0.08357655  1
  Ca2+  Ca74  1  0.75731938  0.40053356  0.58518709  1
  Ca2+  Ca75  1  0.25461988  0.41880728  0.72159529  1
  Ca2+  Ca76  1  0.55536752  0.93098209  0.42612084  1
  Ca2+  Ca77  1  0.75548246  0.40211475  0.24548999  1
  Ca2+  Ca78  1  0.08990067  0.90365280  0.90260476  1
  Ca2+  Ca79  1  0.58488412  0.90588876  0.09403690  1
  Ca2+  Ca80  1  0.92664642  0.40767329  0.41586027  1
  Ca2+  Ca81  1  0.42974915  0.92391954  0.27167601  1
  Ca2+  Ca82  1  0.57876633  0.40077881  0.08810493  1
  Ca2+  Ca83  1  0.42210897  0.40499589  0.93085256  1
  Ca2+  Ca84  1  0.26610216  0.40564757  0.08641756  1
  Ca2+  Ca85  1  0.91163229  0.90029386  0.08170679  1
  Ca2+  Ca86  1  0.72796463  0.91089059  0.27151609  1
  Ca2+  Ca87  1  0.11116041  0.91352981  0.25851874  1
  Ca2+  Ca88  1  0.74632544  0.40687786  0.92775773  1
  Ca2+  Ca89  1  0.42210825  0.41210721  0.27311788  1
  Ca2+  Ca90  1  0.27649612  0.92282216  0.39824131  1
  Ca2+  Ca91  1  0.26842357  0.92577182  0.39308918  1
  Ca2+  Ca92  1  0.74756353  0.90878133  0.90489590  1
  Ca2+  Ca93  1  0.59051501  0.40533662  0.75755462  1
  Ca2+  Ca94  1  0.10162904  0.90914402  0.25963272  1
  Ca2+  Ca95  1  0.92397548  0.41114935  0.73456176  1
  Ca2+  Ca96  1  0.57771445  0.40535557  0.75730484  1
  Ca2+  Ca97  1  0.40541005  0.90748038  0.89874023  1
  Ca2+  Ca98  1  0.57293519  0.93751980  0.70947320  1
  Ca2+  Ca99  1  0.08845185  0.40529164  0.25779808  1
  Ca2+  Ca100  1  0.40032507  0.40648668  0.56603772  1
  Ca2+  Ca101  1  0.93018914  0.91088572  0.74179658  1
  Ca2+  Ca102  1  0.74639884  0.91186219  0.58994192  1
  Ca2+  Ca103  1  0.58350407  0.93809508  0.70903208  1
  Ca2+  Ca104  1  0.57231717  0.90548149  0.09430961  1
  Ca2+  Ca105  1  0.09387782  0.41084492  0.58276246  1
  Ca2+  Ca106  1  0.91845060  0.90091708  0.42374436  1
  Ca2+  Ca107  1  0.41731124  0.90898317  0.90229597  1
  Mn3.34+  Mn108  1  0.08362986  0.33056857  0.08762280  1
  Mn3.34+  Mn109  1  0.08922283  0.33279074  0.41866757  1
  Mn3.34+  Mn110  1  0.08514255  0.33128136  0.74940426  1
  Mn3.34+  Mn111  1  0.08588847  0.83239070  0.07977343  1
  Mn3.34+  Mn112  1  0.08695236  0.83292924  0.42597372  1
  Mn3.34+  Mn113  1  0.08744378  0.83916445  0.74158914  1
  Mn3.34+  Mn114  1  0.41743681  0.33231007  0.09103418  1
  Mn3.34+  Mn115  1  0.41778231  0.33632149  0.41815648  1
  Mn3.34+  Mn116  1  0.41521697  0.32821368  0.74752488  1
  Mn3.34+  Mn117  1  0.41198978  0.83142900  0.07967375  1
  Mn3.34+  Mn118  1  0.41667525  0.83278186  0.42579620  1
  Mn3.34+  Mn119  1  0.40618178  0.84730439  0.73466835  1
  Mn3.34+  Mn120  1  0.75030364  0.33546592  0.08871891  1
  Mn3.34+  Mn121  1  0.74824923  0.33297653  0.41652178  1
  Mn3.34+  Mn122  1  0.75290070  0.33122678  0.75341395  1
  Mn3.34+  Mn123  1  0.75117528  0.83375695  0.08123599  1
  Mn3.34+  Mn124  1  0.75126768  0.83377246  0.42342126  1
  Mn3.34+  Mn125  1  0.74825130  0.84052450  0.75240607  1
  Mn3.34+  Mn126  1  0.25326631  0.33680868  0.25340617  1
  Mn3.34+  Mn127  1  0.24807364  0.33657243  0.57551746  1
  Mn3.34+  Mn128  1  0.25089156  0.32903335  0.91643314  1
  Mn3.34+  Mn129  1  0.25607437  0.83187443  0.24615239  1
  Mn3.34+  Mn130  1  0.25311669  0.83168491  0.58036599  1
  Mn3.34+  Mn131  1  0.24944220  0.83415481  0.91323878  1
  Mn3.34+  Mn132  1  0.58240084  0.33540221  0.25715640  1
  Mn3.34+  Mn133  1  0.58604371  0.33135805  0.57467760  1
  Mn3.34+  Mn134  1  0.58570432  0.32818006  0.92047876  1
  Mn3.34+  Mn135  1  0.58223366  0.83285209  0.25448842  1
  Mn3.34+  Mn136  1  0.58242795  0.83234578  0.57923583  1
  Mn3.34+  Mn137  1  0.58239039  0.83564417  0.90745077  1
  Mn3.34+  Mn138  1  0.91799427  0.33555461  0.25021743  1
  Mn3.34+  Mn139  1  0.91898170  0.33671501  0.58251744  1
  Mn3.34+  Mn140  1  0.91403513  0.33258774  0.91340989  1
  Mn3.34+  Mn141  1  0.91775948  0.83358569  0.25318578  1
  Mn3.34+  Mn142  1  0.92019346  0.83139185  0.58329202  1
  Mn3.34+  Mn143  1  0.91625064  0.83471572  0.90678963  1
  Mn3.34+  Mn144  1  0.24715520  0.66907219  0.25270782  1
  Mn3.34+  Mn145  1  0.58819068  0.66607793  0.24869132  1
  Mn3.34+  Mn146  1  0.08052565  0.16953675  0.75081451  1
  Mn3.34+  Mn147  1  0.74263466  0.16041347  0.75771797  1
  Mn3.34+  Mn148  1  0.41542783  0.66500694  0.08055650  1
  Mn3.34+  Mn149  1  0.58835231  0.16393379  0.91905821  1
  Mn3.34+  Mn150  1  0.74973756  0.17381030  0.08666744  1
  Mn3.34+  Mn151  1  0.41953960  0.16497541  0.74745834  1
  Mn3.34+  Mn152  1  0.41188263  0.66624540  0.41837098  1
  Mn3.34+  Mn153  1  0.91746414  0.66247917  0.25404093  1
  Mn3.34+  Mn154  1  0.58704135  0.67040166  0.57725401  1
  Mn3.34+  Mn155  1  0.58914666  0.67453421  0.91481217  1
  Mn3.34+  Mn156  1  0.90810335  0.67305343  0.91415451  1
  Mn3.34+  Mn157  1  0.57916367  0.66920704  0.91428105  1
  Mn3.34+  Mn158  1  0.25576526  0.16970186  0.91076842  1
  Mn3.34+  Mn159  1  0.42133748  0.67178075  0.41633920  1
  Mn3.34+  Mn160  1  0.24590411  0.17954120  0.91442382  1
  Mn3.34+  Mn161  1  0.08230704  0.17142811  0.08633811  1
  Mn3.34+  Mn162  1  0.58535514  0.16684029  0.57751307  1
  Mn3.34+  Mn163  1  0.92107956  0.66564659  0.91221371  1
  Mn3.34+  Mn164  1  0.58098324  0.17107572  0.91942734  1
  Mn3.34+  Mn165  1  0.08529295  0.66579634  0.42148993  1
  Mn3.34+  Mn166  1  0.92150462  0.66414969  0.58358921  1
  Mn3.34+  Mn167  1  0.90751092  0.65747800  0.25340433  1
  Mn3.34+  Mn168  1  0.08751529  0.16884424  0.41577831  1
  Mn3.34+  Mn169  1  0.24390164  0.16056614  0.57807278  1
  Mn3.34+  Mn170  1  0.75385593  0.66453230  0.42593932  1
  Mn3.34+  Mn171  1  0.25202337  0.16676760  0.58049469  1
  Mn3.34+  Mn172  1  0.74728119  0.16757527  0.42216096  1
  Mn3.34+  Mn173  1  0.91979724  0.16368000  0.24655461  1
  Mn3.34+  Mn174  1  0.42812638  0.65824824  0.08338264  1
  Mn3.34+  Mn175  1  0.24915492  0.16063464  0.26090121  1
  Mn3.34+  Mn176  1  0.90963003  0.16867615  0.24970205  1
  Mn3.34+  Mn177  1  0.60155387  0.65884601  0.24806410  1
  Mn3.34+  Mn178  1  0.25342334  0.66947090  0.91227006  1
  Mn3.34+  Mn179  1  0.75201536  0.16615474  0.75398862  1
  Mn3.34+  Mn180  1  0.91036701  0.50460098  0.90237858  1
  Mn3.34+  Mn181  1  0.24530213  -0.00026990  0.90349414  1
  Mn3.34+  Mn182  1  0.75181637  0.50007543  0.07532820  1
  Mn3.34+  Mn183  1  0.58755202  0.49958665  0.25133146  1
  Mn3.34+  Mn184  1  0.73882168  0.00305585  0.08973909  1
  Mn3.34+  Mn185  1  0.23378933  -0.00426224  0.59468798  1
  Mn3.34+  Mn186  1  0.08412050  0.50150715  0.40837734  1
  Mn3.34+  Mn187  1  0.08585299  0.49698170  0.74204804  1
  Mn3.34+  Mn188  1  0.24690268  -0.00948748  0.59756195  1
  Mn3.34+  Mn189  1  0.57886330  0.49667125  0.57126397  1
  Mn3.34+  Mn190  1  0.92030371  -0.00868200  0.60123944  1
  Mn3.34+  Mn191  1  0.09019668  -0.00114428  0.42059181  1
  Mn3.34+  Mn192  1  0.25708111  0.50339504  0.91962797  1
  Mn3.34+  Mn193  1  0.92277434  0.01011697  0.25400202  1
  Mn3.34+  Mn194  1  0.08470281  0.00756818  0.08350706  1
  Mn3.34+  Mn195  1  0.75285875  0.00806346  0.08502103  1
  Mn3.34+  Mn196  1  0.41821117  0.00430314  0.08359169  1
  Mn3.34+  Mn197  1  0.57194896  0.50200513  0.93278616  1
  Mn3.34+  Mn198  1  0.24439856  0.49730861  0.26612100  1
  Mn3.34+  Mn199  1  0.59350091  0.50224761  0.57331169  1
  Mn3.34+  Mn200  1  0.91837952  0.49450915  0.25064428  1
  Mn3.34+  Mn201  1  0.41817012  0.49657393  0.75287895  1
  Mn3.34+  Mn202  1  0.59195018  -0.00057179  0.91107998  1
  Mn3.34+  Mn203  1  0.91447443  -0.00385163  0.91564406  1
  Mn3.34+  Mn204  1  0.90881763  0.00386874  0.25349159  1
  Mn3.34+  Mn205  1  0.06876859  0.49830139  0.08659499  1
  Mn3.34+  Mn206  1  0.91836173  0.50409837  0.58757023  1
  Mn3.34+  Mn207  1  0.24254148  0.49766204  0.91730265  1
  Mn3.34+  Mn208  1  0.75995911  0.50527436  0.41289608  1
  Mn3.34+  Mn209  1  0.92144160  0.50023836  0.90031046  1
  Mn3.34+  Mn210  1  0.75603895  0.50246532  0.74842888  1
  Mn3.34+  Mn211  1  0.74338491  0.00086892  0.41646729  1
  Mn3.34+  Mn212  1  0.09749537  0.00041560  0.08319332  1
  Mn3.34+  Mn213  1  0.05495037  0.49690664  0.08588482  1
  Mn3.34+  Mn214  1  0.74742497  0.49846538  0.41412926  1
  Mn3.34+  Mn215  1  0.40408977  -0.00201096  0.08321132  1
  O2-  O216  1  0.00976255  0.16318851  0.00031991  1
  O2-  O217  1  -0.00314721  0.14191198  0.32828698  1
  O2-  O218  1  -0.00339248  0.15613459  0.67486907  1
  O2-  O219  1  -0.00353031  0.65422861  -0.00648382  1
  O2-  O220  1  -0.00761533  0.64977276  0.33827707  1
  O2-  O221  1  0.00291669  0.65381197  0.65471340  1
  O2-  O222  1  0.33202653  0.17312716  -0.00017501  1
  O2-  O223  1  0.33119937  0.16950536  0.32840413  1
  O2-  O224  1  0.31542647  0.16454091  0.67513780  1
  O2-  O225  1  0.33373902  0.64212442  -0.00200174  1
  O2-  O226  1  0.34137944  0.65478061  0.32590667  1
  O2-  O227  1  0.33783126  0.66515163  0.67267091  1
  O2-  O228  1  0.66748497  0.16025115  0.00059048  1
  O2-  O229  1  0.66059672  0.15790470  0.35206038  1
  O2-  O230  1  0.65813305  0.14494303  0.67965312  1
  O2-  O231  1  0.66720938  0.66253398  -0.00749617  1
  O2-  O232  1  0.66175275  0.66065531  0.34872675  1
  O2-  O233  1  0.65992267  0.65585134  0.66349258  1
  O2-  O234  1  0.17285913  0.15379927  -0.00016336  1
  O2-  O235  1  0.16829756  0.18120553  0.33341411  1
  O2-  O236  1  0.16285362  0.15159279  0.66056412  1
  O2-  O237  1  0.17504165  0.65063023  -0.00442106  1
  O2-  O238  1  0.16357619  0.65804049  0.32996991  1
  O2-  O239  1  0.16937289  0.67839170  0.66513900  1
  O2-  O240  1  0.50216245  0.18119167  0.00144898  1
  O2-  O241  1  0.49655149  0.16075390  0.32522496  1
  O2-  O242  1  0.49401644  0.14994439  0.65385865  1
  O2-  O243  1  0.49991570  0.64251155  -0.00854492  1
  O2-  O244  1  0.50142561  0.64859252  0.33046619  1
  O2-  O245  1  0.49871691  0.64510445  0.64477069  1
  O2-  O246  1  0.83820829  0.18342211  0.01077836  1
  O2-  O247  1  0.83038071  0.13834835  0.32916490  1
  O2-  O248  1  0.82410286  0.14292862  0.66231119  1
  O2-  O249  1  0.83269845  0.65689910  -0.00805801  1
  O2-  O250  1  0.82654168  0.67312276  0.33270652  1
  O2-  O251  1  0.83666663  0.67372233  0.66008943  1
  O2-  O252  1  0.00074461  0.32915549  -0.00655830  1
  O2-  O253  1  0.00379902  0.34937641  0.33233127  1
  O2-  O254  1  0.00508118  0.34964962  0.66265824  1
  O2-  O255  1  0.00024964  0.85559924  -0.00473799  1
  O2-  O256  1  0.00905467  0.85694012  0.32947733  1
  O2-  O257  1  -0.00342652  0.84330295  0.66699506  1
  O2-  O258  1  0.33563270  0.31980601  0.00258442  1
  O2-  O259  1  0.33781750  0.32902338  0.32896592  1
  O2-  O260  1  0.33026941  0.33776445  0.66555003  1
  O2-  O261  1  0.34136003  0.84683318  -0.01080560  1
  O2-  O262  1  0.33808220  0.83762591  0.33507392  1
  O2-  O263  1  0.33262915  0.80690790  0.66429152  1
  O2-  O264  1  0.66543972  0.34571617  0.00178069  1
  O2-  O265  1  0.67357634  0.34544584  0.32910373  1
  O2-  O266  1  0.66565089  0.34995993  0.67202210  1
  O2-  O267  1  0.66268979  0.85477178  0.00185382  1
  O2-  O268  1  0.66900440  0.83270159  0.34012367  1
  O2-  O269  1  0.66421318  0.83719957  0.67055457  1
  O2-  O270  1  0.17405886  0.34585649  0.00519637  1
  O2-  O271  1  0.16771177  0.32858560  0.33235223  1
  O2-  O272  1  0.17270719  0.34197446  0.67078862  1
  O2-  O273  1  0.16786801  0.84603142  -0.00201912  1
  O2-  O274  1  0.17598236  0.84873318  0.34287854  1
  O2-  O275  1  0.17043841  0.82879980  0.66090732  1
  O2-  O276  1  0.49927184  0.32518433  0.00298688  1
  O2-  O277  1  0.49980468  0.34285860  0.33443084  1
  O2-  O278  1  0.50311469  0.35138101  0.66819130  1
  O2-  O279  1  0.49891320  0.86185052  -0.00489077  1
  O2-  O280  1  0.49505087  0.83785461  0.33573272  1
  O2-  O281  1  0.50256642  0.84257020  0.66818257  1
  O2-  O282  1  0.83106415  0.33303421  -0.00271752  1
  O2-  O283  1  0.83787680  0.35202611  0.33704342  1
  O2-  O284  1  0.83857814  0.34688014  0.67130115  1
  O2-  O285  1  0.82967424  0.85506161  -0.00382441  1
  O2-  O286  1  0.83152327  0.84435901  0.33228566  1
  O2-  O287  1  0.82899303  0.83992290  0.66660155  1
  O2-  O288  1  -0.00655351  0.18720196  0.16236691  1
  O2-  O289  1  0.00305636  0.17205213  0.49461021  1
  O2-  O290  1  -0.00034296  0.18244589  0.82749712  1
  O2-  O291  1  0.00350989  0.67212259  0.18049352  1
  O2-  O292  1  0.00336030  0.67739948  0.49870444  1
  O2-  O293  1  0.00267339  0.67993038  0.83896417  1
  O2-  O294  1  0.31617148  0.18855866  0.17281989  1
  O2-  O295  1  0.33691355  0.18039493  0.51012001  1
  O2-  O296  1  0.33612568  0.19432797  0.83647659  1
  O2-  O297  1  0.33109888  0.67982859  0.16374572  1
  O2-  O298  1  0.33966992  0.68297481  0.50486109  1
  O2-  O299  1  0.33298051  0.67858535  0.83408517  1
  O2-  O300  1  0.66595319  0.17070284  0.16513659  1
  O2-  O301  1  0.68553351  0.17719575  0.52066141  1
  O2-  O302  1  0.66934935  0.19199230  0.84205125  1
  O2-  O303  1  0.67182474  0.68112126  0.16777141  1
  O2-  O304  1  0.67332138  0.69152334  0.50402344  1
  O2-  O305  1  0.66042178  0.68589606  0.82668939  1
  O2-  O306  1  0.16846124  0.18021027  0.16687531  1
  O2-  O307  1  0.16913240  0.18975790  0.50214152  1
  O2-  O308  1  0.16696699  0.18859938  0.83090075  1
  O2-  O309  1  0.17504200  0.67464570  0.16801862  1
  O2-  O310  1  0.15989800  0.68253540  0.49756975  1
  O2-  O311  1  0.17262546  0.67825940  0.83617136  1
  O2-  O312  1  0.48978451  0.18527115  0.17372190  1
  O2-  O313  1  0.51266722  0.17252146  0.49708154  1
  O2-  O314  1  0.50422830  0.18839328  0.83755905  1
  O2-  O315  1  0.49509199  0.68251009  0.17576556  1
  O2-  O316  1  0.50978524  0.68969775  0.48805029  1
  O2-  O317  1  0.50451748  0.68139791  0.82876011  1
  O2-  O318  1  0.82785590  0.18848702  0.17497901  1
  O2-  O319  1  0.84222813  0.17582134  0.48729985  1
  O2-  O320  1  0.83944329  0.18332465  0.82414318  1
  O2-  O321  1  0.83866250  0.67969295  0.17048162  1
  O2-  O322  1  0.83287288  0.68638839  0.50032456  1
  O2-  O323  1  0.83380160  0.68912754  0.83518180  1
  O2-  O324  1  0.00211976  0.31582742  0.17040384  1
  O2-  O325  1  0.00009790  0.32986214  0.50064531  1
  O2-  O326  1  -0.00243609  0.31600986  0.82991204  1
  O2-  O327  1  -0.00454901  0.82917795  0.16062411  1
  O2-  O328  1  -0.00660655  0.82525145  0.49097580  1
  O2-  O329  1  0.00012162  0.82217587  0.83608562  1
  O2-  O330  1  0.33272686  0.31800346  0.16667460  1
  O2-  O331  1  0.33379455  0.31603954  0.50500581  1
  O2-  O332  1  0.33337342  0.31391069  0.83378711  1
  O2-  O333  1  0.32859661  0.81324874  0.16034949  1
  O2-  O334  1  0.33490164  0.80490265  0.49764085  1
  O2-  O335  1  0.33735078  0.82458842  0.83025241  1
  O2-  O336  1  0.66336483  0.32933816  0.16842905  1
  O2-  O337  1  0.67674775  0.31616298  0.50731282  1
  O2-  O338  1  0.66182902  0.31925459  0.83240286  1
  O2-  O339  1  0.66818829  0.82657269  0.16447814  1
  O2-  O340  1  0.67293809  0.81548682  0.50784858  1
  O2-  O341  1  0.66992580  0.81194328  0.83612660  1
  O2-  O342  1  0.16763842  0.31769873  0.17403788  1
  O2-  O343  1  0.16301130  0.31159087  0.50788301  1
  O2-  O344  1  0.16133820  0.31308355  0.84215923  1
  O2-  O345  1  0.15690179  0.82744865  0.17915054  1
  O2-  O346  1  0.16920373  0.81266484  0.50040698  1
  O2-  O347  1  0.16527437  0.82435776  0.83711081  1
  O2-  O348  1  0.50030525  0.32317992  0.16748085  1
  O2-  O349  1  0.49614590  0.32615900  0.50614763  1
  O2-  O350  1  0.50396425  0.31908255  0.83412749  1
  O2-  O351  1  0.50634062  0.81954469  0.15430345  1
  O2-  O352  1  0.50367181  0.81615488  0.49665754  1
  O2-  O353  1  0.49419749  0.81637501  0.83643794  1
  O2-  O354  1  0.82732962  0.31798266  0.17522291  1
  O2-  O355  1  0.83502865  0.32627412  0.50226631  1
  O2-  O356  1  0.83231448  0.31116892  0.83483502  1
  O2-  O357  1  0.84034382  0.82372371  0.15603191  1
  O2-  O358  1  0.83620606  0.81627323  0.49864081  1
  O2-  O359  1  0.82800033  0.81971207  0.83362414  1
  O2-  O360  1  0.09949436  0.08663884  0.11184858  1
  O2-  O361  1  0.06898276  0.07887641  0.44898254  1
  O2-  O362  1  0.07399537  0.08907454  0.78127826  1
  O2-  O363  1  0.10348668  0.57132213  0.13023908  1
  O2-  O364  1  0.09019907  0.58014979  0.44333914  1
  O2-  O365  1  0.11428176  0.56886496  0.78613607  1
  O2-  O366  1  0.40225770  0.08634166  0.10490354  1
  O2-  O367  1  0.43910616  0.05634488  0.45187769  1
  O2-  O368  1  0.39731953  0.08802995  0.78099912  1
  O2-  O369  1  0.40720561  0.57991200  0.12230524  1
  O2-  O370  1  0.43124452  0.58163168  0.45840920  1
  O2-  O371  1  0.44376549  0.57462816  0.77122398  1
  O2-  O372  1  0.76409747  0.08864383  0.10303438  1
  O2-  O373  1  0.75944656  0.07881182  0.45720072  1
  O2-  O374  1  0.77285912  0.07985578  0.77931785  1
  O2-  O375  1  0.74633163  0.57231709  0.10054407  1
  O2-  O376  1  0.74072724  0.57872707  0.46396303  1
  O2-  O377  1  0.72026608  0.57200551  0.79587047  1
  O2-  O378  1  0.26589697  0.08268641  0.22844008  1
  O2-  O379  1  0.23960980  0.07624281  0.54375891  1
  O2-  O380  1  0.25116337  0.08560055  0.88160310  1
  O2-  O381  1  0.26447010  0.57882207  0.22411321  1
  O2-  O382  1  0.24849302  0.58060556  0.59703857  1
  O2-  O383  1  0.25970049  0.58093373  0.87289924  1
  O2-  O384  1  0.56308201  0.05978602  0.21910195  1
  O2-  O385  1  0.59667757  0.08284307  0.54636925  1
  O2-  O386  1  0.55826080  0.08260273  0.90088249  1
  O2-  O387  1  0.56729497  0.58061873  0.21688970  1
  O2-  O388  1  0.59311191  0.58358390  0.54553223  1
  O2-  O389  1  0.58196193  0.58148386  0.88381175  1
  O2-  O390  1  0.91809488  0.08194303  0.19242719  1
  O2-  O391  1  0.92469512  0.06704524  0.56093324  1
  O2-  O392  1  0.92860191  0.07768520  0.89675419  1
  O2-  O393  1  0.92691105  0.57627107  0.22480230  1
  O2-  O394  1  0.90034569  0.58167730  0.55896897  1
  O2-  O395  1  0.90804788  0.58656474  0.87534979  1
  O2-  O396  1  0.09176607  0.41578956  0.11306699  1
  O2-  O397  1  0.08914350  0.42164499  0.44409037  1
  O2-  O398  1  0.08439658  0.41770841  0.78303769  1
  O2-  O399  1  0.06846952  0.92295902  0.12274312  1
  O2-  O400  1  0.08954539  0.91876981  0.45005584  1
  O2-  O401  1  0.06993889  0.91760549  0.77345232  1
  O2-  O402  1  0.41593979  0.41272727  0.09278639  1
  O2-  O403  1  0.40953284  0.41611594  0.43262508  1
  O2-  O404  1  0.42744231  0.41535145  0.78201536  1
  O2-  O405  1  0.43428375  0.92275599  0.13201356  1
  O2-  O406  1  0.40962980  0.91226827  0.43728683  1
  O2-  O407  1  0.44236338  0.92493983  0.77276069  1
  O2-  O408  1  0.74025258  0.42182190  0.10996975  1
  O2-  O409  1  0.75479622  0.42153255  0.45195722  1
  O2-  O410  1  0.73504437  0.42195649  0.78832735  1
  O2-  O411  1  0.75683509  0.92375498  0.12964022  1
  O2-  O412  1  0.75184966  0.92211741  0.44463991  1
  O2-  O413  1  0.72779803  0.91958632  0.77027370  1
  O2-  O414  1  0.24288120  0.42235166  0.21868823  1
  O2-  O415  1  0.25043072  0.41522798  0.56954401  1
  O2-  O416  1  0.25904220  0.41752126  0.88757124  1
  O2-  O417  1  0.25170446  0.91384692  0.23977567  1
  O2-  O418  1  0.26229239  0.92125153  0.53655194  1
  O2-  O419  1  0.26628096  0.91734648  0.88423898  1
  O2-  O420  1  0.57780543  0.42082634  0.22270463  1
  O2-  O421  1  0.59371952  0.41596643  0.55415023  1
  O2-  O422  1  0.57843187  0.42136470  0.89201169  1
  O2-  O423  1  0.58570422  0.91474081  0.22925741  1
  O2-  O424  1  0.59031338  0.91327300  0.56287446  1
  O2-  O425  1  0.58190328  0.91795781  0.86679449  1
  O2-  O426  1  0.91807042  0.41797591  0.21169032  1
  O2-  O427  1  0.91399437  0.42433659  0.55270164  1
  O2-  O428  1  0.91834027  0.41823057  0.87553567  1
  O2-  O429  1  0.90840925  0.92554935  0.21287869  1
  O2-  O430  1  0.90584522  0.91655567  0.55958777  1
  O2-  O431  1  0.90522955  0.91761948  0.87816389  1
  O2-  O432  1  -0.00400313  -0.00757197  0.00559951  1
  O2-  O433  1  0.00456032  -0.01227967  0.33200587  1
  O2-  O434  1  -0.02431410  0.01210949  0.69337518  1
  O2-  O435  1  0.00197807  0.50437373  -0.01553045  1
  O2-  O436  1  -0.00943041  0.48470525  0.33974567  1
  O2-  O437  1  0.00621101  0.48564313  0.66107088  1
  O2-  O438  1  0.34398930  0.00354425  -0.02109260  1
  O2-  O439  1  0.34416986  -0.00975690  0.32620610  1
  O2-  O440  1  0.34182775  0.02018618  0.64770181  1
  O2-  O441  1  0.30846550  0.50988911  0.02242755  1
  O2-  O442  1  0.34990976  0.49473749  0.30171497  1
  O2-  O443  1  0.33890685  0.50324464  0.67769291  1
  O2-  O444  1  0.66371005  -0.01997275  0.00643695  1
  O2-  O445  1  0.65788250  -0.00108351  0.34941893  1
  O2-  O446  1  0.67343748  -0.00533163  0.64668761  1
  O2-  O447  1  0.67205785  0.49520635  -0.01173907  1
  O2-  O448  1  0.65974401  0.51510812  0.34100987  1
  O2-  O449  1  0.65636267  0.49940350  0.67680691  1
  O2-  O450  1  0.16139039  0.00514591  -0.01324635  1
  O2-  O451  1  0.17207714  -0.01853798  0.34135594  1
  O2-  O452  1  0.16406435  0.01907169  0.67466382  1
  O2-  O453  1  0.15686687  0.50829771  0.00060604  1
  O2-  O454  1  0.13647398  0.50306697  0.29887112  1
  O2-  O455  1  0.17011537  0.49254979  0.67856249  1
  O2-  O456  1  0.50151811  -0.01541334  -0.00028778  1
  O2-  O457  1  0.49316065  0.00096961  0.33977267  1
  O2-  O458  1  0.50855565  0.00895208  0.66214140  1
  O2-  O459  1  0.45930027  0.50119427  -0.05498657  1
  O2-  O460  1  0.49910718  0.50758599  0.31651419  1
  O2-  O461  1  0.50154510  0.49740142  0.66098776  1
  O2-  O462  1  0.83583322  -0.01231870  0.00548692  1
  O2-  O463  1  0.83837265  0.00642195  0.34561373  1
  O2-  O464  1  0.82028313  -0.00091264  0.64077716  1
  O2-  O465  1  0.82821570  0.49535679  -0.01606960  1
  O2-  O466  1  0.82579954  0.48777631  0.32173663  1
  O2-  O467  1  0.82520364  0.48878654  0.65865846  1
  O2-  O468  1  0.76223356  0.24915589  0.39178358  1
  O2-  O469  1  0.24944552  0.74941660  0.27559104  1
  O2-  O470  1  0.73038146  0.25417161  0.07067635  1
  O2-  O471  1  0.25502629  0.75067464  0.94375712  1
  O2-  O472  1  0.06007768  0.25123081  0.39769534  1
  O2-  O473  1  0.42435322  0.25401207  0.40781821  1
  O2-  O474  1  0.92039876  0.25011273  0.28591823  1
  O2-  O475  1  0.58632104  0.25586249  0.26504407  1
  O2-  O476  1  0.91803412  0.75276431  0.94815821  1
  O2-  O477  1  0.07884795  0.75706669  0.74257429  1
  O2-  O478  1  0.09688946  0.25030380  0.05754262  1
  O2-  O479  1  0.58012147  0.74778285  0.27179429  1
  O2-  O480  1  0.42913840  0.24832336  0.71643428  1
  O2-  O481  1  0.57984977  0.24962484  0.60464869  1
  O2-  O482  1  0.57426340  0.75584447  0.95208428  1
  O2-  O483  1  0.08487522  0.25073784  0.71545805  1
  O2-  O484  1  0.08121135  0.75434468  0.06367335  1
  O2-  O485  1  0.93232927  0.75078054  0.59784523  1
  O2-  O486  1  0.74981193  0.75717981  0.06002671  1
  O2-  O487  1  0.42830906  0.74316916  0.04844873  1
  O2-  O488  1  0.57296409  0.74817843  0.61139331  1
  O2-  O489  1  0.74071727  0.24443326  0.71485830  1
  O2-  O490  1  0.91686817  0.25715903  0.60021213  1
  O2-  O491  1  0.07756712  0.75148300  0.38692714  1
  O2-  O492  1  0.92755332  0.74763742  0.27199930  1
