# generated using pymatgen
data_Ca108Mn108O277
_symmetry_space_group_name_H-M   'P 1'
_cell_length_a   16.02577715
_cell_length_b   22.30399278
_cell_length_c   16.38702476
_cell_angle_alpha   90.00117193
_cell_angle_beta   89.99833314
_cell_angle_gamma   89.99403681
_symmetry_Int_Tables_number   1
_chemical_formula_structural   Ca108Mn108O277
_chemical_formula_sum   'Ca108 Mn108 O277'
_cell_volume   5857.35872458
_cell_formula_units_Z   1
loop_
 _symmetry_equiv_pos_site_id
 _symmetry_equiv_pos_as_xyz
  1  'x, y, z'
loop_
 _atom_type_symbol
 _atom_type_oxidation_number
  Ca2+  2.0
  Mn3.34+  3.34
  O2-  -2.0
loop_
 _atom_site_type_symbol
 _atom_site_label
 _atom_site_symmetry_multiplicity
 _atom_site_fract_x
 _atom_site_fract_y
 _atom_site_fract_z
 _atom_site_occupancy
  Ca2+  Ca0  1  0.08345978  0.24185464  0.26311096  1
  Ca2+  Ca1  1  0.07128084  0.24541483  0.56532848  1
  Ca2+  Ca2  1  0.06327600  0.25764020  0.90920890  1
  Ca2+  Ca3  1  0.08716642  0.74104332  0.23623943  1
  Ca2+  Ca4  1  0.08034861  0.75719423  0.58053514  1
  Ca2+  Ca5  1  0.06574307  0.74940934  0.92785202  1
  Ca2+  Ca6  1  0.40964650  0.25493646  0.24730343  1
  Ca2+  Ca7  1  0.41755737  0.24981156  0.58976202  1
  Ca2+  Ca8  1  0.43816121  0.24523994  0.91008620  1
  Ca2+  Ca9  1  0.41531801  0.76692989  0.25497226  1
  Ca2+  Ca10  1  0.42080713  0.75247284  0.58336274  1
  Ca2+  Ca11  1  0.43251425  0.76396094  0.91537327  1
  Ca2+  Ca12  1  0.75274428  0.24973352  0.25256187  1
  Ca2+  Ca13  1  0.78148587  0.23705554  0.58380685  1
  Ca2+  Ca14  1  0.74992281  0.24265984  0.91825002  1
  Ca2+  Ca15  1  0.75295220  0.74780275  0.25179451  1
  Ca2+  Ca16  1  0.75457668  0.73715895  0.58089457  1
  Ca2+  Ca17  1  0.74760680  0.74759958  0.91973312  1
  Ca2+  Ca18  1  0.25613189  0.25194259  0.09798271  1
  Ca2+  Ca19  1  0.23375593  0.24080016  0.41643550  1
  Ca2+  Ca20  1  0.27746769  0.23921087  0.73691555  1
  Ca2+  Ca21  1  0.25262478  0.75759298  0.09548458  1
  Ca2+  Ca22  1  0.26075093  0.76324928  0.41667930  1
  Ca2+  Ca23  1  0.25992246  0.76107429  0.74010868  1
  Ca2+  Ca24  1  0.58838006  0.24589797  0.07797240  1
  Ca2+  Ca25  1  0.59097305  0.26068653  0.41854922  1
  Ca2+  Ca26  1  0.57603349  0.24548883  0.75814609  1
  Ca2+  Ca27  1  0.58038052  0.75660750  0.07981148  1
  Ca2+  Ca28  1  0.58007068  0.75302637  0.42242223  1
  Ca2+  Ca29  1  0.57857704  0.74897937  0.74584034  1
  Ca2+  Ca30  1  0.90345466  0.24885609  0.07840995  1
  Ca2+  Ca31  1  0.92642596  0.24072567  0.42430217  1
  Ca2+  Ca32  1  0.90757104  0.24838852  0.74395474  1
  Ca2+  Ca33  1  0.91321780  0.75125498  0.07540708  1
  Ca2+  Ca34  1  0.90543915  0.75331496  0.41927194  1
  Ca2+  Ca35  1  0.91365041  0.75524250  0.75039482  1
  Ca2+  Ca36  1  0.58418095  0.08562730  0.06427250  1
  Ca2+  Ca37  1  0.89734238  0.59501154  0.73971518  1
  Ca2+  Ca38  1  0.60182582  0.08260723  0.39861603  1
  Ca2+  Ca39  1  0.76581622  0.59444560  0.91870788  1
  Ca2+  Ca40  1  0.25601851  0.58902770  0.41815682  1
  Ca2+  Ca41  1  0.09513609  0.08597535  0.26085989  1
  Ca2+  Ca42  1  0.26501610  0.58252975  0.73216574  1
  Ca2+  Ca43  1  0.08657303  0.08886670  0.26532894  1
  Ca2+  Ca44  1  0.76192280  0.59534261  0.26764790  1
  Ca2+  Ca45  1  0.43096153  0.59224870  0.59250761  1
  Ca2+  Ca46  1  0.43393378  0.59254041  0.91996576  1
  Ca2+  Ca47  1  0.61635402  0.59304774  0.07679278  1
  Ca2+  Ca48  1  0.90677814  0.08811809  0.74366512  1
  Ca2+  Ca49  1  0.42037452  0.58972051  0.24421348  1
  Ca2+  Ca50  1  0.60578142  0.59049587  0.07432971  1
  Ca2+  Ca51  1  0.43253965  0.09024366  0.89943480  1
  Ca2+  Ca52  1  0.05964430  0.59557047  0.58712686  1
  Ca2+  Ca53  1  0.59516593  0.59419973  0.74177096  1
  Ca2+  Ca54  1  0.26859361  0.59058431  0.42008472  1
  Ca2+  Ca55  1  0.05563248  0.58546901  0.93140075  1
  Ca2+  Ca56  1  0.91644080  0.60442773  0.08404523  1
  Ca2+  Ca57  1  0.74482783  0.08841346  0.26256859  1
  Ca2+  Ca58  1  0.40768813  0.59015791  0.24358134  1
  Ca2+  Ca59  1  0.75602803  0.08868218  0.26364453  1
  Ca2+  Ca60  1  0.24945405  0.09070871  0.09055231  1
  Ca2+  Ca61  1  0.92508462  0.10517663  0.42807900  1
  Ca2+  Ca62  1  0.05578758  0.07696104  0.92982374  1
  Ca2+  Ca63  1  0.20457575  0.60480427  0.09313565  1
  Ca2+  Ca64  1  0.89835114  0.09197873  0.74038160  1
  Ca2+  Ca65  1  0.87200202  0.61879295  0.44274586  1
  Ca2+  Ca66  1  0.22921128  0.10061412  0.41929966  1
  Ca2+  Ca67  1  0.07966622  0.10779519  0.55937652  1
  Ca2+  Ca68  1  0.56759772  0.08912773  0.76222879  1
  Ca2+  Ca69  1  0.92652392  0.60629667  0.08582122  1
  Ca2+  Ca70  1  0.06756030  0.07960255  0.93257666  1
  Ca2+  Ca71  1  0.39012002  0.09496231  0.64746947  1
  Ca2+  Ca72  1  0.91339276  0.40497811  0.42026934  1
  Ca2+  Ca73  1  0.74333566  0.41145938  0.25073589  1
  Ca2+  Ca74  1  0.41855722  0.40554753  0.58555249  1
  Ca2+  Ca75  1  0.25617262  0.40425649  0.74296027  1
  Ca2+  Ca76  1  0.58479688  0.41358478  0.08158134  1
  Ca2+  Ca77  1  0.42000315  0.90550638  0.58666330  1
  Ca2+  Ca78  1  0.41901810  0.40036811  0.91628319  1
  Ca2+  Ca79  1  0.58487095  0.40972249  0.74748579  1
  Ca2+  Ca80  1  0.07504024  0.39966690  0.23886701  1
  Ca2+  Ca81  1  0.91600334  0.41176393  0.75579547  1
  Ca2+  Ca82  1  0.73877569  0.91466445  0.27128966  1
  Ca2+  Ca83  1  0.75345942  0.90423410  0.91278018  1
  Ca2+  Ca84  1  0.25910614  0.91614760  0.39832049  1
  Ca2+  Ca85  1  0.24756047  0.39783476  0.08664695  1
  Ca2+  Ca86  1  0.57915621  0.90862116  0.06993840  1
  Ca2+  Ca87  1  0.73297715  0.41235407  0.25230399  1
  Ca2+  Ca88  1  0.90196916  0.40598468  0.42016698  1
  Ca2+  Ca89  1  0.26821858  0.91242966  0.75269482  1
  Ca2+  Ca90  1  0.05279523  0.41506832  0.92933368  1
  Ca2+  Ca91  1  0.08003289  0.90812509  0.91614054  1
  Ca2+  Ca92  1  0.76127560  0.41124649  0.92289619  1
  Ca2+  Ca93  1  0.91998091  0.91037397  0.06577747  1
  Ca2+  Ca94  1  0.90474122  0.41112949  0.75557445  1
  Ca2+  Ca95  1  0.56491670  0.91323221  0.76238685  1
  Ca2+  Ca96  1  0.91122767  0.90375628  0.41728317  1
  Ca2+  Ca97  1  0.07256095  0.90477133  0.58652931  1
  Ca2+  Ca98  1  0.10248648  0.91127247  0.24946356  1
  Ca2+  Ca99  1  0.08575596  0.39988983  0.23878086  1
  Ca2+  Ca100  1  0.57269723  0.41116130  0.08286818  1
  Ca2+  Ca101  1  0.24331365  0.40466327  0.74273186  1
  Ca2+  Ca102  1  0.06721483  0.90857250  0.91619157  1
  Ca2+  Ca103  1  0.09076659  0.91338471  0.25259558  1
  Ca2+  Ca104  1  0.57505228  0.91291530  0.75837475  1
  Ca2+  Ca105  1  0.74992051  0.91449466  0.27028916  1
  Ca2+  Ca106  1  0.25345675  0.39507908  0.42651292  1
  Ca2+  Ca107  1  0.74158646  0.40552006  0.58299818  1
  Mn3.34+  Mn108  1  0.08167842  0.32602277  0.08134483  1
  Mn3.34+  Mn109  1  0.08313692  0.32927400  0.42085069  1
  Mn3.34+  Mn110  1  0.08310893  0.33349195  0.75029282  1
  Mn3.34+  Mn111  1  0.08579970  0.83020787  0.08746988  1
  Mn3.34+  Mn112  1  0.08200891  0.83481548  0.41916117  1
  Mn3.34+  Mn113  1  0.08440938  0.83424679  0.74966724  1
  Mn3.34+  Mn114  1  0.41651844  0.33078358  0.08314715  1
  Mn3.34+  Mn115  1  0.41899822  0.33069569  0.41682453  1
  Mn3.34+  Mn116  1  0.42057369  0.32982444  0.75069128  1
  Mn3.34+  Mn117  1  0.41572994  0.83133609  0.08087117  1
  Mn3.34+  Mn118  1  0.42385766  0.84020135  0.41660123  1
  Mn3.34+  Mn119  1  0.41660651  0.83509035  0.75272531  1
  Mn3.34+  Mn120  1  0.74994895  0.33254106  0.08404940  1
  Mn3.34+  Mn121  1  0.74381147  0.33240585  0.42185865  1
  Mn3.34+  Mn122  1  0.74581216  0.33142190  0.75004489  1
  Mn3.34+  Mn123  1  0.75173793  0.83388991  0.08923457  1
  Mn3.34+  Mn124  1  0.74271692  0.84098256  0.43017536  1
  Mn3.34+  Mn125  1  0.75102323  0.83687615  0.74594191  1
  Mn3.34+  Mn126  1  0.25483451  0.33268262  0.25332060  1
  Mn3.34+  Mn127  1  0.24763219  0.32751661  0.58043833  1
  Mn3.34+  Mn128  1  0.24853510  0.32621220  0.91531901  1
  Mn3.34+  Mn129  1  0.25734772  0.83812557  0.24753316  1
  Mn3.34+  Mn130  1  0.24978073  0.83454631  0.58078484  1
  Mn3.34+  Mn131  1  0.25162119  0.83405101  0.91748753  1
  Mn3.34+  Mn132  1  0.57243005  0.34328958  0.25205834  1
  Mn3.34+  Mn133  1  0.58300008  0.33664019  0.58228548  1
  Mn3.34+  Mn134  1  0.58738849  0.33328791  0.91427950  1
  Mn3.34+  Mn135  1  0.57936503  0.83585569  0.24914624  1
  Mn3.34+  Mn136  1  0.58766812  0.82910556  0.58134380  1
  Mn3.34+  Mn137  1  0.58792651  0.83336129  0.91607246  1
  Mn3.34+  Mn138  1  0.91553789  0.33092649  0.24514080  1
  Mn3.34+  Mn139  1  0.91965828  0.33435434  0.58582322  1
  Mn3.34+  Mn140  1  0.91177990  0.33361424  0.91829632  1
  Mn3.34+  Mn141  1  0.91731097  0.82880111  0.24505171  1
  Mn3.34+  Mn142  1  0.90587951  0.83742155  0.58586749  1
  Mn3.34+  Mn143  1  0.91150478  0.83202631  0.90985913  1
  Mn3.34+  Mn144  1  0.09697227  0.16362734  0.74847409  1
  Mn3.34+  Mn145  1  0.59610285  0.66185110  0.25241924  1
  Mn3.34+  Mn146  1  0.75445915  0.16689498  0.41734683  1
  Mn3.34+  Mn147  1  0.42358736  0.66918478  0.42228899  1
  Mn3.34+  Mn148  1  0.07773301  0.66265164  0.75221119  1
  Mn3.34+  Mn149  1  0.08601577  0.16801389  0.74705795  1
  Mn3.34+  Mn150  1  0.74986857  0.66939473  0.74845869  1
  Mn3.34+  Mn151  1  0.25067065  0.67057196  0.24652392  1
  Mn3.34+  Mn152  1  0.25347600  0.17235907  0.92272979  1
  Mn3.34+  Mn153  1  0.58524185  0.16739851  0.58338993  1
  Mn3.34+  Mn154  1  0.40839617  0.15531494  0.41848931  1
  Mn3.34+  Mn155  1  0.07367700  0.66562962  0.41282688  1
  Mn3.34+  Mn156  1  0.91216616  0.66784646  0.91241008  1
  Mn3.34+  Mn157  1  0.59575005  0.16262425  0.58250421  1
  Mn3.34+  Mn158  1  0.91516178  0.67180092  0.24377126  1
  Mn3.34+  Mn159  1  0.90729923  0.16281039  0.92088727  1
  Mn3.34+  Mn160  1  0.42116251  0.66808605  0.75145575  1
  Mn3.34+  Mn161  1  0.59145696  0.66709542  0.57685136  1
  Mn3.34+  Mn162  1  0.24297982  0.67714827  0.92024965  1
  Mn3.34+  Mn163  1  0.42064148  0.16784126  0.08873133  1
  Mn3.34+  Mn164  1  0.41726629  0.66755763  0.08220115  1
  Mn3.34+  Mn165  1  0.58794086  0.66898202  0.91169660  1
  Mn3.34+  Mn166  1  0.57911738  0.16528151  0.24365902  1
  Mn3.34+  Mn167  1  0.42130972  0.16225076  0.41528100  1
  Mn3.34+  Mn168  1  0.08708272  0.67199724  0.41205526  1
  Mn3.34+  Mn169  1  0.74854342  0.16728282  0.08589974  1
  Mn3.34+  Mn170  1  0.58220236  0.66795734  0.25383909  1
  Mn3.34+  Mn171  1  0.74802456  0.16642837  0.75488620  1
  Mn3.34+  Mn172  1  0.58845897  0.16108508  0.91549383  1
  Mn3.34+  Mn173  1  0.25055465  0.16469086  0.24466194  1
  Mn3.34+  Mn174  1  0.09155723  0.66894914  0.75059654  1
  Mn3.34+  Mn175  1  0.25193512  0.66742861  0.58421745  1
  Mn3.34+  Mn176  1  0.25310075  0.16764391  0.91257779  1
  Mn3.34+  Mn177  1  0.91741746  0.16813619  0.24401270  1
  Mn3.34+  Mn178  1  0.25844290  0.67564481  0.91459742  1
  Mn3.34+  Mn179  1  0.07885575  0.17002331  0.08696375  1
  Mn3.34+  Mn180  1  0.24230343  0.50570203  0.91458888  1
  Mn3.34+  Mn181  1  0.76508629  0.00242106  0.07021564  1
  Mn3.34+  Mn182  1  0.91195163  -0.00290551  0.59458731  1
  Mn3.34+  Mn183  1  0.08222483  -0.00285833  0.41338421  1
  Mn3.34+  Mn184  1  0.08348428  -0.00035023  0.74559683  1
  Mn3.34+  Mn185  1  0.25429993  0.00139148  0.91568179  1
  Mn3.34+  Mn186  1  0.40623993  -0.00317966  0.08940323  1
  Mn3.34+  Mn187  1  0.25922531  0.00375604  0.57903241  1
  Mn3.34+  Mn188  1  0.45222326  0.49564345  0.40606248  1
  Mn3.34+  Mn189  1  0.73877465  0.49967704  0.40435536  1
  Mn3.34+  Mn190  1  0.92049374  0.50050267  0.24921505  1
  Mn3.34+  Mn191  1  0.44066561  0.49610909  0.40829126  1
  Mn3.34+  Mn192  1  0.24717834  0.49748087  0.58692110  1
  Mn3.34+  Mn193  1  0.59466386  -0.00015097  0.57652611  1
  Mn3.34+  Mn194  1  0.25645949  0.50024093  0.91062724  1
  Mn3.34+  Mn195  1  0.24843898  0.50013562  0.25232856  1
  Mn3.34+  Mn196  1  0.58735374  0.50166874  0.58385002  1
  Mn3.34+  Mn197  1  0.41634397  0.00144565  0.09049183  1
  Mn3.34+  Mn198  1  0.75471465  0.00668862  0.06718132  1
  Mn3.34+  Mn199  1  0.74641864  0.00158765  0.75133209  1
  Mn3.34+  Mn200  1  0.58406891  -0.00480494  0.57503729  1
  Mn3.34+  Mn201  1  0.07462717  0.50115267  0.42784777  1
  Mn3.34+  Mn202  1  0.42282558  0.50021984  0.74864779  1
  Mn3.34+  Mn203  1  0.24514423  -0.00258715  0.58036719  1
  Mn3.34+  Mn204  1  0.41300841  0.49966211  0.08388599  1
  Mn3.34+  Mn205  1  0.76749943  0.49825529  0.07894490  1
  Mn3.34+  Mn206  1  0.41182347  0.00147893  0.39795398  1
  Mn3.34+  Mn207  1  0.74389763  0.50098205  0.75260912  1
  Mn3.34+  Mn208  1  0.08587139  -0.00121307  0.08250629  1
  Mn3.34+  Mn209  1  0.57090671  -0.00121059  0.25061667  1
  Mn3.34+  Mn210  1  0.91259661  0.50129173  0.59337515  1
  Mn3.34+  Mn211  1  0.08447870  0.50092251  0.75447203  1
  Mn3.34+  Mn212  1  0.91697004  0.00020817  0.23934740  1
  Mn3.34+  Mn213  1  0.58698133  0.50178934  0.91481719  1
  Mn3.34+  Mn214  1  0.08894272  0.49503267  0.42896915  1
  Mn3.34+  Mn215  1  0.07370394  0.50057027  0.08116137  1
  O2-  O216  1  0.00843111  0.16040319  -0.00750454  1
  O2-  O217  1  0.00225148  0.15220547  0.31680370  1
  O2-  O218  1  0.00323367  0.14270757  0.67286882  1
  O2-  O219  1  -0.00465339  0.66240293  -0.00677909  1
  O2-  O220  1  0.00134746  0.67096649  0.32576536  1
  O2-  O221  1  -0.00202073  0.65948821  0.67040176  1
  O2-  O222  1  0.33286568  0.15223468  0.00316766  1
  O2-  O223  1  0.33112464  0.14879465  0.33174188  1
  O2-  O224  1  0.33573900  0.18446172  0.64901598  1
  O2-  O225  1  0.32930489  0.65155291  -0.00195791  1
  O2-  O226  1  0.33802470  0.64701697  0.33361674  1
  O2-  O227  1  0.33867112  0.65378651  0.66669651  1
  O2-  O228  1  0.66489887  0.15999492  0.00878629  1
  O2-  O229  1  0.66723505  0.16485808  0.32537697  1
  O2-  O230  1  0.66483428  0.15185138  0.67450718  1
  O2-  O231  1  0.67176047  0.65792488  -0.00935711  1
  O2-  O232  1  0.67608887  0.66909150  0.32795321  1
  O2-  O233  1  0.66641174  0.66746585  0.66790457  1
  O2-  O234  1  0.16694641  0.16879904  0.00083725  1
  O2-  O235  1  0.16677590  0.16097573  0.32205581  1
  O2-  O236  1  0.16743984  0.17392790  0.66255182  1
  O2-  O237  1  0.16043920  0.67638397  -0.00361808  1
  O2-  O238  1  0.16955199  0.64660882  0.33576895  1
  O2-  O239  1  0.16609941  0.64387679  0.66759048  1
  O2-  O240  1  0.49941365  0.15656780  0.00255596  1
  O2-  O241  1  0.50605130  0.15597261  0.33813997  1
  O2-  O242  1  0.50769821  0.14929661  0.66129087  1
  O2-  O243  1  0.51079017  0.64791876  0.00522690  1
  O2-  O244  1  0.50251546  0.64598237  0.33244016  1
  O2-  O245  1  0.50412770  0.65333149  0.67596778  1
  O2-  O246  1  0.83437331  0.16416940  0.00838810  1
  O2-  O247  1  0.83726388  0.15533519  0.33066391  1
  O2-  O248  1  0.83413069  0.16149134  0.67797629  1
  O2-  O249  1  0.83792355  0.65992800  -0.00139478  1
  O2-  O250  1  0.83920637  0.68026117  0.32709710  1
  O2-  O251  1  0.83560428  0.67930103  0.68033713  1
  O2-  O252  1  0.00223904  0.33223971  -0.00259297  1
  O2-  O253  1  -0.00143091  0.35088255  0.33500385  1
  O2-  O254  1  -0.00351029  0.35601020  0.67327803  1
  O2-  O255  1  0.00283867  0.83462130  0.00273111  1
  O2-  O256  1  0.00254445  0.84806909  0.32798707  1
  O2-  O257  1  -0.00121759  0.83208124  0.66010945  1
  O2-  O258  1  0.33210508  0.34455317  -0.00192732  1
  O2-  O259  1  0.33192183  0.34524309  0.33730633  1
  O2-  O260  1  0.33295803  0.33765783  0.66791987  1
  O2-  O261  1  0.32938920  0.81340519  -0.00331485  1
  O2-  O262  1  0.33301719  0.84272813  0.33577487  1
  O2-  O263  1  0.33304116  0.84486404  0.66761312  1
  O2-  O264  1  0.66386154  0.35356472  0.00327960  1
  O2-  O265  1  0.66612896  0.34216278  0.32868901  1
  O2-  O266  1  0.66401152  0.35009779  0.67073368  1
  O2-  O267  1  0.67034194  0.83682919  0.00247288  1
  O2-  O268  1  0.67367814  0.83395796  0.33199312  1
  O2-  O269  1  0.65544217  0.83885639  0.67941159  1
  O2-  O270  1  0.16972306  0.31552139  0.00286389  1
  O2-  O271  1  0.16037938  0.34610819  0.33161205  1
  O2-  O272  1  0.17365636  0.33513350  0.67335528  1
  O2-  O273  1  0.16140814  0.81983223  -0.00222347  1
  O2-  O274  1  0.16651303  0.84979731  0.33680404  1
  O2-  O275  1  0.16978105  0.85195777  0.66865790  1
  O2-  O276  1  0.50320147  0.34483467  -0.00030334  1
  O2-  O277  1  0.50321768  0.31323623  0.32936755  1
  O2-  O278  1  0.49995721  0.35232607  0.66905442  1
  O2-  O279  1  0.50261296  0.84198380  -0.00242730  1
  O2-  O280  1  0.50298420  0.83810792  0.33377297  1
  O2-  O281  1  0.50128833  0.84738349  0.66897310  1
  O2-  O282  1  0.82723855  0.34064525  -0.00415118  1
  O2-  O283  1  0.82918441  0.35384840  0.33066298  1
  O2-  O284  1  0.83220598  0.35114017  0.66690054  1
  O2-  O285  1  0.83251226  0.83709617  0.00244873  1
  O2-  O286  1  0.83517003  0.82330148  0.32890660  1
  O2-  O287  1  0.82790452  0.80980490  0.66590658  1
  O2-  O288  1  -0.00444297  0.18980050  0.16216931  1
  O2-  O289  1  0.00074009  0.17491701  0.49737161  1
  O2-  O290  1  0.00746392  0.17488700  0.83155147  1
  O2-  O291  1  -0.00950907  0.68457861  0.15778228  1
  O2-  O292  1  0.00206746  0.68361544  0.49799127  1
  O2-  O293  1  0.00116120  0.68408670  0.83301255  1
  O2-  O294  1  0.32989138  0.17898740  0.16162669  1
  O2-  O295  1  0.32807865  0.17451267  0.49089939  1
  O2-  O296  1  0.33937515  0.18399259  0.84218910  1
  O2-  O297  1  0.34239435  0.68220560  0.17553505  1
  O2-  O298  1  0.32458534  0.67663193  0.49078080  1
  O2-  O299  1  0.33429691  0.68791740  0.83303818  1
  O2-  O300  1  0.66505141  0.18755813  0.17008193  1
  O2-  O301  1  0.66629849  0.18214651  0.49708700  1
  O2-  O302  1  0.66805404  0.18200723  0.83492793  1
  O2-  O303  1  0.66141054  0.67924514  0.16092871  1
  O2-  O304  1  0.65984504  0.68407771  0.49933095  1
  O2-  O305  1  0.66315317  0.68550669  0.82830337  1
  O2-  O306  1  0.16382592  0.18864521  0.16331507  1
  O2-  O307  1  0.15884098  0.18040713  0.49893397  1
  O2-  O308  1  0.17071666  0.19269040  0.83342214  1
  O2-  O309  1  0.17636158  0.68451598  0.16548782  1
  O2-  O310  1  0.16344335  0.67325080  0.49905463  1
  O2-  O311  1  0.16769517  0.68916463  0.83503717  1
  O2-  O312  1  0.49948392  0.19142022  0.16814648  1
  O2-  O313  1  0.50052169  0.18184269  0.50053618  1
  O2-  O314  1  0.50815991  0.17401211  0.83931882  1
  O2-  O315  1  0.50143160  0.67230631  0.17412296  1
  O2-  O316  1  0.49389495  0.67814374  0.51030752  1
  O2-  O317  1  0.49524361  0.67873632  0.84011916  1
  O2-  O318  1  0.82316381  0.17758923  0.17577456  1
  O2-  O319  1  0.83580253  0.17431473  0.48980164  1
  O2-  O320  1  0.83804414  0.17709425  0.82961074  1
  O2-  O321  1  0.83625246  0.68269019  0.16399567  1
  O2-  O322  1  0.83433179  0.69806481  0.49633217  1
  O2-  O323  1  0.82639739  0.68385930  0.83609163  1
  O2-  O324  1  0.00753806  0.31651581  0.17318645  1
  O2-  O325  1  -0.00938779  0.32703131  0.49203309  1
  O2-  O326  1  -0.00133916  0.33500700  0.83232575  1
  O2-  O327  1  0.00198669  0.81019597  0.16682465  1
  O2-  O328  1  -0.00339654  0.81810893  0.49643527  1
  O2-  O329  1  0.00565909  0.82061768  0.83779536  1
  O2-  O330  1  0.33076684  0.32676728  0.16214719  1
  O2-  O331  1  0.33080677  0.31375792  0.50447683  1
  O2-  O332  1  0.33075656  0.31869104  0.83083090  1
  O2-  O333  1  0.33472108  0.81949752  0.16587309  1
  O2-  O334  1  0.33560288  0.82260793  0.50396383  1
  O2-  O335  1  0.33167789  0.82103627  0.83131631  1
  O2-  O336  1  0.66482489  0.32250992  0.16629770  1
  O2-  O337  1  0.67212181  0.31908143  0.50950639  1
  O2-  O338  1  0.67151299  0.32300803  0.83747142  1
  O2-  O339  1  0.67017046  0.81530884  0.16782211  1
  O2-  O340  1  0.66740822  0.80799333  0.50346034  1
  O2-  O341  1  0.66992240  0.81370943  0.83542042  1
  O2-  O342  1  0.16332675  0.31974044  0.16853319  1
  O2-  O343  1  0.16819746  0.31439590  0.49723331  1
  O2-  O344  1  0.16615464  0.31557811  0.83260701  1
  O2-  O345  1  0.16281660  0.81925463  0.17379515  1
  O2-  O346  1  0.16164436  0.82385594  0.50311445  1
  O2-  O347  1  0.16733704  0.81416957  0.83661392  1
  O2-  O348  1  0.50484352  0.32222072  0.15956349  1
  O2-  O349  1  0.49801945  0.32105654  0.50404258  1
  O2-  O350  1  0.49999027  0.32645561  0.83582667  1
  O2-  O351  1  0.50518714  0.82318524  0.16138388  1
  O2-  O352  1  0.49732140  0.82152602  0.50612943  1
  O2-  O353  1  0.50972433  0.82435394  0.82599145  1
  O2-  O354  1  0.82359330  0.32756775  0.17449991  1
  O2-  O355  1  0.83697934  0.32567645  0.49626558  1
  O2-  O356  1  0.83970919  0.32607520  0.82328043  1
  O2-  O357  1  0.83531387  0.80915238  0.16493014  1
  O2-  O358  1  0.83360427  0.82343080  0.49735618  1
  O2-  O359  1  0.82780808  0.82193454  0.83322899  1
  O2-  O360  1  0.09086920  0.08239389  0.11508346  1
  O2-  O361  1  0.08288732  0.07698309  0.42464542  1
  O2-  O362  1  0.09334566  0.08070427  0.79578798  1
  O2-  O363  1  0.06442744  0.58024163  0.10090184  1
  O2-  O364  1  0.09047645  0.58161089  0.45287553  1
  O2-  O365  1  0.08913294  0.58307818  0.79217803  1
  O2-  O366  1  0.41515702  0.08221276  0.12148923  1
  O2-  O367  1  0.42543408  0.07781744  0.45628782  1
  O2-  O368  1  0.43042271  0.07312316  0.77222527  1
  O2-  O369  1  0.41578685  0.58202227  0.11103702  1
  O2-  O370  1  0.40579465  0.57435912  0.45795717  1
  O2-  O371  1  0.41197032  0.58233649  0.78276281  1
  O2-  O372  1  0.73968651  0.08228778  0.11982146  1
  O2-  O373  1  0.74400989  0.08481942  0.40844902  1
  O2-  O374  1  0.76092981  0.08193891  0.78031038  1
  O2-  O375  1  0.74592485  0.57194352  0.12432530  1
  O2-  O376  1  0.75149806  0.57467760  0.42221254  1
  O2-  O377  1  0.74908603  0.58185745  0.77806397  1
  O2-  O378  1  0.22517580  0.08421179  0.22167230  1
  O2-  O379  1  0.23843620  0.08053724  0.55464654  1
  O2-  O380  1  0.24048997  0.08375065  0.88850106  1
  O2-  O381  1  0.26753586  0.58309682  0.21594624  1
  O2-  O382  1  0.25081411  0.57845317  0.55343090  1
  O2-  O383  1  0.24482367  0.58637308  0.87903615  1
  O2-  O384  1  0.59617704  0.07988070  0.21563643  1
  O2-  O385  1  0.59079245  0.08031518  0.53755633  1
  O2-  O386  1  0.57989787  0.08180460  0.89990279  1
  O2-  O387  1  0.58611955  0.58331001  0.21107075  1
  O2-  O388  1  0.57810551  0.58244403  0.56678118  1
  O2-  O389  1  0.58845135  0.58453159  0.88398731  1
  O2-  O390  1  0.91625313  0.08235784  0.22050106  1
  O2-  O391  1  0.92076030  0.06679682  0.55196163  1
  O2-  O392  1  0.93263553  0.07997240  0.87836862  1
  O2-  O393  1  0.90324659  0.58253489  0.22031546  1
  O2-  O394  1  0.93181694  0.57288548  0.54909338  1
  O2-  O395  1  0.91670530  0.58774545  0.88278034  1
  O2-  O396  1  0.09575201  0.41861289  0.10270064  1
  O2-  O397  1  0.08582554  0.41431389  0.44720534  1
  O2-  O398  1  0.10443192  0.41862172  0.78386025  1
  O2-  O399  1  0.06576213  0.91787424  0.11899178  1
  O2-  O400  1  0.07590779  0.91753801  0.44507631  1
  O2-  O401  1  0.08752039  0.91770469  0.78332269  1
  O2-  O402  1  0.43111592  0.41709300  0.09855393  1
  O2-  O403  1  0.40353712  0.41971706  0.44912345  1
  O2-  O404  1  0.39495239  0.41878538  0.77989252  1
  O2-  O405  1  0.41964063  0.91511809  0.10043702  1
  O2-  O406  1  0.40847996  0.92378181  0.44563732  1
  O2-  O407  1  0.42547001  0.91538022  0.77067836  1
  O2-  O408  1  0.73938938  0.42089802  0.11263661  1
  O2-  O409  1  0.75705845  0.42169494  0.44634489  1
  O2-  O410  1  0.75688901  0.41979404  0.78330900  1
  O2-  O411  1  0.75747201  0.92468836  0.12618946  1
  O2-  O412  1  0.77196693  0.91887313  0.40635432  1
  O2-  O413  1  0.72431605  0.92213500  0.77901162  1
  O2-  O414  1  0.22354995  0.41820050  0.22279140  1
  O2-  O415  1  0.25921371  0.41665812  0.56539479  1
  O2-  O416  1  0.24528582  0.41850656  0.88517103  1
  O2-  O417  1  0.23704886  0.91715731  0.23308633  1
  O2-  O418  1  0.25077188  0.91985777  0.54489642  1
  O2-  O419  1  0.22243839  0.92116019  0.89041108  1
  O2-  O420  1  0.60166567  0.42387124  0.21281705  1
  O2-  O421  1  0.58744257  0.42143730  0.55388432  1
  O2-  O422  1  0.57829555  0.41881045  0.88962492  1
  O2-  O423  1  0.60157566  0.91727020  0.21990902  1
  O2-  O424  1  0.58737230  0.91290388  0.55937771  1
  O2-  O425  1  0.60063905  0.91430189  0.89293051  1
  O2-  O426  1  0.93859528  0.41643641  0.21921818  1
  O2-  O427  1  0.90461294  0.42277380  0.55386249  1
  O2-  O428  1  0.91178197  0.41960873  0.89146991  1
  O2-  O429  1  0.90744156  0.91825559  0.21765059  1
  O2-  O430  1  0.92748424  0.92441437  0.55114673  1
  O2-  O431  1  0.92679974  0.91076257  0.90397489  1
  O2-  O432  1  0.01908288  -0.00993859  -0.02431989  1
  O2-  O433  1  0.00233875  -0.00517024  0.31802544  1
  O2-  O434  1  0.00241305  0.00919395  0.65910350  1
  O2-  O435  1  0.00373036  0.50234163  -0.00209984  1
  O2-  O436  1  0.00784260  0.48725900  0.33401427  1
  O2-  O437  1  -0.00685955  0.50307582  0.68136032  1
  O2-  O438  1  0.32786920  0.01474593  0.00716910  1
  O2-  O439  1  0.30075893  0.01054615  0.39041918  1
  O2-  O440  1  0.33643756  -0.00972564  0.65804177  1
  O2-  O441  1  0.34437079  0.50101398  -0.01290263  1
  O2-  O442  1  0.33219505  0.51264445  0.34697346  1
  O2-  O443  1  0.33067981  0.49940963  0.67310642  1
  O2-  O444  1  0.65102551  -0.00638015  0.02695855  1
  O2-  O445  1  0.67723827  0.00281519  0.29753965  1
  O2-  O446  1  0.65029054  0.00477928  0.68492105  1
  O2-  O447  1  0.66527597  0.49966667  0.01532802  1
  O2-  O448  1  0.68911697  0.49930574  0.30614713  1
  O2-  O449  1  0.65336062  0.49436861  0.68275603  1
  O2-  O450  1  0.16354595  0.01218898  -0.01092178  1
  O2-  O451  1  0.14974892  -0.00290773  0.31785843  1
  O2-  O452  1  0.16852291  -0.00804269  0.66271017  1
  O2-  O453  1  0.17116351  0.50748874  0.00804713  1
  O2-  O454  1  0.17516459  0.51089968  0.35110863  1
  O2-  O455  1  0.17997605  0.49959993  0.68669569  1
  O2-  O456  1  0.49760054  0.00792582  0.01314320  1
  O2-  O457  1  0.51715380  0.00892062  0.35353394  1
  O2-  O458  1  0.49915310  -0.00300939  0.65316704  1
  O2-  O459  1  0.51137951  0.50936617  0.01615146  1
  O2-  O460  1  0.48907837  0.51609689  0.30020787  1
  O2-  O461  1  0.49154787  0.49662734  0.65239837  1
  O2-  O462  1  0.84727878  -0.01533549  -0.00121936  1
  O2-  O463  1  0.82278112  0.00167920  0.29501513  1
  O2-  O464  1  0.84536395  0.00495444  0.68634095  1
  O2-  O465  1  0.83310037  0.52203472  0.00051352  1
  O2-  O466  1  0.84065627  0.48154541  0.34072427  1
  O2-  O467  1  0.84196637  0.49390365  0.68892461  1
  O2-  O468  1  0.57766649  0.74905514  0.94084165  1
  O2-  O469  1  0.57898244  0.25055162  0.61083287  1
  O2-  O470  1  0.06026380  0.25169438  0.72962332  1
  O2-  O471  1  0.40998645  0.24975800  0.05598481  1
  O2-  O472  1  0.75155020  0.25134941  0.06275495  1
  O2-  O473  1  0.57123063  0.74930812  0.60645190  1
  O2-  O474  1  0.25929785  0.24981464  0.27182875  1
  O2-  O475  1  0.74983605  0.25235401  0.39399554  1
  O2-  O476  1  0.40853387  0.24270932  0.39471863  1
  O2-  O477  1  0.24109670  0.75044950  0.60417229  1
  O2-  O478  1  0.91616894  0.24965595  0.92830895  1
  O2-  O479  1  0.91523029  0.75037410  0.93298628  1
  O2-  O480  1  0.09935457  0.75456878  0.38837272  1
  O2-  O481  1  0.58708283  0.25193481  0.93789494  1
  O2-  O482  1  0.91038795  0.25085707  0.27774230  1
  O2-  O483  1  0.07591729  0.25252341  0.39880395  1
  O2-  O484  1  0.08940707  0.74939512  0.72095113  1
  O2-  O485  1  0.92315623  0.25590032  0.60481934  1
  O2-  O486  1  0.75032284  0.25054508  0.72629775  1
  O2-  O487  1  0.43149231  0.25264985  0.73281021  1
  O2-  O488  1  0.57497732  0.74869315  0.27073390  1
  O2-  O489  1  0.43184085  0.74707882  0.06273330  1
  O2-  O490  1  0.41881781  0.75010940  0.72557938  1
  O2-  O491  1  0.25282234  0.74968140  0.27855621  1
  O2-  O492  1  0.41769842  0.75058202  0.39515518  1
