# generated using pymatgen
data_Ca108Mn108O277
_symmetry_space_group_name_H-M   'P 1'
_cell_length_a   16.02884702
_cell_length_b   22.30983197
_cell_length_c   16.39256971
_cell_angle_alpha   89.99651066
_cell_angle_beta   90.00286820
_cell_angle_gamma   89.99350950
_symmetry_Int_Tables_number   1
_chemical_formula_structural   Ca108Mn108O277
_chemical_formula_sum   'Ca108 Mn108 O277'
_cell_volume   5861.99736071
_cell_formula_units_Z   1
loop_
 _symmetry_equiv_pos_site_id
 _symmetry_equiv_pos_as_xyz
  1  'x, y, z'
loop_
 _atom_type_symbol
 _atom_type_oxidation_number
  Ca2+  2.0
  Mn3.34+  3.34
  O2-  -2.0
loop_
 _atom_site_type_symbol
 _atom_site_label
 _atom_site_symmetry_multiplicity
 _atom_site_fract_x
 _atom_site_fract_y
 _atom_site_fract_z
 _atom_site_occupancy
  Ca2+  Ca0  1  0.07310171  0.25857819  0.22012693  1
  Ca2+  Ca1  1  0.07713567  0.25401117  0.59305807  1
  Ca2+  Ca2  1  0.06730385  0.25536681  0.93052370  1
  Ca2+  Ca3  1  0.09295057  0.72517034  0.26384882  1
  Ca2+  Ca4  1  0.11571210  0.73569559  0.56945582  1
  Ca2+  Ca5  1  0.09118951  0.74952975  0.92259482  1
  Ca2+  Ca6  1  0.43783195  0.25786133  0.24711916  1
  Ca2+  Ca7  1  0.42480996  0.25899941  0.59292058  1
  Ca2+  Ca8  1  0.42326766  0.25001601  0.91097065  1
  Ca2+  Ca9  1  0.42282882  0.72759978  0.26578959  1
  Ca2+  Ca10  1  0.41419373  0.74223918  0.55822896  1
  Ca2+  Ca11  1  0.40878522  0.76708267  0.92314318  1
  Ca2+  Ca12  1  0.73165113  0.25205037  0.23875507  1
  Ca2+  Ca13  1  0.75365166  0.26725954  0.59179051  1
  Ca2+  Ca14  1  0.76776889  0.23746049  0.92247158  1
  Ca2+  Ca15  1  0.72768604  0.75165505  0.26042710  1
  Ca2+  Ca16  1  0.72543213  0.75596113  0.58199558  1
  Ca2+  Ca17  1  0.74784008  0.75569487  0.90693351  1
  Ca2+  Ca18  1  0.23031273  0.25482553  0.07641246  1
  Ca2+  Ca19  1  0.25894164  0.26914076  0.41516570  1
  Ca2+  Ca20  1  0.25013674  0.24483433  0.75307654  1
  Ca2+  Ca21  1  0.23669832  0.74219686  0.09672653  1
  Ca2+  Ca22  1  0.26281000  0.73679504  0.40925406  1
  Ca2+  Ca23  1  0.24143385  0.75643012  0.73620236  1
  Ca2+  Ca24  1  0.59704800  0.25957452  0.08678577  1
  Ca2+  Ca25  1  0.58578822  0.25619301  0.39657682  1
  Ca2+  Ca26  1  0.58749358  0.26077719  0.75678393  1
  Ca2+  Ca27  1  0.56087116  0.74507043  0.11125251  1
  Ca2+  Ca28  1  0.56082824  0.72968550  0.41388012  1
  Ca2+  Ca29  1  0.58402977  0.75059420  0.73594682  1
  Ca2+  Ca30  1  0.93004731  0.22435121  0.06518642  1
  Ca2+  Ca31  1  0.90671915  0.25282762  0.41316015  1
  Ca2+  Ca32  1  0.91490760  0.24813446  0.76703847  1
  Ca2+  Ca33  1  0.94648486  0.74610024  0.08218050  1
  Ca2+  Ca34  1  0.93715157  0.75084868  0.41195390  1
  Ca2+  Ca35  1  0.92754839  0.76368019  0.75046911  1
  Ca2+  Ca36  1  0.59169590  0.10583162  0.08943588  1
  Ca2+  Ca37  1  0.57121660  0.59364153  0.09341536  1
  Ca2+  Ca38  1  0.42075241  0.59885517  0.56221851  1
  Ca2+  Ca39  1  0.05629590  0.10410442  0.22567554  1
  Ca2+  Ca40  1  0.92281144  0.58869156  0.74891233  1
  Ca2+  Ca41  1  0.08160278  0.59279781  0.93138497  1
  Ca2+  Ca42  1  0.90356827  0.09407676  0.76511966  1
  Ca2+  Ca43  1  0.45115934  0.09353154  0.24179907  1
  Ca2+  Ca44  1  0.96650774  0.59975698  0.40960062  1
  Ca2+  Ca45  1  0.96582728  0.60436925  0.09557725  1
  Ca2+  Ca46  1  0.74088285  0.58651528  0.92531738  1
  Ca2+  Ca47  1  0.72963563  0.11224206  0.24481802  1
  Ca2+  Ca48  1  0.75673776  0.08296582  0.60908009  1
  Ca2+  Ca49  1  0.90764241  0.09774150  0.41195428  1
  Ca2+  Ca50  1  0.25736501  0.60309977  0.42162149  1
  Ca2+  Ca51  1  0.59089802  0.57910943  0.73030331  1
  Ca2+  Ca52  1  0.06924420  0.10471996  0.22306317  1
  Ca2+  Ca53  1  0.23939697  0.58737232  0.73003176  1
  Ca2+  Ca54  1  0.24914338  0.09881972  0.06293447  1
  Ca2+  Ca55  1  0.11705866  0.06679852  0.63104907  1
  Ca2+  Ca56  1  0.08322427  0.11006085  0.91529883  1
  Ca2+  Ca57  1  0.25784890  0.07784232  0.42304694  1
  Ca2+  Ca58  1  0.91366135  0.09537848  0.76066415  1
  Ca2+  Ca59  1  0.55691791  0.10142088  0.75545631  1
  Ca2+  Ca60  1  0.60128108  0.10334068  0.08696655  1
  Ca2+  Ca61  1  0.41765751  0.57776953  0.93346802  1
  Ca2+  Ca62  1  0.42908507  0.57834310  0.93371872  1
  Ca2+  Ca63  1  0.11083064  0.07290997  0.63171290  1
  Ca2+  Ca64  1  0.43931950  0.09169119  0.24511929  1
  Ca2+  Ca65  1  0.55345035  0.58973116  0.41654761  1
  Ca2+  Ca66  1  0.40456759  0.11127573  0.88663497  1
  Ca2+  Ca67  1  0.07271469  0.10964869  0.91503020  1
  Ca2+  Ca68  1  0.22796341  0.58429491  0.73353963  1
  Ca2+  Ca69  1  0.41535995  0.58567640  0.27822745  1
  Ca2+  Ca70  1  0.72664686  0.58062672  0.26362404  1
  Ca2+  Ca71  1  0.76742807  0.08323318  0.60702869  1
  Ca2+  Ca72  1  0.89487622  0.90640728  0.08681049  1
  Ca2+  Ca73  1  0.24646107  0.40040358  0.75753783  1
  Ca2+  Ca74  1  0.40907060  0.90696598  0.24233559  1
  Ca2+  Ca75  1  0.58079295  0.91051555  0.75247263  1
  Ca2+  Ca76  1  0.07922389  0.90829560  0.90364342  1
  Ca2+  Ca77  1  0.25874319  0.90209136  0.07977577  1
  Ca2+  Ca78  1  0.89859020  0.40289892  0.75321784  1
  Ca2+  Ca79  1  0.24431870  0.93079626  0.73181019  1
  Ca2+  Ca80  1  0.40157451  0.92672298  0.60482036  1
  Ca2+  Ca81  1  0.89666433  0.41107035  0.40742101  1
  Ca2+  Ca82  1  0.73783528  0.40355078  0.91916659  1
  Ca2+  Ca83  1  0.90912903  0.41236601  0.40641835  1
  Ca2+  Ca84  1  0.42179758  0.90722700  0.24225207  1
  Ca2+  Ca85  1  0.90998561  0.40354884  0.75231030  1
  Ca2+  Ca86  1  0.26207352  0.90821120  0.42545386  1
  Ca2+  Ca87  1  0.07578296  0.91161725  0.60415349  1
  Ca2+  Ca88  1  0.60160322  0.90266416  0.08261745  1
  Ca2+  Ca89  1  0.40383982  0.40837534  0.92325363  1
  Ca2+  Ca90  1  0.57053789  0.90736483  0.75352114  1
  Ca2+  Ca91  1  0.41639692  0.40770072  0.92273518  1
  Ca2+  Ca92  1  0.90672745  0.90349096  0.08544139  1
  Ca2+  Ca93  1  0.74831271  0.90801757  0.92194334  1
  Ca2+  Ca94  1  0.09560474  0.40598409  0.24734432  1
  Ca2+  Ca95  1  0.75788087  0.91386782  0.91902371  1
  Ca2+  Ca96  1  0.91313427  0.89038902  0.41826837  1
  Ca2+  Ca97  1  0.58976470  0.41538767  0.41105229  1
  Ca2+  Ca98  1  0.25069569  0.90911581  0.42619199  1
  Ca2+  Ca99  1  0.41895118  0.41705813  0.25680595  1
  Ca2+  Ca100  1  0.08554123  0.40612773  0.59180908  1
  Ca2+  Ca101  1  0.59498792  0.89688408  0.41711027  1
  Ca2+  Ca102  1  0.58370977  0.89687487  0.41622299  1
  Ca2+  Ca103  1  0.07455104  0.89336965  0.25059759  1
  Ca2+  Ca104  1  0.43076070  0.40797024  0.57973891  1
  Ca2+  Ca105  1  0.26906714  0.41803697  0.40128893  1
  Ca2+  Ca106  1  0.91267303  0.39541918  0.08940334  1
  Ca2+  Ca107  1  0.23619894  0.92790814  0.73666893  1
  Mn3.34+  Mn108  1  0.08426311  0.33941399  0.07830282  1
  Mn3.34+  Mn109  1  0.08587959  0.33776505  0.42048636  1
  Mn3.34+  Mn110  1  0.08435766  0.33202451  0.75522401  1
  Mn3.34+  Mn111  1  0.08606230  0.83156300  0.08242216  1
  Mn3.34+  Mn112  1  0.08596732  0.82799255  0.42018503  1
  Mn3.34+  Mn113  1  0.08337241  0.83436311  0.75186858  1
  Mn3.34+  Mn114  1  0.41242431  0.33450473  0.08748398  1
  Mn3.34+  Mn115  1  0.42086001  0.34037761  0.41929238  1
  Mn3.34+  Mn116  1  0.41683051  0.33435176  0.75209045  1
  Mn3.34+  Mn117  1  0.41561289  0.82968687  0.08026333  1
  Mn3.34+  Mn118  1  0.41647595  0.83235990  0.41900878  1
  Mn3.34+  Mn119  1  0.41245738  0.83669396  0.75381489  1
  Mn3.34+  Mn120  1  0.74965221  0.33457186  0.08359369  1
  Mn3.34+  Mn121  1  0.74452861  0.34065152  0.41960475  1
  Mn3.34+  Mn122  1  0.74171772  0.33724918  0.75395995  1
  Mn3.34+  Mn123  1  0.74921088  0.82425188  0.08680581  1
  Mn3.34+  Mn124  1  0.75443691  0.82628427  0.41926399  1
  Mn3.34+  Mn125  1  0.75699840  0.84276752  0.74170373  1
  Mn3.34+  Mn126  1  0.25453769  0.33762015  0.24278058  1
  Mn3.34+  Mn127  1  0.25109910  0.32743148  0.58314846  1
  Mn3.34+  Mn128  1  0.24492659  0.33636077  0.91569882  1
  Mn3.34+  Mn129  1  0.24840661  0.83062914  0.24818170  1
  Mn3.34+  Mn130  1  0.25296058  0.83445195  0.58444146  1
  Mn3.34+  Mn131  1  0.25019941  0.83865540  0.91339764  1
  Mn3.34+  Mn132  1  0.58574368  0.33848018  0.24347669  1
  Mn3.34+  Mn133  1  0.58982676  0.34067379  0.58469653  1
  Mn3.34+  Mn134  1  0.58273815  0.33195107  0.92003890  1
  Mn3.34+  Mn135  1  0.58439234  0.83006772  0.24756261  1
  Mn3.34+  Mn136  1  0.57856104  0.83227102  0.58298498  1
  Mn3.34+  Mn137  1  0.57925066  0.82653594  0.91621156  1
  Mn3.34+  Mn138  1  0.91206347  0.33070218  0.24524336  1
  Mn3.34+  Mn139  1  0.91477457  0.33097572  0.58019186  1
  Mn3.34+  Mn140  1  0.91562437  0.33173811  0.91949209  1
  Mn3.34+  Mn141  1  0.91305256  0.82880351  0.24787126  1
  Mn3.34+  Mn142  1  0.91684728  0.83494929  0.58355542  1
  Mn3.34+  Mn143  1  0.91846854  0.83268842  0.91159105  1
  Mn3.34+  Mn144  1  0.26531491  0.15723944  0.59131911  1
  Mn3.34+  Mn145  1  0.25201795  0.17499564  0.91070219  1
  Mn3.34+  Mn146  1  0.57867026  0.16758383  0.58478394  1
  Mn3.34+  Mn147  1  0.90673562  0.17222206  0.24726788  1
  Mn3.34+  Mn148  1  0.08388637  0.16956691  0.74899386  1
  Mn3.34+  Mn149  1  0.91724602  0.67021539  0.91299264  1
  Mn3.34+  Mn150  1  0.75756370  0.16430453  0.07848908  1
  Mn3.34+  Mn151  1  0.58451572  0.17132762  0.91175109  1
  Mn3.34+  Mn152  1  0.91380881  0.67135900  0.24900002  1
  Mn3.34+  Mn153  1  0.25653891  0.16647065  0.24417716  1
  Mn3.34+  Mn154  1  0.91522088  0.66722490  0.58032166  1
  Mn3.34+  Mn155  1  0.42595222  0.66541999  0.75434472  1
  Mn3.34+  Mn156  1  0.57881884  0.66701789  0.91735694  1
  Mn3.34+  Mn157  1  0.24571702  0.17084917  0.24711490  1
  Mn3.34+  Mn158  1  0.74758261  0.17021119  0.42158197  1
  Mn3.34+  Mn159  1  0.74183002  0.66179339  0.75288991  1
  Mn3.34+  Mn160  1  0.75518905  0.65754913  0.42184994  1
  Mn3.34+  Mn161  1  0.41112820  0.66431355  0.09421406  1
  Mn3.34+  Mn162  1  0.24598391  0.65855403  0.24580499  1
  Mn3.34+  Mn163  1  0.24554187  0.65977970  0.92027434  1
  Mn3.34+  Mn164  1  0.75573875  0.66725590  0.08871898  1
  Mn3.34+  Mn165  1  0.42293345  0.16411467  0.42274662  1
  Mn3.34+  Mn166  1  0.41848051  0.17170376  0.07665709  1
  Mn3.34+  Mn167  1  0.91734380  0.17019561  0.58124578  1
  Mn3.34+  Mn168  1  0.73956022  0.66126643  0.42649230  1
  Mn3.34+  Mn169  1  0.41353520  0.67061283  0.75109044  1
  Mn3.34+  Mn170  1  0.74590950  0.67258527  0.08746467  1
  Mn3.34+  Mn171  1  0.09344268  0.17144929  0.42425147  1
  Mn3.34+  Mn172  1  0.58925523  0.17228391  0.58564850  1
  Mn3.34+  Mn173  1  0.74870199  0.16844917  0.75941597  1
  Mn3.34+  Mn174  1  0.41012111  0.17054490  0.42070164  1
  Mn3.34+  Mn175  1  0.08103318  0.67082165  0.75271542  1
  Mn3.34+  Mn176  1  0.92431909  0.67293574  0.58232213  1
  Mn3.34+  Mn177  1  0.25515525  0.66553244  0.92186049  1
  Mn3.34+  Mn178  1  0.08458696  0.17723063  0.42134363  1
  Mn3.34+  Mn179  1  0.75173489  0.66680853  0.75081734  1
  Mn3.34+  Mn180  1  0.24235303  0.49729129  0.57406090  1
  Mn3.34+  Mn181  1  0.10314536  0.49895273  0.06569542  1
  Mn3.34+  Mn182  1  0.25374491  0.50184104  0.57352840  1
  Mn3.34+  Mn183  1  0.75693817  -0.00367291  0.42349479  1
  Mn3.34+  Mn184  1  0.57420074  0.00148176  0.92081225  1
  Mn3.34+  Mn185  1  0.91682405  0.50569459  0.24674859  1
  Mn3.34+  Mn186  1  0.24361446  0.00022248  0.25323067  1
  Mn3.34+  Mn187  1  0.90660559  0.50048090  0.24698808  1
  Mn3.34+  Mn188  1  0.07503269  -0.00048952  0.42198095  1
  Mn3.34+  Mn189  1  0.74599586  0.00131325  0.42357938  1
  Mn3.34+  Mn190  1  0.91328088  -0.00337151  0.58803092  1
  Mn3.34+  Mn191  1  0.24974211  0.50216539  0.25608359  1
  Mn3.34+  Mn192  1  0.57118227  0.00826750  0.58541596  1
  Mn3.34+  Mn193  1  0.90252898  0.50295952  0.58997646  1
  Mn3.34+  Mn194  1  0.91133142  0.50295348  0.92507418  1
  Mn3.34+  Mn195  1  0.59467528  0.49647962  0.59811916  1
  Mn3.34+  Mn196  1  0.89176210  0.50009784  0.59256678  1
  Mn3.34+  Mn197  1  0.60058450  -0.00551220  0.24779135  1
  Mn3.34+  Mn198  1  0.06413010  0.00474558  0.42074611  1
  Mn3.34+  Mn199  1  0.43123244  0.00162874  0.41278203  1
  Mn3.34+  Mn200  1  0.58500262  0.00212487  0.58357207  1
  Mn3.34+  Mn201  1  0.25904704  0.00370556  0.91564384  1
  Mn3.34+  Mn202  1  0.40275416  0.49843153  0.08271463  1
  Mn3.34+  Mn203  1  0.58535758  0.00569114  0.92010100  1
  Mn3.34+  Mn204  1  0.90211427  0.00285398  0.24560613  1
  Mn3.34+  Mn205  1  0.58536771  0.49672808  0.91498475  1
  Mn3.34+  Mn206  1  0.40979293  0.00027536  0.07304515  1
  Mn3.34+  Mn207  1  0.90524143  0.00078540  0.92999383  1
  Mn3.34+  Mn208  1  0.09147899  0.50057715  0.41563096  1
  Mn3.34+  Mn209  1  0.42489601  0.49777493  0.74659941  1
  Mn3.34+  Mn210  1  0.07770804  0.49719203  0.75543084  1
  Mn3.34+  Mn211  1  0.92463798  0.49691844  0.92434660  1
  Mn3.34+  Mn212  1  0.74063438  0.49671749  0.08365026  1
  Mn3.34+  Mn213  1  0.58500896  0.49406534  0.26840732  1
  Mn3.34+  Mn214  1  0.09332057  -0.00753802  0.07493623  1
  Mn3.34+  Mn215  1  0.07978655  -0.00064397  0.07612368  1
  O2-  O216  1  0.01096759  0.16686522  -0.01009510  1
  O2-  O217  1  0.00317049  0.15685051  0.33696731  1
  O2-  O218  1  0.00357336  0.14022453  0.65928857  1
  O2-  O219  1  -0.00368857  0.66645536  -0.00803611  1
  O2-  O220  1  -0.01264584  0.67720191  0.33254984  1
  O2-  O221  1  -0.00424379  0.65844388  0.67214527  1
  O2-  O222  1  0.33214698  0.18158068  0.00118559  1
  O2-  O223  1  0.33082904  0.14305071  0.33114203  1
  O2-  O224  1  0.32553137  0.20783546  0.65308038  1
  O2-  O225  1  0.33974989  0.64655845  -0.00291654  1
  O2-  O226  1  0.33138908  0.65781879  0.32469299  1
  O2-  O227  1  0.33638707  0.64247794  0.67634627  1
  O2-  O228  1  0.66830340  0.15708370  -0.00362029  1
  O2-  O229  1  0.67459381  0.18077721  0.33972953  1
  O2-  O230  1  0.66770566  0.14703870  0.66878512  1
  O2-  O231  1  0.66591075  0.66446241  0.00183058  1
  O2-  O232  1  0.66358281  0.64749182  0.34290530  1
  O2-  O233  1  0.66308613  0.65447102  0.67392774  1
  O2-  O234  1  0.17325865  0.16662380  -0.00758270  1
  O2-  O235  1  0.16339689  0.13700408  0.33636539  1
  O2-  O236  1  0.16854203  0.16360005  0.66506689  1
  O2-  O237  1  0.16579219  0.65484766  -0.00048168  1
  O2-  O238  1  0.17400643  0.65317914  0.32870472  1
  O2-  O239  1  0.16502597  0.65991190  0.67876712  1
  O2-  O240  1  0.50044272  0.15064835  -0.00422565  1
  O2-  O241  1  0.49292146  0.15833234  0.33186975  1
  O2-  O242  1  0.50150770  0.16943186  0.66688657  1
  O2-  O243  1  0.49843129  0.65310884  -0.00022065  1
  O2-  O244  1  0.49838229  0.65611565  0.33356099  1
  O2-  O245  1  0.50192384  0.64892418  0.67371058  1
  O2-  O246  1  0.83550012  0.16012258  0.00539734  1
  O2-  O247  1  0.83295677  0.16112160  0.33822502  1
  O2-  O248  1  0.83680860  0.15597548  0.66728049  1
  O2-  O249  1  0.82921065  0.67237947  -0.00296696  1
  O2-  O250  1  0.82416357  0.66303357  0.32924774  1
  O2-  O251  1  0.83840862  0.65774088  0.66681133  1
  O2-  O252  1  -0.00220698  0.34860726  -0.00051998  1
  O2-  O253  1  -0.00109835  0.34878393  0.33807943  1
  O2-  O254  1  -0.00356366  0.35264000  0.66552285  1
  O2-  O255  1  -0.00868113  0.84607363  0.00524998  1
  O2-  O256  1  -0.00093365  0.83309421  0.33406154  1
  O2-  O257  1  -0.00066914  0.83647871  0.66865436  1
  O2-  O258  1  0.33200058  0.32290196  -0.00474614  1
  O2-  O259  1  0.33730382  0.34623407  0.33046159  1
  O2-  O260  1  0.33030725  0.33535164  0.67022355  1
  O2-  O261  1  0.33563354  0.84446365  -0.00202384  1
  O2-  O262  1  0.33452158  0.85348295  0.33481205  1
  O2-  O263  1  0.32797588  0.85316142  0.67381805  1
  O2-  O264  1  0.66158358  0.34517828  0.00334254  1
  O2-  O265  1  0.66430840  0.33968962  0.33763514  1
  O2-  O266  1  0.66591898  0.34326741  0.67007553  1
  O2-  O267  1  0.67562069  0.83450897  -0.00891016  1
  O2-  O268  1  0.66819713  0.84525363  0.33006472  1
  O2-  O269  1  0.65820650  0.85011398  0.66814101  1
  O2-  O270  1  0.16557750  0.32541637  -0.00590678  1
  O2-  O271  1  0.17079915  0.34586081  0.33985553  1
  O2-  O272  1  0.16456726  0.33385606  0.66489903  1
  O2-  O273  1  0.16149454  0.85653096  -0.00348496  1
  O2-  O274  1  0.17086677  0.85624677  0.33745689  1
  O2-  O275  1  0.17037506  0.84772392  0.66883466  1
  O2-  O276  1  0.48769727  0.33632165  -0.00566594  1
  O2-  O277  1  0.50131278  0.35187475  0.33343768  1
  O2-  O278  1  0.49244124  0.33820313  0.66399627  1
  O2-  O279  1  0.51089484  0.83166763  0.00970649  1
  O2-  O280  1  0.49727788  0.85466191  0.33254687  1
  O2-  O281  1  0.49631815  0.85123092  0.66393669  1
  O2-  O282  1  0.82898929  0.34567005  -0.00638049  1
  O2-  O283  1  0.83460294  0.33474456  0.33883164  1
  O2-  O284  1  0.83277206  0.34572860  0.66498847  1
  O2-  O285  1  0.83397023  0.82331085  -0.00117159  1
  O2-  O286  1  0.83838122  0.81971275  0.33520492  1
  O2-  O287  1  0.83638993  0.81429355  0.66007249  1
  O2-  O288  1  -0.00397729  0.17841915  0.17585528  1
  O2-  O289  1  -0.00450884  0.18936940  0.49618961  1
  O2-  O290  1  -0.00359917  0.16908618  0.81997034  1
  O2-  O291  1  -0.00567064  0.68355938  0.17353380  1
  O2-  O292  1  0.00230704  0.68487624  0.50156977  1
  O2-  O293  1  -0.00283537  0.68903415  0.83260383  1
  O2-  O294  1  0.34738673  0.18593018  0.16946901  1
  O2-  O295  1  0.33076780  0.18203450  0.49745967  1
  O2-  O296  1  0.33284436  0.19018579  0.83688657  1
  O2-  O297  1  0.33166679  0.68229724  0.16610005  1
  O2-  O298  1  0.33395077  0.67229689  0.49831465  1
  O2-  O299  1  0.33292160  0.68495030  0.83496271  1
  O2-  O300  1  0.66544012  0.17853731  0.15625228  1
  O2-  O301  1  0.67104661  0.18509772  0.51016439  1
  O2-  O302  1  0.66176999  0.18342050  0.82891656  1
  O2-  O303  1  0.66710675  0.67981350  0.16854485  1
  O2-  O304  1  0.66227472  0.67257407  0.50121068  1
  O2-  O305  1  0.66392419  0.68580793  0.84232981  1
  O2-  O306  1  0.15965197  0.17939234  0.16982153  1
  O2-  O307  1  0.17395042  0.19613932  0.49983386  1
  O2-  O308  1  0.15557254  0.18400864  0.83840491  1
  O2-  O309  1  0.16898896  0.67682156  0.17110877  1
  O2-  O310  1  0.19049626  0.67689892  0.49060524  1
  O2-  O311  1  0.16542109  0.67868938  0.83865894  1
  O2-  O312  1  0.50256538  0.16874207  0.15418056  1
  O2-  O313  1  0.50304839  0.19106553  0.50215861  1
  O2-  O314  1  0.50243222  0.18201378  0.83543210  1
  O2-  O315  1  0.49434780  0.66878057  0.16584141  1
  O2-  O316  1  0.49106072  0.66759899  0.49680436  1
  O2-  O317  1  0.49445524  0.69305731  0.83882505  1
  O2-  O318  1  0.82294607  0.17988780  0.17444446  1
  O2-  O319  1  0.83228251  0.18759287  0.50264119  1
  O2-  O320  1  0.83618322  0.17468219  0.82664501  1
  O2-  O321  1  0.83365380  0.69371118  0.16497148  1
  O2-  O322  1  0.83313602  0.68909905  0.49920816  1
  O2-  O323  1  0.83235284  0.68634829  0.83117737  1
  O2-  O324  1  0.00308840  0.33640192  0.17006816  1
  O2-  O325  1  -0.00044748  0.31527192  0.49702332  1
  O2-  O326  1  -0.00877410  0.32930612  0.82507071  1
  O2-  O327  1  -0.00165782  0.82004769  0.16598655  1
  O2-  O328  1  0.00202284  0.81530321  0.50064897  1
  O2-  O329  1  0.00784930  0.81865755  0.84195991  1
  O2-  O330  1  0.33494426  0.30859462  0.16541232  1
  O2-  O331  1  0.33886444  0.31692495  0.50474923  1
  O2-  O332  1  0.33231034  0.31362196  0.83471175  1
  O2-  O333  1  0.33537371  0.82556016  0.16852490  1
  O2-  O334  1  0.32898810  0.82443041  0.49402908  1
  O2-  O335  1  0.32961789  0.81730081  0.82907196  1
  O2-  O336  1  0.67076868  0.32527404  0.16673026  1
  O2-  O337  1  0.66636180  0.31721248  0.49467462  1
  O2-  O338  1  0.67046478  0.32271858  0.84339812  1
  O2-  O339  1  0.66054865  0.81242557  0.15772869  1
  O2-  O340  1  0.66100612  0.82742078  0.49618455  1
  O2-  O341  1  0.66069441  0.81810912  0.83589298  1
  O2-  O342  1  0.16518714  0.32662360  0.16765827  1
  O2-  O343  1  0.16410216  0.31276275  0.50286166  1
  O2-  O344  1  0.16884607  0.31531750  0.83097222  1
  O2-  O345  1  0.16746064  0.82695833  0.16552341  1
  O2-  O346  1  0.16970163  0.83732623  0.50082722  1
  O2-  O347  1  0.16619906  0.81781684  0.83448955  1
  O2-  O348  1  0.49978783  0.32130489  0.16097895  1
  O2-  O349  1  0.50346955  0.32745087  0.49897533  1
  O2-  O350  1  0.49725152  0.31686054  0.83411189  1
  O2-  O351  1  0.49106237  0.82402546  0.17325659  1
  O2-  O352  1  0.50635062  0.82275803  0.48989802  1
  O2-  O353  1  0.50299449  0.81479180  0.82680197  1
  O2-  O354  1  0.83997183  0.31505649  0.15943349  1
  O2-  O355  1  0.83477999  0.31663510  0.49372824  1
  O2-  O356  1  0.83655883  0.32143694  0.82865146  1
  O2-  O357  1  0.83689843  0.80965011  0.16020994  1
  O2-  O358  1  0.83976463  0.81217449  0.49832009  1
  O2-  O359  1  0.83138082  0.81917163  0.83508976  1
  O2-  O360  1  0.10489663  0.07823212  0.10480411  1
  O2-  O361  1  0.07235930  0.08387450  0.46474909  1
  O2-  O362  1  0.08526097  0.08305855  0.77046778  1
  O2-  O363  1  0.08406819  0.55877197  0.12707131  1
  O2-  O364  1  0.09524071  0.57242130  0.45349838  1
  O2-  O365  1  0.08518051  0.58297969  0.78619000  1
  O2-  O366  1  0.40608685  0.07883907  0.11362194  1
  O2-  O367  1  0.40339822  0.08272858  0.44579882  1
  O2-  O368  1  0.43810050  0.06094660  0.78319924  1
  O2-  O369  1  0.41979253  0.57935652  0.10516575  1
  O2-  O370  1  0.40489390  0.57263562  0.43268507  1
  O2-  O371  1  0.42247345  0.58195884  0.79472082  1
  O2-  O372  1  0.73084508  0.08254884  0.11038357  1
  O2-  O373  1  0.75260488  0.08118644  0.46308240  1
  O2-  O374  1  0.76465656  0.08559285  0.76289216  1
  O2-  O375  1  0.74027781  0.58105919  0.11589276  1
  O2-  O376  1  0.76353590  0.57881338  0.43782076  1
  O2-  O377  1  0.74948907  0.58338368  0.78960127  1
  O2-  O378  1  0.25063386  0.08217155  0.20839005  1
  O2-  O379  1  0.22749954  0.08111871  0.55050255  1
  O2-  O380  1  0.25734889  0.08607806  0.90157169  1
  O2-  O381  1  0.26554666  0.57624492  0.22119137  1
  O2-  O382  1  0.25427430  0.58246982  0.56771165  1
  O2-  O383  1  0.26442430  0.58243840  0.86874386  1
  O2-  O384  1  0.58291056  0.07781591  0.21990499  1
  O2-  O385  1  0.58592871  0.08576239  0.54150662  1
  O2-  O386  1  0.58379844  0.08564823  0.88750720  1
  O2-  O387  1  0.59336648  0.55942897  0.21433226  1
  O2-  O388  1  0.57953646  0.55950258  0.54413872  1
  O2-  O389  1  0.57310643  0.57809057  0.87664485  1
  O2-  O390  1  0.92180780  0.08759656  0.22774290  1
  O2-  O391  1  0.89774900  0.07923782  0.54609835  1
  O2-  O392  1  0.95292847  0.06680217  0.88432585  1
  O2-  O393  1  0.89748805  0.58538772  0.21648533  1
  O2-  O394  1  0.91447116  0.58112152  0.54085864  1
  O2-  O395  1  0.91685766  0.58147224  0.88218233  1
  O2-  O396  1  0.08066148  0.42874103  0.10950378  1
  O2-  O397  1  0.07157598  0.42494918  0.45641098  1
  O2-  O398  1  0.09467946  0.41423325  0.77089418  1
  O2-  O399  1  0.07301867  0.91683312  0.11910264  1
  O2-  O400  1  0.06510549  0.91695450  0.43720250  1
  O2-  O401  1  0.09488811  0.91595641  0.77036012  1
  O2-  O402  1  0.40644152  0.41889050  0.10884736  1
  O2-  O403  1  0.40765775  0.41823184  0.44555946  1
  O2-  O404  1  0.40135448  0.41962046  0.78992480  1
  O2-  O405  1  0.41614882  0.91968692  0.10687638  1
  O2-  O406  1  0.41896802  0.92014087  0.45373026  1
  O2-  O407  1  0.43142252  0.91275457  0.77950855  1
  O2-  O408  1  0.76905660  0.41799974  0.10192718  1
  O2-  O409  1  0.76385590  0.41687297  0.44336231  1
  O2-  O410  1  0.76601788  0.41571575  0.78483118  1
  O2-  O411  1  0.75834126  0.90630632  0.09961839  1
  O2-  O412  1  0.75869860  0.91338916  0.43932141  1
  O2-  O413  1  0.71645873  0.92459671  0.79135872  1
  O2-  O414  1  0.24948625  0.42296604  0.22208565  1
  O2-  O415  1  0.24085496  0.41600375  0.55084123  1
  O2-  O416  1  0.26707776  0.41353612  0.89258710  1
  O2-  O417  1  0.26357144  0.91926316  0.21673937  1
  O2-  O418  1  0.26137267  0.92076395  0.55641970  1
  O2-  O419  1  0.24232039  0.92511129  0.87616197  1
  O2-  O420  1  0.57219821  0.42496108  0.22289500  1
  O2-  O421  1  0.57933744  0.42703445  0.54868208  1
  O2-  O422  1  0.55992161  0.41586610  0.89842946  1
  O2-  O423  1  0.57182541  0.91516174  0.21493475  1
  O2-  O424  1  0.57268795  0.92331248  0.54499327  1
  O2-  O425  1  0.57776974  0.91857169  0.88949061  1
  O2-  O426  1  0.91488495  0.41712186  0.23222583  1
  O2-  O427  1  0.91760083  0.42156073  0.54200915  1
  O2-  O428  1  0.90804134  0.41866995  0.88869867  1
  O2-  O429  1  0.92031886  0.91942735  0.21777332  1
  O2-  O430  1  0.93062093  0.92236010  0.54621889  1
  O2-  O431  1  0.89642799  0.92243348  0.88671556  1
  O2-  O432  1  -0.00628619  -0.02282758  0.00134663  1
  O2-  O433  1  0.01930740  0.01107876  0.31052000  1
  O2-  O434  1  0.00754645  0.00503948  0.63782383  1
  O2-  O435  1  0.00330767  0.51239776  0.00860394  1
  O2-  O436  1  0.00048694  0.50084701  0.33724127  1
  O2-  O437  1  0.00410288  0.49378946  0.65606088  1
  O2-  O438  1  0.30424107  -0.00000548  0.02781429  1
  O2-  O439  1  0.33022428  -0.01234622  0.34148956  1
  O2-  O440  1  0.33002203  -0.01417268  0.68374452  1
  O2-  O441  1  0.35801579  0.49573632  -0.03005560  1
  O2-  O442  1  0.33794583  0.49357256  0.31727733  1
  O2-  O443  1  0.32651283  0.50535287  0.67193640  1
  O2-  O444  1  0.67251255  -0.02323638  -0.01135689  1
  O2-  O445  1  0.64763714  -0.01317859  0.36026511  1
  O2-  O446  1  0.67587520  0.01261413  0.65468865  1
  O2-  O447  1  0.67712611  0.50853098  -0.01703041  1
  O2-  O448  1  0.65962273  0.50070778  0.34097392  1
  O2-  O449  1  0.66654617  0.50613581  0.66971187  1
  O2-  O450  1  0.15091683  0.00533352  -0.02628299  1
  O2-  O451  1  0.18031269  0.00059928  0.36652983  1
  O2-  O452  1  0.16118900  -0.01542497  0.65579636  1
  O2-  O453  1  0.16370916  0.51598722  -0.01408299  1
  O2-  O454  1  0.17318866  0.48538667  0.33836457  1
  O2-  O455  1  0.17161159  0.50260229  0.67250661  1
  O2-  O456  1  0.51655304  0.01009099  0.02548295  1
  O2-  O457  1  0.47980790  0.00129493  0.29389914  1
  O2-  O458  1  0.51495312  -0.01527321  0.67995104  1
  O2-  O459  1  0.50633066  0.51179690  0.00544666  1
  O2-  O460  1  0.50024632  0.50094411  0.33027595  1
  O2-  O461  1  0.49657633  0.50287054  0.65008638  1
  O2-  O462  1  0.83317315  -0.02477999  0.00689202  1
  O2-  O463  1  0.84711002  0.01251122  0.35278355  1
  O2-  O464  1  0.84841259  0.01926923  0.67505303  1
  O2-  O465  1  0.83304116  0.51085579  0.00707137  1
  O2-  O466  1  0.84195427  0.49407138  0.34171891  1
  O2-  O467  1  0.85527614  0.50016932  0.70503608  1
  O2-  O468  1  0.41971763  0.25149421  0.38932419  1
  O2-  O469  1  0.58165631  0.25015054  0.94489041  1
  O2-  O470  1  0.57804501  0.75469533  0.60033470  1
  O2-  O471  1  0.25193034  0.74864291  0.94607147  1
  O2-  O472  1  0.74675559  0.25126937  0.06085608  1
  O2-  O473  1  0.57685646  0.75336472  0.27261488  1
  O2-  O474  1  0.24392312  0.25145995  0.28047736  1
  O2-  O475  1  0.25552923  0.75517353  0.60041057  1
  O2-  O476  1  0.24852966  0.75131764  0.27074081  1
  O2-  O477  1  0.91940430  0.25399395  0.92935294  1
  O2-  O478  1  0.57955819  0.25912380  0.26052826  1
  O2-  O479  1  0.41138255  0.75052740  0.71337884  1
  O2-  O480  1  0.74648174  0.25066596  0.72806602  1
  O2-  O481  1  0.41462233  0.74680083  0.06064032  1
  O2-  O482  1  0.58923874  0.25475312  0.61005891  1
  O2-  O483  1  0.10575613  0.75258449  0.40418481  1
  O2-  O484  1  0.06756176  0.25035903  0.72867298  1
  O2-  O485  1  0.92388965  0.24924884  0.61886372  1
  O2-  O486  1  0.09095826  0.75526341  0.05859086  1
  O2-  O487  1  0.07543055  0.25980516  0.07563781  1
  O2-  O488  1  0.72799289  0.74340212  0.39956602  1
  O2-  O489  1  0.73558634  0.74743707  0.72745652  1
  O2-  O490  1  0.92756083  0.25166361  0.27449673  1
  O2-  O491  1  0.08944124  0.75117161  0.72422483  1
  O2-  O492  1  0.41450396  0.75475256  0.39934450  1
