# generated using pymatgen
data_Ca108Mn108O277
_symmetry_space_group_name_H-M   'P 1'
_cell_length_a   16.03379785
_cell_length_b   22.31529751
_cell_length_c   16.39489277
_cell_angle_alpha   90.00215813
_cell_angle_beta   89.99865630
_cell_angle_gamma   90.00471162
_symmetry_Int_Tables_number   1
_chemical_formula_structural   Ca108Mn108O277
_chemical_formula_sum   'Ca108 Mn108 O277'
_cell_volume   5866.07570764
_cell_formula_units_Z   1
loop_
 _symmetry_equiv_pos_site_id
 _symmetry_equiv_pos_as_xyz
  1  'x, y, z'
loop_
 _atom_type_symbol
 _atom_type_oxidation_number
  Ca2+  2.0
  Mn3.34+  3.34
  O2-  -2.0
loop_
 _atom_site_type_symbol
 _atom_site_label
 _atom_site_symmetry_multiplicity
 _atom_site_fract_x
 _atom_site_fract_y
 _atom_site_fract_z
 _atom_site_occupancy
  Ca2+  Ca0  1  0.09246902  0.22989754  0.26299170  1
  Ca2+  Ca1  1  0.09173711  0.25232097  0.58303785  1
  Ca2+  Ca2  1  0.08350330  0.24836863  0.91214314  1
  Ca2+  Ca3  1  0.08825142  0.76213186  0.24610675  1
  Ca2+  Ca4  1  0.09677761  0.74902078  0.59562352  1
  Ca2+  Ca5  1  0.09534440  0.75582485  0.91649067  1
  Ca2+  Ca6  1  0.42573755  0.24090887  0.24852536  1
  Ca2+  Ca7  1  0.40190483  0.24758277  0.57930968  1
  Ca2+  Ca8  1  0.41681700  0.25093982  0.92360365  1
  Ca2+  Ca9  1  0.42098631  0.73632745  0.26288858  1
  Ca2+  Ca10  1  0.41512813  0.74839989  0.57103787  1
  Ca2+  Ca11  1  0.39819449  0.75949279  0.92175632  1
  Ca2+  Ca12  1  0.74040868  0.24036545  0.23389762  1
  Ca2+  Ca13  1  0.74821888  0.25157475  0.57275904  1
  Ca2+  Ca14  1  0.74737355  0.23825274  0.93853346  1
  Ca2+  Ca15  1  0.73382349  0.74993296  0.24432720  1
  Ca2+  Ca16  1  0.73206370  0.75554828  0.58558924  1
  Ca2+  Ca17  1  0.76231194  0.75913686  0.91629697  1
  Ca2+  Ca18  1  0.24941062  0.25461880  0.08640086  1
  Ca2+  Ca19  1  0.23906860  0.25797787  0.41771581  1
  Ca2+  Ca20  1  0.23085498  0.24184183  0.74707672  1
  Ca2+  Ca21  1  0.24737249  0.74856574  0.06975141  1
  Ca2+  Ca22  1  0.27004435  0.74897864  0.42750601  1
  Ca2+  Ca23  1  0.24583196  0.74281048  0.76846126  1
  Ca2+  Ca24  1  0.58739671  0.24583006  0.10928340  1
  Ca2+  Ca25  1  0.58685839  0.22722077  0.38661689  1
  Ca2+  Ca26  1  0.56796441  0.24844094  0.74736133  1
  Ca2+  Ca27  1  0.56969214  0.76185377  0.08930511  1
  Ca2+  Ca28  1  0.55458814  0.74392648  0.41634171  1
  Ca2+  Ca29  1  0.57557602  0.76846968  0.74939327  1
  Ca2+  Ca30  1  0.90475370  0.24406111  0.09992042  1
  Ca2+  Ca31  1  0.93419257  0.24981709  0.40826450  1
  Ca2+  Ca32  1  0.94255475  0.25139891  0.74774146  1
  Ca2+  Ca33  1  0.92812223  0.75551246  0.07172601  1
  Ca2+  Ca34  1  0.92376789  0.76337754  0.41967337  1
  Ca2+  Ca35  1  0.92539735  0.75404376  0.76685961  1
  Ca2+  Ca36  1  0.56605098  0.59772074  0.09327276  1
  Ca2+  Ca37  1  0.24386755  0.58505226  0.07212241  1
  Ca2+  Ca38  1  0.60114198  0.09532214  0.09295070  1
  Ca2+  Ca39  1  0.22739842  0.11224563  0.41281693  1
  Ca2+  Ca40  1  0.92932594  0.10740163  0.75999927  1
  Ca2+  Ca41  1  0.75209133  0.10374683  0.23693744  1
  Ca2+  Ca42  1  0.24400498  0.11148431  0.09732726  1
  Ca2+  Ca43  1  0.57910167  0.57573422  0.73477941  1
  Ca2+  Ca44  1  0.08202390  0.57845350  0.24229641  1
  Ca2+  Ca45  1  0.55083594  0.59837122  0.41551112  1
  Ca2+  Ca46  1  0.39882051  0.59995776  0.93006138  1
  Ca2+  Ca47  1  0.12938956  0.59367265  0.60552775  1
  Ca2+  Ca48  1  0.25434429  0.11250975  0.09837353  1
  Ca2+  Ca49  1  0.95650417  0.10774478  0.41752830  1
  Ca2+  Ca50  1  0.93579307  0.57806444  0.06112057  1
  Ca2+  Ca51  1  0.08447540  0.11165097  0.58421595  1
  Ca2+  Ca52  1  0.76167915  0.07273728  0.93862658  1
  Ca2+  Ca53  1  0.25486841  0.58384066  0.07356407  1
  Ca2+  Ca54  1  0.61150540  0.09561846  0.09143682  1
  Ca2+  Ca55  1  0.75841964  0.09836247  0.59125563  1
  Ca2+  Ca56  1  0.75424506  0.59095648  0.93550147  1
  Ca2+  Ca57  1  0.27864083  0.61499057  0.42349244  1
  Ca2+  Ca58  1  0.92117871  0.10373146  0.76433673  1
  Ca2+  Ca59  1  0.94315859  0.57894035  0.75994898  1
  Ca2+  Ca60  1  0.10769007  0.60144383  0.91552609  1
  Ca2+  Ca61  1  0.40743664  0.59474579  0.92617154  1
  Ca2+  Ca62  1  0.57865965  0.59867648  0.09207348  1
  Ca2+  Ca63  1  0.08874014  0.10264672  0.91138683  1
  Ca2+  Ca64  1  0.23785077  0.11130713  0.41264821  1
  Ca2+  Ca65  1  0.95622861  0.57797353  0.75818333  1
  Ca2+  Ca66  1  0.42590370  0.09916436  0.25180336  1
  Ca2+  Ca67  1  0.89377293  0.09384228  0.08337189  1
  Ca2+  Ca68  1  0.39318065  0.08138211  0.59576641  1
  Ca2+  Ca69  1  0.09475781  0.57864073  0.24281383  1
  Ca2+  Ca70  1  0.38694131  0.60833260  0.57330321  1
  Ca2+  Ca71  1  0.40362110  0.08134326  0.59326530  1
  Ca2+  Ca72  1  0.93754942  0.40707835  0.74618601  1
  Ca2+  Ca73  1  0.57220329  0.40138888  0.09002868  1
  Ca2+  Ca74  1  0.61472151  0.93265470  0.04855061  1
  Ca2+  Ca75  1  0.41808326  0.90663755  0.24716486  1
  Ca2+  Ca76  1  0.57824781  0.40940153  0.74058468  1
  Ca2+  Ca77  1  0.41206659  0.39645802  0.23888693  1
  Ca2+  Ca78  1  0.76195518  0.90848711  0.23110237  1
  Ca2+  Ca79  1  0.09370909  0.90223302  0.58225369  1
  Ca2+  Ca80  1  0.75690953  0.40120101  0.24397554  1
  Ca2+  Ca81  1  0.25042979  0.90633062  0.41944673  1
  Ca2+  Ca82  1  0.43015329  0.91212516  0.90414789  1
  Ca2+  Ca83  1  0.73736184  0.90843902  0.58908769  1
  Ca2+  Ca84  1  0.56342751  0.91733382  0.42123331  1
  Ca2+  Ca85  1  0.40206536  0.40100735  0.58065713  1
  Ca2+  Ca86  1  0.74945923  0.91031825  0.59133341  1
  Ca2+  Ca87  1  0.41158437  0.40415517  0.58402966  1
  Ca2+  Ca88  1  0.93514207  0.40589997  0.08528954  1
  Ca2+  Ca89  1  0.58424801  0.40258702  0.41623268  1
  Ca2+  Ca90  1  0.91844282  0.91455592  0.76543382  1
  Ca2+  Ca91  1  0.75036750  0.40314769  0.91730221  1
  Ca2+  Ca92  1  0.90707500  0.91566543  0.76751958  1
  Ca2+  Ca93  1  0.40684694  0.90783347  0.24745388  1
  Ca2+  Ca94  1  0.07494725  0.91355809  0.92486555  1
  Ca2+  Ca95  1  0.55218335  0.92087347  0.42425990  1
  Ca2+  Ca96  1  0.75278137  0.90787328  0.23675917  1
  Ca2+  Ca97  1  0.08819016  0.40409529  0.92307874  1
  Ca2+  Ca98  1  0.40475815  0.91417556  0.59637900  1
  Ca2+  Ca99  1  0.56903540  0.40623593  0.74451287  1
  Ca2+  Ca100  1  0.08256724  0.39730881  0.25033940  1
  Ca2+  Ca101  1  0.93183396  0.90243618  0.40747048  1
  Ca2+  Ca102  1  0.25068299  0.40066891  0.08022871  1
  Ca2+  Ca103  1  0.75538225  0.39282930  0.58658264  1
  Ca2+  Ca104  1  0.26264774  0.91064677  0.74573443  1
  Ca2+  Ca105  1  0.24356989  0.91147707  0.07096569  1
  Ca2+  Ca106  1  0.76298352  0.40223358  0.91720734  1
  Ca2+  Ca107  1  0.89594016  0.92794180  0.05615925  1
  Mn3.34+  Mn108  1  0.08376635  0.32961892  0.08683991  1
  Mn3.34+  Mn109  1  0.08240044  0.33295025  0.41857444  1
  Mn3.34+  Mn110  1  0.08955394  0.33718828  0.75134248  1
  Mn3.34+  Mn111  1  0.08318332  0.83708778  0.08691812  1
  Mn3.34+  Mn112  1  0.08911543  0.82858166  0.41598355  1
  Mn3.34+  Mn113  1  0.08466229  0.83627626  0.75366089  1
  Mn3.34+  Mn114  1  0.41581733  0.33258031  0.08121016  1
  Mn3.34+  Mn115  1  0.41504577  0.32570822  0.41488058  1
  Mn3.34+  Mn116  1  0.40664212  0.32844808  0.75665088  1
  Mn3.34+  Mn117  1  0.41609091  0.83679730  0.08121813  1
  Mn3.34+  Mn118  1  0.41270231  0.83644770  0.42196219  1
  Mn3.34+  Mn119  1  0.41771361  0.83893191  0.75162408  1
  Mn3.34+  Mn120  1  0.75009261  0.33230655  0.08754378  1
  Mn3.34+  Mn121  1  0.75686718  0.33019472  0.41312505  1
  Mn3.34+  Mn122  1  0.75395935  0.32370084  0.75440628  1
  Mn3.34+  Mn123  1  0.74805846  0.83147158  0.07775546  1
  Mn3.34+  Mn124  1  0.74872974  0.83370771  0.41810133  1
  Mn3.34+  Mn125  1  0.74580595  0.83755448  0.76037899  1
  Mn3.34+  Mn126  1  0.24960922  0.32977430  0.25069448  1
  Mn3.34+  Mn127  1  0.23840549  0.33707313  0.58391095  1
  Mn3.34+  Mn128  1  0.25171670  0.32854579  0.91381074  1
  Mn3.34+  Mn129  1  0.24846107  0.83066824  0.24571004  1
  Mn3.34+  Mn130  1  0.25087116  0.83188949  0.58579027  1
  Mn3.34+  Mn131  1  0.25040860  0.83795118  0.91350917  1
  Mn3.34+  Mn132  1  0.58357806  0.33532209  0.25285379  1
  Mn3.34+  Mn133  1  0.58495663  0.33300563  0.57631857  1
  Mn3.34+  Mn134  1  0.57836887  0.32794957  0.91924887  1
  Mn3.34+  Mn135  1  0.58519117  0.83656886  0.24640237  1
  Mn3.34+  Mn136  1  0.57709033  0.83319068  0.58806947  1
  Mn3.34+  Mn137  1  0.58639758  0.84035568  0.91616207  1
  Mn3.34+  Mn138  1  0.91774473  0.32985332  0.25329580  1
  Mn3.34+  Mn139  1  0.92235122  0.33015157  0.57870829  1
  Mn3.34+  Mn140  1  0.92099073  0.32782471  0.91767737  1
  Mn3.34+  Mn141  1  0.92055463  0.83567462  0.24168663  1
  Mn3.34+  Mn142  1  0.91918881  0.83193543  0.58531315  1
  Mn3.34+  Mn143  1  0.91870538  0.83722705  0.92171578  1
  Mn3.34+  Mn144  1  0.92057209  0.66617578  0.58505105  1
  Mn3.34+  Mn145  1  0.91281936  0.66590704  0.24842513  1
  Mn3.34+  Mn146  1  0.74595040  0.66664529  0.41906711  1
  Mn3.34+  Mn147  1  0.07441195  0.65559388  0.42318853  1
  Mn3.34+  Mn148  1  0.57951143  0.16559487  0.58350886  1
  Mn3.34+  Mn149  1  0.08762002  0.66192356  0.42023293  1
  Mn3.34+  Mn150  1  0.75674662  0.66269435  0.41891505  1
  Mn3.34+  Mn151  1  0.75242946  0.66652647  0.75075479  1
  Mn3.34+  Mn152  1  0.41451746  0.16016131  0.41665372  1
  Mn3.34+  Mn153  1  0.07899278  0.16935115  0.08498853  1
  Mn3.34+  Mn154  1  0.08578160  0.67085045  0.08370660  1
  Mn3.34+  Mn155  1  0.92072508  0.16256972  0.24852810  1
  Mn3.34+  Mn156  1  0.42092392  0.66922528  0.75038289  1
  Mn3.34+  Mn157  1  0.41064581  0.66450772  0.75257810  1
  Mn3.34+  Mn158  1  0.40785668  0.16054758  0.75266850  1
  Mn3.34+  Mn159  1  0.91582320  0.16329045  0.92279298  1
  Mn3.34+  Mn160  1  0.92070933  0.66788461  0.91949743  1
  Mn3.34+  Mn161  1  0.90407943  0.66067889  0.24541273  1
  Mn3.34+  Mn162  1  0.42037735  0.16779202  0.08113113  1
  Mn3.34+  Mn163  1  0.75736789  0.16788768  0.41189734  1
  Mn3.34+  Mn164  1  0.74104983  0.66233998  0.75327828  1
  Mn3.34+  Mn165  1  0.57585547  0.15117340  0.90442845  1
  Mn3.34+  Mn166  1  0.24897750  0.66668521  0.24567879  1
  Mn3.34+  Mn167  1  0.75189588  0.16841675  0.75794150  1
  Mn3.34+  Mn168  1  0.57965043  0.66470749  0.58062586  1
  Mn3.34+  Mn169  1  0.90690041  0.66002417  0.58175178  1
  Mn3.34+  Mn170  1  0.24525490  0.17205511  0.58736678  1
  Mn3.34+  Mn171  1  0.25510703  0.16233594  0.90965551  1
  Mn3.34+  Mn172  1  0.41088707  0.67169016  0.09171689  1
  Mn3.34+  Mn173  1  0.58257017  0.66931681  0.25155109  1
  Mn3.34+  Mn174  1  0.58463638  0.15741137  0.90562478  1
  Mn3.34+  Mn175  1  0.09175198  0.66904567  0.75515344  1
  Mn3.34+  Mn176  1  0.91528129  0.17498784  0.58102456  1
  Mn3.34+  Mn177  1  0.58424769  0.67506933  0.91563726  1
  Mn3.34+  Mn178  1  0.58974935  0.16036519  0.58195128  1
  Mn3.34+  Mn179  1  0.74903327  0.66940750  0.08540400  1
  Mn3.34+  Mn180  1  0.24692523  0.49415663  0.59664304  1
  Mn3.34+  Mn181  1  0.92096372  0.49584285  0.92282469  1
  Mn3.34+  Mn182  1  0.59091296  0.50272718  0.58950968  1
  Mn3.34+  Mn183  1  0.91559184  0.49692063  0.24866375  1
  Mn3.34+  Mn184  1  0.75035588  0.50042527  0.08655099  1
  Mn3.34+  Mn185  1  0.25235048  0.49673428  0.24811116  1
  Mn3.34+  Mn186  1  0.75380654  0.49619397  0.41623931  1
  Mn3.34+  Mn187  1  0.23046196  -0.00392219  0.25331676  1
  Mn3.34+  Mn188  1  0.56531453  0.50089461  0.91939436  1
  Mn3.34+  Mn189  1  0.92976639  0.49694735  0.57631450  1
  Mn3.34+  Mn190  1  0.08172811  -0.00222477  0.41117853  1
  Mn3.34+  Mn191  1  0.24493503  0.50005076  0.89894892  1
  Mn3.34+  Mn192  1  0.72653461  0.00517159  0.75556164  1
  Mn3.34+  Mn193  1  0.08591172  0.49596526  0.41169286  1
  Mn3.34+  Mn194  1  0.93512518  0.00154220  0.26046438  1
  Mn3.34+  Mn195  1  0.58696469  0.00161106  0.61296436  1
  Mn3.34+  Mn196  1  0.58417505  0.50220906  0.25896488  1
  Mn3.34+  Mn197  1  0.24964275  0.00149481  0.91970250  1
  Mn3.34+  Mn198  1  0.08211660  0.00064228  0.07831496  1
  Mn3.34+  Mn199  1  0.41522037  0.00437508  0.06964385  1
  Mn3.34+  Mn200  1  0.39908573  0.49582008  0.41385675  1
  Mn3.34+  Mn201  1  0.93042696  -0.00176608  0.57951364  1
  Mn3.34+  Mn202  1  0.75815635  0.49914089  0.75147792  1
  Mn3.34+  Mn203  1  0.75009882  0.01117100  0.40917228  1
  Mn3.34+  Mn204  1  0.25903307  0.49648050  0.89924678  1
  Mn3.34+  Mn205  1  0.76697571  0.50234298  0.41452960  1
  Mn3.34+  Mn206  1  0.91686437  0.50343067  0.57468884  1
  Mn3.34+  Mn207  1  0.91563193  0.00413819  0.58181398  1
  Mn3.34+  Mn208  1  0.58343804  -0.00391305  0.25097307  1
  Mn3.34+  Mn209  1  0.76326566  0.00459851  0.40720704  1
  Mn3.34+  Mn210  1  0.57542194  0.49642263  0.92339334  1
  Mn3.34+  Mn211  1  0.23939704  0.00199372  0.25015280  1
  Mn3.34+  Mn212  1  0.40888862  0.50103660  0.41641994  1
  Mn3.34+  Mn213  1  0.24044168  0.00024631  0.58431211  1
  Mn3.34+  Mn214  1  0.39623977  0.49642041  0.74619675  1
  Mn3.34+  Mn215  1  0.09418719  0.00229160  0.74590615  1
  O2-  O216  1  -0.00122091  0.14941464  0.00042618  1
  O2-  O217  1  0.00473069  0.16363930  0.32390916  1
  O2-  O218  1  -0.00977705  0.16112879  0.66823040  1
  O2-  O219  1  0.00760320  0.65054083  -0.00088760  1
  O2-  O220  1  -0.00182686  0.64254713  0.33319575  1
  O2-  O221  1  0.00497310  0.64043135  0.66135627  1
  O2-  O222  1  0.32775997  0.17186838  0.00256072  1
  O2-  O223  1  0.33798003  0.15858426  0.33564825  1
  O2-  O224  1  0.34025288  0.16303273  0.65710649  1
  O2-  O225  1  0.33015889  0.65655046  0.00966099  1
  O2-  O226  1  0.31784828  0.68284291  0.32850596  1
  O2-  O227  1  0.32819091  0.66543096  0.67638870  1
  O2-  O228  1  0.66846652  0.15016328  -0.01507589  1
  O2-  O229  1  0.68119503  0.15393048  0.33569191  1
  O2-  O230  1  0.67534315  0.16656605  0.66408759  1
  O2-  O231  1  0.66324946  0.66323236  0.00036683  1
  O2-  O232  1  0.67343102  0.66147650  0.32761492  1
  O2-  O233  1  0.66399340  0.64807056  0.66825750  1
  O2-  O234  1  0.17116748  0.16413422  0.00125998  1
  O2-  O235  1  0.18601844  0.18286406  0.33904711  1
  O2-  O236  1  0.16936228  0.16327807  0.66389912  1
  O2-  O237  1  0.17312511  0.65728181  0.01388154  1
  O2-  O238  1  0.16321477  0.64372793  0.32731789  1
  O2-  O239  1  0.16615060  0.67598518  0.67398322  1
  O2-  O240  1  0.50376412  0.13775794  -0.00357983  1
  O2-  O241  1  0.49423385  0.15818277  0.33892792  1
  O2-  O242  1  0.50448993  0.15025800  0.66793933  1
  O2-  O243  1  0.49752558  0.65743482  -0.00191724  1
  O2-  O244  1  0.50444023  0.66328016  0.32782359  1
  O2-  O245  1  0.49381536  0.64204858  0.66790418  1
  O2-  O246  1  0.83691578  0.17080144  -0.00176165  1
  O2-  O247  1  0.84489613  0.14650974  0.34091157  1
  O2-  O248  1  0.83468630  0.16878431  0.67221202  1
  O2-  O249  1  0.83633765  0.65906296  0.00520143  1
  O2-  O250  1  0.83767660  0.70222632  0.33761674  1
  O2-  O251  1  0.84176889  0.63628706  0.67693649  1
  O2-  O252  1  0.00264106  0.34451065  -0.00231394  1
  O2-  O253  1  0.00119274  0.33764845  0.33010308  1
  O2-  O254  1  -0.00540516  0.33461488  0.67107927  1
  O2-  O255  1  -0.00520457  0.85208655  0.00862031  1
  O2-  O256  1  -0.00381596  0.83200799  0.33055937  1
  O2-  O257  1  -0.00326143  0.85956653  0.67408299  1
  O2-  O258  1  0.32851834  0.32185345  0.00359007  1
  O2-  O259  1  0.33840262  0.31857625  0.32830062  1
  O2-  O260  1  0.33422268  0.34590111  0.66719793  1
  O2-  O261  1  0.33700292  0.85339245  -0.00557358  1
  O2-  O262  1  0.33243277  0.85141466  0.33375086  1
  O2-  O263  1  0.33054646  0.83786683  0.66869302  1
  O2-  O264  1  0.66783463  0.35157073  -0.00045391  1
  O2-  O265  1  0.66926995  0.35223596  0.33318034  1
  O2-  O266  1  0.66351170  0.34152692  0.67250143  1
  O2-  O267  1  0.66566519  0.80782429  -0.00080697  1
  O2-  O268  1  0.66937267  0.85757432  0.33234502  1
  O2-  O269  1  0.66875644  0.84413096  0.66860783  1
  O2-  O270  1  0.16887245  0.33063053  0.00362547  1
  O2-  O271  1  0.16635455  0.33246828  0.32941052  1
  O2-  O272  1  0.16632689  0.34379813  0.66858597  1
  O2-  O273  1  0.16324635  0.85021979  -0.00532394  1
  O2-  O274  1  0.17678390  0.82490144  0.33657220  1
  O2-  O275  1  0.16525283  0.83868338  0.66754485  1
  O2-  O276  1  0.49812496  0.34894485  -0.00233956  1
  O2-  O277  1  0.49944690  0.34684960  0.33418012  1
  O2-  O278  1  0.49850885  0.34837611  0.66111103  1
  O2-  O279  1  0.50713582  0.84061947  0.00451050  1
  O2-  O280  1  0.49962200  0.85256683  0.33544642  1
  O2-  O281  1  0.49615688  0.85097614  0.66525049  1
  O2-  O282  1  0.83522950  0.33937868  0.00130815  1
  O2-  O283  1  0.83361813  0.34724397  0.33154164  1
  O2-  O284  1  0.83099640  0.31305833  0.66520887  1
  O2-  O285  1  0.83423108  0.82806517  0.00293993  1
  O2-  O286  1  0.83168636  0.83765805  0.33061398  1
  O2-  O287  1  0.83453577  0.85387793  0.66638068  1
  O2-  O288  1  -0.00435330  0.17751394  0.16120585  1
  O2-  O289  1  -0.00147204  0.18441069  0.51016500  1
  O2-  O290  1  -0.00632691  0.17901355  0.84212709  1
  O2-  O291  1  0.00141162  0.68548247  0.16978403  1
  O2-  O292  1  -0.00539709  0.68976098  0.50126308  1
  O2-  O293  1  -0.01183554  0.66843793  0.82196542  1
  O2-  O294  1  0.33930144  0.18252567  0.15924825  1
  O2-  O295  1  0.32493838  0.17932046  0.49662322  1
  O2-  O296  1  0.33431807  0.18442627  0.83370101  1
  O2-  O297  1  0.32656656  0.68855854  0.16533592  1
  O2-  O298  1  0.32662164  0.68431017  0.51139214  1
  O2-  O299  1  0.34573682  0.68098771  0.84398444  1
  O2-  O300  1  0.66755427  0.16890790  0.16141549  1
  O2-  O301  1  0.66571845  0.18053158  0.49932262  1
  O2-  O302  1  0.66382505  0.18994231  0.82899728  1
  O2-  O303  1  0.65943386  0.68721666  0.15650797  1
  O2-  O304  1  0.66146798  0.69106255  0.49598452  1
  O2-  O305  1  0.66678661  0.69430632  0.83717315  1
  O2-  O306  1  0.16759558  0.18416077  0.15442167  1
  O2-  O307  1  0.16894955  0.17605446  0.50589778  1
  O2-  O308  1  0.17086239  0.18535938  0.84896346  1
  O2-  O309  1  0.16111117  0.68633029  0.17215317  1
  O2-  O310  1  0.16330266  0.67800666  0.50187817  1
  O2-  O311  1  0.15517230  0.68432630  0.84047775  1
  O2-  O312  1  0.50305360  0.16238629  0.15514389  1
  O2-  O313  1  0.48671942  0.16067827  0.51382239  1
  O2-  O314  1  0.49581768  0.17598501  0.83068345  1
  O2-  O315  1  0.50460510  0.68144905  0.16100550  1
  O2-  O316  1  0.49865181  0.67707648  0.50792571  1
  O2-  O317  1  0.50061489  0.68257077  0.83306406  1
  O2-  O318  1  0.83415922  0.17265030  0.17434101  1
  O2-  O319  1  0.83197652  0.18921875  0.50253707  1
  O2-  O320  1  0.83901552  0.18874941  0.83470741  1
  O2-  O321  1  0.82897374  0.69497242  0.16337224  1
  O2-  O322  1  0.83023471  0.69291606  0.50486710  1
  O2-  O323  1  0.82905662  0.67944123  0.83789408  1
  O2-  O324  1  -0.00408766  0.32220773  0.16418156  1
  O2-  O325  1  0.00162073  0.31402148  0.50251567  1
  O2-  O326  1  -0.00130104  0.31664311  0.83647198  1
  O2-  O327  1  -0.00066949  0.81208316  0.16553825  1
  O2-  O328  1  0.00331812  0.82327972  0.50439418  1
  O2-  O329  1  0.00103559  0.82968514  0.83590997  1
  O2-  O330  1  0.33520504  0.31364052  0.16812653  1
  O2-  O331  1  0.33831440  0.32498723  0.50756173  1
  O2-  O332  1  0.33112295  0.30559718  0.83515720  1
  O2-  O333  1  0.34017132  0.82029193  0.17539548  1
  O2-  O334  1  0.33463040  0.82234001  0.50509621  1
  O2-  O335  1  0.33187651  0.82077589  0.82958530  1
  O2-  O336  1  0.66461106  0.33388718  0.16593729  1
  O2-  O337  1  0.66910291  0.32211227  0.50046433  1
  O2-  O338  1  0.66869166  0.31926810  0.83731598  1
  O2-  O339  1  0.66997396  0.81852341  0.16372146  1
  O2-  O340  1  0.66759035  0.82569028  0.50343767  1
  O2-  O341  1  0.66527194  0.81405953  0.83853482  1
  O2-  O342  1  0.16641638  0.31470305  0.16838771  1
  O2-  O343  1  0.16568578  0.32143911  0.50096478  1
  O2-  O344  1  0.16330882  0.31790210  0.84095596  1
  O2-  O345  1  0.17377136  0.81352703  0.15903907  1
  O2-  O346  1  0.17008378  0.81073154  0.50647989  1
  O2-  O347  1  0.16793361  0.82303920  0.83052642  1
  O2-  O348  1  0.49896602  0.32674655  0.16854614  1
  O2-  O349  1  0.49435276  0.33465042  0.50590135  1
  O2-  O350  1  0.50767466  0.32324007  0.82302186  1
  O2-  O351  1  0.49419720  0.82878228  0.17484815  1
  O2-  O352  1  0.50585832  0.82676565  0.49391532  1
  O2-  O353  1  0.49536144  0.82259613  0.84338247  1
  O2-  O354  1  0.83064558  0.32226306  0.16884832  1
  O2-  O355  1  0.83310761  0.31496613  0.50111890  1
  O2-  O356  1  0.82904881  0.31192629  0.84552146  1
  O2-  O357  1  0.82658743  0.81629956  0.17142504  1
  O2-  O358  1  0.82925091  0.81430427  0.50198523  1
  O2-  O359  1  0.84069964  0.82418731  0.83011832  1
  O2-  O360  1  0.11253277  0.08014142  0.10103295  1
  O2-  O361  1  0.09637243  0.07457688  0.45103303  1
  O2-  O362  1  0.05702743  0.07314726  0.78541740  1
  O2-  O363  1  0.09167567  0.58584365  0.11046547  1
  O2-  O364  1  0.08653222  0.57650937  0.46161859  1
  O2-  O365  1  0.08561600  0.58439365  0.78037117  1
  O2-  O366  1  0.38757356  0.08226124  0.10779839  1
  O2-  O367  1  0.38268975  0.07953916  0.44837268  1
  O2-  O368  1  0.40613592  0.08168598  0.74154861  1
  O2-  O369  1  0.41380524  0.59033616  0.10834300  1
  O2-  O370  1  0.41193983  0.58101316  0.44529616  1
  O2-  O371  1  0.42566944  0.57832891  0.79216033  1
  O2-  O372  1  0.74239416  0.06863789  0.10925225  1
  O2-  O373  1  0.76365749  0.08474125  0.45753513  1
  O2-  O374  1  0.78431855  0.08063753  0.78072461  1
  O2-  O375  1  0.72066380  0.58094391  0.09775604  1
  O2-  O376  1  0.75394703  0.57977715  0.45678363  1
  O2-  O377  1  0.74334389  0.58121717  0.79531044  1
  O2-  O378  1  0.24809061  0.08265350  0.22839772  1
  O2-  O379  1  0.25257798  0.08233016  0.55942075  1
  O2-  O380  1  0.23532527  0.08070877  0.89849511  1
  O2-  O381  1  0.23341808  0.57672481  0.20619876  1
  O2-  O382  1  0.24967034  0.55955596  0.53648966  1
  O2-  O383  1  0.26450496  0.58175270  0.87241486  1
  O2-  O384  1  0.57322264  0.07146937  0.22461165  1
  O2-  O385  1  0.60384732  0.07819986  0.56157237  1
  O2-  O386  1  0.60813680  0.07588748  0.87576760  1
  O2-  O387  1  0.58539479  0.58387329  0.22478934  1
  O2-  O388  1  0.58072821  0.58216253  0.54994407  1
  O2-  O389  1  0.59040089  0.57844667  0.87502984  1
  O2-  O390  1  0.91595073  0.07949969  0.22041470  1
  O2-  O391  1  0.91586053  0.08423436  0.55382694  1
  O2-  O392  1  0.91027133  0.08417025  0.89672547  1
  O2-  O393  1  0.92791002  0.57725156  0.20219153  1
  O2-  O394  1  0.92243651  0.58061156  0.53447928  1
  O2-  O395  1  0.91284997  0.57798072  0.89356547  1
  O2-  O396  1  0.09339569  0.41105395  0.10682991  1
  O2-  O397  1  0.07951592  0.41766667  0.42588678  1
  O2-  O398  1  0.06774353  0.41611434  0.78846835  1
  O2-  O399  1  0.08884918  0.92249389  0.11434948  1
  O2-  O400  1  0.08765955  0.91669322  0.44075429  1
  O2-  O401  1  0.08167261  0.92294976  0.78483088  1
  O2-  O402  1  0.40421259  0.41275565  0.10303223  1
  O2-  O403  1  0.41206085  0.41527130  0.44149602  1
  O2-  O404  1  0.42828995  0.41425665  0.77501994  1
  O2-  O405  1  0.41231594  0.92367694  0.11248477  1
  O2-  O406  1  0.41968670  0.92071008  0.45291881  1
  O2-  O407  1  0.40384859  0.91804674  0.77003992  1
  O2-  O408  1  0.76811982  0.42045395  0.10508559  1
  O2-  O409  1  0.75489420  0.41877841  0.45551083  1
  O2-  O410  1  0.76167104  0.41502556  0.78228457  1
  O2-  O411  1  0.75203374  0.91555477  0.10033966  1
  O2-  O412  1  0.75961173  0.92658068  0.45706716  1
  O2-  O413  1  0.76539465  0.92226001  0.77684858  1
  O2-  O414  1  0.25820581  0.41699348  0.22119816  1
  O2-  O415  1  0.26321477  0.42129061  0.55514539  1
  O2-  O416  1  0.24108710  0.41409326  0.91283091  1
  O2-  O417  1  0.24916364  0.91844188  0.21101196  1
  O2-  O418  1  0.24244285  0.92072532  0.55272473  1
  O2-  O419  1  0.25567058  0.92335083  0.88162431  1
  O2-  O420  1  0.57685910  0.42338613  0.22417754  1
  O2-  O421  1  0.59065309  0.41914968  0.55697460  1
  O2-  O422  1  0.60785770  0.42377759  0.87348651  1
  O2-  O423  1  0.61112445  0.92260362  0.20475909  1
  O2-  O424  1  0.60374028  0.92637289  0.55232085  1
  O2-  O425  1  0.57835352  0.91979495  0.91120302  1
  O2-  O426  1  0.92144699  0.41681096  0.22248583  1
  O2-  O427  1  0.89927762  0.41630936  0.57801629  1
  O2-  O428  1  0.90055562  0.41818389  0.88752310  1
  O2-  O429  1  0.89853533  0.92246120  0.21167717  1
  O2-  O430  1  0.90301459  0.92155280  0.53874975  1
  O2-  O431  1  0.92336482  0.92134598  0.89994601  1
  O2-  O432  1  -0.01449816  0.00696507  0.03277507  1
  O2-  O433  1  -0.03481205  0.00130665  0.38545725  1
  O2-  O434  1  -0.00645426  -0.00922854  0.67922927  1
  O2-  O435  1  -0.00802117  0.49266407  0.00621408  1
  O2-  O436  1  0.01300534  0.50754768  0.30980754  1
  O2-  O437  1  -0.00162911  0.51110425  0.66975110  1
  O2-  O438  1  0.31289570  -0.00442247  0.01805371  1
  O2-  O439  1  0.34935830  -0.00794925  0.29211887  1
  O2-  O440  1  0.32733131  -0.00436915  0.64904947  1
  O2-  O441  1  0.33370575  0.51957666  -0.01110140  1
  O2-  O442  1  0.33437340  0.51528464  0.32307897  1
  O2-  O443  1  0.35548053  0.50060218  0.62721294  1
  O2-  O444  1  0.67491129  0.01958329  0.01816834  1
  O2-  O445  1  0.65041335  -0.01411981  0.35328791  1
  O2-  O446  1  0.70203483  0.00106091  0.62962122  1
  O2-  O447  1  0.65878844  0.48853038  0.00618090  1
  O2-  O448  1  0.65830981  0.49428630  0.35203982  1
  O2-  O449  1  0.65646923  0.48668719  0.69298209  1
  O2-  O450  1  0.14807892  -0.01041475  -0.01536342  1
  O2-  O451  1  0.19394297  -0.00141084  0.36883746  1
  O2-  O452  1  0.14625454  -0.00886750  0.64513714  1
  O2-  O453  1  0.16956231  0.52061163  -0.01153860  1
  O2-  O454  1  0.16527614  0.51318483  0.32401885  1
  O2-  O455  1  0.16962120  0.50448120  0.66242011  1
  O2-  O456  1  0.52663171  0.01136328  0.05935495  1
  O2-  O457  1  0.49918310  -0.03088277  0.31741004  1
  O2-  O458  1  0.47655715  -0.00075196  0.60291413  1
  O2-  O459  1  0.49936051  0.53287410  0.00304321  1
  O2-  O460  1  0.50353189  0.49888076  0.34675781  1
  O2-  O461  1  0.50724895  0.49250217  0.68464142  1
  O2-  O462  1  0.83432137  0.01225731  0.01935280  1
  O2-  O463  1  0.80546424  -0.00463082  0.29824405  1
  O2-  O464  1  0.84308037  -0.01144299  0.67398055  1
  O2-  O465  1  0.81995542  0.50422441  -0.01221966  1
  O2-  O466  1  0.81950457  0.49452874  0.31220656  1
  O2-  O467  1  0.83871548  0.50958019  0.66596087  1
  O2-  O468  1  0.90647353  0.24849593  0.26849409  1
  O2-  O469  1  0.08675178  0.25524113  0.73116570  1
  O2-  O470  1  0.25038349  0.75923735  0.93443639  1
  O2-  O471  1  0.57459857  0.24944305  0.60336767  1
  O2-  O472  1  0.08290829  0.25350876  0.40384243  1
  O2-  O473  1  0.42525810  0.24942292  0.72249341  1
  O2-  O474  1  0.43043008  0.75240773  0.72308236  1
  O2-  O475  1  0.41685536  0.75867926  0.39816825  1
  O2-  O476  1  0.07177202  0.74099976  0.38662931  1
  O2-  O477  1  0.08073627  0.75215676  0.05304077  1
  O2-  O478  1  0.43728874  0.24663510  0.41637689  1
  O2-  O479  1  0.44411916  0.24749364  0.06203088  1
  O2-  O480  1  0.41629708  0.75335904  0.05873417  1
  O2-  O481  1  0.58370729  0.75416490  0.27566568  1
  O2-  O482  1  0.57313766  0.23797359  0.94137078  1
  O2-  O483  1  0.74313016  0.25034471  0.38459132  1
  O2-  O484  1  0.06399455  0.24756811  0.05417519  1
  O2-  O485  1  0.92961976  0.75086171  0.93068678  1
  O2-  O486  1  0.58038096  0.74667352  0.61424287  1
  O2-  O487  1  0.25211975  0.25428370  0.60407729  1
  O2-  O488  1  0.76159781  0.74870807  0.72038318  1
  O2-  O489  1  0.58544774  0.25522986  0.25749168  1
  O2-  O490  1  0.73764724  0.25460243  0.07392700  1
  O2-  O491  1  0.06547573  0.75314228  0.73279482  1
  O2-  O492  1  0.91829697  0.74490792  0.62518681  1
