# generated using pymatgen
data_Ca108Mn108O277
_symmetry_space_group_name_H-M   'P 1'
_cell_length_a   16.02439632
_cell_length_b   22.30501029
_cell_length_c   16.38723647
_cell_angle_alpha   90.00587753
_cell_angle_beta   89.99874834
_cell_angle_gamma   90.00315178
_symmetry_Int_Tables_number   1
_chemical_formula_structural   Ca108Mn108O277
_chemical_formula_sum   'Ca108 Mn108 O277'
_cell_volume   5857.19689162
_cell_formula_units_Z   1
loop_
 _symmetry_equiv_pos_site_id
 _symmetry_equiv_pos_as_xyz
  1  'x, y, z'
loop_
 _atom_type_symbol
 _atom_type_oxidation_number
  Ca2+  2.0
  Mn3.34+  3.34
  O2-  -2.0
loop_
 _atom_site_type_symbol
 _atom_site_label
 _atom_site_symmetry_multiplicity
 _atom_site_fract_x
 _atom_site_fract_y
 _atom_site_fract_z
 _atom_site_occupancy
  Ca2+  Ca0  1  0.08031155  0.26557752  0.24321210  1
  Ca2+  Ca1  1  0.07711528  0.25224203  0.59100139  1
  Ca2+  Ca2  1  0.08778359  0.25476874  0.92124767  1
  Ca2+  Ca3  1  0.08121767  0.74244626  0.25141250  1
  Ca2+  Ca4  1  0.09339308  0.73757495  0.58525199  1
  Ca2+  Ca5  1  0.08137387  0.74724819  0.91161005  1
  Ca2+  Ca6  1  0.41881818  0.25413031  0.23434980  1
  Ca2+  Ca7  1  0.40429728  0.24314999  0.59275082  1
  Ca2+  Ca8  1  0.42277067  0.22532530  0.93194926  1
  Ca2+  Ca9  1  0.40760335  0.74633456  0.26956569  1
  Ca2+  Ca10  1  0.40539184  0.74716996  0.55943340  1
  Ca2+  Ca11  1  0.41508378  0.76629959  0.91246683  1
  Ca2+  Ca12  1  0.75856157  0.24919784  0.24390377  1
  Ca2+  Ca13  1  0.75943129  0.25097795  0.58667196  1
  Ca2+  Ca14  1  0.74725299  0.22558144  0.92109340  1
  Ca2+  Ca15  1  0.76197574  0.75285760  0.24367002  1
  Ca2+  Ca16  1  0.76297748  0.74991687  0.57924391  1
  Ca2+  Ca17  1  0.76079007  0.75742246  0.92541272  1
  Ca2+  Ca18  1  0.25641453  0.26100325  0.07591661  1
  Ca2+  Ca19  1  0.25153557  0.27261615  0.41385112  1
  Ca2+  Ca20  1  0.24954458  0.24061600  0.75171146  1
  Ca2+  Ca21  1  0.24838105  0.75228086  0.08226472  1
  Ca2+  Ca22  1  0.26046833  0.74451056  0.42356003  1
  Ca2+  Ca23  1  0.23819034  0.75802397  0.74043593  1
  Ca2+  Ca24  1  0.57534718  0.24797390  0.08319944  1
  Ca2+  Ca25  1  0.58218366  0.26337124  0.41223929  1
  Ca2+  Ca26  1  0.58064345  0.25338645  0.75630461  1
  Ca2+  Ca27  1  0.59173168  0.76196914  0.08318228  1
  Ca2+  Ca28  1  0.56327091  0.74545808  0.41687912  1
  Ca2+  Ca29  1  0.57935125  0.76076014  0.74189967  1
  Ca2+  Ca30  1  0.91491416  0.25438309  0.08295708  1
  Ca2+  Ca31  1  0.91621298  0.25931793  0.41757692  1
  Ca2+  Ca32  1  0.91612502  0.25016411  0.75709161  1
  Ca2+  Ca33  1  0.91080513  0.74417563  0.08480244  1
  Ca2+  Ca34  1  0.92092678  0.73300843  0.42917108  1
  Ca2+  Ca35  1  0.92694665  0.73978607  0.73692273  1
  Ca2+  Ca36  1  0.05181215  0.60014733  0.57751192  1
  Ca2+  Ca37  1  0.79154908  0.60069849  0.56882890  1
  Ca2+  Ca38  1  0.76713920  0.58018978  0.93262947  1
  Ca2+  Ca39  1  0.90711526  0.10792294  0.07954533  1
  Ca2+  Ca40  1  0.06844074  0.58939153  0.93648406  1
  Ca2+  Ca41  1  0.55615507  0.10331217  0.05860340  1
  Ca2+  Ca42  1  0.22236258  0.59571785  0.73702839  1
  Ca2+  Ca43  1  0.57355530  0.59212011  0.41026134  1
  Ca2+  Ca44  1  0.26510655  0.08889220  0.44135239  1
  Ca2+  Ca45  1  0.09749262  0.09658790  0.59870172  1
  Ca2+  Ca46  1  0.75188186  0.59030086  0.25199332  1
  Ca2+  Ca47  1  0.40810698  0.58789945  0.92056827  1
  Ca2+  Ca48  1  0.57384725  0.10153098  0.78480723  1
  Ca2+  Ca49  1  0.75352588  0.07324877  0.62069353  1
  Ca2+  Ca50  1  0.44572806  0.08447645  0.24359932  1
  Ca2+  Ca51  1  0.07577156  0.09610600  0.92063412  1
  Ca2+  Ca52  1  0.06638639  0.09905620  0.91777106  1
  Ca2+  Ca53  1  0.27583667  0.09281742  0.06868527  1
  Ca2+  Ca54  1  0.92554885  0.58882583  0.08223138  1
  Ca2+  Ca55  1  0.06007184  0.10015053  0.23287809  1
  Ca2+  Ca56  1  0.42141135  0.58697905  0.92139985  1
  Ca2+  Ca57  1  0.91570394  0.10501171  0.08389978  1
  Ca2+  Ca58  1  0.90111884  0.10810547  0.41209337  1
  Ca2+  Ca59  1  0.28972209  0.07917268  0.71184406  1
  Ca2+  Ca60  1  0.40830606  0.60842276  0.54557994  1
  Ca2+  Ca61  1  0.26450450  0.09326376  0.06975481  1
  Ca2+  Ca62  1  0.42183756  0.58485725  0.29173042  1
  Ca2+  Ca63  1  0.56693827  0.10285961  0.06021835  1
  Ca2+  Ca64  1  0.43242990  0.58633182  0.29291712  1
  Ca2+  Ca65  1  0.23462065  0.59518164  0.73368966  1
  Ca2+  Ca66  1  0.74909388  0.10666147  0.24792318  1
  Ca2+  Ca67  1  0.74077184  0.59028229  0.25228056  1
  Ca2+  Ca68  1  0.89650784  0.10205194  0.76994295  1
  Ca2+  Ca69  1  0.10693414  0.09531326  0.59450319  1
  Ca2+  Ca70  1  0.24998098  0.60908161  0.42649035  1
  Ca2+  Ca71  1  0.58475271  0.10203565  0.78415669  1
  Ca2+  Ca72  1  0.57660206  0.90497841  0.40640395  1
  Ca2+  Ca73  1  0.26381802  0.91966604  0.73614517  1
  Ca2+  Ca74  1  0.76275327  0.41302898  0.59238686  1
  Ca2+  Ca75  1  0.92769146  0.41439825  0.41130570  1
  Ca2+  Ca76  1  0.42293066  0.38765062  0.91652649  1
  Ca2+  Ca77  1  0.07382764  0.40372978  0.57660009  1
  Ca2+  Ca78  1  0.74665009  0.91184576  0.92334466  1
  Ca2+  Ca79  1  0.41951477  0.39470981  0.56672562  1
  Ca2+  Ca80  1  0.91303115  0.90344707  0.08114513  1
  Ca2+  Ca81  1  0.43573319  0.90935047  0.24984732  1
  Ca2+  Ca82  1  0.25586150  0.90581405  0.42216212  1
  Ca2+  Ca83  1  0.07488819  0.41257245  0.93950574  1
  Ca2+  Ca84  1  0.24654188  0.90966046  0.08166225  1
  Ca2+  Ca85  1  0.93086165  0.41223343  0.08240715  1
  Ca2+  Ca86  1  0.41937831  0.91390309  0.91474453  1
  Ca2+  Ca87  1  0.09388077  0.91144179  0.93079462  1
  Ca2+  Ca88  1  0.76094996  0.40822154  0.91319026  1
  Ca2+  Ca89  1  0.89410813  0.90955103  0.74641822  1
  Ca2+  Ca90  1  0.39841494  0.92644155  0.59509373  1
  Ca2+  Ca91  1  0.59784336  0.40564320  0.74809450  1
  Ca2+  Ca92  1  0.74879006  0.91201808  0.59695644  1
  Ca2+  Ca93  1  0.57882603  0.91897641  0.74621722  1
  Ca2+  Ca94  1  0.58617690  0.39856386  0.09021970  1
  Ca2+  Ca95  1  0.75179249  0.41163259  0.59203302  1
  Ca2+  Ca96  1  0.24318908  0.39230939  0.75375161  1
  Ca2+  Ca97  1  0.08249020  0.91089652  0.93125096  1
  Ca2+  Ca98  1  0.90487227  0.89267297  0.42223376  1
  Ca2+  Ca99  1  0.91773548  0.89276519  0.42185673  1
  Ca2+  Ca100  1  0.09983811  0.90273647  0.58459168  1
  Ca2+  Ca101  1  0.74133573  0.41072952  0.25205223  1
  Ca2+  Ca102  1  0.42582965  0.90600766  0.25207263  1
  Ca2+  Ca103  1  0.44036212  0.42370059  0.29185577  1
  Ca2+  Ca104  1  0.09077433  0.89895227  0.24053639  1
  Ca2+  Ca105  1  0.08507723  0.40335084  0.57633840  1
  Ca2+  Ca106  1  0.59004056  0.91884729  0.74599101  1
  Ca2+  Ca107  1  0.74863636  0.40785493  0.91548148  1
  Mn3.34+  Mn108  1  0.08853036  0.33600734  0.08602481  1
  Mn3.34+  Mn109  1  0.08706097  0.34311053  0.40856422  1
  Mn3.34+  Mn110  1  0.07838995  0.33512681  0.75879115  1
  Mn3.34+  Mn111  1  0.08282271  0.83465604  0.08735556  1
  Mn3.34+  Mn112  1  0.08813467  0.82382177  0.41736324  1
  Mn3.34+  Mn113  1  0.08152244  0.83284707  0.75240959  1
  Mn3.34+  Mn114  1  0.41514891  0.32841591  0.08615202  1
  Mn3.34+  Mn115  1  0.41665048  0.33515724  0.41509627  1
  Mn3.34+  Mn116  1  0.41885299  0.32764901  0.75124233  1
  Mn3.34+  Mn117  1  0.41937880  0.83598101  0.08169063  1
  Mn3.34+  Mn118  1  0.41577030  0.83448500  0.42062315  1
  Mn3.34+  Mn119  1  0.41690595  0.84180759  0.74815358  1
  Mn3.34+  Mn120  1  0.75154174  0.33237080  0.08812535  1
  Mn3.34+  Mn121  1  0.74844310  0.33570751  0.41664523  1
  Mn3.34+  Mn122  1  0.75274242  0.33013079  0.75511453  1
  Mn3.34+  Mn123  1  0.74887871  0.83678227  0.08707596  1
  Mn3.34+  Mn124  1  0.74346977  0.82715150  0.41597291  1
  Mn3.34+  Mn125  1  0.74796158  0.83561103  0.75502600  1
  Mn3.34+  Mn126  1  0.25141140  0.33860429  0.24688741  1
  Mn3.34+  Mn127  1  0.25004851  0.32873149  0.58276689  1
  Mn3.34+  Mn128  1  0.25076585  0.32902616  0.91719240  1
  Mn3.34+  Mn129  1  0.25004436  0.83095079  0.24796954  1
  Mn3.34+  Mn130  1  0.25120078  0.83266619  0.58364476  1
  Mn3.34+  Mn131  1  0.25340512  0.83405737  0.91327311  1
  Mn3.34+  Mn132  1  0.58446038  0.33862737  0.24919908  1
  Mn3.34+  Mn133  1  0.58183268  0.33207442  0.57999009  1
  Mn3.34+  Mn134  1  0.58565725  0.32797171  0.91733064  1
  Mn3.34+  Mn135  1  0.59110430  0.83586199  0.24641113  1
  Mn3.34+  Mn136  1  0.58152586  0.83505926  0.57737225  1
  Mn3.34+  Mn137  1  0.58498413  0.83500026  0.91854120  1
  Mn3.34+  Mn138  1  0.91794118  0.34175862  0.24658987  1
  Mn3.34+  Mn139  1  0.91613911  0.33188527  0.58566030  1
  Mn3.34+  Mn140  1  0.91723720  0.33243359  0.91535501  1
  Mn3.34+  Mn141  1  0.91689290  0.82633713  0.24644669  1
  Mn3.34+  Mn142  1  0.91999334  0.82931381  0.58766047  1
  Mn3.34+  Mn143  1  0.91315958  0.83209083  0.91329671  1
  Mn3.34+  Mn144  1  0.58651578  0.67228565  0.57612219  1
  Mn3.34+  Mn145  1  0.08287443  0.65505480  0.41778116  1
  Mn3.34+  Mn146  1  0.42896784  0.66473748  0.74502753  1
  Mn3.34+  Mn147  1  0.74885059  0.16905482  0.75624828  1
  Mn3.34+  Mn148  1  0.24490709  0.15979650  0.24789106  1
  Mn3.34+  Mn149  1  0.59188343  0.16617701  0.58084470  1
  Mn3.34+  Mn150  1  0.58738555  0.16021358  0.24884099  1
  Mn3.34+  Mn151  1  0.75225880  0.66639985  0.08546976  1
  Mn3.34+  Mn152  1  0.08002493  0.16939342  0.41657538  1
  Mn3.34+  Mn153  1  0.74930265  0.64570600  0.75235819  1
  Mn3.34+  Mn154  1  0.07986815  0.17246190  0.75490613  1
  Mn3.34+  Mn155  1  0.92405901  0.66248249  0.25301509  1
  Mn3.34+  Mn156  1  0.74678976  0.17310075  0.41701980  1
  Mn3.34+  Mn157  1  0.41134316  0.67079782  0.08897437  1
  Mn3.34+  Mn158  1  0.07956068  0.17005229  0.08345759  1
  Mn3.34+  Mn159  1  0.58713017  0.66799895  0.91441823  1
  Mn3.34+  Mn160  1  0.25599330  0.16464155  0.24832471  1
  Mn3.34+  Mn161  1  0.42236264  0.66612768  0.09127088  1
  Mn3.34+  Mn162  1  0.41543174  0.67052173  0.74302104  1
  Mn3.34+  Mn163  1  0.08533409  0.65873598  0.09055055  1
  Mn3.34+  Mn164  1  0.41608797  0.16609842  0.75235615  1
  Mn3.34+  Mn165  1  0.58182075  0.16063833  0.57903024  1
  Mn3.34+  Mn166  1  0.07369027  0.66455116  0.75343988  1
  Mn3.34+  Mn167  1  0.24485940  0.66970069  0.91950265  1
  Mn3.34+  Mn168  1  0.41297014  0.16838219  0.41689115  1
  Mn3.34+  Mn169  1  0.09060608  0.17400017  0.41476200  1
  Mn3.34+  Mn170  1  0.74764395  0.66633797  0.41813748  1
  Mn3.34+  Mn171  1  0.74883334  0.17045465  0.08551557  1
  Mn3.34+  Mn172  1  0.25309600  0.16566643  0.90851444  1
  Mn3.34+  Mn173  1  0.90992150  0.16622635  0.58548482  1
  Mn3.34+  Mn174  1  0.24038664  0.66694430  0.24796301  1
  Mn3.34+  Mn175  1  0.58508099  0.66867161  0.24431388  1
  Mn3.34+  Mn176  1  0.42591286  0.16229619  0.41916741  1
  Mn3.34+  Mn177  1  0.91630268  0.66821874  0.91661931  1
  Mn3.34+  Mn178  1  0.59687951  0.66198952  0.91154965  1
  Mn3.34+  Mn179  1  0.75204846  0.65654042  0.74817860  1
  Mn3.34+  Mn180  1  0.06287901  0.49872668  0.74720671  1
  Mn3.34+  Mn181  1  0.42552712  0.00155697  0.41081602  1
  Mn3.34+  Mn182  1  0.72857489  0.00020839  0.41468548  1
  Mn3.34+  Mn183  1  0.07572605  -0.00238362  0.75355925  1
  Mn3.34+  Mn184  1  0.90768719  -0.00045159  0.92336402  1
  Mn3.34+  Mn185  1  0.23327309  0.49622728  0.25434933  1
  Mn3.34+  Mn186  1  0.58063037  -0.00005722  0.58821723  1
  Mn3.34+  Mn187  1  0.91811387  0.50090887  0.59570167  1
  Mn3.34+  Mn188  1  0.25401913  0.49917427  0.57137347  1
  Mn3.34+  Mn189  1  0.74037735  0.00760168  0.41673174  1
  Mn3.34+  Mn190  1  0.59158274  0.50384405  0.57670795  1
  Mn3.34+  Mn191  1  0.41225724  0.49401703  0.09341387  1
  Mn3.34+  Mn192  1  0.58920965  -0.00149097  0.92955232  1
  Mn3.34+  Mn193  1  0.25250910  -0.00372450  0.25509280  1
  Mn3.34+  Mn194  1  0.07733776  -0.00154760  0.42286781  1
  Mn3.34+  Mn195  1  0.22431977  0.50356128  0.25929380  1
  Mn3.34+  Mn196  1  0.42631335  0.49994974  0.09343305  1
  Mn3.34+  Mn197  1  0.09245533  0.00373663  0.42338061  1
  Mn3.34+  Mn198  1  0.41259482  0.49252051  0.74711237  1
  Mn3.34+  Mn199  1  0.91849321  0.50126081  0.91748387  1
  Mn3.34+  Mn200  1  0.58076528  0.49967643  0.57421422  1
  Mn3.34+  Mn201  1  0.42704184  0.49848504  0.74804787  1
  Mn3.34+  Mn202  1  0.74050864  0.50040713  0.40484433  1
  Mn3.34+  Mn203  1  0.58312003  0.49924067  0.90868722  1
  Mn3.34+  Mn204  1  0.90374799  -0.00681456  0.24457755  1
  Mn3.34+  Mn205  1  0.25574309  0.00263266  0.91264513  1
  Mn3.34+  Mn206  1  0.75130137  0.00076495  0.08764620  1
  Mn3.34+  Mn207  1  0.91205769  0.00094126  0.58234985  1
  Mn3.34+  Mn208  1  0.23949207  0.49906098  0.92192497  1
  Mn3.34+  Mn209  1  0.24264329  0.50471321  0.57173229  1
  Mn3.34+  Mn210  1  0.08623877  0.00278866  0.75537499  1
  Mn3.34+  Mn211  1  0.92685591  0.50183292  0.26683962  1
  Mn3.34+  Mn212  1  0.24898312  0.49376004  0.92766320  1
  Mn3.34+  Mn213  1  0.74268210  0.49862845  0.07921513  1
  Mn3.34+  Mn214  1  0.91390591  -0.00108938  0.24796250  1
  Mn3.34+  Mn215  1  0.41829103  -0.00255341  0.07970710  1
  O2-  O216  1  0.00012297  0.16388373  0.00037304  1
  O2-  O217  1  0.00201641  0.16136967  0.33335617  1
  O2-  O218  1  -0.00154987  0.14877683  0.66876606  1
  O2-  O219  1  0.00104111  0.66754685  0.00761621  1
  O2-  O220  1  0.00394611  0.67542316  0.33703223  1
  O2-  O221  1  -0.00311812  0.65931361  0.67713046  1
  O2-  O222  1  0.32885390  0.15715788  -0.00839528  1
  O2-  O223  1  0.33765300  0.13854926  0.32584169  1
  O2-  O224  1  0.33324587  0.17111619  0.67190311  1
  O2-  O225  1  0.33428348  0.64686541  -0.00085236  1
  O2-  O226  1  0.32429541  0.65160644  0.32260498  1
  O2-  O227  1  0.33539959  0.64346986  0.67165359  1
  O2-  O228  1  0.66520383  0.16257120  0.01187966  1
  O2-  O229  1  0.66500166  0.18595288  0.33168028  1
  O2-  O230  1  0.66620043  0.15133775  0.66682202  1
  O2-  O231  1  0.67591908  0.65129565  -0.00256550  1
  O2-  O232  1  0.66600528  0.66567849  0.32991270  1
  O2-  O233  1  0.67352509  0.66796131  0.66156970  1
  O2-  O234  1  0.16750453  0.14652533  0.00022551  1
  O2-  O235  1  0.17065779  0.13859752  0.33237526  1
  O2-  O236  1  0.16415351  0.16198539  0.67313524  1
  O2-  O237  1  0.15782809  0.67554446  0.00042554  1
  O2-  O238  1  0.16308254  0.67253707  0.33236372  1
  O2-  O239  1  0.15357620  0.65624668  0.66872128  1
  O2-  O240  1  0.51219474  0.17994067  0.00553318  1
  O2-  O241  1  0.50209105  0.15704651  0.33301840  1
  O2-  O242  1  0.50702649  0.15245228  0.66767662  1
  O2-  O243  1  0.49567149  0.64721876  -0.00012965  1
  O2-  O244  1  0.50352656  0.67204791  0.32410601  1
  O2-  O245  1  0.50050024  0.65305634  0.65884176  1
  O2-  O246  1  0.83385620  0.16578956  0.00725308  1
  O2-  O247  1  0.82742959  0.17585237  0.33761791  1
  O2-  O248  1  0.82863220  0.15388047  0.66492170  1
  O2-  O249  1  0.83648777  0.65232900  0.00402908  1
  O2-  O250  1  0.82608923  0.65606864  0.32799257  1
  O2-  O251  1  0.82721426  0.67387560  0.67145940  1
  O2-  O252  1  -0.00330977  0.32889879  -0.00120733  1
  O2-  O253  1  -0.00648977  0.33597043  0.33439342  1
  O2-  O254  1  0.00208864  0.34872114  0.66445581  1
  O2-  O255  1  0.00081327  0.84461463  -0.00017791  1
  O2-  O256  1  0.00151742  0.83654527  0.33382319  1
  O2-  O257  1  -0.00132538  0.85425740  0.67043895  1
  O2-  O258  1  0.33536168  0.34023817  -0.00179636  1
  O2-  O259  1  0.33658696  0.34278717  0.33040067  1
  O2-  O260  1  0.33163789  0.33478874  0.66706343  1
  O2-  O261  1  0.33201893  0.85475661  -0.00285241  1
  O2-  O262  1  0.33821501  0.85400954  0.33039649  1
  O2-  O263  1  0.33616472  0.84906064  0.66470666  1
  O2-  O264  1  0.67197236  0.34665057  -0.00244804  1
  O2-  O265  1  0.67040757  0.32341130  0.32899042  1
  O2-  O266  1  0.67061565  0.34693132  0.66187782  1
  O2-  O267  1  0.67032671  0.84036781  -0.00430898  1
  O2-  O268  1  0.65975826  0.81056018  0.33620846  1
  O2-  O269  1  0.66138441  0.84467650  0.67227314  1
  O2-  O270  1  0.16343164  0.34191584  -0.00795933  1
  O2-  O271  1  0.16771701  0.33840416  0.32956240  1
  O2-  O272  1  0.16110454  0.34059798  0.66359592  1
  O2-  O273  1  0.16562713  0.83823048  0.00088131  1
  O2-  O274  1  0.16770098  0.83941656  0.33338866  1
  O2-  O275  1  0.17106058  0.84511873  0.67431135  1
  O2-  O276  1  0.50805770  0.33363914  0.00412829  1
  O2-  O277  1  0.50271530  0.33082688  0.32942918  1
  O2-  O278  1  0.50249199  0.35095355  0.66799307  1
  O2-  O279  1  0.49535343  0.84811253  -0.00839405  1
  O2-  O280  1  0.49922374  0.83763467  0.33219194  1
  O2-  O281  1  0.50327727  0.85611877  0.66540693  1
  O2-  O282  1  0.83622089  0.34621094  0.00498277  1
  O2-  O283  1  0.83319195  0.32944332  0.33332127  1
  O2-  O284  1  0.83139225  0.34540994  0.66522878  1
  O2-  O285  1  0.83137805  0.84574846  -0.00521090  1
  O2-  O286  1  0.83281446  0.83736808  0.33526525  1
  O2-  O287  1  0.82646675  0.83906839  0.66464363  1
  O2-  O288  1  -0.00141545  0.18114443  0.15952431  1
  O2-  O289  1  0.00082919  0.17625502  0.50707237  1
  O2-  O290  1  0.00244846  0.17640627  0.83687280  1
  O2-  O291  1  0.00030836  0.67951339  0.16400976  1
  O2-  O292  1  0.01350085  0.68009569  0.49553944  1
  O2-  O293  1  0.00282854  0.68131653  0.84151956  1
  O2-  O294  1  0.33051963  0.17228720  0.16332172  1
  O2-  O295  1  0.32840903  0.17970419  0.49078779  1
  O2-  O296  1  0.33233929  0.18077984  0.83103017  1
  O2-  O297  1  0.33024170  0.67989562  0.16934802  1
  O2-  O298  1  0.33277414  0.67791211  0.49363697  1
  O2-  O299  1  0.33946088  0.67132154  0.83274031  1
  O2-  O300  1  0.67037159  0.18276041  0.17442552  1
  O2-  O301  1  0.66701837  0.19038271  0.50033907  1
  O2-  O302  1  0.66105523  0.18194187  0.82539722  1
  O2-  O303  1  0.67558423  0.68207130  0.17307235  1
  O2-  O304  1  0.66519917  0.69262344  0.49478617  1
  O2-  O305  1  0.66723712  0.69154054  0.81917289  1
  O2-  O306  1  0.16465270  0.17488405  0.16532301  1
  O2-  O307  1  0.16319330  0.18084169  0.50286956  1
  O2-  O308  1  0.15786902  0.17924739  0.84082510  1
  O2-  O309  1  0.16411297  0.68924021  0.16243018  1
  O2-  O310  1  0.16273506  0.68526241  0.48303554  1
  O2-  O311  1  0.17452019  0.67738520  0.82721982  1
  O2-  O312  1  0.50836461  0.18254213  0.17860638  1
  O2-  O313  1  0.50026650  0.18781286  0.50668739  1
  O2-  O314  1  0.50467446  0.18062796  0.82596616  1
  O2-  O315  1  0.50662306  0.69605858  0.16581148  1
  O2-  O316  1  0.50533691  0.67608978  0.50114365  1
  O2-  O317  1  0.49378130  0.68146887  0.83757199  1
  O2-  O318  1  0.83449893  0.17698263  0.16239701  1
  O2-  O319  1  0.83678437  0.18842727  0.49578031  1
  O2-  O320  1  0.83253622  0.18151044  0.82592312  1
  O2-  O321  1  0.83425705  0.67242142  0.16668130  1
  O2-  O322  1  0.82384615  0.68384552  0.49463352  1
  O2-  O323  1  0.82738880  0.68321054  0.83204352  1
  O2-  O324  1  -0.00375731  0.31969919  0.16295530  1
  O2-  O325  1  0.00093389  0.32547126  0.50458199  1
  O2-  O326  1  -0.00051860  0.31397965  0.83823013  1
  O2-  O327  1  0.00433772  0.81370782  0.16580591  1
  O2-  O328  1  -0.00293076  0.82135724  0.49385719  1
  O2-  O329  1  0.00362825  0.82697254  0.84125711  1
  O2-  O330  1  0.33517732  0.32111477  0.16860515  1
  O2-  O331  1  0.33657666  0.31580104  0.50590861  1
  O2-  O332  1  0.33142198  0.31925777  0.83024708  1
  O2-  O333  1  0.33704148  0.82601188  0.16958922  1
  O2-  O334  1  0.32982692  0.82838539  0.49628726  1
  O2-  O335  1  0.33380370  0.82830566  0.82983472  1
  O2-  O336  1  0.66640685  0.31935244  0.16739062  1
  O2-  O337  1  0.67150569  0.31785268  0.50289730  1
  O2-  O338  1  0.66679913  0.31352843  0.83641564  1
  O2-  O339  1  0.67072755  0.81538673  0.17038478  1
  O2-  O340  1  0.66954917  0.81977053  0.50418737  1
  O2-  O341  1  0.66695211  0.81377221  0.83290345  1
  O2-  O342  1  0.16968467  0.31911879  0.16510541  1
  O2-  O343  1  0.16045778  0.32073690  0.50754022  1
  O2-  O344  1  0.17043990  0.31726868  0.82842253  1
  O2-  O345  1  0.16692341  0.81529782  0.16433379  1
  O2-  O346  1  0.16411180  0.81660580  0.50394345  1
  O2-  O347  1  0.16223857  0.82112034  0.84129369  1
  O2-  O348  1  0.50691103  0.31736983  0.16673283  1
  O2-  O349  1  0.49565143  0.31516122  0.50427228  1
  O2-  O350  1  0.49936426  0.31742717  0.83941597  1
  O2-  O351  1  0.49933542  0.81995099  0.17416103  1
  O2-  O352  1  0.50241738  0.82312149  0.49576553  1
  O2-  O353  1  0.50630819  0.83038148  0.82727978  1
  O2-  O354  1  0.83400740  0.31976996  0.16878197  1
  O2-  O355  1  0.83231924  0.32003043  0.50197001  1
  O2-  O356  1  0.82738965  0.31378635  0.84459686  1
  O2-  O357  1  0.84223547  0.82234603  0.15896068  1
  O2-  O358  1  0.83676904  0.81940041  0.49442182  1
  O2-  O359  1  0.83573500  0.81700022  0.82612938  1
  O2-  O360  1  0.06051708  0.08401291  0.09805247  1
  O2-  O361  1  0.08081249  0.08510763  0.45204780  1
  O2-  O362  1  0.07794831  0.08484512  0.77783224  1
  O2-  O363  1  0.07183757  0.58247356  0.08994195  1
  O2-  O364  1  0.09919987  0.58235766  0.44665846  1
  O2-  O365  1  0.09648411  0.57977656  0.78946193  1
  O2-  O366  1  0.41752801  0.07843973  0.10682524  1
  O2-  O367  1  0.41226320  0.08130683  0.44721455  1
  O2-  O368  1  0.43180797  0.08560461  0.76939224  1
  O2-  O369  1  0.41924019  0.58032685  0.12968509  1
  O2-  O370  1  0.42194419  0.57265239  0.42479187  1
  O2-  O371  1  0.41606269  0.57747052  0.78682732  1
  O2-  O372  1  0.75706655  0.08329010  0.11428526  1
  O2-  O373  1  0.75695767  0.08453188  0.45045853  1
  O2-  O374  1  0.73385443  0.08593195  0.76830740  1
  O2-  O375  1  0.75122145  0.57986300  0.11539699  1
  O2-  O376  1  0.73167840  0.57792582  0.44344273  1
  O2-  O377  1  0.74466125  0.57027111  0.79690103  1
  O2-  O378  1  0.24748744  0.07579466  0.20402372  1
  O2-  O379  1  0.21263417  0.06081981  0.54979217  1
  O2-  O380  1  0.24068050  0.08250772  0.88199478  1
  O2-  O381  1  0.23502148  0.58021395  0.21921514  1
  O2-  O382  1  0.25218539  0.58512273  0.56076661  1
  O2-  O383  1  0.26743505  0.57606401  0.87498721  1
  O2-  O384  1  0.58395564  0.08322217  0.20260733  1
  O2-  O385  1  0.60343046  0.07695470  0.54803108  1
  O2-  O386  1  0.58235328  0.07834621  0.91425365  1
  O2-  O387  1  0.58083989  0.59027626  0.23257904  1
  O2-  O388  1  0.59356620  0.58589882  0.55132483  1
  O2-  O389  1  0.55776490  0.57969006  0.88166194  1
  O2-  O390  1  0.91309306  0.07945508  0.21689937  1
  O2-  O391  1  0.90707742  0.08151905  0.55005787  1
  O2-  O392  1  0.93143954  0.07649610  0.89558431  1
  O2-  O393  1  0.90369777  0.57526807  0.22004282  1
  O2-  O394  1  0.92151013  0.57299509  0.55117854  1
  O2-  O395  1  0.92180695  0.58295941  0.89900615  1
  O2-  O396  1  0.07057505  0.41367632  0.08574934  1
  O2-  O397  1  0.07347879  0.42067611  0.44598648  1
  O2-  O398  1  0.09438204  0.41818591  0.78702678  1
  O2-  O399  1  0.08599689  0.91763004  0.10022760  1
  O2-  O400  1  0.07221731  0.91666905  0.44318506  1
  O2-  O401  1  0.08246449  0.91810848  0.78854654  1
  O2-  O402  1  0.43474326  0.41316720  0.10521858  1
  O2-  O403  1  0.41842661  0.41336486  0.43316655  1
  O2-  O404  1  0.41559857  0.41346660  0.78023596  1
  O2-  O405  1  0.41156078  0.91941811  0.11730120  1
  O2-  O406  1  0.42931198  0.92203622  0.44629354  1
  O2-  O407  1  0.42514455  0.92166300  0.77795916  1
  O2-  O408  1  0.74248039  0.41712070  0.11343471  1
  O2-  O409  1  0.76196837  0.42513966  0.45081617  1
  O2-  O410  1  0.74199769  0.41252564  0.78214728  1
  O2-  O411  1  0.76619446  0.92019693  0.10420885  1
  O2-  O412  1  0.76458257  0.92144436  0.44787035  1
  O2-  O413  1  0.73595954  0.91776589  0.78135601  1
  O2-  O414  1  0.24831591  0.42398177  0.21617725  1
  O2-  O415  1  0.24078233  0.41748018  0.56771327  1
  O2-  O416  1  0.25691876  0.41451161  0.88906620  1
  O2-  O417  1  0.23713110  0.91504963  0.21889479  1
  O2-  O418  1  0.24244452  0.91544166  0.55724140  1
  O2-  O419  1  0.24026707  0.91974436  0.88800670  1
  O2-  O420  1  0.58633364  0.41693794  0.22694284  1
  O2-  O421  1  0.57770577  0.41754111  0.54505969  1
  O2-  O422  1  0.59034917  0.41758556  0.88601976  1
  O2-  O423  1  0.57400361  0.91390718  0.24289687  1
  O2-  O424  1  0.59397325  0.92239735  0.54445363  1
  O2-  O425  1  0.59177376  0.92082921  0.88553967  1
  O2-  O426  1  0.90399094  0.43023369  0.21793110  1
  O2-  O427  1  0.91313387  0.41960045  0.55421657  1
  O2-  O428  1  0.90043479  0.42105290  0.89301154  1
  O2-  O429  1  0.93385754  0.91266169  0.22915102  1
  O2-  O430  1  0.91354344  0.91868127  0.55241538  1
  O2-  O431  1  0.90239500  0.91898525  0.88858232  1
  O2-  O432  1  0.01221102  -0.00767908  -0.03897814  1
  O2-  O433  1  0.00002687  0.01514785  0.33154825  1
  O2-  O434  1  0.01420993  0.00633965  0.65062635  1
  O2-  O435  1  -0.01285468  0.49673518  -0.00224018  1
  O2-  O436  1  -0.00713382  0.49265093  0.34410702  1
  O2-  O437  1  0.03091600  0.49304381  0.62601143  1
  O2-  O438  1  0.31005919  0.00036209  0.02606083  1
  O2-  O439  1  0.32347042  -0.00827403  0.35199309  1
  O2-  O440  1  0.33563707  -0.00898293  0.67682173  1
  O2-  O441  1  0.33539837  0.51407996  0.00303912  1
  O2-  O442  1  0.34545294  0.50171466  0.28702278  1
  O2-  O443  1  0.33590399  0.50981472  0.66130997  1
  O2-  O444  1  0.67425420  -0.00128275  0.00228793  1
  O2-  O445  1  0.66398078  0.00906644  0.32635750  1
  O2-  O446  1  0.66371462  -0.01199992  0.66069430  1
  O2-  O447  1  0.67796651  0.49452681  -0.02387967  1
  O2-  O448  1  0.67566759  0.51277370  0.31686007  1
  O2-  O449  1  0.66244506  0.47539529  0.65992308  1
  O2-  O450  1  0.15436054  0.00239858  -0.03426392  1
  O2-  O451  1  0.16055302  -0.00283704  0.33170066  1
  O2-  O452  1  0.17416716  -0.00114527  0.68279634  1
  O2-  O453  1  0.13597215  0.50354278  -0.03278295  1
  O2-  O454  1  0.17586648  0.51371779  0.35342486  1
  O2-  O455  1  0.18122403  0.50959640  0.67851846  1
  O2-  O456  1  0.49851231  0.00000778  -0.00113306  1
  O2-  O457  1  0.48028965  -0.00615286  0.31113667  1
  O2-  O458  1  0.50657567  -0.01453922  0.66493076  1
  O2-  O459  1  0.49138503  0.50156683  -0.00992379  1
  O2-  O460  1  0.50668444  0.51089763  0.32885004  1
  O2-  O461  1  0.49622506  0.49887121  0.65630793  1
  O2-  O462  1  0.86277761  0.00870353  0.03650755  1
  O2-  O463  1  0.83619503  0.00274668  0.34260923  1
  O2-  O464  1  0.83462868  -0.00737105  0.66294433  1
  O2-  O465  1  0.82985746  0.49879259  -0.00532081  1
  O2-  O466  1  0.82621099  0.50097929  0.32113141  1
  O2-  O467  1  0.80784363  0.50313271  0.62234069  1
  O2-  O468  1  0.41003072  0.75566782  0.40528171  1
  O2-  O469  1  0.42310013  0.75570110  0.73170929  1
  O2-  O470  1  0.25062498  0.24694444  0.27697832  1
  O2-  O471  1  0.92276904  0.24971513  0.61190671  1
  O2-  O472  1  0.57165992  0.75133316  0.94324711  1
  O2-  O473  1  0.26805638  0.75401380  0.93599174  1
  O2-  O474  1  0.58312226  0.24976811  0.61447824  1
  O2-  O475  1  0.41559839  0.24805849  0.38797215  1
  O2-  O476  1  0.25865009  0.75318111  0.60523946  1
  O2-  O477  1  0.75382618  0.74912769  0.06337219  1
  O2-  O478  1  0.57088424  0.75351950  0.60653646  1
  O2-  O479  1  0.24387216  0.24735116  0.93806892  1
  O2-  O480  1  0.74990925  0.25268793  0.06197409  1
  O2-  O481  1  0.07624980  0.25225587  0.72734958  1
  O2-  O482  1  0.40884993  0.25161593  0.07395861  1
  O2-  O483  1  0.92521118  0.75227595  0.60107033  1
  O2-  O484  1  0.75004810  0.25076045  0.72158320  1
  O2-  O485  1  0.09724671  0.24950771  0.06230805  1
  O2-  O486  1  0.08218406  0.75086964  0.73252215  1
  O2-  O487  1  0.40799585  0.75283308  0.05161578  1
  O2-  O488  1  0.91296308  0.75155084  0.94193631  1
  O2-  O489  1  0.08327064  0.25560096  0.39526695  1
  O2-  O490  1  0.26225838  0.75080771  0.27305172  1
  O2-  O491  1  0.90801364  0.74746077  0.26728488  1
  O2-  O492  1  0.42979762  0.25043876  0.72640937  1
