# generated using pymatgen
data_Ca108Mn108O277
_symmetry_space_group_name_H-M   'P 1'
_cell_length_a   16.03078812
_cell_length_b   22.30883738
_cell_length_c   16.39253746
_cell_angle_alpha   90.00026374
_cell_angle_beta   89.99678170
_cell_angle_gamma   90.00392183
_symmetry_Int_Tables_number   1
_chemical_formula_structural   Ca108Mn108O277
_chemical_formula_sum   'Ca108 Mn108 O277'
_cell_volume   5862.43438624
_cell_formula_units_Z   1
loop_
 _symmetry_equiv_pos_site_id
 _symmetry_equiv_pos_as_xyz
  1  'x, y, z'
loop_
 _atom_type_symbol
 _atom_type_oxidation_number
  Ca2+  2.0
  Mn3.34+  3.34
  O2-  -2.0
loop_
 _atom_site_type_symbol
 _atom_site_label
 _atom_site_symmetry_multiplicity
 _atom_site_fract_x
 _atom_site_fract_y
 _atom_site_fract_z
 _atom_site_occupancy
  Ca2+  Ca0  1  0.05965612  0.24859906  0.24047375  1
  Ca2+  Ca1  1  0.07732216  0.25071942  0.58887985  1
  Ca2+  Ca2  1  0.05261696  0.24230247  0.91892734  1
  Ca2+  Ca3  1  0.10109935  0.74536121  0.26223867  1
  Ca2+  Ca4  1  0.08793669  0.74311461  0.58584336  1
  Ca2+  Ca5  1  0.09201068  0.74679410  0.90093256  1
  Ca2+  Ca6  1  0.42640348  0.23840243  0.24313636  1
  Ca2+  Ca7  1  0.40879941  0.23698563  0.60052904  1
  Ca2+  Ca8  1  0.42457563  0.23420883  0.89146795  1
  Ca2+  Ca9  1  0.41556189  0.75530890  0.23658039  1
  Ca2+  Ca10  1  0.40406808  0.76170500  0.59986546  1
  Ca2+  Ca11  1  0.41544274  0.75438057  0.91676504  1
  Ca2+  Ca12  1  0.77166122  0.24086226  0.26400227  1
  Ca2+  Ca13  1  0.75299027  0.26429673  0.58350929  1
  Ca2+  Ca14  1  0.75837693  0.25891055  0.90314107  1
  Ca2+  Ca15  1  0.73611456  0.75961454  0.24617790  1
  Ca2+  Ca16  1  0.75720755  0.76160478  0.58287052  1
  Ca2+  Ca17  1  0.74247836  0.75471272  0.91651267  1
  Ca2+  Ca18  1  0.24124636  0.25049457  0.08463051  1
  Ca2+  Ca19  1  0.25054608  0.24655285  0.42594814  1
  Ca2+  Ca20  1  0.26222949  0.24455185  0.73719759  1
  Ca2+  Ca21  1  0.25262273  0.76174395  0.08264626  1
  Ca2+  Ca22  1  0.22660096  0.74664837  0.41090410  1
  Ca2+  Ca23  1  0.23786654  0.74410931  0.75327777  1
  Ca2+  Ca24  1  0.56745346  0.23448906  0.06795655  1
  Ca2+  Ca25  1  0.59823472  0.24844410  0.41625772  1
  Ca2+  Ca26  1  0.58106540  0.23831135  0.76170482  1
  Ca2+  Ca27  1  0.57712309  0.75365799  0.07790496  1
  Ca2+  Ca28  1  0.59801915  0.76279608  0.40690734  1
  Ca2+  Ca29  1  0.57406022  0.76186130  0.76099655  1
  Ca2+  Ca30  1  0.92585526  0.25414517  0.07540878  1
  Ca2+  Ca31  1  0.90804174  0.24658033  0.40765716  1
  Ca2+  Ca32  1  0.90304661  0.25655141  0.75527853  1
  Ca2+  Ca33  1  0.91626655  0.75790238  0.07904259  1
  Ca2+  Ca34  1  0.93336489  0.75393280  0.42375362  1
  Ca2+  Ca35  1  0.93318179  0.75236888  0.75367586  1
  Ca2+  Ca36  1  0.10402048  0.58237826  0.59383237  1
  Ca2+  Ca37  1  0.75494305  0.09758664  0.57769437  1
  Ca2+  Ca38  1  0.92084610  0.10462236  0.09239100  1
  Ca2+  Ca39  1  0.27023620  0.08893705  0.43168131  1
  Ca2+  Ca40  1  0.21212171  0.58450318  0.74169710  1
  Ca2+  Ca41  1  0.57923210  0.60697370  0.76571633  1
  Ca2+  Ca42  1  0.92784474  0.58214404  0.39814020  1
  Ca2+  Ca43  1  0.73366184  0.60328574  0.92391753  1
  Ca2+  Ca44  1  0.72599205  0.10834146  0.90455989  1
  Ca2+  Ca45  1  0.59491065  0.07790131  0.37924714  1
  Ca2+  Ca46  1  0.39092150  0.60814208  0.24481729  1
  Ca2+  Ca47  1  0.24309897  0.60317641  0.09613835  1
  Ca2+  Ca48  1  0.09399331  0.59375634  0.90084746  1
  Ca2+  Ca49  1  0.57587990  0.60454836  0.07667600  1
  Ca2+  Ca50  1  0.11924365  0.07952257  0.61831409  1
  Ca2+  Ca51  1  0.74210795  0.58292731  0.58593145  1
  Ca2+  Ca52  1  0.42769329  0.60812628  0.91924573  1
  Ca2+  Ca53  1  0.60034586  0.57665879  0.39731866  1
  Ca2+  Ca54  1  0.61243572  0.57447574  0.40021850  1
  Ca2+  Ca55  1  0.58382553  0.07837709  0.37959212  1
  Ca2+  Ca56  1  0.20992863  0.60635411  0.41786986  1
  Ca2+  Ca57  1  0.59211687  0.60716103  0.76609605  1
  Ca2+  Ca58  1  0.92289193  0.11129737  0.76858578  1
  Ca2+  Ca59  1  0.25205553  0.60663573  0.09895248  1
  Ca2+  Ca60  1  0.28341280  0.08683666  0.08628925  1
  Ca2+  Ca61  1  0.27138324  0.08540563  0.08322550  1
  Ca2+  Ca62  1  0.91341091  0.09994441  0.09497512  1
  Ca2+  Ca63  1  0.73478481  0.11027778  0.90953714  1
  Ca2+  Ca64  1  0.37835208  0.09239994  0.59620926  1
  Ca2+  Ca65  1  0.27738469  0.09840890  0.74562208  1
  Ca2+  Ca66  1  0.76044966  0.57799353  0.26851226  1
  Ca2+  Ca67  1  0.05267319  0.08001276  0.24427857  1
  Ca2+  Ca68  1  0.92807764  0.58010087  0.08279754  1
  Ca2+  Ca69  1  0.12850692  0.07699223  0.61489045  1
  Ca2+  Ca70  1  0.96692743  0.57570612  0.74677540  1
  Ca2+  Ca71  1  0.10859907  0.60614086  0.26097271  1
  Ca2+  Ca72  1  0.23220738  0.40764221  0.08628525  1
  Ca2+  Ca73  1  0.40966948  0.39998778  0.91680972  1
  Ca2+  Ca74  1  0.08798201  0.90952558  0.91083334  1
  Ca2+  Ca75  1  0.59113381  0.39713806  0.75157093  1
  Ca2+  Ca76  1  0.23618437  0.40722533  0.42425957  1
  Ca2+  Ca77  1  0.09363145  0.91392665  0.59411035  1
  Ca2+  Ca78  1  0.91042485  0.91150319  0.39469089  1
  Ca2+  Ca79  1  0.09911509  0.90983919  0.91060891  1
  Ca2+  Ca80  1  0.24891002  0.40661082  0.42424720  1
  Ca2+  Ca81  1  0.41375960  0.39802294  0.58640916  1
  Ca2+  Ca82  1  0.73406571  0.90341510  0.58081337  1
  Ca2+  Ca83  1  0.90942317  0.41338081  0.40873657  1
  Ca2+  Ca84  1  0.90801635  0.91741703  0.09625982  1
  Ca2+  Ca85  1  0.25058106  0.92503066  0.72537454  1
  Ca2+  Ca86  1  0.10151427  0.42250582  0.60689636  1
  Ca2+  Ca87  1  0.91338410  0.90386197  0.74496882  1
  Ca2+  Ca88  1  0.93005645  0.40467458  0.07554091  1
  Ca2+  Ca89  1  0.74021270  0.91924754  0.26011494  1
  Ca2+  Ca90  1  0.75963492  0.42184466  0.27832595  1
  Ca2+  Ca91  1  0.41605873  0.91889529  0.25710094  1
  Ca2+  Ca92  1  0.41420425  0.39774505  0.25027297  1
  Ca2+  Ca93  1  0.25959375  0.91261615  0.40869527  1
  Ca2+  Ca94  1  0.57790901  0.90590094  0.08929875  1
  Ca2+  Ca95  1  0.58505710  0.39384803  0.08756322  1
  Ca2+  Ca96  1  0.39882617  0.39779600  0.91454255  1
  Ca2+  Ca97  1  0.09025477  0.42274808  0.60650788  1
  Ca2+  Ca98  1  0.24112518  0.40949998  0.74170152  1
  Ca2+  Ca99  1  0.57215732  0.39435065  0.08718756  1
  Ca2+  Ca100  1  0.24213746  0.41097916  0.08302150  1
  Ca2+  Ca101  1  0.60203087  0.40780908  0.41728839  1
  Ca2+  Ca102  1  0.42625300  0.90886215  0.91831922  1
  Ca2+  Ca103  1  0.76825894  0.42409725  0.27335307  1
  Ca2+  Ca104  1  0.24009057  0.92525931  0.72450010  1
  Ca2+  Ca105  1  0.92015377  0.91458107  0.09662652  1
  Ca2+  Ca106  1  0.57779859  0.91470681  0.40026304  1
  Ca2+  Ca107  1  0.09500827  0.90826600  0.25564570  1
  Mn3.34+  Mn108  1  0.08112768  0.33246492  0.07973918  1
  Mn3.34+  Mn109  1  0.07621171  0.33427404  0.41430276  1
  Mn3.34+  Mn110  1  0.07675212  0.33821143  0.75760456  1
  Mn3.34+  Mn111  1  0.08680312  0.83236460  0.08675347  1
  Mn3.34+  Mn112  1  0.08467017  0.83110667  0.42180628  1
  Mn3.34+  Mn113  1  0.08575912  0.83282545  0.74827300  1
  Mn3.34+  Mn114  1  0.41088163  0.32212904  0.08692162  1
  Mn3.34+  Mn115  1  0.42058682  0.32700672  0.42071905  1
  Mn3.34+  Mn116  1  0.41852818  0.32816923  0.74964117  1
  Mn3.34+  Mn117  1  0.41326644  0.83910496  0.08376090  1
  Mn3.34+  Mn118  1  0.41601951  0.83091907  0.42191396  1
  Mn3.34+  Mn119  1  0.41895299  0.83954292  0.75157491  1
  Mn3.34+  Mn120  1  0.75240978  0.32848544  0.08692587  1
  Mn3.34+  Mn121  1  0.75430042  0.33489532  0.42390074  1
  Mn3.34+  Mn122  1  0.75401284  0.34035333  0.74487545  1
  Mn3.34+  Mn123  1  0.74921493  0.83471620  0.08340263  1
  Mn3.34+  Mn124  1  0.75247531  0.83304973  0.41702541  1
  Mn3.34+  Mn125  1  0.74811028  0.82947553  0.75035379  1
  Mn3.34+  Mn126  1  0.24555775  0.33032928  0.25218729  1
  Mn3.34+  Mn127  1  0.24829916  0.32674392  0.58245105  1
  Mn3.34+  Mn128  1  0.23706145  0.33109263  0.90750033  1
  Mn3.34+  Mn129  1  0.25375471  0.83837071  0.25000696  1
  Mn3.34+  Mn130  1  0.25315054  0.83953534  0.57380869  1
  Mn3.34+  Mn131  1  0.25466352  0.83373396  0.91497074  1
  Mn3.34+  Mn132  1  0.58508664  0.32758429  0.25247347  1
  Mn3.34+  Mn133  1  0.58350124  0.33437583  0.58257749  1
  Mn3.34+  Mn134  1  0.58698620  0.32347574  0.91237082  1
  Mn3.34+  Mn135  1  0.57995909  0.83769973  0.24670810  1
  Mn3.34+  Mn136  1  0.57683143  0.83736721  0.58016754  1
  Mn3.34+  Mn137  1  0.58946821  0.84605245  0.91197954  1
  Mn3.34+  Mn138  1  0.91784365  0.33475716  0.24582226  1
  Mn3.34+  Mn139  1  0.91879216  0.33153747  0.58352481  1
  Mn3.34+  Mn140  1  0.91384575  0.33231847  0.91386547  1
  Mn3.34+  Mn141  1  0.91780436  0.83465546  0.24981797  1
  Mn3.34+  Mn142  1  0.91837677  0.83680634  0.58132740  1
  Mn3.34+  Mn143  1  0.91311902  0.83673038  0.91510092  1
  Mn3.34+  Mn144  1  0.92105068  0.65877459  0.58184299  1
  Mn3.34+  Mn145  1  0.57526622  0.67365332  0.58120513  1
  Mn3.34+  Mn146  1  0.07287410  0.16196478  0.41896233  1
  Mn3.34+  Mn147  1  0.92270723  0.65818594  0.91722491  1
  Mn3.34+  Mn148  1  0.58378428  0.66764989  0.57869720  1
  Mn3.34+  Mn149  1  0.74796194  0.67200848  0.08606080  1
  Mn3.34+  Mn150  1  0.25019258  0.66552069  0.91184324  1
  Mn3.34+  Mn151  1  0.41978770  0.16524414  0.42198899  1
  Mn3.34+  Mn152  1  0.08652872  0.16790840  0.41783395  1
  Mn3.34+  Mn153  1  0.91476817  0.16850951  0.58228625  1
  Mn3.34+  Mn154  1  0.25227682  0.16228018  0.91248438  1
  Mn3.34+  Mn155  1  0.74682715  0.17301298  0.09058344  1
  Mn3.34+  Mn156  1  0.74959055  0.17095776  0.74609297  1
  Mn3.34+  Mn157  1  0.41856640  0.67531868  0.41981319  1
  Mn3.34+  Mn158  1  0.58260654  0.66892697  0.24442683  1
  Mn3.34+  Mn159  1  0.75698578  0.16554253  0.41604884  1
  Mn3.34+  Mn160  1  0.75451885  0.66842563  0.75132087  1
  Mn3.34+  Mn161  1  0.41109088  0.67327157  0.75244742  1
  Mn3.34+  Mn162  1  0.25680160  0.15852354  0.25365119  1
  Mn3.34+  Mn163  1  0.91679887  0.66553467  0.23994935  1
  Mn3.34+  Mn164  1  0.91343994  0.66400270  0.91960000  1
  Mn3.34+  Mn165  1  0.91660777  0.67021764  0.25017384  1
  Mn3.34+  Mn166  1  0.58554610  0.16394847  0.58491780  1
  Mn3.34+  Mn167  1  0.41019254  0.68170896  0.41813608  1
  Mn3.34+  Mn168  1  0.24141289  0.16380120  0.25292720  1
  Mn3.34+  Mn169  1  0.57589985  0.15888563  0.58177117  1
  Mn3.34+  Mn170  1  0.25371792  0.65952061  0.58247467  1
  Mn3.34+  Mn171  1  0.41449463  0.67299303  0.08216915  1
  Mn3.34+  Mn172  1  0.08446388  0.16495835  0.75059671  1
  Mn3.34+  Mn173  1  0.73832475  0.16692530  0.09340106  1
  Mn3.34+  Mn174  1  0.90914684  0.66636095  0.58559634  1
  Mn3.34+  Mn175  1  0.57854033  0.16558078  0.24449780  1
  Mn3.34+  Mn176  1  0.08442199  0.67207892  0.08113379  1
  Mn3.34+  Mn177  1  0.24008730  0.16755099  0.91301337  1
  Mn3.34+  Mn178  1  0.08343495  0.16449092  0.08112125  1
  Mn3.34+  Mn179  1  0.75027900  0.67001189  0.41813191  1
  Mn3.34+  Mn180  1  0.07570537  0.00317854  0.41512152  1
  Mn3.34+  Mn181  1  0.58430140  0.00297452  0.92307483  1
  Mn3.34+  Mn182  1  0.40266808  0.50341181  0.43168717  1
  Mn3.34+  Mn183  1  0.92287020  0.49490691  0.91828179  1
  Mn3.34+  Mn184  1  0.90884300  0.00644674  0.58168286  1
  Mn3.34+  Mn185  1  0.74965600  0.50097185  0.08555880  1
  Mn3.34+  Mn186  1  0.90290959  -0.00150719  0.92127855  1
  Mn3.34+  Mn187  1  0.73515431  0.00142266  0.08737269  1
  Mn3.34+  Mn188  1  0.74558903  0.50151322  0.75740060  1
  Mn3.34+  Mn189  1  0.41375625  0.50123693  0.73944972  1
  Mn3.34+  Mn190  1  0.40187802  0.50904259  0.73777725  1
  Mn3.34+  Mn191  1  0.57379129  -0.00197510  0.58561625  1
  Mn3.34+  Mn192  1  0.41553801  0.50026711  0.08530717  1
  Mn3.34+  Mn193  1  0.42780669  0.00098610  0.08077941  1
  Mn3.34+  Mn194  1  0.59428846  0.49486110  0.90889381  1
  Mn3.34+  Mn195  1  0.41459050  0.50683485  0.43195210  1
  Mn3.34+  Mn196  1  0.09078539  -0.00181624  0.41372306  1
  Mn3.34+  Mn197  1  0.90295006  0.49706551  0.58407827  1
  Mn3.34+  Mn198  1  0.24415554  0.49576941  0.25877572  1
  Mn3.34+  Mn199  1  0.42335216  0.00355038  0.74109912  1
  Mn3.34+  Mn200  1  0.92032340  0.00159023  0.57639946  1
  Mn3.34+  Mn201  1  0.72638342  -0.00606934  0.74789749  1
  Mn3.34+  Mn202  1  0.07976573  0.49759547  0.40953477  1
  Mn3.34+  Mn203  1  0.75985840  -0.00020846  0.40885018  1
  Mn3.34+  Mn204  1  0.08334207  0.50371651  0.08817046  1
  Mn3.34+  Mn205  1  0.09228402  -0.00246305  0.08345450  1
  Mn3.34+  Mn206  1  0.25862979  -0.00119149  0.91951707  1
  Mn3.34+  Mn207  1  0.57167863  0.49947301  0.24412208  1
  Mn3.34+  Mn208  1  0.41300597  -0.00108125  0.41902256  1
  Mn3.34+  Mn209  1  0.58793008  0.49841980  0.91765422  1
  Mn3.34+  Mn210  1  0.89533044  0.49118538  0.58858801  1
  Mn3.34+  Mn211  1  0.76485036  0.50492138  0.08877045  1
  Mn3.34+  Mn212  1  0.24181122  0.49911880  0.92359300  1
  Mn3.34+  Mn213  1  0.91479708  0.00667598  0.92123699  1
  Mn3.34+  Mn214  1  0.73851298  0.00083653  0.75142739  1
  Mn3.34+  Mn215  1  0.59081784  0.49656081  0.58860242  1
  O2-  O216  1  -0.00183379  0.15701093  0.00730198  1
  O2-  O217  1  0.00904982  0.15172758  0.32935384  1
  O2-  O218  1  0.01275051  0.14758507  0.65555230  1
  O2-  O219  1  0.00215970  0.64324577  0.00127162  1
  O2-  O220  1  0.00001315  0.65992923  0.32595187  1
  O2-  O221  1  0.00338796  0.64724647  0.65791817  1
  O2-  O222  1  0.32826471  0.15551775  -0.00241845  1
  O2-  O223  1  0.33654808  0.16788457  0.33613603  1
  O2-  O224  1  0.32106767  0.17058894  0.66169480  1
  O2-  O225  1  0.33058494  0.65129751  0.00173562  1
  O2-  O226  1  0.33740857  0.68040343  0.33051779  1
  O2-  O227  1  0.32884059  0.67147393  0.67081835  1
  O2-  O228  1  0.65944037  0.16234484  0.00967048  1
  O2-  O229  1  0.66652321  0.15881103  0.34182417  1
  O2-  O230  1  0.66677894  0.14587268  0.66432902  1
  O2-  O231  1  0.66906944  0.66446493  0.00698331  1
  O2-  O232  1  0.66468790  0.65020813  0.32880913  1
  O2-  O233  1  0.66732503  0.65299720  0.66207156  1
  O2-  O234  1  0.17454405  0.14832990  0.00481984  1
  O2-  O235  1  0.17322154  0.13526980  0.34239681  1
  O2-  O236  1  0.16054588  0.18264628  0.67242951  1
  O2-  O237  1  0.16704930  0.64847903  -0.00169962  1
  O2-  O238  1  0.17183822  0.67348832  0.32881735  1
  O2-  O239  1  0.17392175  0.66404272  0.65925330  1
  O2-  O240  1  0.47947142  0.18135288  -0.00665429  1
  O2-  O241  1  0.50396059  0.16109177  0.34001879  1
  O2-  O242  1  0.49109680  0.15157751  0.65371865  1
  O2-  O243  1  0.49782459  0.66794629  0.00452241  1
  O2-  O244  1  0.50002528  0.65463902  0.33705629  1
  O2-  O245  1  0.49917396  0.66000528  0.66855055  1
  O2-  O246  1  0.81820992  0.16160833  0.00036432  1
  O2-  O247  1  0.83564659  0.16458409  0.34397030  1
  O2-  O248  1  0.83941368  0.15056572  0.66998708  1
  O2-  O249  1  0.83853052  0.64520774  0.00573256  1
  O2-  O250  1  0.83783623  0.65215057  0.33216683  1
  O2-  O251  1  0.83603239  0.64123318  0.66817257  1
  O2-  O252  1  -0.00144326  0.33427257  0.00170610  1
  O2-  O253  1  -0.00520386  0.35234591  0.33653932  1
  O2-  O254  1  0.00772444  0.34365756  0.66151930  1
  O2-  O255  1  -0.00238984  0.85947250  -0.00153353  1
  O2-  O256  1  0.00219434  0.84385548  0.33269441  1
  O2-  O257  1  0.00192231  0.85351559  0.66732688  1
  O2-  O258  1  0.32610706  0.34832160  0.00950156  1
  O2-  O259  1  0.33146353  0.33959749  0.34085668  1
  O2-  O260  1  0.33050175  0.33472486  0.66939566  1
  O2-  O261  1  0.33787571  0.84932725  -0.00682486  1
  O2-  O262  1  0.33353993  0.81867984  0.33259635  1
  O2-  O263  1  0.32895086  0.84561343  0.66441380  1
  O2-  O264  1  0.65956075  0.32892137  0.00647398  1
  O2-  O265  1  0.67250659  0.35036291  0.32655902  1
  O2-  O266  1  0.66774866  0.34745308  0.66125624  1
  O2-  O267  1  0.66334029  0.83287991  0.00127586  1
  O2-  O268  1  0.66578305  0.84717764  0.33330838  1
  O2-  O269  1  0.66574183  0.82644665  0.66075977  1
  O2-  O270  1  0.16702405  0.34867307  -0.00111005  1
  O2-  O271  1  0.16845288  0.35372595  0.33709967  1
  O2-  O272  1  0.16327142  0.32448789  0.66203429  1
  O2-  O273  1  0.16476954  0.84766717  -0.00363848  1
  O2-  O274  1  0.17162365  0.83877252  0.33831327  1
  O2-  O275  1  0.17264083  0.84191386  0.66633785  1
  O2-  O276  1  0.49202129  0.33980015  -0.00006596  1
  O2-  O277  1  0.50204306  0.34557372  0.33763220  1
  O2-  O278  1  0.49944438  0.34864961  0.66909701  1
  O2-  O279  1  0.50501620  0.84248208  0.00197583  1
  O2-  O280  1  0.49683985  0.83983820  0.33372431  1
  O2-  O281  1  0.50235049  0.82287939  0.66489890  1
  O2-  O282  1  0.83465063  0.33242313  0.00830254  1
  O2-  O283  1  0.83334538  0.34346302  0.33088181  1
  O2-  O284  1  0.83530537  0.34175225  0.66189630  1
  O2-  O285  1  0.84059467  0.85238897  0.00957067  1
  O2-  O286  1  0.83301790  0.83878468  0.32986783  1
  O2-  O287  1  0.82951253  0.85099556  0.65931438  1
  O2-  O288  1  0.00186105  0.17081568  0.15950712  1
  O2-  O289  1  -0.00667129  0.18682869  0.49698428  1
  O2-  O290  1  -0.00154945  0.18995501  0.80971966  1
  O2-  O291  1  -0.00029406  0.68951062  0.16503297  1
  O2-  O292  1  -0.00675582  0.67722864  0.50049952  1
  O2-  O293  1  -0.00009806  0.67320084  0.83572329  1
  O2-  O294  1  0.32452749  0.18289888  0.16539656  1
  O2-  O295  1  0.33903021  0.18479612  0.49384424  1
  O2-  O296  1  0.32412906  0.17892399  0.82876320  1
  O2-  O297  1  0.32870492  0.67984796  0.15901513  1
  O2-  O298  1  0.33372688  0.69266187  0.50388401  1
  O2-  O299  1  0.34085681  0.67849845  0.84273791  1
  O2-  O300  1  0.66804848  0.19165863  0.17462244  1
  O2-  O301  1  0.66719250  0.17730821  0.50624902  1
  O2-  O302  1  0.67377207  0.18163597  0.83085427  1
  O2-  O303  1  0.66339341  0.68521338  0.16318719  1
  O2-  O304  1  0.66577213  0.69418687  0.50398958  1
  O2-  O305  1  0.66575508  0.68404232  0.82151220  1
  O2-  O306  1  0.16651054  0.17806757  0.16602323  1
  O2-  O307  1  0.16005799  0.18077750  0.50001642  1
  O2-  O308  1  0.16033755  0.18769777  0.83492900  1
  O2-  O309  1  0.16776091  0.68440227  0.15361007  1
  O2-  O310  1  0.17664963  0.68279604  0.50958082  1
  O2-  O311  1  0.17144087  0.67590824  0.83615082  1
  O2-  O312  1  0.50521889  0.18240576  0.16724113  1
  O2-  O313  1  0.50453420  0.18863012  0.49848372  1
  O2-  O314  1  0.51356639  0.16610109  0.84059393  1
  O2-  O315  1  0.49431571  0.68052255  0.16794245  1
  O2-  O316  1  0.50076708  0.69419078  0.49719545  1
  O2-  O317  1  0.50148662  0.67993544  0.82566008  1
  O2-  O318  1  0.83884306  0.18331592  0.15731589  1
  O2-  O319  1  0.82365272  0.18392892  0.51286142  1
  O2-  O320  1  0.82335775  0.17883904  0.82876318  1
  O2-  O321  1  0.83334440  0.69075716  0.16867368  1
  O2-  O322  1  0.83160334  0.68593674  0.50649705  1
  O2-  O323  1  0.82828914  0.67882856  0.84446076  1
  O2-  O324  1  -0.00361959  0.32328808  0.15941517  1
  O2-  O325  1  0.00788729  0.31984066  0.50499914  1
  O2-  O326  1  -0.00188404  0.31744640  0.83092662  1
  O2-  O327  1  -0.00412775  0.81578955  0.16579454  1
  O2-  O328  1  0.00222550  0.82348685  0.50331149  1
  O2-  O329  1  0.00803854  0.82693362  0.83737049  1
  O2-  O330  1  0.33425645  0.31090123  0.17224137  1
  O2-  O331  1  0.33299570  0.31504133  0.50231030  1
  O2-  O332  1  0.33920777  0.31998611  0.84161502  1
  O2-  O333  1  0.33242462  0.82077815  0.16989323  1
  O2-  O334  1  0.32895476  0.81083250  0.49698694  1
  O2-  O335  1  0.33151779  0.82378109  0.83294158  1
  O2-  O336  1  0.65915590  0.31968400  0.16103974  1
  O2-  O337  1  0.66272466  0.32412804  0.49425623  1
  O2-  O338  1  0.66105678  0.31770190  0.82538627  1
  O2-  O339  1  0.66280354  0.82340641  0.16273149  1
  O2-  O340  1  0.66990887  0.82093170  0.50054206  1
  O2-  O341  1  0.66723876  0.81293347  0.83477003  1
  O2-  O342  1  0.17342382  0.32703473  0.15631456  1
  O2-  O343  1  0.17150317  0.31395868  0.49454587  1
  O2-  O344  1  0.16689709  0.31299059  0.82105530  1
  O2-  O345  1  0.16671037  0.81720880  0.17795872  1
  O2-  O346  1  0.16501086  0.81468119  0.50667203  1
  O2-  O347  1  0.16571393  0.81874829  0.83572165  1
  O2-  O348  1  0.50133246  0.31317221  0.16256561  1
  O2-  O349  1  0.49728418  0.31324138  0.50404139  1
  O2-  O350  1  0.49675671  0.33467374  0.83639751  1
  O2-  O351  1  0.50019285  0.82025425  0.16427509  1
  O2-  O352  1  0.50014618  0.80683147  0.49817197  1
  O2-  O353  1  0.49744267  0.82291050  0.84393668  1
  O2-  O354  1  0.82872526  0.31016492  0.16937701  1
  O2-  O355  1  0.84283009  0.31897299  0.49477341  1
  O2-  O356  1  0.83067018  0.32529043  0.83076277  1
  O2-  O357  1  0.83574326  0.81604388  0.16997603  1
  O2-  O358  1  0.83782804  0.81737245  0.49590007  1
  O2-  O359  1  0.84097501  0.81906446  0.82756119  1
  O2-  O360  1  0.09483703  0.08027571  0.10710771  1
  O2-  O361  1  0.08182037  0.07738668  0.46803476  1
  O2-  O362  1  0.09805217  0.08721252  0.75816972  1
  O2-  O363  1  0.08941111  0.58612111  0.12237178  1
  O2-  O364  1  0.07622530  0.57199658  0.44961339  1
  O2-  O365  1  0.09029088  0.56129561  0.78180885  1
  O2-  O366  1  0.40566598  0.06924488  0.12913670  1
  O2-  O367  1  0.41646649  0.07649773  0.45884360  1
  O2-  O368  1  0.41183033  0.06866128  0.78980647  1
  O2-  O369  1  0.40169284  0.58492902  0.10832685  1
  O2-  O370  1  0.42309140  0.58934445  0.44827862  1
  O2-  O371  1  0.43356796  0.58350337  0.78112134  1
  O2-  O372  1  0.77203930  0.08325881  0.11391122  1
  O2-  O373  1  0.73752703  0.07811754  0.44110035  1
  O2-  O374  1  0.75342278  0.08145668  0.77474164  1
  O2-  O375  1  0.75648338  0.58565664  0.12628751  1
  O2-  O376  1  0.73681935  0.58676560  0.44657720  1
  O2-  O377  1  0.72896276  0.58256000  0.79361707  1
  O2-  O378  1  0.24748756  0.07962719  0.21636294  1
  O2-  O379  1  0.24143908  0.07190879  0.55655525  1
  O2-  O380  1  0.24453852  0.08164881  0.88036707  1
  O2-  O381  1  0.24889305  0.57767734  0.22659244  1
  O2-  O382  1  0.25195729  0.58453439  0.55273925  1
  O2-  O383  1  0.25229999  0.58058669  0.88381701  1
  O2-  O384  1  0.58495242  0.08572238  0.24444246  1
  O2-  O385  1  0.58513274  0.07801051  0.53226652  1
  O2-  O386  1  0.61313667  0.06517837  0.86208892  1
  O2-  O387  1  0.57637930  0.58381579  0.21929697  1
  O2-  O388  1  0.58802435  0.58074798  0.53451584  1
  O2-  O389  1  0.57785791  0.58187654  0.89514349  1
  O2-  O390  1  0.94437334  0.04049032  0.18376095  1
  O2-  O391  1  0.90135269  0.08624904  0.54944351  1
  O2-  O392  1  0.87467060  0.08151636  0.89337277  1
  O2-  O393  1  0.91746415  0.58261075  0.21686737  1
  O2-  O394  1  0.89114345  0.57611418  0.53371075  1
  O2-  O395  1  0.91448059  0.57498050  0.87666331  1
  O2-  O396  1  0.08976337  0.41965739  0.10311758  1
  O2-  O397  1  0.09764654  0.42171856  0.45924607  1
  O2-  O398  1  0.09980627  0.41564044  0.74889662  1
  O2-  O399  1  0.06240527  0.91888367  0.12271939  1
  O2-  O400  1  0.09354263  0.91903654  0.45113312  1
  O2-  O401  1  0.10318504  0.91812675  0.77527913  1
  O2-  O402  1  0.43685664  0.41748753  0.11651692  1
  O2-  O403  1  0.38795630  0.42037520  0.45281853  1
  O2-  O404  1  0.41235166  0.42251964  0.78274198  1
  O2-  O405  1  0.42924302  0.92259105  0.11992431  1
  O2-  O406  1  0.40910821  0.91888041  0.43638457  1
  O2-  O407  1  0.40364011  0.92782398  0.78075252  1
  O2-  O408  1  0.73027048  0.42002411  0.11507411  1
  O2-  O409  1  0.75546240  0.41754821  0.42406158  1
  O2-  O410  1  0.72965720  0.42090268  0.77641911  1
  O2-  O411  1  0.76180913  0.91899251  0.12235678  1
  O2-  O412  1  0.75931270  0.92037639  0.44642231  1
  O2-  O413  1  0.74738209  0.91459028  0.77412475  1
  O2-  O414  1  0.27292104  0.41828747  0.21379406  1
  O2-  O415  1  0.23415742  0.41425219  0.55719592  1
  O2-  O416  1  0.25921041  0.41722178  0.87884088  1
  O2-  O417  1  0.26149745  0.91599242  0.25011459  1
  O2-  O418  1  0.24304286  0.91693319  0.55561099  1
  O2-  O419  1  0.23977435  0.91900411  0.87240551  1
  O2-  O420  1  0.57543853  0.41461570  0.21932628  1
  O2-  O421  1  0.56163886  0.41879551  0.54707265  1
  O2-  O422  1  0.58141191  0.41136056  0.90976231  1
  O2-  O423  1  0.57935280  0.91775055  0.22822761  1
  O2-  O424  1  0.59206770  0.92192117  0.54092000  1
  O2-  O425  1  0.57375790  0.92961810  0.87933543  1
  O2-  O426  1  0.88570357  0.41691388  0.20836579  1
  O2-  O427  1  0.92812231  0.41546608  0.54786624  1
  O2-  O428  1  0.91658646  0.41658079  0.91979048  1
  O2-  O429  1  0.91238868  0.91302426  0.22979102  1
  O2-  O430  1  0.91042002  0.92195166  0.54137975  1
  O2-  O431  1  0.93766041  0.92683928  0.87268951  1
  O2-  O432  1  -0.00035848  -0.00661664  0.00148075  1
  O2-  O433  1  0.00256727  -0.01361992  0.33385312  1
  O2-  O434  1  0.01521526  0.00120372  0.64271716  1
  O2-  O435  1  -0.00071957  0.50952402  0.00861837  1
  O2-  O436  1  -0.01911045  0.49435765  0.36576770  1
  O2-  O437  1  0.00921815  0.50648860  0.63333044  1
  O2-  O438  1  0.32839559  0.00643423  0.01830020  1
  O2-  O439  1  0.32407943  0.00286750  0.36218865  1
  O2-  O440  1  0.32479711  0.00704337  0.69013497  1
  O2-  O441  1  0.35002929  0.47738787  -0.01420225  1
  O2-  O442  1  0.34971696  0.49742361  0.32659495  1
  O2-  O443  1  0.31568528  0.48370968  0.67575631  1
  O2-  O444  1  0.68122203  0.01205923  -0.01794785  1
  O2-  O445  1  0.66323973  -0.00847854  0.35355419  1
  O2-  O446  1  0.68141928  0.00270550  0.63929495  1
  O2-  O447  1  0.67528076  0.51918418  -0.00347596  1
  O2-  O448  1  0.66419161  0.50194923  0.32597720  1
  O2-  O449  1  0.65639871  0.52436792  0.68154071  1
  O2-  O450  1  0.15752081  -0.01552607  -0.01294286  1
  O2-  O451  1  0.16561026  -0.00112874  0.33190858  1
  O2-  O452  1  0.16950311  -0.00709804  0.66475361  1
  O2-  O453  1  0.20166221  0.50809023  0.04788010  1
  O2-  O454  1  0.18811902  0.50082706  0.36796768  1
  O2-  O455  1  0.16258627  0.50175973  0.65041730  1
  O2-  O456  1  0.50586909  -0.01577418  0.00252560  1
  O2-  O457  1  0.50148109  -0.00205538  0.35304191  1
  O2-  O458  1  0.48082192  0.01549074  0.65077747  1
  O2-  O459  1  0.51681242  0.50484247  0.01513920  1
  O2-  O460  1  0.51339371  0.49862090  0.36371770  1
  O2-  O461  1  0.49314176  0.50232495  0.65732158  1
  O2-  O462  1  0.84639026  -0.00645757  0.02511607  1
  O2-  O463  1  0.83007337  -0.01467820  0.33353388  1
  O2-  O464  1  0.84390676  -0.00560862  0.68273417  1
  O2-  O465  1  0.83700772  0.51175922  -0.00095800  1
  O2-  O466  1  0.82550754  0.50237950  0.31747493  1
  O2-  O467  1  0.83604339  0.51797334  0.68273464  1
  O2-  O468  1  0.58251707  0.25045810  0.28137879  1
  O2-  O469  1  0.74889356  0.74979130  0.38521536  1
  O2-  O470  1  0.77157074  0.74737950  0.72034872  1
  O2-  O471  1  0.09161289  0.24835776  0.06103321  1
  O2-  O472  1  0.43176282  0.25004530  0.74175684  1
  O2-  O473  1  0.24990258  0.24911177  0.94532374  1
  O2-  O474  1  0.40938310  0.75453123  0.05991848  1
  O2-  O475  1  0.92115386  0.75026501  0.61395060  1
  O2-  O476  1  0.92332999  0.24888459  0.61391719  1
  O2-  O477  1  0.08179203  0.25084100  0.38253345  1
  O2-  O478  1  0.91019273  0.25314488  0.92982745  1
  O2-  O479  1  0.58987971  0.24735488  0.61419865  1
  O2-  O480  1  0.22861258  0.24407496  0.28239712  1
  O2-  O481  1  0.07761082  0.75026683  0.04387659  1
  O2-  O482  1  0.74649065  0.25070613  0.40052029  1
  O2-  O483  1  0.56851940  0.24651619  0.92222399  1
  O2-  O484  1  0.25221468  0.74999604  0.94150751  1
  O2-  O485  1  0.75168183  0.25131244  0.72098091  1
  O2-  O486  1  0.92366212  0.25629140  0.27158409  1
  O2-  O487  1  0.92179831  0.74761397  0.94276984  1
  O2-  O488  1  0.58499155  0.75020692  0.27158506  1
  O2-  O489  1  0.40929114  0.75350054  0.73870649  1
  O2-  O490  1  0.07814195  0.75443697  0.72893615  1
  O2-  O491  1  0.76367145  0.75125390  0.05477347  1
  O2-  O492  1  0.07620800  0.75458395  0.40062595  1
