# generated using pymatgen
data_Ca108Mn108O277
_symmetry_space_group_name_H-M   'P 1'
_cell_length_a   16.02993056
_cell_length_b   22.30706016
_cell_length_c   16.39122755
_cell_angle_alpha   90.00742098
_cell_angle_beta   90.00270651
_cell_angle_gamma   89.99971683
_symmetry_Int_Tables_number   1
_chemical_formula_structural   Ca108Mn108O277
_chemical_formula_sum   'Ca108 Mn108 O277'
_cell_volume   5861.18534493
_cell_formula_units_Z   1
loop_
 _symmetry_equiv_pos_site_id
 _symmetry_equiv_pos_as_xyz
  1  'x, y, z'
loop_
 _atom_type_symbol
 _atom_type_oxidation_number
  Ca2+  2.0
  Mn3.34+  3.34
  O2-  -2.0
loop_
 _atom_site_type_symbol
 _atom_site_label
 _atom_site_symmetry_multiplicity
 _atom_site_fract_x
 _atom_site_fract_y
 _atom_site_fract_z
 _atom_site_occupancy
  Ca2+  Ca0  1  0.07486212  0.24634457  0.25331473  1
  Ca2+  Ca1  1  0.09330343  0.25596645  0.58532577  1
  Ca2+  Ca2  1  0.08670880  0.25298007  0.90703999  1
  Ca2+  Ca3  1  0.09059129  0.75389657  0.27332859  1
  Ca2+  Ca4  1  0.10175354  0.74203075  0.57601762  1
  Ca2+  Ca5  1  0.09337605  0.75136726  0.89797864  1
  Ca2+  Ca6  1  0.41128072  0.24764090  0.24247301  1
  Ca2+  Ca7  1  0.40544222  0.23619740  0.59241296  1
  Ca2+  Ca8  1  0.39766853  0.26121163  0.92178740  1
  Ca2+  Ca9  1  0.41395591  0.73084146  0.26619102  1
  Ca2+  Ca10  1  0.39262062  0.74524928  0.57024751  1
  Ca2+  Ca11  1  0.40944360  0.74290931  0.92055859  1
  Ca2+  Ca12  1  0.76625660  0.23455997  0.25464936  1
  Ca2+  Ca13  1  0.74700735  0.25925924  0.58033599  1
  Ca2+  Ca14  1  0.76749126  0.25615718  0.91266855  1
  Ca2+  Ca15  1  0.74502948  0.75231955  0.25194244  1
  Ca2+  Ca16  1  0.77104719  0.74672172  0.58631583  1
  Ca2+  Ca17  1  0.74863339  0.75157847  0.91090826  1
  Ca2+  Ca18  1  0.25685431  0.25865535  0.07932988  1
  Ca2+  Ca19  1  0.24285472  0.25164464  0.41802642  1
  Ca2+  Ca20  1  0.24666987  0.25364831  0.75196164  1
  Ca2+  Ca21  1  0.26204479  0.75308244  0.09577836  1
  Ca2+  Ca22  1  0.25492790  0.73618986  0.42176553  1
  Ca2+  Ca23  1  0.25138075  0.74332545  0.72415051  1
  Ca2+  Ca24  1  0.57402286  0.26159459  0.09526864  1
  Ca2+  Ca25  1  0.58346125  0.24818501  0.41375577  1
  Ca2+  Ca26  1  0.57774693  0.25772416  0.73953494  1
  Ca2+  Ca27  1  0.57791125  0.75013976  0.10237532  1
  Ca2+  Ca28  1  0.55956493  0.74597033  0.40535736  1
  Ca2+  Ca29  1  0.57900976  0.74419257  0.75592111  1
  Ca2+  Ca30  1  0.92750091  0.23863713  0.09721646  1
  Ca2+  Ca31  1  0.92406298  0.24948168  0.40437318  1
  Ca2+  Ca32  1  0.92791800  0.27069183  0.75366946  1
  Ca2+  Ca33  1  0.90793939  0.75908026  0.09144333  1
  Ca2+  Ca34  1  0.92915272  0.74195127  0.41142543  1
  Ca2+  Ca35  1  0.92470038  0.75376922  0.73351815  1
  Ca2+  Ca36  1  0.89469880  0.57984919  0.72137914  1
  Ca2+  Ca37  1  0.58371920  0.11194630  0.11511471  1
  Ca2+  Ca38  1  0.06327273  0.08589436  0.24472107  1
  Ca2+  Ca39  1  0.61046206  0.56953466  0.72132196  1
  Ca2+  Ca40  1  0.38980255  0.60165477  0.56685612  1
  Ca2+  Ca41  1  0.23859342  0.08636696  0.07867662  1
  Ca2+  Ca42  1  0.27610356  0.11877519  0.72533582  1
  Ca2+  Ca43  1  0.39347994  0.57685633  0.93514761  1
  Ca2+  Ca44  1  0.76092674  0.09059233  0.93313181  1
  Ca2+  Ca45  1  0.56904198  0.59187354  0.40708301  1
  Ca2+  Ca46  1  0.40550527  0.10661088  0.90979469  1
  Ca2+  Ca47  1  0.89910789  0.08746064  0.39333967  1
  Ca2+  Ca48  1  0.74708806  0.08833079  0.56629358  1
  Ca2+  Ca49  1  0.55900402  0.59164914  0.09151324  1
  Ca2+  Ca50  1  0.58187758  0.11045171  0.12642227  1
  Ca2+  Ca51  1  0.77019858  0.08883372  0.93912989  1
  Ca2+  Ca52  1  0.08129549  0.09167644  0.92727335  1
  Ca2+  Ca53  1  0.10780957  0.10139646  0.58093301  1
  Ca2+  Ca54  1  0.06577731  0.59975893  0.28248708  1
  Ca2+  Ca55  1  0.24342029  0.09264857  0.42135404  1
  Ca2+  Ca56  1  0.24740599  0.59588819  0.72661104  1
  Ca2+  Ca57  1  0.92794365  0.09239447  0.76090114  1
  Ca2+  Ca58  1  0.05670397  0.08822593  0.25207004  1
  Ca2+  Ca59  1  0.56412875  0.10127660  0.73764266  1
  Ca2+  Ca60  1  0.12098182  0.57867937  0.90260962  1
  Ca2+  Ca61  1  0.90315790  0.60407002  0.09798774  1
  Ca2+  Ca62  1  0.74332564  0.58663987  0.90285944  1
  Ca2+  Ca63  1  0.25102713  0.08728712  0.07877456  1
  Ca2+  Ca64  1  0.55142436  0.10226266  0.73931818  1
  Ca2+  Ca65  1  0.40125543  0.57372467  0.92975703  1
  Ca2+  Ca66  1  0.73062304  0.58668291  0.90292567  1
  Ca2+  Ca67  1  0.75472218  0.60818445  0.26613636  1
  Ca2+  Ca68  1  0.91093551  0.60357365  0.10777164  1
  Ca2+  Ca69  1  0.23247494  0.09170613  0.42205784  1
  Ca2+  Ca70  1  0.27510206  0.58586923  0.08412446  1
  Ca2+  Ca71  1  0.10854712  0.57932132  0.90025552  1
  Ca2+  Ca72  1  0.76990384  0.90703113  0.57696424  1
  Ca2+  Ca73  1  0.93804080  0.91660284  0.09002626  1
  Ca2+  Ca74  1  0.75526798  0.40127852  0.90755442  1
  Ca2+  Ca75  1  0.58154864  0.41786168  0.74170150  1
  Ca2+  Ca76  1  0.94514760  0.91519611  0.41318829  1
  Ca2+  Ca77  1  0.09088956  0.90953732  0.92229330  1
  Ca2+  Ca78  1  0.23854245  0.91122495  0.08873852  1
  Ca2+  Ca79  1  0.41605499  0.90636608  0.92650754  1
  Ca2+  Ca80  1  0.74784677  0.43074648  0.60625265  1
  Ca2+  Ca81  1  0.73751054  0.39811646  0.24827498  1
  Ca2+  Ca82  1  0.23754833  0.40482481  0.42419445  1
  Ca2+  Ca83  1  0.08876882  0.39936072  0.25273548  1
  Ca2+  Ca84  1  0.75439722  0.91255651  0.26795248  1
  Ca2+  Ca85  1  0.42015464  0.90657289  0.25328897  1
  Ca2+  Ca86  1  0.91725079  0.38821999  0.07668097  1
  Ca2+  Ca87  1  0.40388945  0.90429229  0.92382955  1
  Ca2+  Ca88  1  0.59928601  0.90450241  0.74811453  1
  Ca2+  Ca89  1  0.59204045  0.41771622  0.74209451  1
  Ca2+  Ca90  1  0.07973878  0.90999463  0.92228076  1
  Ca2+  Ca91  1  0.75023289  0.39847803  0.24807714  1
  Ca2+  Ca92  1  0.28581965  0.42984597  0.04456735  1
  Ca2+  Ca93  1  0.57396098  0.41060714  0.42167383  1
  Ca2+  Ca94  1  0.41681532  0.40766280  0.59180301  1
  Ca2+  Ca95  1  0.75931348  0.90962207  0.57958583  1
  Ca2+  Ca96  1  0.75556825  0.91140153  0.92008229  1
  Ca2+  Ca97  1  0.23277925  0.90624654  0.41715808  1
  Ca2+  Ca98  1  0.58660004  0.41132243  0.42287108  1
  Ca2+  Ca99  1  0.58951425  0.90680254  0.40911571  1
  Ca2+  Ca100  1  0.09366407  0.39963997  0.90953598  1
  Ca2+  Ca101  1  0.75590439  0.42804796  0.60079571  1
  Ca2+  Ca102  1  0.58936678  0.90462429  0.08809639  1
  Ca2+  Ca103  1  0.76756478  0.90917591  0.91702758  1
  Ca2+  Ca104  1  0.40919633  0.89492652  0.57640622  1
  Ca2+  Ca105  1  0.58671240  0.90434364  0.74831857  1
  Ca2+  Ca106  1  0.24995278  0.40621700  0.42187069  1
  Ca2+  Ca107  1  0.22843882  0.91513340  0.09110933  1
  Mn3.34+  Mn108  1  0.08847404  0.32936261  0.08673157  1
  Mn3.34+  Mn109  1  0.07638865  0.33429192  0.42277877  1
  Mn3.34+  Mn110  1  0.08647182  0.33953581  0.74424340  1
  Mn3.34+  Mn111  1  0.08123871  0.83374056  0.09053300  1
  Mn3.34+  Mn112  1  0.08526860  0.83698583  0.42028553  1
  Mn3.34+  Mn113  1  0.08511686  0.83362866  0.74319671  1
  Mn3.34+  Mn114  1  0.41848326  0.33974296  0.08474970  1
  Mn3.34+  Mn115  1  0.41368010  0.33343432  0.41673678  1
  Mn3.34+  Mn116  1  0.41252334  0.33470600  0.75596279  1
  Mn3.34+  Mn117  1  0.41709501  0.83338670  0.09153534  1
  Mn3.34+  Mn118  1  0.41403524  0.83307604  0.41646356  1
  Mn3.34+  Mn119  1  0.41326632  0.82753170  0.74776096  1
  Mn3.34+  Mn120  1  0.74403328  0.32179242  0.08329602  1
  Mn3.34+  Mn121  1  0.75620417  0.33553487  0.42328057  1
  Mn3.34+  Mn122  1  0.75276430  0.33551658  0.75073290  1
  Mn3.34+  Mn123  1  0.75280649  0.83456611  0.09042129  1
  Mn3.34+  Mn124  1  0.75183749  0.83394225  0.41927251  1
  Mn3.34+  Mn125  1  0.75814441  0.83270576  0.75137702  1
  Mn3.34+  Mn126  1  0.25383477  0.33309877  0.24392355  1
  Mn3.34+  Mn127  1  0.25115010  0.33673915  0.58964167  1
  Mn3.34+  Mn128  1  0.25077750  0.33815066  0.91330788  1
  Mn3.34+  Mn129  1  0.25022938  0.83428892  0.25643167  1
  Mn3.34+  Mn130  1  0.24508754  0.83375975  0.58238346  1
  Mn3.34+  Mn131  1  0.24978826  0.83048267  0.91375718  1
  Mn3.34+  Mn132  1  0.57565987  0.33388875  0.24775069  1
  Mn3.34+  Mn133  1  0.58156659  0.33312409  0.57912203  1
  Mn3.34+  Mn134  1  0.57995168  0.33301551  0.91638250  1
  Mn3.34+  Mn135  1  0.58395772  0.83386584  0.25114805  1
  Mn3.34+  Mn136  1  0.58391826  0.82721706  0.57601042  1
  Mn3.34+  Mn137  1  0.58428497  0.82558491  0.91901699  1
  Mn3.34+  Mn138  1  0.91926050  0.32776916  0.25043934  1
  Mn3.34+  Mn139  1  0.92105728  0.34035441  0.58036478  1
  Mn3.34+  Mn140  1  0.92141488  0.33323000  0.91657478  1
  Mn3.34+  Mn141  1  0.91935572  0.83677654  0.25278542  1
  Mn3.34+  Mn142  1  0.92941796  0.83326704  0.58096588  1
  Mn3.34+  Mn143  1  0.92007538  0.83225788  0.91957017  1
  Mn3.34+  Mn144  1  0.74775057  0.16020252  0.75138028  1
  Mn3.34+  Mn145  1  0.74049843  0.15860471  0.41079683  1
  Mn3.34+  Mn146  1  0.25338091  0.66504087  0.25715360  1
  Mn3.34+  Mn147  1  0.92134004  0.66277870  0.57461889  1
  Mn3.34+  Mn148  1  0.75483506  0.17090407  0.08829002  1
  Mn3.34+  Mn149  1  0.58503026  0.17211583  0.57496873  1
  Mn3.34+  Mn150  1  0.92410733  0.65969532  0.91116219  1
  Mn3.34+  Mn151  1  0.57256771  0.18832501  0.91704592  1
  Mn3.34+  Mn152  1  0.58092425  0.66585501  0.25267602  1
  Mn3.34+  Mn153  1  0.91297032  0.16319428  0.57830206  1
  Mn3.34+  Mn154  1  0.41583178  0.16630286  0.41111822  1
  Mn3.34+  Mn155  1  0.59143366  0.66393849  0.57855563  1
  Mn3.34+  Mn156  1  0.25090335  0.16775312  0.24587657  1
  Mn3.34+  Mn157  1  0.08376051  0.16744130  0.41704085  1
  Mn3.34+  Mn158  1  0.92493008  0.17058743  0.92013488  1
  Mn3.34+  Mn159  1  0.74175312  0.67069435  0.08420474  1
  Mn3.34+  Mn160  1  0.42604303  0.16150464  0.41226039  1
  Mn3.34+  Mn161  1  0.58188910  0.65843078  0.57805860  1
  Mn3.34+  Mn162  1  0.08481675  0.16301092  0.08665030  1
  Mn3.34+  Mn163  1  0.25323171  0.66886335  0.91144490  1
  Mn3.34+  Mn164  1  0.08486331  0.16896010  0.75196687  1
  Mn3.34+  Mn165  1  0.75150688  0.66824144  0.74502571  1
  Mn3.34+  Mn166  1  0.75422357  0.66938943  0.41932833  1
  Mn3.34+  Mn167  1  0.92267517  0.16876247  0.58085585  1
  Mn3.34+  Mn168  1  0.08182865  0.66430264  0.74004919  1
  Mn3.34+  Mn169  1  0.24980571  0.16950861  0.91171405  1
  Mn3.34+  Mn170  1  0.91408892  0.66561670  0.91086801  1
  Mn3.34+  Mn171  1  0.08223432  0.67245265  0.08412748  1
  Mn3.34+  Mn172  1  0.09467067  0.66541771  0.08835104  1
  Mn3.34+  Mn173  1  0.57801885  0.66114336  0.91407581  1
  Mn3.34+  Mn174  1  0.41433292  0.17031248  0.08765283  1
  Mn3.34+  Mn175  1  0.75930802  0.16456045  0.74947867  1
  Mn3.34+  Mn176  1  0.58341375  0.19109438  0.92012358  1
  Mn3.34+  Mn177  1  0.08658416  0.66594519  0.42319303  1
  Mn3.34+  Mn178  1  0.41927849  0.66434138  0.75322617  1
  Mn3.34+  Mn179  1  0.41568973  0.66723819  0.09035709  1
  Mn3.34+  Mn180  1  0.39026808  -0.00412024  0.74810298  1
  Mn3.34+  Mn181  1  0.58798766  0.00469932  0.57520292  1
  Mn3.34+  Mn182  1  0.26418010  0.49599464  0.25334171  1
  Mn3.34+  Mn183  1  0.73918274  0.49658142  0.08557543  1
  Mn3.34+  Mn184  1  0.57854368  0.49890665  0.25269651  1
  Mn3.34+  Mn185  1  0.91060378  -0.00206574  0.26479748  1
  Mn3.34+  Mn186  1  0.08861888  0.00127669  0.74111047  1
  Mn3.34+  Mn187  1  0.08433587  0.50230624  0.42620654  1
  Mn3.34+  Mn188  1  0.91493645  0.00212039  0.58286998  1
  Mn3.34+  Mn189  1  0.57321297  0.00331711  0.91079398  1
  Mn3.34+  Mn190  1  0.75104042  0.50172905  0.08754322  1
  Mn3.34+  Mn191  1  0.07719283  0.49756394  0.08210996  1
  Mn3.34+  Mn192  1  0.41867702  0.50171096  0.41408005  1
  Mn3.34+  Mn193  1  0.08381573  0.49500654  0.72324040  1
  Mn3.34+  Mn194  1  0.40355025  -0.00110585  0.74789241  1
  Mn3.34+  Mn195  1  0.91977131  0.49737440  0.90734299  1
  Mn3.34+  Mn196  1  0.42150700  -0.00163525  0.41498391  1
  Mn3.34+  Mn197  1  0.76180844  0.00142905  0.09579072  1
  Mn3.34+  Mn198  1  0.92724714  0.49200853  0.25724510  1
  Mn3.34+  Mn199  1  0.57188809  0.49342045  0.92618857  1
  Mn3.34+  Mn200  1  0.41544165  0.49981757  0.74458925  1
  Mn3.34+  Mn201  1  0.91394776  0.49775692  0.26112371  1
  Mn3.34+  Mn202  1  0.25182340  0.50267295  0.25467451  1
  Mn3.34+  Mn203  1  0.42181695  0.00259776  0.09069029  1
  Mn3.34+  Mn204  1  0.07864770  -0.00442447  0.74032779  1
  Mn3.34+  Mn205  1  0.25168401  0.50126579  0.59546153  1
  Mn3.34+  Mn206  1  0.92147988  -0.00023706  0.91432477  1
  Mn3.34+  Mn207  1  0.25269574  0.00145721  0.91185973  1
  Mn3.34+  Mn208  1  0.74886354  0.50372125  0.41653877  1
  Mn3.34+  Mn209  1  0.24462861  -0.00395625  0.57791397  1
  Mn3.34+  Mn210  1  0.09174417  0.50301050  0.08608481  1
  Mn3.34+  Mn211  1  0.58788014  0.00920065  0.91388634  1
  Mn3.34+  Mn212  1  0.57341203  -0.00052671  0.57265303  1
  Mn3.34+  Mn213  1  0.59062962  -0.00254997  0.27169260  1
  Mn3.34+  Mn214  1  0.92037739  0.50134756  0.58559394  1
  Mn3.34+  Mn215  1  0.24729131  0.00261826  0.26838227  1
  O2-  O216  1  0.00913675  0.17466195  -0.00200889  1
  O2-  O217  1  0.00192433  0.14785386  0.33864565  1
  O2-  O218  1  0.00091996  0.14802727  0.66425668  1
  O2-  O219  1  0.00274923  0.63727992  0.00614199  1
  O2-  O220  1  0.00704320  0.67858065  0.33380470  1
  O2-  O221  1  -0.01087223  0.65781733  0.67528778  1
  O2-  O222  1  0.32875269  0.15033466  0.00523123  1
  O2-  O223  1  0.32965321  0.14473014  0.33267062  1
  O2-  O224  1  0.32592902  0.19573138  0.67545330  1
  O2-  O225  1  0.33427275  0.65543196  -0.00386460  1
  O2-  O226  1  0.33012415  0.66087966  0.33048515  1
  O2-  O227  1  0.34171593  0.65734197  0.67362429  1
  O2-  O228  1  0.67116220  0.16702525  -0.00708765  1
  O2-  O229  1  0.67257123  0.19382123  0.34171060  1
  O2-  O230  1  0.66569192  0.14760515  0.66650923  1
  O2-  O231  1  0.66315247  0.64678106  -0.00219658  1
  O2-  O232  1  0.66438128  0.66988056  0.33634741  1
  O2-  O233  1  0.66569266  0.66543404  0.66464578  1
  O2-  O234  1  0.16770717  0.15046875  0.00171063  1
  O2-  O235  1  0.16359469  0.15253849  0.32440818  1
  O2-  O236  1  0.16236977  0.16538753  0.67265452  1
  O2-  O237  1  0.16716097  0.64291028  -0.00019654  1
  O2-  O238  1  0.16477957  0.66125333  0.33001714  1
  O2-  O239  1  0.16525697  0.66667539  0.67079835  1
  O2-  O240  1  0.50005295  0.15709653  0.00123714  1
  O2-  O241  1  0.50101912  0.17389813  0.33128499  1
  O2-  O242  1  0.50512425  0.16805133  0.66070006  1
  O2-  O243  1  0.49563285  0.66013936  -0.00339729  1
  O2-  O244  1  0.50405135  0.66070381  0.32950301  1
  O2-  O245  1  0.51239866  0.65480232  0.67135809  1
  O2-  O246  1  0.83275022  0.16591814  -0.00156141  1
  O2-  O247  1  0.83076139  0.17267013  0.35095263  1
  O2-  O248  1  0.83725390  0.13167637  0.66491150  1
  O2-  O249  1  0.82821196  0.64281292  -0.00355382  1
  O2-  O250  1  0.82122970  0.68804241  0.33367724  1
  O2-  O251  1  0.83361244  0.66183290  0.66722890  1
  O2-  O252  1  0.00335822  0.32647462  0.00225947  1
  O2-  O253  1  0.00103590  0.34571535  0.32949935  1
  O2-  O254  1  0.00202233  0.33848487  0.66475926  1
  O2-  O255  1  0.00101677  0.85196311  0.00261431  1
  O2-  O256  1  -0.00281770  0.82994034  0.33586737  1
  O2-  O257  1  -0.00252812  0.83991172  0.67209701  1
  O2-  O258  1  0.33430727  0.34061500  -0.00177604  1
  O2-  O259  1  0.33038241  0.35299779  0.33666748  1
  O2-  O260  1  0.34390691  0.32553141  0.66101641  1
  O2-  O261  1  0.32700337  0.85242725  0.01025345  1
  O2-  O262  1  0.33352174  0.85456992  0.33533044  1
  O2-  O263  1  0.33554439  0.83875544  0.66412746  1
  O2-  O264  1  0.66574388  0.30310985  -0.00415669  1
  O2-  O265  1  0.66621264  0.34041879  0.33708292  1
  O2-  O266  1  0.66658132  0.34894320  0.66407072  1
  O2-  O267  1  0.67250631  0.84939713  -0.00672575  1
  O2-  O268  1  0.67051933  0.83739901  0.33178794  1
  O2-  O269  1  0.66966517  0.84793292  0.65902121  1
  O2-  O270  1  0.16593422  0.33148820  0.00279705  1
  O2-  O271  1  0.17150718  0.34689411  0.33514459  1
  O2-  O272  1  0.17173356  0.32034129  0.66714320  1
  O2-  O273  1  0.16766836  0.85184380  -0.00100915  1
  O2-  O274  1  0.16568481  0.83979315  0.33097702  1
  O2-  O275  1  0.17062131  0.83234775  0.67084113  1
  O2-  O276  1  0.50341576  0.32157727  -0.00065633  1
  O2-  O277  1  0.50757757  0.34012168  0.34365010  1
  O2-  O278  1  0.50710227  0.34275822  0.67347013  1
  O2-  O279  1  0.49773002  0.84549042  -0.00113084  1
  O2-  O280  1  0.50257569  0.84553956  0.33519015  1
  O2-  O281  1  0.50909549  0.84593733  0.66798211  1
  O2-  O282  1  0.82658730  0.33002591  -0.00019176  1
  O2-  O283  1  0.82731681  0.33943215  0.32785422  1
  O2-  O284  1  0.82630092  0.35166886  0.66132550  1
  O2-  O285  1  0.83948061  0.85302210  0.00885527  1
  O2-  O286  1  0.83218515  0.83013237  0.33427117  1
  O2-  O287  1  0.83491682  0.84584575  0.66416395  1
  O2-  O288  1  0.01417246  0.17422948  0.17020306  1
  O2-  O289  1  0.00407590  0.18547608  0.49986600  1
  O2-  O290  1  -0.00464977  0.17145828  0.83110561  1
  O2-  O291  1  -0.00801122  0.68283483  0.15541267  1
  O2-  O292  1  0.00516789  0.68232812  0.50441600  1
  O2-  O293  1  0.01546556  0.66985418  0.84160602  1
  O2-  O294  1  0.32812260  0.17482159  0.16059225  1
  O2-  O295  1  0.33225994  0.17467831  0.48706830  1
  O2-  O296  1  0.33365880  0.17945797  0.84211268  1
  O2-  O297  1  0.32900360  0.67855063  0.16283057  1
  O2-  O298  1  0.32822343  0.67472759  0.49869913  1
  O2-  O299  1  0.33523723  0.68221823  0.83469749  1
  O2-  O300  1  0.66405341  0.18833761  0.15384547  1
  O2-  O301  1  0.67323190  0.18387484  0.50284290  1
  O2-  O302  1  0.66677361  0.19247446  0.83473929  1
  O2-  O303  1  0.66673904  0.68226885  0.16889741  1
  O2-  O304  1  0.66496657  0.69092123  0.49945943  1
  O2-  O305  1  0.66524956  0.68252475  0.83957351  1
  O2-  O306  1  0.17478677  0.18426768  0.15943140  1
  O2-  O307  1  0.17095369  0.18020119  0.48978196  1
  O2-  O308  1  0.16323553  0.17926066  0.83694531  1
  O2-  O309  1  0.16583455  0.68382192  0.17163498  1
  O2-  O310  1  0.16916498  0.67245164  0.49602246  1
  O2-  O311  1  0.16633292  0.67179604  0.83624873  1
  O2-  O312  1  0.50015957  0.18514821  0.16032274  1
  O2-  O313  1  0.49979356  0.18570460  0.49624983  1
  O2-  O314  1  0.50403157  0.18276560  0.82362727  1
  O2-  O315  1  0.50357481  0.67762247  0.16346516  1
  O2-  O316  1  0.49838463  0.68287640  0.50944623  1
  O2-  O317  1  0.49901631  0.68718909  0.83873456  1
  O2-  O318  1  0.83187883  0.18722804  0.15877913  1
  O2-  O319  1  0.82683452  0.18351294  0.50613673  1
  O2-  O320  1  0.83045493  0.16930713  0.84313530  1
  O2-  O321  1  0.83354258  0.67855009  0.15455916  1
  O2-  O322  1  0.83639720  0.68504777  0.49668925  1
  O2-  O323  1  0.82013792  0.67894431  0.83917661  1
  O2-  O324  1  -0.00164698  0.31796013  0.16321029  1
  O2-  O325  1  -0.00088438  0.31379133  0.50150729  1
  O2-  O326  1  0.00560493  0.33183211  0.84024721  1
  O2-  O327  1  -0.00228980  0.81755642  0.16584055  1
  O2-  O328  1  -0.00477985  0.82298192  0.49231616  1
  O2-  O329  1  0.00708187  0.82681968  0.84743298  1
  O2-  O330  1  0.33222854  0.31989264  0.16326401  1
  O2-  O331  1  0.32925240  0.32551477  0.49695096  1
  O2-  O332  1  0.32859785  0.31827228  0.83028131  1
  O2-  O333  1  0.33174753  0.83077676  0.16667768  1
  O2-  O334  1  0.33238212  0.82682934  0.49741581  1
  O2-  O335  1  0.34647565  0.82207074  0.85171871  1
  O2-  O336  1  0.67046193  0.31287288  0.17819563  1
  O2-  O337  1  0.66180459  0.31878344  0.49279613  1
  O2-  O338  1  0.66617687  0.31495259  0.83114850  1
  O2-  O339  1  0.66255462  0.82155677  0.16192106  1
  O2-  O340  1  0.66789280  0.80901583  0.49941521  1
  O2-  O341  1  0.66157428  0.81677500  0.82982570  1
  O2-  O342  1  0.16090700  0.31127861  0.17439530  1
  O2-  O343  1  0.17276935  0.32040216  0.49897790  1
  O2-  O344  1  0.16358578  0.32265968  0.83698266  1
  O2-  O345  1  0.17597484  0.82718309  0.15721172  1
  O2-  O346  1  0.16906003  0.82630819  0.49813095  1
  O2-  O347  1  0.16268854  0.82881448  0.84138978  1
  O2-  O348  1  0.49331808  0.31564208  0.17362769  1
  O2-  O349  1  0.49847183  0.32148420  0.50071256  1
  O2-  O350  1  0.49887522  0.30788277  0.83418561  1
  O2-  O351  1  0.50242616  0.82772505  0.16549423  1
  O2-  O352  1  0.49533849  0.81455980  0.50453822  1
  O2-  O353  1  0.50349689  0.82327591  0.83373400  1
  O2-  O354  1  0.83032639  0.32125304  0.16638773  1
  O2-  O355  1  0.83445848  0.31242444  0.49848183  1
  O2-  O356  1  0.83252899  0.32804926  0.83405132  1
  O2-  O357  1  0.83176050  0.81605537  0.17450695  1
  O2-  O358  1  0.82769151  0.82425846  0.50623013  1
  O2-  O359  1  0.82811538  0.82229100  0.84973670  1
  O2-  O360  1  0.10741698  0.07607595  0.11995792  1
  O2-  O361  1  0.09685092  0.08647477  0.44769687  1
  O2-  O362  1  0.07862210  0.07801512  0.79079398  1
  O2-  O363  1  0.06383922  0.57863013  0.13878462  1
  O2-  O364  1  0.07251257  0.58280064  0.42072838  1
  O2-  O365  1  0.08775447  0.57544596  0.77006488  1
  O2-  O366  1  0.43398647  0.08514422  0.10851085  1
  O2-  O367  1  0.41047082  0.07970834  0.44408055  1
  O2-  O368  1  0.42512629  0.07918046  0.77957733  1
  O2-  O369  1  0.41653449  0.58796036  0.10025108  1
  O2-  O370  1  0.43413974  0.57483530  0.44579800  1
  O2-  O371  1  0.41355884  0.57878459  0.79076766  1
  O2-  O372  1  0.72448921  0.08366762  0.08360402  1
  O2-  O373  1  0.75620344  0.08263420  0.43302770  1
  O2-  O374  1  0.73779933  0.07726646  0.80084859  1
  O2-  O375  1  0.75475785  0.58011185  0.12682238  1
  O2-  O376  1  0.73538017  0.58437027  0.41729046  1
  O2-  O377  1  0.74615484  0.58466718  0.77003825  1
  O2-  O378  1  0.25281129  0.07682894  0.21221981  1
  O2-  O379  1  0.24391520  0.07542984  0.55235851  1
  O2-  O380  1  0.25203912  0.08323195  0.88874127  1
  O2-  O381  1  0.24665838  0.58020654  0.21805180  1
  O2-  O382  1  0.25160088  0.57180784  0.55884384  1
  O2-  O383  1  0.25460432  0.58318099  0.88104889  1
  O2-  O384  1  0.58925263  0.07167507  0.23766792  1
  O2-  O385  1  0.58978518  0.08663697  0.56123023  1
  O2-  O386  1  0.57872858  0.09049631  0.88214827  1
  O2-  O387  1  0.59743072  0.58112843  0.22860269  1
  O2-  O388  1  0.58293841  0.57730052  0.55203574  1
  O2-  O389  1  0.59697070  0.57042027  0.86830333  1
  O2-  O390  1  0.92023686  0.06528618  0.21427442  1
  O2-  O391  1  0.91795352  0.08338397  0.53573901  1
  O2-  O392  1  0.91118540  0.08317127  0.90337824  1
  O2-  O393  1  0.91214733  0.58000141  0.23460161  1
  O2-  O394  1  0.92103000  0.57957542  0.55727067  1
  O2-  O395  1  0.90085979  0.57781431  0.86463538  1
  O2-  O396  1  0.07204060  0.41761208  0.11167609  1
  O2-  O397  1  0.10328322  0.41985730  0.44798838  1
  O2-  O398  1  0.08810983  0.42207665  0.77390050  1
  O2-  O399  1  0.08635622  0.91748049  0.10099665  1
  O2-  O400  1  0.08512779  0.91696870  0.42959347  1
  O2-  O401  1  0.08517960  0.91947655  0.78711788  1
  O2-  O402  1  0.41762632  0.41618683  0.09926440  1
  O2-  O403  1  0.42982239  0.42121804  0.45181648  1
  O2-  O404  1  0.44065198  0.42084109  0.77262729  1
  O2-  O405  1  0.41940060  0.91954823  0.10840631  1
  O2-  O406  1  0.43370302  0.91989506  0.44893927  1
  O2-  O407  1  0.43431766  0.91966460  0.78978176  1
  O2-  O408  1  0.74526002  0.41416305  0.10659636  1
  O2-  O409  1  0.72518461  0.42525150  0.45991698  1
  O2-  O410  1  0.73344717  0.41546380  0.77465280  1
  O2-  O411  1  0.74855496  0.91862178  0.11960451  1
  O2-  O412  1  0.73535885  0.91684895  0.44897237  1
  O2-  O413  1  0.73050095  0.91783537  0.78839337  1
  O2-  O414  1  0.23548119  0.42187847  0.20250864  1
  O2-  O415  1  0.26484014  0.42542647  0.55371371  1
  O2-  O416  1  0.23332980  0.41623602  0.91350595  1
  O2-  O417  1  0.26172521  0.92748153  0.22094000  1
  O2-  O418  1  0.26456265  0.91837133  0.55380343  1
  O2-  O419  1  0.26793612  0.91816670  0.89112141  1
  O2-  O420  1  0.60304458  0.41896178  0.22260460  1
  O2-  O421  1  0.57971434  0.41683595  0.55668705  1
  O2-  O422  1  0.60450162  0.41988223  0.88280575  1
  O2-  O423  1  0.58703174  0.92377136  0.22139415  1
  O2-  O424  1  0.58487074  0.91762097  0.54868038  1
  O2-  O425  1  0.58450538  0.92137306  0.88326813  1
  O2-  O426  1  0.90575902  0.41629068  0.21116342  1
  O2-  O427  1  0.89065936  0.42536886  0.54847482  1
  O2-  O428  1  0.91058678  0.41502124  0.93016451  1
  O2-  O429  1  0.90267573  0.92591385  0.21940965  1
  O2-  O430  1  0.90872760  0.91997416  0.55020696  1
  O2-  O431  1  0.90607313  0.91847853  0.89152694  1
  O2-  O432  1  0.02581522  -0.00333283  -0.03928704  1
  O2-  O433  1  -0.00461131  0.00914665  0.33023679  1
  O2-  O434  1  -0.01642434  0.01809319  0.67760987  1
  O2-  O435  1  0.00209275  0.52072885  -0.00516400  1
  O2-  O436  1  0.00782138  0.49153308  0.33671648  1
  O2-  O437  1  -0.02223362  0.49955125  0.68443187  1
  O2-  O438  1  0.33741537  0.00137721  0.00384267  1
  O2-  O439  1  0.31231849  -0.00589900  0.36398046  1
  O2-  O440  1  0.32764073  0.00723342  0.65700188  1
  O2-  O441  1  0.32743677  0.51622898  0.00465817  1
  O2-  O442  1  0.32447336  0.48503655  0.35290858  1
  O2-  O443  1  0.35764745  0.50440930  0.64124164  1
  O2-  O444  1  0.66963895  -0.01257458  -0.00598634  1
  O2-  O445  1  0.66802661  -0.01978403  0.33649380  1
  O2-  O446  1  0.64456062  -0.01074078  0.68031252  1
  O2-  O447  1  0.67291017  0.50998303  -0.01232373  1
  O2-  O448  1  0.67219064  0.48489077  0.32741316  1
  O2-  O449  1  0.66398983  0.48148148  0.67168875  1
  O2-  O450  1  0.18065775  -0.00774098  0.00658658  1
  O2-  O451  1  0.16173066  0.02934178  0.32762455  1
  O2-  O452  1  0.15955824  0.01102932  0.65291816  1
  O2-  O453  1  0.16217631  0.51396221  -0.00475833  1
  O2-  O454  1  0.16591633  0.48969316  0.33320101  1
  O2-  O455  1  0.19340767  0.50408557  0.68820125  1
  O2-  O456  1  0.49948811  -0.00993501  -0.00090321  1
  O2-  O457  1  0.49753319  -0.01736577  0.32839117  1
  O2-  O458  1  0.49346838  0.00504823  0.66577636  1
  O2-  O459  1  0.50284414  0.52820223  -0.00303658  1
  O2-  O460  1  0.52283197  0.49481141  0.36370658  1
  O2-  O461  1  0.51394267  0.50089633  0.69694918  1
  O2-  O462  1  0.81840001  -0.00142902  -0.02337771  1
  O2-  O463  1  0.83872215  -0.00791848  0.33960568  1
  O2-  O464  1  0.79766072  0.00141249  0.61091630  1
  O2-  O465  1  0.83091846  0.51872247  -0.00096573  1
  O2-  O466  1  0.82485094  0.48207590  0.32937312  1
  O2-  O467  1  0.82658511  0.50714381  0.64461858  1
  O2-  O468  1  0.25064790  0.75277847  0.58839673  1
  O2-  O469  1  0.40597658  0.24861048  0.06192302  1
  O2-  O470  1  0.42197814  0.74657897  0.72537687  1
  O2-  O471  1  0.08214443  0.25110942  0.38990963  1
  O2-  O472  1  0.06962579  0.25066906  0.74125225  1
  O2-  O473  1  0.07574440  0.74950630  0.74469337  1
  O2-  O474  1  0.59540774  0.25222792  0.60511279  1
  O2-  O475  1  0.08836801  0.75323586  0.04550070  1
  O2-  O476  1  0.92138487  0.74812061  0.95016047  1
  O2-  O477  1  0.57694980  0.75136545  0.26309976  1
  O2-  O478  1  0.26214200  0.24810116  0.27765725  1
  O2-  O479  1  0.91819214  0.75055272  0.60023119  1
  O2-  O480  1  0.41046452  0.75504544  0.39811569  1
  O2-  O481  1  0.75052039  0.75253304  0.05001986  1
  O2-  O482  1  0.25567946  0.75143745  0.26488918  1
  O2-  O483  1  0.09616558  0.75078192  0.41176689  1
  O2-  O484  1  0.91399935  0.25107799  0.91600163  1
  O2-  O485  1  0.75899912  0.24938443  0.72125662  1
  O2-  O486  1  0.24537204  0.74967944  0.94677859  1
  O2-  O487  1  0.41372077  0.75296095  0.06227166  1
  O2-  O488  1  0.92187508  0.25050798  0.26686621  1
  O2-  O489  1  0.24785423  0.24889316  0.93943138  1
  O2-  O490  1  0.40345902  0.25040042  0.39111198  1
  O2-  O491  1  0.90734672  0.24644655  0.61894850  1
  O2-  O492  1  0.75530158  0.75128873  0.72788508  1
