# generated using pymatgen
data_Ca108Mn108O277
_symmetry_space_group_name_H-M   'P 1'
_cell_length_a   16.02839690
_cell_length_b   22.30664810
_cell_length_c   16.38822615
_cell_angle_alpha   89.99693367
_cell_angle_beta   89.99962286
_cell_angle_gamma   89.99624962
_symmetry_Int_Tables_number   1
_chemical_formula_structural   Ca108Mn108O277
_chemical_formula_sum   'Ca108 Mn108 O277'
_cell_volume   5859.44322992
_cell_formula_units_Z   1
loop_
 _symmetry_equiv_pos_site_id
 _symmetry_equiv_pos_as_xyz
  1  'x, y, z'
loop_
 _atom_type_symbol
 _atom_type_oxidation_number
  Ca2+  2.0
  Mn3.34+  3.34
  O2-  -2.0
loop_
 _atom_site_type_symbol
 _atom_site_label
 _atom_site_symmetry_multiplicity
 _atom_site_fract_x
 _atom_site_fract_y
 _atom_site_fract_z
 _atom_site_occupancy
  Ca2+  Ca0  1  0.11068736  0.25293201  0.26003310  1
  Ca2+  Ca1  1  0.07378677  0.25860367  0.57303979  1
  Ca2+  Ca2  1  0.09132649  0.26965413  0.91700077  1
  Ca2+  Ca3  1  0.06722237  0.73560283  0.25414165  1
  Ca2+  Ca4  1  0.06490071  0.74974589  0.57268975  1
  Ca2+  Ca5  1  0.09260599  0.73970887  0.92143317  1
  Ca2+  Ca6  1  0.41011013  0.25867109  0.24496374  1
  Ca2+  Ca7  1  0.42759046  0.25333469  0.58235744  1
  Ca2+  Ca8  1  0.41919990  0.26444890  0.92278446  1
  Ca2+  Ca9  1  0.42659835  0.73678383  0.26359090  1
  Ca2+  Ca10  1  0.44406827  0.73876646  0.54759756  1
  Ca2+  Ca11  1  0.41735676  0.74801626  0.92851765  1
  Ca2+  Ca12  1  0.73255251  0.25789789  0.26803709  1
  Ca2+  Ca13  1  0.74442321  0.25904934  0.56884164  1
  Ca2+  Ca14  1  0.74314337  0.26807423  0.91775275  1
  Ca2+  Ca15  1  0.74251920  0.72738712  0.25571398  1
  Ca2+  Ca16  1  0.73757130  0.74556086  0.56087930  1
  Ca2+  Ca17  1  0.74154571  0.75370922  0.92802680  1
  Ca2+  Ca18  1  0.25892370  0.25523440  0.09700760  1
  Ca2+  Ca19  1  0.24626765  0.25576824  0.40617324  1
  Ca2+  Ca20  1  0.25315260  0.24958380  0.75458642  1
  Ca2+  Ca21  1  0.25021865  0.74410613  0.09230929  1
  Ca2+  Ca22  1  0.26874654  0.73892281  0.40955563  1
  Ca2+  Ca23  1  0.24207885  0.75220298  0.75847835  1
  Ca2+  Ca24  1  0.57323028  0.25933703  0.08541061  1
  Ca2+  Ca25  1  0.58452003  0.26061140  0.41971923  1
  Ca2+  Ca26  1  0.57567845  0.25237416  0.73992910  1
  Ca2+  Ca27  1  0.59368200  0.74312932  0.09125787  1
  Ca2+  Ca28  1  0.58977324  0.74558118  0.41497329  1
  Ca2+  Ca29  1  0.60064828  0.74567617  0.73193000  1
  Ca2+  Ca30  1  0.92493170  0.25895725  0.08172316  1
  Ca2+  Ca31  1  0.91705353  0.25466042  0.42700313  1
  Ca2+  Ca32  1  0.91923129  0.25589759  0.73464145  1
  Ca2+  Ca33  1  0.90264090  0.74504594  0.10385016  1
  Ca2+  Ca34  1  0.90442926  0.72470937  0.40825229  1
  Ca2+  Ca35  1  0.89973302  0.74484273  0.74051387  1
  Ca2+  Ca36  1  0.26303427  0.09615818  0.09807078  1
  Ca2+  Ca37  1  0.05170254  0.58690663  0.56188395  1
  Ca2+  Ca38  1  0.25819928  0.58282346  0.74597949  1
  Ca2+  Ca39  1  0.58278702  0.60104338  0.41328204  1
  Ca2+  Ca40  1  0.10161960  0.08947661  0.26926125  1
  Ca2+  Ca41  1  0.75447681  0.07053860  0.95217537  1
  Ca2+  Ca42  1  0.24566586  0.58559234  0.74568268  1
  Ca2+  Ca43  1  0.41152688  0.08488366  0.25820555  1
  Ca2+  Ca44  1  0.43737158  0.60008094  0.57048028  1
  Ca2+  Ca45  1  0.73913659  0.08138868  0.25943452  1
  Ca2+  Ca46  1  0.06201491  0.58594420  0.56042422  1
  Ca2+  Ca47  1  0.58730531  0.08823724  0.42275786  1
  Ca2+  Ca48  1  0.26014041  0.60116950  0.40494618  1
  Ca2+  Ca49  1  0.25269301  0.08294560  0.41201670  1
  Ca2+  Ca50  1  0.57798160  0.58974646  0.73593392  1
  Ca2+  Ca51  1  0.10363234  0.09292261  0.90529815  1
  Ca2+  Ca52  1  0.08118348  0.59373688  0.26600686  1
  Ca2+  Ca53  1  0.40726778  0.59853260  0.24778987  1
  Ca2+  Ca54  1  0.74712374  0.60701288  0.92520762  1
  Ca2+  Ca55  1  0.93983706  0.08554022  0.72542889  1
  Ca2+  Ca56  1  0.41820380  0.09599892  0.90423915  1
  Ca2+  Ca57  1  0.74422559  0.60788050  0.56858560  1
  Ca2+  Ca58  1  0.24214577  0.08284693  0.41174535  1
  Ca2+  Ca59  1  0.26301887  0.08830292  0.73309575  1
  Ca2+  Ca60  1  0.59315125  0.60103404  0.41421006  1
  Ca2+  Ca61  1  0.08469919  0.09999190  0.58204661  1
  Ca2+  Ca62  1  0.40683042  0.09580715  0.90397906  1
  Ca2+  Ca63  1  0.75505934  0.60920591  0.93234930  1
  Ca2+  Ca64  1  0.58340085  0.08658376  0.08369038  1
  Ca2+  Ca65  1  0.57243710  0.59471679  0.09020937  1
  Ca2+  Ca66  1  0.44429308  0.06631467  0.61573614  1
  Ca2+  Ca67  1  0.41264948  0.57168333  0.95452380  1
  Ca2+  Ca68  1  0.25735022  0.60271776  0.09730383  1
  Ca2+  Ca69  1  0.92714368  0.08641146  0.72482924  1
  Ca2+  Ca70  1  0.27254332  0.09835062  0.09418161  1
  Ca2+  Ca71  1  0.90165210  0.61902248  0.09917709  1
  Ca2+  Ca72  1  0.55786554  0.92085663  0.71533572  1
  Ca2+  Ca73  1  0.42085141  0.90954905  0.56896411  1
  Ca2+  Ca74  1  0.07895461  0.90336729  0.25493283  1
  Ca2+  Ca75  1  0.56999949  0.40343218  0.75233376  1
  Ca2+  Ca76  1  0.89794251  0.91383021  0.07576512  1
  Ca2+  Ca77  1  0.92013575  0.40212401  0.08721254  1
  Ca2+  Ca78  1  0.07971052  0.89961679  0.58136268  1
  Ca2+  Ca79  1  0.26196148  0.90219000  0.42378315  1
  Ca2+  Ca80  1  0.27229554  0.91499641  0.73895881  1
  Ca2+  Ca81  1  0.91346676  0.89325629  0.42624576  1
  Ca2+  Ca82  1  0.25950352  0.91443248  0.73904673  1
  Ca2+  Ca83  1  0.54691172  0.91995005  0.71593987  1
  Ca2+  Ca84  1  0.27286901  0.41747439  0.07294355  1
  Ca2+  Ca85  1  0.09164955  0.90307636  0.25523097  1
  Ca2+  Ca86  1  0.23200892  0.41277172  0.42162789  1
  Ca2+  Ca87  1  0.26115756  0.40505120  0.75128097  1
  Ca2+  Ca88  1  0.93241840  0.42271136  0.44179596  1
  Ca2+  Ca89  1  0.57440585  0.90551698  0.42920888  1
  Ca2+  Ca90  1  0.90728602  0.40187014  0.08699068  1
  Ca2+  Ca91  1  0.91819485  0.40732512  0.71600463  1
  Ca2+  Ca92  1  0.73820224  0.41350100  0.26251015  1
  Ca2+  Ca93  1  0.54830141  0.42620119  0.08761191  1
  Ca2+  Ca94  1  0.08018475  0.41584491  0.27602391  1
  Ca2+  Ca95  1  0.91943372  0.90070846  0.74367066  1
  Ca2+  Ca96  1  0.07795793  0.89664941  0.90794447  1
  Ca2+  Ca97  1  0.74265817  0.90361971  0.24545464  1
  Ca2+  Ca98  1  0.88622256  0.91117140  0.07873285  1
  Ca2+  Ca99  1  0.28451575  0.42060041  0.07617223  1
  Ca2+  Ca100  1  0.26015007  0.89761371  0.09016264  1
  Ca2+  Ca101  1  0.41569108  0.90088467  0.91191550  1
  Ca2+  Ca102  1  0.41106742  0.41700720  0.59856786  1
  Ca2+  Ca103  1  0.58433603  0.41459692  0.40836186  1
  Ca2+  Ca104  1  0.75110804  0.90576551  0.92404462  1
  Ca2+  Ca105  1  0.59073864  0.90152716  0.08982142  1
  Ca2+  Ca106  1  0.42319086  0.41674429  0.59868291  1
  Ca2+  Ca107  1  0.42421635  0.91154420  0.26554987  1
  Mn3.34+  Mn108  1  0.08858157  0.33811022  0.08516581  1
  Mn3.34+  Mn109  1  0.08150457  0.33612473  0.41964245  1
  Mn3.34+  Mn110  1  0.08561626  0.33152675  0.74653456  1
  Mn3.34+  Mn111  1  0.08386592  0.83109069  0.08423979  1
  Mn3.34+  Mn112  1  0.08405257  0.82977678  0.42161468  1
  Mn3.34+  Mn113  1  0.08223737  0.82642141  0.75136993  1
  Mn3.34+  Mn114  1  0.42135157  0.33640112  0.08534363  1
  Mn3.34+  Mn115  1  0.41361085  0.33963625  0.41488766  1
  Mn3.34+  Mn116  1  0.41368132  0.33464981  0.75494957  1
  Mn3.34+  Mn117  1  0.41968243  0.83190782  0.08811200  1
  Mn3.34+  Mn118  1  0.41824630  0.83156077  0.41642691  1
  Mn3.34+  Mn119  1  0.41658218  0.82426894  0.75175289  1
  Mn3.34+  Mn120  1  0.74365389  0.33345326  0.08919250  1
  Mn3.34+  Mn121  1  0.75173168  0.33886050  0.42016677  1
  Mn3.34+  Mn122  1  0.74833761  0.33507655  0.75091431  1
  Mn3.34+  Mn123  1  0.74383312  0.82891554  0.08650951  1
  Mn3.34+  Mn124  1  0.74915827  0.83066485  0.41442173  1
  Mn3.34+  Mn125  1  0.74790351  0.83220090  0.75045345  1
  Mn3.34+  Mn126  1  0.25316429  0.33807162  0.25072517  1
  Mn3.34+  Mn127  1  0.24733400  0.32939473  0.58087773  1
  Mn3.34+  Mn128  1  0.25093129  0.33647015  0.91576833  1
  Mn3.34+  Mn129  1  0.25307037  0.82649078  0.25090123  1
  Mn3.34+  Mn130  1  0.25105319  0.82348814  0.58063318  1
  Mn3.34+  Mn131  1  0.24930810  0.83083552  0.91860689  1
  Mn3.34+  Mn132  1  0.57893841  0.33973169  0.24856204  1
  Mn3.34+  Mn133  1  0.58596365  0.33257216  0.58002609  1
  Mn3.34+  Mn134  1  0.58285347  0.33664142  0.91762373  1
  Mn3.34+  Mn135  1  0.58251716  0.83088259  0.25411502  1
  Mn3.34+  Mn136  1  0.58817746  0.83173127  0.57952308  1
  Mn3.34+  Mn137  1  0.58153400  0.82978840  0.91465562  1
  Mn3.34+  Mn138  1  0.91570478  0.33523574  0.25257903  1
  Mn3.34+  Mn139  1  0.91415973  0.33496247  0.58076568  1
  Mn3.34+  Mn140  1  0.91823722  0.33271018  0.90629049  1
  Mn3.34+  Mn141  1  0.91218191  0.83054066  0.25252984  1
  Mn3.34+  Mn142  1  0.90775773  0.83080259  0.58224416  1
  Mn3.34+  Mn143  1  0.91612047  0.82825888  0.91326015  1
  Mn3.34+  Mn144  1  0.42210688  0.66657438  0.75533023  1
  Mn3.34+  Mn145  1  0.92495735  0.16749877  0.91406674  1
  Mn3.34+  Mn146  1  0.41068931  0.16271011  0.42210409  1
  Mn3.34+  Mn147  1  0.24487847  0.66901579  0.58149962  1
  Mn3.34+  Mn148  1  0.58340431  0.17158053  0.91444606  1
  Mn3.34+  Mn149  1  0.08444718  0.67121634  0.08633694  1
  Mn3.34+  Mn150  1  0.57831289  0.66586563  0.91669474  1
  Mn3.34+  Mn151  1  0.92111766  0.16986954  0.25529972  1
  Mn3.34+  Mn152  1  0.08496563  0.66755788  0.41352356  1
  Mn3.34+  Mn153  1  0.91054860  0.16567959  0.25239851  1
  Mn3.34+  Mn154  1  0.91219242  0.16814253  0.57098448  1
  Mn3.34+  Mn155  1  0.58371420  0.16180418  0.58005071  1
  Mn3.34+  Mn156  1  0.07996133  0.66826742  0.75398737  1
  Mn3.34+  Mn157  1  0.07592319  0.16385589  0.08735228  1
  Mn3.34+  Mn158  1  0.74854327  0.16476768  0.75123113  1
  Mn3.34+  Mn159  1  0.08614627  0.16845212  0.42161413  1
  Mn3.34+  Mn160  1  0.41592284  0.66772123  0.08723787  1
  Mn3.34+  Mn161  1  0.25176898  0.17182354  0.58358891  1
  Mn3.34+  Mn162  1  0.08794808  0.17443689  0.74803074  1
  Mn3.34+  Mn163  1  0.41150424  0.67510181  0.75320073  1
  Mn3.34+  Mn164  1  0.74612566  0.16836160  0.09075548  1
  Mn3.34+  Mn165  1  0.75316030  0.66685497  0.74889397  1
  Mn3.34+  Mn166  1  0.91378314  0.16286684  0.91235003  1
  Mn3.34+  Mn167  1  0.58611632  0.65731271  0.24434768  1
  Mn3.34+  Mn168  1  0.92367402  0.67140353  0.91054896  1
  Mn3.34+  Mn169  1  0.90906240  0.66447920  0.58106412  1
  Mn3.34+  Mn170  1  0.41888566  0.16643273  0.74706791  1
  Mn3.34+  Mn171  1  0.74494084  0.16893351  0.42133007  1
  Mn3.34+  Mn172  1  0.74041426  0.17115876  0.74926689  1
  Mn3.34+  Mn173  1  0.42445404  0.16844588  0.08717159  1
  Mn3.34+  Mn174  1  0.75579067  0.16286981  0.09313606  1
  Mn3.34+  Mn175  1  0.58154678  0.16853462  0.25301496  1
  Mn3.34+  Mn176  1  0.24980424  0.17287902  0.91358698  1
  Mn3.34+  Mn177  1  0.42070179  0.16763280  0.41954877  1
  Mn3.34+  Mn178  1  0.24744478  0.66579799  0.92147357  1
  Mn3.34+  Mn179  1  0.08725497  0.16832278  0.08483930  1
  Mn3.34+  Mn180  1  0.25307751  0.00090011  0.91653880  1
  Mn3.34+  Mn181  1  0.42097446  -0.00242661  0.08444005  1
  Mn3.34+  Mn182  1  0.07240068  0.00498694  0.07886543  1
  Mn3.34+  Mn183  1  0.91761967  0.50330428  0.26653395  1
  Mn3.34+  Mn184  1  0.75064081  -0.00207742  0.42935785  1
  Mn3.34+  Mn185  1  0.91413331  -0.00255360  0.90775401  1
  Mn3.34+  Mn186  1  0.06821949  0.50400394  0.75360190  1
  Mn3.34+  Mn187  1  0.74872307  0.49761546  0.40560273  1
  Mn3.34+  Mn188  1  0.76249398  0.50489416  0.73868873  1
  Mn3.34+  Mn189  1  0.75135206  0.49748098  0.73913849  1
  Mn3.34+  Mn190  1  0.24615698  0.49733575  0.26193578  1
  Mn3.34+  Mn191  1  0.57865907  -0.00043194  0.90450159  1
  Mn3.34+  Mn192  1  0.58994306  0.00357328  0.90335059  1
  Mn3.34+  Mn193  1  0.41874535  0.49929347  0.40303220  1
  Mn3.34+  Mn194  1  0.08688788  -0.00063455  0.07848156  1
  Mn3.34+  Mn195  1  0.91896343  -0.00060939  0.57595595  1
  Mn3.34+  Mn196  1  0.57957376  0.00136935  0.25655820  1
  Mn3.34+  Mn197  1  0.90891308  0.49357071  0.90818363  1
  Mn3.34+  Mn198  1  0.07374894  0.50843825  0.08632613  1
  Mn3.34+  Mn199  1  0.76106138  0.00279295  0.42830217  1
  Mn3.34+  Mn200  1  0.74065589  0.00279128  0.74477889  1
  Mn3.34+  Mn201  1  0.08278870  0.50220880  0.08857804  1
  Mn3.34+  Mn202  1  0.91562547  0.00248315  0.24911112  1
  Mn3.34+  Mn203  1  0.58710846  0.49760061  0.58779675  1
  Mn3.34+  Mn204  1  0.25146380  0.49961460  0.92052933  1
  Mn3.34+  Mn205  1  0.75057999  -0.00195509  0.74050679  1
  Mn3.34+  Mn206  1  0.92142235  0.50041316  0.90858539  1
  Mn3.34+  Mn207  1  0.75680505  0.50781127  0.09310124  1
  Mn3.34+  Mn208  1  0.06513622  0.00047104  0.41475410  1
  Mn3.34+  Mn209  1  0.08601229  -0.00214745  0.75428497  1
  Mn3.34+  Mn210  1  0.07852985  0.49604331  0.75600239  1
  Mn3.34+  Mn211  1  0.24523072  0.50071155  0.58680465  1
  Mn3.34+  Mn212  1  0.58007692  0.49961966  0.92224732  1
  Mn3.34+  Mn213  1  0.74353029  0.50169834  0.09351708  1
  Mn3.34+  Mn214  1  0.24966840  -0.00022146  0.58689858  1
  Mn3.34+  Mn215  1  0.25795951  -0.00532421  0.26131696  1
  O2-  O216  1  0.00915076  0.13899314  -0.00468052  1
  O2-  O217  1  0.00483396  0.15573655  0.33449642  1
  O2-  O218  1  0.00457014  0.16501323  0.66650724  1
  O2-  O219  1  -0.00291766  0.67144415  -0.00117486  1
  O2-  O220  1  0.00514881  0.65735694  0.33741397  1
  O2-  O221  1  0.01377003  0.66085080  0.65788965  1
  O2-  O222  1  0.33974455  0.14906666  -0.00151349  1
  O2-  O223  1  0.33170491  0.14896482  0.34051942  1
  O2-  O224  1  0.33067912  0.17912866  0.67023399  1
  O2-  O225  1  0.33446355  0.65470655  -0.00278722  1
  O2-  O226  1  0.32993408  0.66922843  0.32617982  1
  O2-  O227  1  0.33101236  0.66525229  0.67018835  1
  O2-  O228  1  0.66793874  0.15416626  0.00133652  1
  O2-  O229  1  0.66567131  0.15044064  0.33269061  1
  O2-  O230  1  0.66745906  0.16982356  0.66220109  1
  O2-  O231  1  0.65332478  0.65263311  -0.00250330  1
  O2-  O232  1  0.66130114  0.65751432  0.32766785  1
  O2-  O233  1  0.67123724  0.64838778  0.67886250  1
  O2-  O234  1  0.17512645  0.14086979  0.00618256  1
  O2-  O235  1  0.17117842  0.15528284  0.34625108  1
  O2-  O236  1  0.17105748  0.16204788  0.66862852  1
  O2-  O237  1  0.17046380  0.65311180  0.00291445  1
  O2-  O238  1  0.16894814  0.66781796  0.33911636  1
  O2-  O239  1  0.17565705  0.67023781  0.68004319  1
  O2-  O240  1  0.49988914  0.14381166  -0.00272472  1
  O2-  O241  1  0.49891826  0.14154941  0.33532760  1
  O2-  O242  1  0.49582751  0.16831387  0.66283480  1
  O2-  O243  1  0.49328333  0.65272499  -0.00801103  1
  O2-  O244  1  0.49877750  0.65137648  0.32459241  1
  O2-  O245  1  0.49716889  0.66214742  0.66855381  1
  O2-  O246  1  0.83210119  0.15679644  0.00101560  1
  O2-  O247  1  0.82451448  0.16612432  0.33065021  1
  O2-  O248  1  0.83898423  0.15747197  0.67364654  1
  O2-  O249  1  0.83871994  0.67418242  -0.00938051  1
  O2-  O250  1  0.83584043  0.66178923  0.31794145  1
  O2-  O251  1  0.83638628  0.65584320  0.67194158  1
  O2-  O252  1  -0.00119750  0.34946291  0.00095884  1
  O2-  O253  1  -0.00107108  0.33456754  0.33203056  1
  O2-  O254  1  0.00045769  0.32724519  0.66597917  1
  O2-  O255  1  -0.00771088  0.84965764  0.00555725  1
  O2-  O256  1  0.00004849  0.85012704  0.33408811  1
  O2-  O257  1  0.00269961  0.83831978  0.66759335  1
  O2-  O258  1  0.33528060  0.34371013  0.00224489  1
  O2-  O259  1  0.32375068  0.35216128  0.34222517  1
  O2-  O260  1  0.33258652  0.32451959  0.66807178  1
  O2-  O261  1  0.33568924  0.84722036  -0.00294000  1
  O2-  O262  1  0.33435127  0.83838924  0.33193086  1
  O2-  O263  1  0.32674907  0.82987073  0.67324283  1
  O2-  O264  1  0.66673360  0.32913803  0.00543991  1
  O2-  O265  1  0.66569674  0.34600660  0.33524798  1
  O2-  O266  1  0.66038596  0.33088705  0.67160341  1
  O2-  O267  1  0.66597977  0.84733858  -0.00087301  1
  O2-  O268  1  0.66306139  0.85221251  0.33631368  1
  O2-  O269  1  0.65585966  0.85040661  0.67839888  1
  O2-  O270  1  0.17681938  0.35749823  0.00869513  1
  O2-  O271  1  0.16534904  0.34525617  0.33139229  1
  O2-  O272  1  0.16825815  0.30668961  0.66483845  1
  O2-  O273  1  0.16636058  0.85497498  0.00048901  1
  O2-  O274  1  0.16966721  0.84101845  0.33711807  1
  O2-  O275  1  0.16893464  0.82571028  0.66985647  1
  O2-  O276  1  0.50412349  0.34642965  0.00624575  1
  O2-  O277  1  0.50275504  0.35053057  0.33719344  1
  O2-  O278  1  0.49428595  0.33535298  0.66610192  1
  O2-  O279  1  0.50064587  0.85204081  0.00042352  1
  O2-  O280  1  0.50155568  0.84782419  0.33560838  1
  O2-  O281  1  0.49388289  0.83341303  0.66344218  1
  O2-  O282  1  0.83377448  0.33687811  0.00696129  1
  O2-  O283  1  0.82838557  0.33487017  0.32958427  1
  O2-  O284  1  0.83150968  0.32697513  0.66797189  1
  O2-  O285  1  0.83148339  0.83898320  -0.00166150  1
  O2-  O286  1  0.82988300  0.85225049  0.32900710  1
  O2-  O287  1  0.83576952  0.84240017  0.67275110  1
  O2-  O288  1  0.00197936  0.19590746  0.17472061  1
  O2-  O289  1  0.00445706  0.17900527  0.50182684  1
  O2-  O290  1  -0.00364959  0.18218933  0.82052284  1
  O2-  O291  1  -0.00017076  0.67952757  0.15894251  1
  O2-  O292  1  -0.00064763  0.67408466  0.50297384  1
  O2-  O293  1  -0.00149730  0.69637503  0.82653539  1
  O2-  O294  1  0.33647668  0.17605445  0.15744284  1
  O2-  O295  1  0.33039882  0.19281304  0.50220516  1
  O2-  O296  1  0.34100083  0.18503401  0.83595389  1
  O2-  O297  1  0.33620181  0.67947131  0.16353132  1
  O2-  O298  1  0.32746556  0.67581948  0.50785740  1
  O2-  O299  1  0.33466756  0.68999002  0.83495921  1
  O2-  O300  1  0.66846047  0.18974473  0.17252624  1
  O2-  O301  1  0.65657739  0.17894035  0.49235004  1
  O2-  O302  1  0.66678399  0.19439527  0.83328189  1
  O2-  O303  1  0.65796386  0.67157075  0.16471752  1
  O2-  O304  1  0.65883853  0.67315151  0.49307924  1
  O2-  O305  1  0.67290952  0.67473198  0.84281948  1
  O2-  O306  1  0.17149671  0.17436755  0.16568156  1
  O2-  O307  1  0.16732262  0.18481124  0.50579708  1
  O2-  O308  1  0.15900735  0.18707566  0.83740964  1
  O2-  O309  1  0.16296243  0.68312158  0.16455189  1
  O2-  O310  1  0.16116111  0.68853428  0.50827418  1
  O2-  O311  1  0.17020622  0.68241995  0.83294753  1
  O2-  O312  1  0.50653158  0.18030346  0.16330885  1
  O2-  O313  1  0.49967450  0.18165434  0.49724303  1
  O2-  O314  1  0.49336459  0.17928788  0.83626163  1
  O2-  O315  1  0.50076752  0.67983072  0.16220211  1
  O2-  O316  1  0.51168610  0.66590530  0.48796346  1
  O2-  O317  1  0.50680283  0.68769485  0.82685090  1
  O2-  O318  1  0.83757093  0.19862131  0.16733681  1
  O2-  O319  1  0.82757900  0.18553234  0.49790422  1
  O2-  O320  1  0.83152402  0.19006774  0.82909321  1
  O2-  O321  1  0.83173470  0.67889507  0.17830679  1
  O2-  O322  1  0.82742206  0.67596698  0.50935314  1
  O2-  O323  1  0.82756224  0.68303407  0.84052198  1
  O2-  O324  1  -0.00532193  0.32257979  0.16388714  1
  O2-  O325  1  -0.00482860  0.32385520  0.49513654  1
  O2-  O326  1  0.00334921  0.30932360  0.82457706  1
  O2-  O327  1  0.00245469  0.82606604  0.17255264  1
  O2-  O328  1  0.00202640  0.82752939  0.50311343  1
  O2-  O329  1  0.00250522  0.81740151  0.83588051  1
  O2-  O330  1  0.33114909  0.32784242  0.16210766  1
  O2-  O331  1  0.33480454  0.31723927  0.50474194  1
  O2-  O332  1  0.33265576  0.31551312  0.83207570  1
  O2-  O333  1  0.32853405  0.81614409  0.16350053  1
  O2-  O334  1  0.33368151  0.81694060  0.49974152  1
  O2-  O335  1  0.33237144  0.81431278  0.83451666  1
  O2-  O336  1  0.66686431  0.31328513  0.17113058  1
  O2-  O337  1  0.66252180  0.32976524  0.49609388  1
  O2-  O338  1  0.66141957  0.31880518  0.82862432  1
  O2-  O339  1  0.66532914  0.82571509  0.17003350  1
  O2-  O340  1  0.66281999  0.82293206  0.49252088  1
  O2-  O341  1  0.67091766  0.82237706  0.83964853  1
  O2-  O342  1  0.16714624  0.32284295  0.16837105  1
  O2-  O343  1  0.17024564  0.32159060  0.49499021  1
  O2-  O344  1  0.17278703  0.32168687  0.82652659  1
  O2-  O345  1  0.16389089  0.81839876  0.17510175  1
  O2-  O346  1  0.16577256  0.81613448  0.50298976  1
  O2-  O347  1  0.16303148  0.81463341  0.83770132  1
  O2-  O348  1  0.49857063  0.32052879  0.16807278  1
  O2-  O349  1  0.49481526  0.32900325  0.50339513  1
  O2-  O350  1  0.50033413  0.31909111  0.82616161  1
  O2-  O351  1  0.50291992  0.82466933  0.16740246  1
  O2-  O352  1  0.50223391  0.82517090  0.49743481  1
  O2-  O353  1  0.49838407  0.81297976  0.83292270  1
  O2-  O354  1  0.83752328  0.31928560  0.16413013  1
  O2-  O355  1  0.83534020  0.32252090  0.49565905  1
  O2-  O356  1  0.83257640  0.31055166  0.82850061  1
  O2-  O357  1  0.83791632  0.82805918  0.16021653  1
  O2-  O358  1  0.83808196  0.81656045  0.49236483  1
  O2-  O359  1  0.83275384  0.81240497  0.83587497  1
  O2-  O360  1  0.07885684  0.07892578  0.13550072  1
  O2-  O361  1  0.10050377  0.08218220  0.44894892  1
  O2-  O362  1  0.06956518  0.08090038  0.77393156  1
  O2-  O363  1  0.09480899  0.58687620  0.11812088  1
  O2-  O364  1  0.10348979  0.58527528  0.43627286  1
  O2-  O365  1  0.10442146  0.58102654  0.78123411  1
  O2-  O366  1  0.41620085  0.08198863  0.12024301  1
  O2-  O367  1  0.39973987  0.08354450  0.46058393  1
  O2-  O368  1  0.40377124  0.08031687  0.77168238  1
  O2-  O369  1  0.41463952  0.58622390  0.10624890  1
  O2-  O370  1  0.40116463  0.56767797  0.44904917  1
  O2-  O371  1  0.39521062  0.58294082  0.78169154  1
  O2-  O372  1  0.73557861  0.07971681  0.11921908  1
  O2-  O373  1  0.74671505  0.08482488  0.44534687  1
  O2-  O374  1  0.75821268  0.07955784  0.79813700  1
  O2-  O375  1  0.76303640  0.58732083  0.07940459  1
  O2-  O376  1  0.72073905  0.56533716  0.44964394  1
  O2-  O377  1  0.75226318  0.57524362  0.79305188  1
  O2-  O378  1  0.25095001  0.07210074  0.22431460  1
  O2-  O379  1  0.24604487  0.08029178  0.55423268  1
  O2-  O380  1  0.25564483  0.08526954  0.87396506  1
  O2-  O381  1  0.24888989  0.56940041  0.22445736  1
  O2-  O382  1  0.21010671  0.57997705  0.57073966  1
  O2-  O383  1  0.25822798  0.58075831  0.88218935  1
  O2-  O384  1  0.58790634  0.08091058  0.22058086  1
  O2-  O385  1  0.57190038  0.08332353  0.55743774  1
  O2-  O386  1  0.59090579  0.08625435  0.88084282  1
  O2-  O387  1  0.56944783  0.57919985  0.22560082  1
  O2-  O388  1  0.58548618  0.57223133  0.55234048  1
  O2-  O389  1  0.58226778  0.57906907  0.87971318  1
  O2-  O390  1  0.90518930  0.08291671  0.21749591  1
  O2-  O391  1  0.93074073  0.08427684  0.57860165  1
  O2-  O392  1  0.91582209  0.07921733  0.86884686  1
  O2-  O393  1  0.94299024  0.55872513  0.19698659  1
  O2-  O394  1  0.92104203  0.58405012  0.55753030  1
  O2-  O395  1  0.89824029  0.58136084  0.89490582  1
  O2-  O396  1  0.05491534  0.42443613  0.12827850  1
  O2-  O397  1  0.07891090  0.41594871  0.42955242  1
  O2-  O398  1  0.06324106  0.41646693  0.76645567  1
  O2-  O399  1  0.08849401  0.92044994  0.12039117  1
  O2-  O400  1  0.09198359  0.91711023  0.44226221  1
  O2-  O401  1  0.10302267  0.91647939  0.77025754  1
  O2-  O402  1  0.41432524  0.41741965  0.10731895  1
  O2-  O403  1  0.41048878  0.43033763  0.46184362  1
  O2-  O404  1  0.40872596  0.41624913  0.74346225  1
  O2-  O405  1  0.40640685  0.91667325  0.11979940  1
  O2-  O406  1  0.40894153  0.91558318  0.43487115  1
  O2-  O407  1  0.40664293  0.91511513  0.77648983  1
  O2-  O408  1  0.76660485  0.42168603  0.12229879  1
  O2-  O409  1  0.75815408  0.42274195  0.44491087  1
  O2-  O410  1  0.76047641  0.42352795  0.77501601  1
  O2-  O411  1  0.75454550  0.91688626  0.10806607  1
  O2-  O412  1  0.75767882  0.91628056  0.44888911  1
  O2-  O413  1  0.76601804  0.92027804  0.78557042  1
  O2-  O414  1  0.23888594  0.42643125  0.20700481  1
  O2-  O415  1  0.27092122  0.41945796  0.56874839  1
  O2-  O416  1  0.25649128  0.41966935  0.88483036  1
  O2-  O417  1  0.22894850  0.91946657  0.22509692  1
  O2-  O418  1  0.24599628  0.91682530  0.57083013  1
  O2-  O419  1  0.25278866  0.91810629  0.87581453  1
  O2-  O420  1  0.59898702  0.41601248  0.21632251  1
  O2-  O421  1  0.56895904  0.41692853  0.56763848  1
  O2-  O422  1  0.58360111  0.42080920  0.88737343  1
  O2-  O423  1  0.58340139  0.92169483  0.22553264  1
  O2-  O424  1  0.57241249  0.91418194  0.56889204  1
  O2-  O425  1  0.57154855  0.91783239  0.87465362  1
  O2-  O426  1  0.91186689  0.42813352  0.21814691  1
  O2-  O427  1  0.91723698  0.41369933  0.57680545  1
  O2-  O428  1  0.91758871  0.41638484  0.86960156  1
  O2-  O429  1  0.92217148  0.92262286  0.21058193  1
  O2-  O430  1  0.92433687  0.91692882  0.56165366  1
  O2-  O431  1  0.92325256  0.91691698  0.88008719  1
  O2-  O432  1  0.00256759  -0.00795001  -0.01096556  1
  O2-  O433  1  0.02479717  -0.00500623  0.29383781  1
  O2-  O434  1  0.00939560  0.00191561  0.66300854  1
  O2-  O435  1  -0.00451476  0.49272084  0.00118820  1
  O2-  O436  1  0.00469938  0.49766765  0.32462672  1
  O2-  O437  1  0.02452817  0.51175071  0.64929705  1
  O2-  O438  1  0.32494778  0.01842496  0.01184289  1
  O2-  O439  1  0.32942898  0.01333323  0.34156441  1
  O2-  O440  1  0.32674587  -0.00230510  0.66408549  1
  O2-  O441  1  0.32664113  0.49959736  0.00676402  1
  O2-  O442  1  0.32628936  0.50375468  0.34121499  1
  O2-  O443  1  0.33422719  0.51541417  0.64906318  1
  O2-  O444  1  0.66240749  0.00130229  -0.00629089  1
  O2-  O445  1  0.66008640  0.00534883  0.34666089  1
  O2-  O446  1  0.63885048  -0.00207751  0.69413138  1
  O2-  O447  1  0.67181275  0.50796187  -0.00001334  1
  O2-  O448  1  0.67063031  0.48735705  0.33721404  1
  O2-  O449  1  0.65121035  0.50498723  0.69182311  1
  O2-  O450  1  0.16218662  0.01684116  -0.00483222  1
  O2-  O451  1  0.17353996  0.00903880  0.34424198  1
  O2-  O452  1  0.18005327  0.00455110  0.68549787  1
  O2-  O453  1  0.17176684  0.49156017  0.01455557  1
  O2-  O454  1  0.16519931  0.49293003  0.32869962  1
  O2-  O455  1  0.18969731  0.49495190  0.70360875  1
  O2-  O456  1  0.48874690  0.01115278  -0.01832690  1
  O2-  O457  1  0.48616800  0.00314530  0.30977045  1
  O2-  O458  1  0.47650107  -0.02075530  0.65002324  1
  O2-  O459  1  0.51172954  0.50820369  0.00649912  1
  O2-  O460  1  0.52001806  0.50609356  0.36901899  1
  O2-  O461  1  0.49131723  0.50123641  0.64467671  1
  O2-  O462  1  0.83314761  -0.01501442  -0.00974149  1
  O2-  O463  1  0.82661670  -0.00330779  0.32722105  1
  O2-  O464  1  0.85073769  0.00639808  0.68361622  1
  O2-  O465  1  0.83935070  0.48811474  0.00666462  1
  O2-  O466  1  0.83958756  0.48497401  0.34223103  1
  O2-  O467  1  0.85211771  0.49812871  0.68028239  1
  O2-  O468  1  0.09101799  0.75336849  0.05640884  1
  O2-  O469  1  0.08496356  0.25075573  0.05186002  1
  O2-  O470  1  0.74398527  0.75131742  0.06967799  1
  O2-  O471  1  0.25810153  0.25834839  0.26646984  1
  O2-  O472  1  0.42235053  0.75202067  0.06027720  1
  O2-  O473  1  0.41864001  0.24962875  0.06071866  1
  O2-  O474  1  0.06622977  0.75192016  0.39614182  1
  O2-  O475  1  0.57422216  0.24942544  0.28139952  1
  O2-  O476  1  0.58416583  0.74926026  0.94626140  1
  O2-  O477  1  0.08570298  0.24945938  0.39707815  1
  O2-  O478  1  0.24375184  0.25177839  0.95095840  1
  O2-  O479  1  0.57067620  0.25011649  0.94471747  1
  O2-  O480  1  0.74891874  0.75329421  0.39419961  1
  O2-  O481  1  0.74396451  0.74982516  0.72001249  1
  O2-  O482  1  0.73726777  0.25267387  0.40491763  1
  O2-  O483  1  0.91358928  0.75300690  0.26905344  1
  O2-  O484  1  0.42513324  0.75189601  0.40233029  1
  O2-  O485  1  0.24736365  0.75002076  0.94914569  1
  O2-  O486  1  0.59173331  0.75228946  0.59588867  1
  O2-  O487  1  0.58087279  0.75096087  0.27212794  1
  O2-  O488  1  0.42107472  0.24772936  0.38637687  1
  O2-  O489  1  0.92858945  0.24975897  0.94684593  1
  O2-  O490  1  0.58005520  0.25136002  0.59007694  1
  O2-  O491  1  0.91830235  0.75008743  0.60329586  1
  O2-  O492  1  0.91595060  0.24840907  0.59228575  1
