# generated using pymatgen
data_Ca108Mn108O277
_symmetry_space_group_name_H-M   'P 1'
_cell_length_a   16.03304125
_cell_length_b   22.31712315
_cell_length_c   16.39536374
_cell_angle_alpha   90.00133839
_cell_angle_beta   89.99948083
_cell_angle_gamma   90.00040830
_symmetry_Int_Tables_number   1
_chemical_formula_structural   Ca108Mn108O277
_chemical_formula_sum   'Ca108 Mn108 O277'
_cell_volume   5866.44733116
_cell_formula_units_Z   1
loop_
 _symmetry_equiv_pos_site_id
 _symmetry_equiv_pos_as_xyz
  1  'x, y, z'
loop_
 _atom_type_symbol
 _atom_type_oxidation_number
  Ca2+  2.0
  Mn3.34+  3.34
  O2-  -2.0
loop_
 _atom_site_type_symbol
 _atom_site_label
 _atom_site_symmetry_multiplicity
 _atom_site_fract_x
 _atom_site_fract_y
 _atom_site_fract_z
 _atom_site_occupancy
  Ca2+  Ca0  1  0.09899590  0.24533779  0.26577694  1
  Ca2+  Ca1  1  0.07630797  0.24925626  0.57688213  1
  Ca2+  Ca2  1  0.06876373  0.25181049  0.91581801  1
  Ca2+  Ca3  1  0.07302484  0.76597661  0.25562732  1
  Ca2+  Ca4  1  0.08023037  0.75783156  0.59084715  1
  Ca2+  Ca5  1  0.07312099  0.73963671  0.90629352  1
  Ca2+  Ca6  1  0.41779075  0.25592193  0.24741239  1
  Ca2+  Ca7  1  0.41997327  0.26587058  0.56898739  1
  Ca2+  Ca8  1  0.41811401  0.24982099  0.92595774  1
  Ca2+  Ca9  1  0.45074242  0.74284624  0.23772037  1
  Ca2+  Ca10  1  0.42754821  0.74571294  0.56986125  1
  Ca2+  Ca11  1  0.42118122  0.73329955  0.93049125  1
  Ca2+  Ca12  1  0.73791199  0.24425769  0.24315341  1
  Ca2+  Ca13  1  0.76211605  0.26488404  0.57212171  1
  Ca2+  Ca14  1  0.76176037  0.24647817  0.92790220  1
  Ca2+  Ca15  1  0.73017434  0.75763168  0.23049101  1
  Ca2+  Ca16  1  0.74529394  0.75951033  0.57675817  1
  Ca2+  Ca17  1  0.75880080  0.74150512  0.93056910  1
  Ca2+  Ca18  1  0.24947794  0.24485307  0.08161730  1
  Ca2+  Ca19  1  0.23369970  0.24507836  0.41464841  1
  Ca2+  Ca20  1  0.22827049  0.25955786  0.75546621  1
  Ca2+  Ca21  1  0.28540812  0.73245944  0.06486640  1
  Ca2+  Ca22  1  0.26097580  0.75685921  0.41834794  1
  Ca2+  Ca23  1  0.24140014  0.73742651  0.78256121  1
  Ca2+  Ca24  1  0.60295865  0.23403777  0.08314976  1
  Ca2+  Ca25  1  0.58353320  0.24558589  0.40378120  1
  Ca2+  Ca26  1  0.58696591  0.25997885  0.75429279  1
  Ca2+  Ca27  1  0.58885613  0.74640243  0.08554706  1
  Ca2+  Ca28  1  0.57991395  0.75693921  0.39952262  1
  Ca2+  Ca29  1  0.58778652  0.74346238  0.74778983  1
  Ca2+  Ca30  1  0.89914808  0.23754054  0.06382896  1
  Ca2+  Ca31  1  0.93073047  0.25055046  0.42726804  1
  Ca2+  Ca32  1  0.92848965  0.25660445  0.75400455  1
  Ca2+  Ca33  1  0.88732267  0.74551818  0.06751141  1
  Ca2+  Ca34  1  0.90958413  0.77490101  0.41274001  1
  Ca2+  Ca35  1  0.92792581  0.75298403  0.76890128  1
  Ca2+  Ca36  1  0.23259713  0.11787047  0.77391110  1
  Ca2+  Ca37  1  0.59118699  0.07944359  0.38326153  1
  Ca2+  Ca38  1  0.26789232  0.57714769  0.75753004  1
  Ca2+  Ca39  1  0.94401074  0.57523106  0.40432709  1
  Ca2+  Ca40  1  0.26783712  0.57691668  0.07182495  1
  Ca2+  Ca41  1  0.77835950  0.08465711  0.55700601  1
  Ca2+  Ca42  1  0.07960008  0.10878518  0.56910966  1
  Ca2+  Ca43  1  0.91743047  0.60149303  0.77442236  1
  Ca2+  Ca44  1  0.92986808  0.59987730  0.77531575  1
  Ca2+  Ca45  1  0.73175077  0.58614532  0.59746237  1
  Ca2+  Ca46  1  0.93282439  0.08466314  0.40815162  1
  Ca2+  Ca47  1  0.40579608  0.10331975  0.56946309  1
  Ca2+  Ca48  1  0.06891652  0.11941783  0.91623101  1
  Ca2+  Ca49  1  0.09357100  0.08905537  0.25678631  1
  Ca2+  Ca50  1  0.24129288  0.57562169  0.41725955  1
  Ca2+  Ca51  1  0.56817094  0.58924505  0.40340644  1
  Ca2+  Ca52  1  0.93321681  0.57862431  0.40323290  1
  Ca2+  Ca53  1  0.13323129  0.58385257  0.91808548  1
  Ca2+  Ca54  1  0.72440762  0.09547753  0.96181350  1
  Ca2+  Ca55  1  0.57941066  0.10387763  0.79008531  1
  Ca2+  Ca56  1  0.43786462  0.60220503  0.21637957  1
  Ca2+  Ca57  1  0.41098638  0.57151548  0.60856714  1
  Ca2+  Ca58  1  0.78814735  0.08336387  0.56029175  1
  Ca2+  Ca59  1  0.42269002  0.09983364  0.24981228  1
  Ca2+  Ca60  1  0.22969685  0.10202852  0.41144898  1
  Ca2+  Ca61  1  0.72780885  0.07951947  0.24345115  1
  Ca2+  Ca62  1  0.58520162  0.10024154  0.79722168  1
  Ca2+  Ca63  1  0.90277647  0.59730945  0.04671384  1
  Ca2+  Ca64  1  0.56824083  0.60455625  0.07917114  1
  Ca2+  Ca65  1  0.25405933  0.57678997  0.41671143  1
  Ca2+  Ca66  1  0.38743317  0.58095091  0.93284285  1
  Ca2+  Ca67  1  0.90493198  0.09371166  0.05952704  1
  Ca2+  Ca68  1  0.56462434  0.58666180  0.74321208  1
  Ca2+  Ca69  1  0.39652251  0.58338382  0.93660375  1
  Ca2+  Ca70  1  0.75663688  0.60536168  0.92833299  1
  Ca2+  Ca71  1  0.71240013  0.60796708  0.23031108  1
  Ca2+  Ca72  1  0.56367277  0.40139775  0.08000433  1
  Ca2+  Ca73  1  0.75253899  0.39554912  0.25430095  1
  Ca2+  Ca74  1  0.05294154  0.91274056  0.57643627  1
  Ca2+  Ca75  1  0.58310915  0.89426119  0.75299017  1
  Ca2+  Ca76  1  0.26611573  0.42078831  0.06331467  1
  Ca2+  Ca77  1  0.09254738  0.40236179  0.91615582  1
  Ca2+  Ca78  1  0.08565711  0.40195291  0.58330850  1
  Ca2+  Ca79  1  0.92037184  0.39421977  0.07817420  1
  Ca2+  Ca80  1  0.59569277  0.89391279  0.75297892  1
  Ca2+  Ca81  1  0.90894615  0.91012166  0.08707746  1
  Ca2+  Ca82  1  0.23846139  0.90132982  0.09527717  1
  Ca2+  Ca83  1  0.26067465  0.42368778  0.75037685  1
  Ca2+  Ca84  1  0.24492204  0.40688748  0.41828325  1
  Ca2+  Ca85  1  0.61283169  0.93249654  0.36375725  1
  Ca2+  Ca86  1  0.41622498  0.89381609  0.57736342  1
  Ca2+  Ca87  1  0.08347595  0.40177361  0.24885261  1
  Ca2+  Ca88  1  0.57056247  0.41376502  0.75415584  1
  Ca2+  Ca89  1  0.07231741  0.90540149  0.92438343  1
  Ca2+  Ca90  1  0.25149777  0.90163688  0.09526173  1
  Ca2+  Ca91  1  0.43039032  0.91287968  0.26101187  1
  Ca2+  Ca92  1  0.74167312  0.91418927  0.92411339  1
  Ca2+  Ca93  1  0.93168122  0.39429897  0.07956734  1
  Ca2+  Ca94  1  0.40521137  0.42318611  0.93102920  1
  Ca2+  Ca95  1  0.25280835  0.91073657  0.39934814  1
  Ca2+  Ca96  1  0.43810768  0.90529995  0.92020512  1
  Ca2+  Ca97  1  0.05750083  0.92214047  0.26001802  1
  Ca2+  Ca98  1  0.58461126  0.40606368  0.41308344  1
  Ca2+  Ca99  1  0.91425757  0.90169477  0.73855913  1
  Ca2+  Ca100  1  0.24042608  0.89792003  0.75168496  1
  Ca2+  Ca101  1  0.39704303  0.42648932  0.60431654  1
  Ca2+  Ca102  1  0.55854893  0.41583876  0.75441445  1
  Ca2+  Ca103  1  0.59425209  0.40318115  0.41573458  1
  Ca2+  Ca104  1  0.25206166  0.89712693  0.75040296  1
  Ca2+  Ca105  1  0.59588916  0.91252323  0.08719011  1
  Ca2+  Ca106  1  0.77638376  0.91171659  0.56741081  1
  Ca2+  Ca107  1  0.25652247  0.40778165  0.41832863  1
  Mn3.34+  Mn108  1  0.09137709  0.32631612  0.08661991  1
  Mn3.34+  Mn109  1  0.07964590  0.33015368  0.41839309  1
  Mn3.34+  Mn110  1  0.07978507  0.33952907  0.75037221  1
  Mn3.34+  Mn111  1  0.07672907  0.83349666  0.08785354  1
  Mn3.34+  Mn112  1  0.08354223  0.83680813  0.41892374  1
  Mn3.34+  Mn113  1  0.08084704  0.83116439  0.74977399  1
  Mn3.34+  Mn114  1  0.41456529  0.33354861  0.08242439  1
  Mn3.34+  Mn115  1  0.41545383  0.33376977  0.41252576  1
  Mn3.34+  Mn116  1  0.41192304  0.33424242  0.75420503  1
  Mn3.34+  Mn117  1  0.42055028  0.83315722  0.08603950  1
  Mn3.34+  Mn118  1  0.41926269  0.83386295  0.41345812  1
  Mn3.34+  Mn119  1  0.41427920  0.82009758  0.75078812  1
  Mn3.34+  Mn120  1  0.74614049  0.32866907  0.08227198  1
  Mn3.34+  Mn121  1  0.75849915  0.33031976  0.41697185  1
  Mn3.34+  Mn122  1  0.75034865  0.33588792  0.74942529  1
  Mn3.34+  Mn123  1  0.74862319  0.83616792  0.08451261  1
  Mn3.34+  Mn124  1  0.74824985  0.84427165  0.40965123  1
  Mn3.34+  Mn125  1  0.75432138  0.82346825  0.75204964  1
  Mn3.34+  Mn126  1  0.25384788  0.33390920  0.24163639  1
  Mn3.34+  Mn127  1  0.24987604  0.33950528  0.58414175  1
  Mn3.34+  Mn128  1  0.25112531  0.33436696  0.91422829  1
  Mn3.34+  Mn129  1  0.25008152  0.82776462  0.24868349  1
  Mn3.34+  Mn130  1  0.24632267  0.82896105  0.57815485  1
  Mn3.34+  Mn131  1  0.25054834  0.83145456  0.91961484  1
  Mn3.34+  Mn132  1  0.57921437  0.33160596  0.24263720  1
  Mn3.34+  Mn133  1  0.58464690  0.33867993  0.58344949  1
  Mn3.34+  Mn134  1  0.58603489  0.33257181  0.91845578  1
  Mn3.34+  Mn135  1  0.58462212  0.83967346  0.24562733  1
  Mn3.34+  Mn136  1  0.58557030  0.82703189  0.57581179  1
  Mn3.34+  Mn137  1  0.58469732  0.82881537  0.92127937  1
  Mn3.34+  Mn138  1  0.91872476  0.32944478  0.24903535  1
  Mn3.34+  Mn139  1  0.91584537  0.34013152  0.58519123  1
  Mn3.34+  Mn140  1  0.91063246  0.33210713  0.90679469  1
  Mn3.34+  Mn141  1  0.90906868  0.84124638  0.24744629  1
  Mn3.34+  Mn142  1  0.91437376  0.83245738  0.58034817  1
  Mn3.34+  Mn143  1  0.91469220  0.83500130  0.91751054  1
  Mn3.34+  Mn144  1  0.07590253  0.17562173  0.75058598  1
  Mn3.34+  Mn145  1  0.75386092  0.66851317  0.41713602  1
  Mn3.34+  Mn146  1  0.75183591  0.16778434  0.41164760  1
  Mn3.34+  Mn147  1  0.24858982  0.17384748  0.58270537  1
  Mn3.34+  Mn148  1  0.41670499  0.66564945  0.41636811  1
  Mn3.34+  Mn149  1  0.24098883  0.66523577  0.24637847  1
  Mn3.34+  Mn150  1  0.08942584  0.66042073  0.75592190  1
  Mn3.34+  Mn151  1  0.92394081  0.15971083  0.24189270  1
  Mn3.34+  Mn152  1  0.92274404  0.16911367  0.58097776  1
  Mn3.34+  Mn153  1  0.57842171  0.66506619  0.58181269  1
  Mn3.34+  Mn154  1  0.41740087  0.17678983  0.75228688  1
  Mn3.34+  Mn155  1  0.90900339  0.66960878  0.24408298  1
  Mn3.34+  Mn156  1  0.08606638  0.16598878  0.08806102  1
  Mn3.34+  Mn157  1  0.59021321  0.17035357  0.58600577  1
  Mn3.34+  Mn158  1  0.08376801  0.67273272  0.41309413  1
  Mn3.34+  Mn159  1  0.74738579  0.66687137  0.75063668  1
  Mn3.34+  Mn160  1  0.09352762  0.67181596  0.08605839  1
  Mn3.34+  Mn161  1  0.91450215  0.16449928  0.24467624  1
  Mn3.34+  Mn162  1  0.41830729  0.16886339  0.08019228  1
  Mn3.34+  Mn163  1  0.76349383  0.16735417  0.75115508  1
  Mn3.34+  Mn164  1  0.92233881  0.66373949  0.24100001  1
  Mn3.34+  Mn165  1  0.40572024  0.17149316  0.75509782  1
  Mn3.34+  Mn166  1  0.58168591  0.16372647  0.24226915  1
  Mn3.34+  Mn167  1  0.57936112  0.16546906  0.58347286  1
  Mn3.34+  Mn168  1  0.08177750  0.66571483  0.08753189  1
  Mn3.34+  Mn169  1  0.23983705  0.65928197  0.58661669  1
  Mn3.34+  Mn170  1  0.92832695  0.66015233  0.57999326  1
  Mn3.34+  Mn171  1  0.58636296  0.66602723  0.91089728  1
  Mn3.34+  Mn172  1  0.25327287  0.16894059  0.24429118  1
  Mn3.34+  Mn173  1  0.41291595  0.16972071  0.41341259  1
  Mn3.34+  Mn174  1  0.25425231  0.67175648  0.24934540  1
  Mn3.34+  Mn175  1  0.74343918  0.65936179  0.42151782  1
  Mn3.34+  Mn176  1  0.25150454  0.66529462  0.58877782  1
  Mn3.34+  Mn177  1  0.75279523  0.17178385  0.74851482  1
  Mn3.34+  Mn178  1  0.41952399  0.66049534  0.75597357  1
  Mn3.34+  Mn179  1  0.91703457  0.66462612  0.58280033  1
  Mn3.34+  Mn180  1  0.23895237  -0.00252708  0.57686065  1
  Mn3.34+  Mn181  1  0.91780711  0.49505416  0.59437218  1
  Mn3.34+  Mn182  1  0.25650514  0.49516485  0.24866055  1
  Mn3.34+  Mn183  1  0.40787401  0.00534282  0.75947141  1
  Mn3.34+  Mn184  1  0.58188888  0.49447312  0.25529486  1
  Mn3.34+  Mn185  1  0.58926453  -0.00469150  0.57914472  1
  Mn3.34+  Mn186  1  0.91784195  0.50163728  0.24773585  1
  Mn3.34+  Mn187  1  0.24172161  0.00880751  0.92573231  1
  Mn3.34+  Mn188  1  0.41939093  0.49840482  0.42406325  1
  Mn3.34+  Mn189  1  0.07544780  0.00575180  0.74999459  1
  Mn3.34+  Mn190  1  0.58335835  0.50049374  0.58829890  1
  Mn3.34+  Mn191  1  0.57462844  0.00036646  0.57507195  1
  Mn3.34+  Mn192  1  0.08046169  0.00100297  0.08486971  1
  Mn3.34+  Mn193  1  0.42943215  0.00865100  0.07755821  1
  Mn3.34+  Mn194  1  0.25383258  0.00295667  0.57804625  1
  Mn3.34+  Mn195  1  0.08352831  0.50084194  0.73616526  1
  Mn3.34+  Mn196  1  0.75483344  0.49866617  0.41578422  1
  Mn3.34+  Mn197  1  0.75503701  0.49845331  0.75749944  1
  Mn3.34+  Mn198  1  0.25623904  0.00498125  0.92021003  1
  Mn3.34+  Mn199  1  0.75103431  0.00177140  0.75463220  1
  Mn3.34+  Mn200  1  0.08111397  -0.00347622  0.40402576  1
  Mn3.34+  Mn201  1  0.25454094  0.00427780  0.24698601  1
  Mn3.34+  Mn202  1  0.43749248  0.00189526  0.07998927  1
  Mn3.34+  Mn203  1  0.73725229  0.49940434  0.08755978  1
  Mn3.34+  Mn204  1  0.75053764  0.49335288  0.08300478  1
  Mn3.34+  Mn205  1  0.92172368  -0.00127184  0.91948709  1
  Mn3.34+  Mn206  1  0.08476825  0.50283149  0.08459263  1
  Mn3.34+  Mn207  1  0.75204763  -0.00514373  0.07608274  1
  Mn3.34+  Mn208  1  0.58498495  0.50458832  0.91549667  1
  Mn3.34+  Mn209  1  0.08291262  0.49429953  0.42528117  1
  Mn3.34+  Mn210  1  0.06269608  0.00934418  0.74876425  1
  Mn3.34+  Mn211  1  0.42258215  -0.00044095  0.75919913  1
  Mn3.34+  Mn212  1  0.92103022  0.49498642  0.92132727  1
  Mn3.34+  Mn213  1  0.41403021  0.00090579  0.41421070  1
  Mn3.34+  Mn214  1  0.76489936  0.49260647  0.75307453  1
  Mn3.34+  Mn215  1  0.76380845  0.00509448  0.75295935  1
  O2-  O216  1  -0.00308319  0.16605203  0.01901850  1
  O2-  O217  1  0.00101467  0.15350026  0.32518418  1
  O2-  O218  1  0.00172226  0.15572317  0.66210072  1
  O2-  O219  1  0.01156084  0.66093779  -0.00006558  1
  O2-  O220  1  -0.00175913  0.65172240  0.32611457  1
  O2-  O221  1  0.00268743  0.64712393  0.67077622  1
  O2-  O222  1  0.34064182  0.19169407  0.00990063  1
  O2-  O223  1  0.33125481  0.15203745  0.33414479  1
  O2-  O224  1  0.33269992  0.15472180  0.66842759  1
  O2-  O225  1  0.33579528  0.65463604  0.00462578  1
  O2-  O226  1  0.31471195  0.64991377  0.34603900  1
  O2-  O227  1  0.33536053  0.64918833  0.67324425  1
  O2-  O228  1  0.66478171  0.18214616  -0.01912699  1
  O2-  O229  1  0.66774885  0.15773676  0.33332081  1
  O2-  O230  1  0.66703932  0.13510516  0.67782797  1
  O2-  O231  1  0.65722899  0.65610985  -0.00610291  1
  O2-  O232  1  0.66034712  0.65198437  0.34376687  1
  O2-  O233  1  0.65749746  0.65467145  0.67505512  1
  O2-  O234  1  0.14954453  0.19301013  0.00434893  1
  O2-  O235  1  0.17010537  0.15958942  0.32225742  1
  O2-  O236  1  0.16862277  0.16608818  0.66717848  1
  O2-  O237  1  0.17369297  0.65720303  0.01029649  1
  O2-  O238  1  0.16127150  0.68861736  0.32567966  1
  O2-  O239  1  0.17170524  0.64149514  0.67535085  1
  O2-  O240  1  0.49833520  0.19036933  0.01083521  1
  O2-  O241  1  0.50073164  0.15630727  0.34110950  1
  O2-  O242  1  0.49803349  0.14038791  0.67594028  1
  O2-  O243  1  0.49513137  0.64536699  -0.02842676  1
  O2-  O244  1  0.48445260  0.65075753  0.33204771  1
  O2-  O245  1  0.49064586  0.65642437  0.65955133  1
  O2-  O246  1  0.82271011  0.16133391  -0.00286170  1
  O2-  O247  1  0.84265139  0.17062999  0.33372443  1
  O2-  O248  1  0.82993262  0.14509161  0.66122315  1
  O2-  O249  1  0.83168678  0.66911403  -0.00482890  1
  O2-  O250  1  0.83561489  0.63824267  0.33926995  1
  O2-  O251  1  0.82821137  0.64510005  0.66329890  1
  O2-  O252  1  0.00918436  0.32949470  0.00413117  1
  O2-  O253  1  0.00441599  0.33571266  0.32758775  1
  O2-  O254  1  0.00241151  0.34772597  0.66580660  1
  O2-  O255  1  -0.00497866  0.84717986  0.00511829  1
  O2-  O256  1  0.00449501  0.84033251  0.33235468  1
  O2-  O257  1  -0.00123897  0.84160802  0.66755270  1
  O2-  O258  1  0.33328836  0.32660804  -0.00284311  1
  O2-  O259  1  0.33097644  0.35264347  0.33288613  1
  O2-  O260  1  0.33229555  0.34419517  0.66724500  1
  O2-  O261  1  0.33517214  0.85403806  -0.00042157  1
  O2-  O262  1  0.33267085  0.84277529  0.33152046  1
  O2-  O263  1  0.33023286  0.84283517  0.66694117  1
  O2-  O264  1  0.65571208  0.34004746  0.01146847  1
  O2-  O265  1  0.66054644  0.34253349  0.33191526  1
  O2-  O266  1  0.65357953  0.35473901  0.67667050  1
  O2-  O267  1  0.66983700  0.85044301  -0.00196777  1
  O2-  O268  1  0.66645518  0.84226732  0.33006184  1
  O2-  O269  1  0.66750590  0.83258297  0.66952594  1
  O2-  O270  1  0.17333402  0.33394881  0.00313419  1
  O2-  O271  1  0.17043669  0.34768540  0.33513448  1
  O2-  O272  1  0.17177405  0.34435608  0.67209364  1
  O2-  O273  1  0.16442238  0.84852876  0.00060909  1
  O2-  O274  1  0.16968167  0.82158393  0.33551134  1
  O2-  O275  1  0.16054310  0.85469124  0.66015824  1
  O2-  O276  1  0.49395535  0.32758478  -0.00578635  1
  O2-  O277  1  0.50154005  0.35107784  0.33343134  1
  O2-  O278  1  0.49445035  0.35712014  0.66302750  1
  O2-  O279  1  0.50541803  0.85003198  0.00966146  1
  O2-  O280  1  0.50563855  0.84706693  0.33786248  1
  O2-  O281  1  0.49929068  0.83594393  0.67079977  1
  O2-  O282  1  0.83282195  0.34190257  0.00056317  1
  O2-  O283  1  0.82897782  0.32382270  0.32263245  1
  O2-  O284  1  0.82660695  0.34549665  0.65997887  1
  O2-  O285  1  0.83057607  0.85110325  -0.00249637  1
  O2-  O286  1  0.83419974  0.84363069  0.33363101  1
  O2-  O287  1  0.82849809  0.83865939  0.66407972  1
  O2-  O288  1  0.00407627  0.19686595  0.17531647  1
  O2-  O289  1  -0.00194300  0.17895417  0.50317151  1
  O2-  O290  1  0.00132705  0.18455214  0.82828999  1
  O2-  O291  1  -0.00024133  0.69826296  0.15580659  1
  O2-  O292  1  -0.00675647  0.68959082  0.48562960  1
  O2-  O293  1  0.00042563  0.67609225  0.82442131  1
  O2-  O294  1  0.34153778  0.18704529  0.17148473  1
  O2-  O295  1  0.33410977  0.18792817  0.50347076  1
  O2-  O296  1  0.32507911  0.19052401  0.82849047  1
  O2-  O297  1  0.34271424  0.68462335  0.18195302  1
  O2-  O298  1  0.33051373  0.68296379  0.50438957  1
  O2-  O299  1  0.34653592  0.68425107  0.82944702  1
  O2-  O300  1  0.66630105  0.17028366  0.17539924  1
  O2-  O301  1  0.68111384  0.16721993  0.50931724  1
  O2-  O302  1  0.66279515  0.18181444  0.82286980  1
  O2-  O303  1  0.65254946  0.67884712  0.16423972  1
  O2-  O304  1  0.67138900  0.68083219  0.50915861  1
  O2-  O305  1  0.67584009  0.68870259  0.83600393  1
  O2-  O306  1  0.16877494  0.18354230  0.16758057  1
  O2-  O307  1  0.16916666  0.18127338  0.50680678  1
  O2-  O308  1  0.15697051  0.19024244  0.82866925  1
  O2-  O309  1  0.17039162  0.69742977  0.16465422  1
  O2-  O310  1  0.17050926  0.68341838  0.49322373  1
  O2-  O311  1  0.16181416  0.66818727  0.83796366  1
  O2-  O312  1  0.49488087  0.18456399  0.17247217  1
  O2-  O313  1  0.49267619  0.18279201  0.50377398  1
  O2-  O314  1  0.50251153  0.18301083  0.83130807  1
  O2-  O315  1  0.51132886  0.67547119  0.15530468  1
  O2-  O316  1  0.50467398  0.67837079  0.49133048  1
  O2-  O317  1  0.50811363  0.68517229  0.81943561  1
  O2-  O318  1  0.83653887  0.18476097  0.17032116  1
  O2-  O319  1  0.83271373  0.17785469  0.50244059  1
  O2-  O320  1  0.83529050  0.18800811  0.82955534  1
  O2-  O321  1  0.82362798  0.68146311  0.17494468  1
  O2-  O322  1  0.83133273  0.68457812  0.50046702  1
  O2-  O323  1  0.83739317  0.68481078  0.81263209  1
  O2-  O324  1  -0.00268529  0.31905952  0.15997680  1
  O2-  O325  1  0.00588949  0.32033972  0.50617991  1
  O2-  O326  1  0.00218562  0.32809259  0.83470808  1
  O2-  O327  1  -0.00335952  0.81843659  0.16683431  1
  O2-  O328  1  0.00295011  0.81994463  0.50387609  1
  O2-  O329  1  0.00462045  0.82692497  0.83872391  1
  O2-  O330  1  0.33244493  0.31642386  0.15977503  1
  O2-  O331  1  0.32707234  0.31979185  0.49379560  1
  O2-  O332  1  0.32949541  0.31285124  0.83139472  1
  O2-  O333  1  0.32533117  0.81991736  0.15821914  1
  O2-  O334  1  0.33703420  0.81738094  0.50309892  1
  O2-  O335  1  0.32619147  0.82363683  0.82764856  1
  O2-  O336  1  0.67263057  0.32081812  0.17328582  1
  O2-  O337  1  0.66328598  0.32552846  0.49726102  1
  O2-  O338  1  0.66564043  0.31342151  0.83750627  1
  O2-  O339  1  0.65714500  0.82929388  0.15658902  1
  O2-  O340  1  0.66594015  0.81940586  0.49744848  1
  O2-  O341  1  0.66409880  0.81460205  0.82589069  1
  O2-  O342  1  0.16149823  0.31297649  0.17551843  1
  O2-  O343  1  0.16902070  0.31925404  0.50407906  1
  O2-  O344  1  0.16049993  0.32095121  0.84175985  1
  O2-  O345  1  0.16728796  0.81432636  0.16216644  1
  O2-  O346  1  0.16540678  0.81104917  0.49733955  1
  O2-  O347  1  0.17140547  0.82660990  0.82910883  1
  O2-  O348  1  0.50282396  0.31804306  0.15685421  1
  O2-  O349  1  0.50691180  0.32452397  0.49181219  1
  O2-  O350  1  0.50350154  0.31846568  0.82839363  1
  O2-  O351  1  0.49192335  0.82947028  0.17374476  1
  O2-  O352  1  0.49704268  0.82048711  0.50259299  1
  O2-  O353  1  0.50055581  0.81834332  0.83009792  1
  O2-  O354  1  0.83977614  0.32155749  0.15905098  1
  O2-  O355  1  0.84293480  0.32127654  0.49286443  1
  O2-  O356  1  0.83187269  0.31751863  0.82631354  1
  O2-  O357  1  0.83479475  0.82098932  0.16198922  1
  O2-  O358  1  0.82733149  0.82273181  0.50280625  1
  O2-  O359  1  0.83686945  0.82125695  0.83057559  1
  O2-  O360  1  0.07253277  0.08098303  0.11457282  1
  O2-  O361  1  0.09070138  0.06700072  0.44969413  1
  O2-  O362  1  0.09136028  0.08937194  0.77989845  1
  O2-  O363  1  0.09982880  0.58202977  0.12051079  1
  O2-  O364  1  0.08673189  0.57999933  0.43847531  1
  O2-  O365  1  0.06812999  0.57555494  0.79297778  1
  O2-  O366  1  0.41543622  0.08639212  0.11081133  1
  O2-  O367  1  0.40712499  0.08195467  0.44038620  1
  O2-  O368  1  0.42691313  0.08427535  0.79714691  1
  O2-  O369  1  0.41519603  0.56963478  0.09249417  1
  O2-  O370  1  0.39865519  0.57979225  0.45354432  1
  O2-  O371  1  0.42446887  0.58228054  0.78888540  1
  O2-  O372  1  0.76240241  0.06750858  0.10849608  1
  O2-  O373  1  0.75830388  0.08405578  0.42860079  1
  O2-  O374  1  0.75545447  0.08464983  0.79790974  1
  O2-  O375  1  0.75672136  0.57801369  0.10707579  1
  O2-  O376  1  0.75167614  0.57853564  0.46271549  1
  O2-  O377  1  0.77440538  0.57859317  0.79192341  1
  O2-  O378  1  0.25418955  0.08417048  0.22177838  1
  O2-  O379  1  0.25414914  0.08334687  0.55233220  1
  O2-  O380  1  0.22181104  0.08697078  0.90074199  1
  O2-  O381  1  0.25970231  0.58039270  0.21680098  1
  O2-  O382  1  0.25388724  0.58036838  0.55033361  1
  O2-  O383  1  0.26427817  0.56567508  0.88912298  1
  O2-  O384  1  0.57093307  0.08357038  0.23707112  1
  O2-  O385  1  0.57628869  0.07842504  0.53753883  1
  O2-  O386  1  0.62633720  0.04792083  0.88176022  1
  O2-  O387  1  0.57795130  0.56847771  0.21316369  1
  O2-  O388  1  0.58098354  0.58154519  0.55373573  1
  O2-  O389  1  0.60389301  0.58187614  0.87474099  1
  O2-  O390  1  0.92182866  0.08058181  0.20752455  1
  O2-  O391  1  0.91760494  0.08313158  0.54691701  1
  O2-  O392  1  0.93501036  0.07499691  0.91049075  1
  O2-  O393  1  0.92050966  0.58537239  0.20173392  1
  O2-  O394  1  0.91839883  0.57665826  0.53578177  1
  O2-  O395  1  0.90108137  0.57400466  0.89932761  1
  O2-  O396  1  0.06548847  0.42104187  0.10738204  1
  O2-  O397  1  0.10411336  0.41434053  0.44623736  1
  O2-  O398  1  0.09523337  0.42248912  0.77695447  1
  O2-  O399  1  0.09879662  0.92220409  0.12668480  1
  O2-  O400  1  0.10946722  0.92505936  0.44843939  1
  O2-  O401  1  0.09751026  0.92700583  0.78984497  1
  O2-  O402  1  0.41747521  0.41297138  0.08144106  1
  O2-  O403  1  0.40884343  0.41757405  0.45454222  1
  O2-  O404  1  0.42026364  0.41472118  0.78565460  1
  O2-  O405  1  0.38988648  0.92793054  0.12643746  1
  O2-  O406  1  0.40775445  0.92080533  0.44652991  1
  O2-  O407  1  0.41517271  0.91708665  0.77666274  1
  O2-  O408  1  0.75786385  0.41576140  0.11677420  1
  O2-  O409  1  0.73641429  0.41580478  0.42160365  1
  O2-  O410  1  0.72431892  0.41716427  0.78905848  1
  O2-  O411  1  0.75647857  0.92300662  0.11849941  1
  O2-  O412  1  0.73225516  0.92133077  0.44265774  1
  O2-  O413  1  0.73504691  0.91882603  0.77837654  1
  O2-  O414  1  0.23369466  0.41653446  0.20577253  1
  O2-  O415  1  0.25055991  0.42403303  0.55072888  1
  O2-  O416  1  0.25369070  0.41380491  0.89884339  1
  O2-  O417  1  0.24054667  0.92017052  0.22828228  1
  O2-  O418  1  0.25724821  0.91810490  0.54657600  1
  O2-  O419  1  0.25485156  0.92455598  0.88033533  1
  O2-  O420  1  0.59437932  0.41697338  0.21715570  1
  O2-  O421  1  0.58219569  0.42167712  0.54879382  1
  O2-  O422  1  0.56996876  0.42286193  0.88963129  1
  O2-  O423  1  0.56975948  0.92217951  0.22615987  1
  O2-  O424  1  0.57830943  0.91278339  0.58325726  1
  O2-  O425  1  0.58482257  0.91019956  0.88164848  1
  O2-  O426  1  0.91659657  0.41970870  0.21241704  1
  O2-  O427  1  0.94076472  0.41973188  0.55330384  1
  O2-  O428  1  0.94211672  0.41483552  0.93354470  1
  O2-  O429  1  0.92637036  0.91813501  0.22085614  1
  O2-  O430  1  0.91434733  0.91180466  0.56616202  1
  O2-  O431  1  0.91139195  0.92349611  0.87281174  1
  O2-  O432  1  0.00319231  -0.01949099  0.00093806  1
  O2-  O433  1  0.00247443  0.00866174  0.33317217  1
  O2-  O434  1  0.00041274  -0.01322055  0.66004927  1
  O2-  O435  1  0.00263633  0.51445024  0.00558650  1
  O2-  O436  1  0.00277611  0.49968786  0.33880721  1
  O2-  O437  1  -0.02208596  0.51451197  0.69378036  1
  O2-  O438  1  0.34100555  -0.00339858  -0.00136659  1
  O2-  O439  1  0.33628702  -0.01087831  0.33036902  1
  O2-  O440  1  0.33461578  -0.00954122  0.66547689  1
  O2-  O441  1  0.33239580  0.50039186  0.00106026  1
  O2-  O442  1  0.32117353  0.49727876  0.35922959  1
  O2-  O443  1  0.33713622  0.50166972  0.67351358  1
  O2-  O444  1  0.67259630  -0.01216778  0.01110913  1
  O2-  O445  1  0.67695344  0.01275659  0.32702161  1
  O2-  O446  1  0.64279948  0.00452420  0.69384240  1
  O2-  O447  1  0.65079527  0.49868093  0.01083535  1
  O2-  O448  1  0.66741566  0.50753601  0.33464071  1
  O2-  O449  1  0.65604535  0.51189883  0.69097821  1
  O2-  O450  1  0.17568475  -0.01923797  0.01335510  1
  O2-  O451  1  0.16511105  0.00482953  0.32754645  1
  O2-  O452  1  0.17537940  -0.00289372  0.67961831  1
  O2-  O453  1  0.17114971  0.49707162  0.02282832  1
  O2-  O454  1  0.17727254  0.49794650  0.35226087  1
  O2-  O455  1  0.18870802  0.50467816  0.70554250  1
  O2-  O456  1  0.50636550  -0.02692308  0.00140112  1
  O2-  O457  1  0.50470951  -0.00065636  0.35621595  1
  O2-  O458  1  0.48915990  0.00741414  0.65927915  1
  O2-  O459  1  0.48723399  0.50840908  -0.03833266  1
  O2-  O460  1  0.51489348  0.49404769  0.35672334  1
  O2-  O461  1  0.50030958  0.49447041  0.66760465  1
  O2-  O462  1  0.83548911  -0.00741155  0.00181333  1
  O2-  O463  1  0.82303404  0.02971772  0.33613889  1
  O2-  O464  1  0.80544879  0.00256414  0.64144080  1
  O2-  O465  1  0.83123799  0.50063636  0.00213379  1
  O2-  O466  1  0.84317196  0.51720857  0.34359541  1
  O2-  O467  1  0.81619812  0.51390413  0.65227837  1
  O2-  O468  1  0.74893732  0.25127992  0.06846097  1
  O2-  O469  1  0.43076605  0.25410568  0.70837116  1
  O2-  O470  1  0.25715596  0.25262937  0.27704280  1
  O2-  O471  1  0.57957589  0.74678529  0.60517164  1
  O2-  O472  1  0.74295560  0.75823210  0.06740375  1
  O2-  O473  1  0.41489103  0.74809943  0.38996395  1
  O2-  O474  1  0.57394212  0.74792739  0.94579390  1
  O2-  O475  1  0.24754461  0.75438126  0.93473848  1
  O2-  O476  1  0.91637669  0.25525189  0.92835082  1
  O2-  O477  1  0.92141604  0.75736983  0.93284390  1
  O2-  O478  1  0.91622496  0.74837123  0.27992698  1
  O2-  O479  1  0.42257226  0.25255306  0.38794516  1
  O2-  O480  1  0.08394587  0.25266230  0.40163579  1
  O2-  O481  1  0.58037366  0.25517657  0.61382855  1
  O2-  O482  1  0.23966607  0.74385755  0.62137177  1
  O2-  O483  1  0.73465842  0.24926551  0.40264613  1
  O2-  O484  1  0.91195907  0.25112290  0.60900265  1
  O2-  O485  1  0.58163709  0.25124641  0.26943630  1
  O2-  O486  1  0.09135185  0.74386134  0.72985511  1
  O2-  O487  1  0.58790630  0.75742072  0.26393404  1
  O2-  O488  1  0.07655816  0.25654246  0.72011859  1
  O2-  O489  1  0.75092683  0.75014675  0.39060464  1
  O2-  O490  1  0.91878789  0.74737416  0.61468674  1
  O2-  O491  1  0.73683152  0.25037717  0.70735591  1
  O2-  O492  1  0.42638383  0.75631030  0.06408770  1
