# generated using pymatgen
data_Ca108Mn108O277
_symmetry_space_group_name_H-M   'P 1'
_cell_length_a   16.02392994
_cell_length_b   22.30093759
_cell_length_c   16.38677911
_cell_angle_alpha   90.00032141
_cell_angle_beta   90.00042868
_cell_angle_gamma   89.99926435
_symmetry_Int_Tables_number   1
_chemical_formula_structural   Ca108Mn108O277
_chemical_formula_sum   'Ca108 Mn108 O277'
_cell_volume   5855.79358316
_cell_formula_units_Z   1
loop_
 _symmetry_equiv_pos_site_id
 _symmetry_equiv_pos_as_xyz
  1  'x, y, z'
loop_
 _atom_type_symbol
 _atom_type_oxidation_number
  Ca2+  2.0
  Mn3.34+  3.34
  O2-  -2.0
loop_
 _atom_site_type_symbol
 _atom_site_label
 _atom_site_symmetry_multiplicity
 _atom_site_fract_x
 _atom_site_fract_y
 _atom_site_fract_z
 _atom_site_occupancy
  Ca2+  Ca0  1  0.08372867  0.23055066  0.23399610  1
  Ca2+  Ca1  1  0.07493313  0.24395364  0.57783866  1
  Ca2+  Ca2  1  0.09043153  0.24146263  0.93400245  1
  Ca2+  Ca3  1  0.07423616  0.74718231  0.24072396  1
  Ca2+  Ca4  1  0.08750267  0.76481033  0.59513789  1
  Ca2+  Ca5  1  0.08539092  0.75992105  0.91240000  1
  Ca2+  Ca6  1  0.41280859  0.24786438  0.23617626  1
  Ca2+  Ca7  1  0.41950065  0.25100285  0.59086950  1
  Ca2+  Ca8  1  0.42074396  0.24024012  0.91941102  1
  Ca2+  Ca9  1  0.42057424  0.74947649  0.22292453  1
  Ca2+  Ca10  1  0.42190628  0.76755230  0.57705396  1
  Ca2+  Ca11  1  0.42369535  0.76157689  0.93396745  1
  Ca2+  Ca12  1  0.75449668  0.25376587  0.25225569  1
  Ca2+  Ca13  1  0.76191531  0.25396873  0.57777735  1
  Ca2+  Ca14  1  0.73489931  0.24939569  0.91068208  1
  Ca2+  Ca15  1  0.76687290  0.73977820  0.25264797  1
  Ca2+  Ca16  1  0.73597214  0.75962388  0.57433387  1
  Ca2+  Ca17  1  0.74102230  0.75376025  0.92003160  1
  Ca2+  Ca18  1  0.24215866  0.23665623  0.08002815  1
  Ca2+  Ca19  1  0.23920102  0.23237409  0.40779168  1
  Ca2+  Ca20  1  0.25571759  0.24088142  0.76077193  1
  Ca2+  Ca21  1  0.25716732  0.76022224  0.08761439  1
  Ca2+  Ca22  1  0.24567622  0.76223919  0.41529228  1
  Ca2+  Ca23  1  0.23206266  0.76093793  0.74563698  1
  Ca2+  Ca24  1  0.57343465  0.24669755  0.08144654  1
  Ca2+  Ca25  1  0.59643621  0.25143967  0.40615953  1
  Ca2+  Ca26  1  0.58069823  0.24890748  0.76260419  1
  Ca2+  Ca27  1  0.56885994  0.75536406  0.08128837  1
  Ca2+  Ca28  1  0.59392030  0.75333935  0.41866535  1
  Ca2+  Ca29  1  0.59057253  0.75870648  0.74892277  1
  Ca2+  Ca30  1  0.92870901  0.24457587  0.09841352  1
  Ca2+  Ca31  1  0.92287727  0.23199931  0.41422689  1
  Ca2+  Ca32  1  0.90485547  0.24597581  0.73641125  1
  Ca2+  Ca33  1  0.92843437  0.75234193  0.09571349  1
  Ca2+  Ca34  1  0.91034984  0.76171032  0.39606350  1
  Ca2+  Ca35  1  0.92957614  0.76761161  0.75228187  1
  Ca2+  Ca36  1  0.75214623  0.08312447  0.25723510  1
  Ca2+  Ca37  1  0.22826187  0.61129092  0.09676367  1
  Ca2+  Ca38  1  0.74132121  0.57935097  0.94136113  1
  Ca2+  Ca39  1  0.59260142  0.09272709  0.75762557  1
  Ca2+  Ca40  1  0.07778184  0.59438374  0.95142338  1
  Ca2+  Ca41  1  0.41271425  0.60866419  0.22737975  1
  Ca2+  Ca42  1  0.74027504  0.08329131  0.25729474  1
  Ca2+  Ca43  1  0.39237703  0.07468653  0.59180947  1
  Ca2+  Ca44  1  0.75952090  0.09063123  0.59455920  1
  Ca2+  Ca45  1  0.38110673  0.07783254  0.58791436  1
  Ca2+  Ca46  1  0.23703528  0.10654476  0.09160994  1
  Ca2+  Ca47  1  0.90402692  0.58747737  0.75272786  1
  Ca2+  Ca48  1  0.97671544  0.08266626  0.09895302  1
  Ca2+  Ca49  1  0.25430543  0.58913300  0.40016116  1
  Ca2+  Ca50  1  0.12005103  0.09407078  0.94126916  1
  Ca2+  Ca51  1  0.58111490  0.60340565  0.08708926  1
  Ca2+  Ca52  1  0.38354893  0.09679246  0.91667856  1
  Ca2+  Ca53  1  0.24962968  0.59481237  0.74889332  1
  Ca2+  Ca54  1  0.39026288  0.11052323  0.24801372  1
  Ca2+  Ca55  1  0.43317957  0.59423420  0.93123308  1
  Ca2+  Ca56  1  0.23676766  0.59584634  0.74969920  1
  Ca2+  Ca57  1  0.08297642  0.59038922  0.59255717  1
  Ca2+  Ca58  1  0.90209934  0.59682109  0.37220425  1
  Ca2+  Ca59  1  0.91660788  0.58777320  0.75316929  1
  Ca2+  Ca60  1  0.25357926  0.09259615  0.75463202  1
  Ca2+  Ca61  1  0.58240376  0.07744899  0.39077301  1
  Ca2+  Ca62  1  0.72633662  0.08453940  0.90727140  1
  Ca2+  Ca63  1  0.57413476  0.08026583  0.39583855  1
  Ca2+  Ca64  1  0.90296142  0.09455762  0.73718840  1
  Ca2+  Ca65  1  0.59128015  0.59637842  0.42150495  1
  Ca2+  Ca66  1  0.09443777  0.09881169  0.54455650  1
  Ca2+  Ca67  1  0.07038780  0.59004423  0.59117337  1
  Ca2+  Ca68  1  0.72354300  0.58734805  0.59271033  1
  Ca2+  Ca69  1  0.76658321  0.09666980  0.59450881  1
  Ca2+  Ca70  1  0.59162226  0.60319424  0.08675737  1
  Ca2+  Ca71  1  0.12705663  0.09014134  0.93607009  1
  Ca2+  Ca72  1  0.23195516  0.91258237  0.43034394  1
  Ca2+  Ca73  1  0.75156038  0.90716016  0.91411697  1
  Ca2+  Ca74  1  0.08021015  0.90992373  0.58104276  1
  Ca2+  Ca75  1  0.41676053  0.39718542  0.25262923  1
  Ca2+  Ca76  1  0.58261128  0.91044250  0.41732214  1
  Ca2+  Ca77  1  0.74720000  0.90655410  0.24944012  1
  Ca2+  Ca78  1  0.44308358  0.40880904  0.58777040  1
  Ca2+  Ca79  1  0.07573393  0.40652688  0.91912030  1
  Ca2+  Ca80  1  0.91346071  0.40131489  0.42388166  1
  Ca2+  Ca81  1  0.42042091  0.40282372  0.91312969  1
  Ca2+  Ca82  1  0.08865171  0.40650377  0.91978166  1
  Ca2+  Ca83  1  0.24232931  0.91550014  0.42862782  1
  Ca2+  Ca84  1  0.24759759  0.38610388  0.41461502  1
  Ca2+  Ca85  1  0.41774505  0.90430258  0.24869010  1
  Ca2+  Ca86  1  0.58880109  0.41359680  0.73994890  1
  Ca2+  Ca87  1  0.60343548  0.41198131  0.07882286  1
  Ca2+  Ca88  1  0.75758689  0.90437516  0.24670536  1
  Ca2+  Ca89  1  0.74722940  0.40881086  0.24418173  1
  Ca2+  Ca90  1  0.58462411  0.91201323  0.07085839  1
  Ca2+  Ca91  1  0.07232062  0.90996554  0.24763220  1
  Ca2+  Ca92  1  0.24955539  0.40205758  0.08877546  1
  Ca2+  Ca93  1  0.10053204  0.91947792  0.94303047  1
  Ca2+  Ca94  1  0.58475158  0.40326577  0.41148421  1
  Ca2+  Ca95  1  0.92641624  0.40128917  0.42335453  1
  Ca2+  Ca96  1  0.90367473  0.40656754  0.73893457  1
  Ca2+  Ca97  1  0.89484572  0.41555997  0.08183326  1
  Ca2+  Ca98  1  0.08137318  0.39078906  0.58341277  1
  Ca2+  Ca99  1  0.25706198  0.39491756  0.75076178  1
  Ca2+  Ca100  1  0.43054348  0.40808556  0.58772813  1
  Ca2+  Ca101  1  0.90748497  0.41581806  0.08231884  1
  Ca2+  Ca102  1  0.59078648  0.90511809  0.41743912  1
  Ca2+  Ca103  1  0.73927992  0.90923097  0.91315449  1
  Ca2+  Ca104  1  0.25779728  0.91370970  0.74822829  1
  Ca2+  Ca105  1  0.74202918  0.41709970  0.92722694  1
  Ca2+  Ca106  1  0.23686177  0.40071220  0.09060366  1
  Ca2+  Ca107  1  0.74749366  0.40859769  0.59209438  1
  Mn3.34+  Mn108  1  0.07802448  0.32980624  0.09068744  1
  Mn3.34+  Mn109  1  0.08415104  0.31775487  0.41268222  1
  Mn3.34+  Mn110  1  0.08417850  0.32037599  0.75382498  1
  Mn3.34+  Mn111  1  0.08569050  0.84349873  0.08542530  1
  Mn3.34+  Mn112  1  0.07486728  0.84173461  0.41843829  1
  Mn3.34+  Mn113  1  0.08201471  0.83629520  0.75375765  1
  Mn3.34+  Mn114  1  0.41947271  0.33074522  0.08245727  1
  Mn3.34+  Mn115  1  0.41606925  0.32106580  0.41639850  1
  Mn3.34+  Mn116  1  0.41838937  0.33152778  0.75440024  1
  Mn3.34+  Mn117  1  0.41298295  0.83670966  0.08041516  1
  Mn3.34+  Mn118  1  0.41361655  0.83890133  0.41623889  1
  Mn3.34+  Mn119  1  0.41834466  0.83903821  0.75409907  1
  Mn3.34+  Mn120  1  0.74857088  0.33399524  0.08318860  1
  Mn3.34+  Mn121  1  0.75004850  0.33111340  0.41473910  1
  Mn3.34+  Mn122  1  0.74698334  0.33382700  0.75364763  1
  Mn3.34+  Mn123  1  0.75179086  0.83083312  0.08495986  1
  Mn3.34+  Mn124  1  0.75692157  0.83575333  0.42216898  1
  Mn3.34+  Mn125  1  0.75302724  0.83833502  0.74456811  1
  Mn3.34+  Mn126  1  0.24694925  0.32572055  0.24941108  1
  Mn3.34+  Mn127  1  0.24991347  0.32150369  0.58155878  1
  Mn3.34+  Mn128  1  0.25010099  0.32629850  0.91491411  1
  Mn3.34+  Mn129  1  0.24579382  0.83488499  0.24618681  1
  Mn3.34+  Mn130  1  0.25279302  0.83884825  0.58680089  1
  Mn3.34+  Mn131  1  0.25443859  0.84282000  0.91500672  1
  Mn3.34+  Mn132  1  0.58380318  0.33199267  0.24663518  1
  Mn3.34+  Mn133  1  0.58765490  0.33250264  0.58016442  1
  Mn3.34+  Mn134  1  0.58301498  0.33370202  0.91657261  1
  Mn3.34+  Mn135  1  0.58466058  0.83406584  0.24475464  1
  Mn3.34+  Mn136  1  0.58234601  0.83474169  0.58868056  1
  Mn3.34+  Mn137  1  0.57736343  0.83550988  0.91080939  1
  Mn3.34+  Mn138  1  0.91718660  0.33255663  0.24979774  1
  Mn3.34+  Mn139  1  0.91811626  0.33272782  0.58386592  1
  Mn3.34+  Mn140  1  0.91337661  0.33055311  0.91258830  1
  Mn3.34+  Mn141  1  0.92080766  0.83419582  0.24570393  1
  Mn3.34+  Mn142  1  0.91429539  0.83792489  0.58305495  1
  Mn3.34+  Mn143  1  0.91971139  0.83816608  0.91787208  1
  Mn3.34+  Mn144  1  0.24681497  0.67324811  0.24266988  1
  Mn3.34+  Mn145  1  0.91467156  0.66940394  0.58146862  1
  Mn3.34+  Mn146  1  0.42052874  0.67104910  0.74773521  1
  Mn3.34+  Mn147  1  0.75327922  0.16558610  0.08265516  1
  Mn3.34+  Mn148  1  0.92371221  0.16742885  0.57813906  1
  Mn3.34+  Mn149  1  0.08574108  0.16989362  0.74858379  1
  Mn3.34+  Mn150  1  0.57876366  0.16557983  0.24713925  1
  Mn3.34+  Mn151  1  0.58807980  0.67054678  0.24986756  1
  Mn3.34+  Mn152  1  0.58767336  0.67116510  0.91618689  1
  Mn3.34+  Mn153  1  0.41224352  0.67264288  0.41433416  1
  Mn3.34+  Mn154  1  0.25034618  0.67177755  0.58056706  1
  Mn3.34+  Mn155  1  0.57492956  0.16207053  0.57826051  1
  Mn3.34+  Mn156  1  0.07645657  0.67198627  0.40877112  1
  Mn3.34+  Mn157  1  0.75898536  0.65646774  0.09525201  1
  Mn3.34+  Mn158  1  0.41527889  0.16608315  0.75591020  1
  Mn3.34+  Mn159  1  0.90997718  0.16207731  0.90922111  1
  Mn3.34+  Mn160  1  0.74256573  0.16090852  0.08389707  1
  Mn3.34+  Mn161  1  0.90486630  0.66395028  0.57925220  1
  Mn3.34+  Mn162  1  0.41571857  0.16597875  0.08060664  1
  Mn3.34+  Mn163  1  0.25882988  0.67391329  0.91953829  1
  Mn3.34+  Mn164  1  0.92537707  0.16185650  0.25411086  1
  Mn3.34+  Mn165  1  0.42913372  0.66484579  0.74949266  1
  Mn3.34+  Mn166  1  0.41025710  0.16926150  0.41849873  1
  Mn3.34+  Mn167  1  0.73980999  0.66341654  0.75555693  1
  Mn3.34+  Mn168  1  0.91979805  0.66556129  0.92168077  1
  Mn3.34+  Mn169  1  0.58528948  0.16748764  0.58078244  1
  Mn3.34+  Mn170  1  0.91013607  0.67104589  0.92129455  1
  Mn3.34+  Mn171  1  0.74774822  0.67188989  0.41330002  1
  Mn3.34+  Mn172  1  0.24608102  0.66673120  0.91687782  1
  Mn3.34+  Mn173  1  0.75657332  0.16449380  0.41840722  1
  Mn3.34+  Mn174  1  0.57913976  0.16127660  0.91357321  1
  Mn3.34+  Mn175  1  0.24677155  0.16911238  0.57878947  1
  Mn3.34+  Mn176  1  0.08968994  0.66567249  0.40915513  1
  Mn3.34+  Mn177  1  0.42132810  0.66662630  0.41640451  1
  Mn3.34+  Mn178  1  0.91975104  0.16754904  0.91102627  1
  Mn3.34+  Mn179  1  0.58548728  0.66583329  0.58078918  1
  Mn3.34+  Mn180  1  0.08023755  0.49886288  0.41505831  1
  Mn3.34+  Mn181  1  0.24926751  0.49756975  0.91242545  1
  Mn3.34+  Mn182  1  0.25594656  0.49717881  0.56698669  1
  Mn3.34+  Mn183  1  0.07705991  0.49845114  0.75500452  1
  Mn3.34+  Mn184  1  0.42673985  0.50260311  0.74893125  1
  Mn3.34+  Mn185  1  0.09110951  0.49419978  0.41778019  1
  Mn3.34+  Mn186  1  0.74666524  -0.00014353  0.06697206  1
  Mn3.34+  Mn187  1  0.92387179  -0.00092102  0.26624524  1
  Mn3.34+  Mn188  1  0.25974156  0.50042834  0.57740586  1
  Mn3.34+  Mn189  1  0.08621524  0.00519735  0.74745785  1
  Mn3.34+  Mn190  1  0.40771737  -0.00159645  0.06345169  1
  Mn3.34+  Mn191  1  0.75007662  -0.00164139  0.73670828  1
  Mn3.34+  Mn192  1  0.41175212  0.50141340  0.41770556  1
  Mn3.34+  Mn193  1  0.24165944  0.00128159  0.24832573  1
  Mn3.34+  Mn194  1  0.74459589  0.50148483  0.74098250  1
  Mn3.34+  Mn195  1  0.58149784  -0.00454692  0.59675389  1
  Mn3.34+  Mn196  1  0.08822083  0.49439036  0.75587896  1
  Mn3.34+  Mn197  1  0.91758722  0.50564649  0.24932295  1
  Mn3.34+  Mn198  1  0.74240590  0.50028115  0.42436274  1
  Mn3.34+  Mn199  1  0.58578650  0.50040112  0.24873308  1
  Mn3.34+  Mn200  1  0.42338124  0.49484329  0.08472543  1
  Mn3.34+  Mn201  1  0.91878553  -0.00058523  0.57426421  1
  Mn3.34+  Mn202  1  0.41827989  0.00394961  0.06362897  1
  Mn3.34+  Mn203  1  0.41895091  0.00030839  0.75018330  1
  Mn3.34+  Mn204  1  0.91301930  0.49573711  0.91581793  1
  Mn3.34+  Mn205  1  0.24631600  0.50268173  0.24720842  1
  Mn3.34+  Mn206  1  0.40976311  0.50211966  0.08514935  1
  Mn3.34+  Mn207  1  0.92045187  0.00142486  0.92235216  1
  Mn3.34+  Mn208  1  0.77055918  -0.00091756  0.42189815  1
  Mn3.34+  Mn209  1  0.42259493  0.49659786  0.42033307  1
  Mn3.34+  Mn210  1  0.58689060  0.50111196  0.91281203  1
  Mn3.34+  Mn211  1  0.08484909  0.50064272  0.08638778  1
  Mn3.34+  Mn212  1  0.07290853  -0.00089988  0.74782566  1
  Mn3.34+  Mn213  1  0.23181295  0.00610207  0.25214232  1
  Mn3.34+  Mn214  1  0.40784548  0.00132084  0.41288793  1
  Mn3.34+  Mn215  1  0.75286693  0.50457357  0.42159290  1
  O2-  O216  1  0.00266527  0.14699754  -0.01517791  1
  O2-  O217  1  0.00270595  0.17592405  0.33024082  1
  O2-  O218  1  0.00271538  0.16281514  0.66477783  1
  O2-  O219  1  0.00059110  0.67256935  0.00122810  1
  O2-  O220  1  -0.00023618  0.66201382  0.33110187  1
  O2-  O221  1  -0.00791500  0.64799291  0.66797388  1
  O2-  O222  1  0.33390209  0.16526844  0.00447216  1
  O2-  O223  1  0.34340880  0.19026352  0.33303854  1
  O2-  O224  1  0.33415245  0.16002173  0.66472906  1
  O2-  O225  1  0.33272001  0.65014759  -0.00282366  1
  O2-  O226  1  0.33518889  0.65341513  0.33137868  1
  O2-  O227  1  0.32859450  0.65818925  0.67377541  1
  O2-  O228  1  0.66702041  0.15855498  -0.00172840  1
  O2-  O229  1  0.66693184  0.15350128  0.33923264  1
  O2-  O230  1  0.66824547  0.15538002  0.66107064  1
  O2-  O231  1  0.66912927  0.66616503  0.00152632  1
  O2-  O232  1  0.66170934  0.65924715  0.33929119  1
  O2-  O233  1  0.67140418  0.67191980  0.66275183  1
  O2-  O234  1  0.17276495  0.17431412  -0.00602491  1
  O2-  O235  1  0.15686119  0.18150912  0.32688152  1
  O2-  O236  1  0.17181352  0.18186586  0.66682951  1
  O2-  O237  1  0.16482591  0.66737580  -0.00431475  1
  O2-  O238  1  0.17364867  0.65491797  0.33401044  1
  O2-  O239  1  0.16624532  0.64841696  0.66016593  1
  O2-  O240  1  0.49246197  0.15662259  -0.00782328  1
  O2-  O241  1  0.49990240  0.15664876  0.33949171  1
  O2-  O242  1  0.49444856  0.14642353  0.66304056  1
  O2-  O243  1  0.51086012  0.65792987  -0.00174942  1
  O2-  O244  1  0.49884856  0.64788580  0.33138848  1
  O2-  O245  1  0.50167134  0.67272414  0.66142910  1
  O2-  O246  1  0.83206088  0.14350714  -0.00036490  1
  O2-  O247  1  0.82888796  0.15023174  0.33003812  1
  O2-  O248  1  0.83518554  0.16451263  0.66197955  1
  O2-  O249  1  0.82425656  0.66121036  -0.00522302  1
  O2-  O250  1  0.82982123  0.67228031  0.34018043  1
  O2-  O251  1  0.82884399  0.65022865  0.67410405  1
  O2-  O252  1  -0.00213956  0.35528096  0.00415195  1
  O2-  O253  1  -0.00623067  0.33755809  0.34043562  1
  O2-  O254  1  -0.00018776  0.33655378  0.67279792  1
  O2-  O255  1  0.00546161  0.82924333  0.00290084  1
  O2-  O256  1  0.00114350  0.84334815  0.32880682  1
  O2-  O257  1  0.00321424  0.84362219  0.66454718  1
  O2-  O258  1  0.32818590  0.34527018  0.00115864  1
  O2-  O259  1  0.33496626  0.32976725  0.33064096  1
  O2-  O260  1  0.33986723  0.34053698  0.65938387  1
  O2-  O261  1  0.33226914  0.83593628  0.00050432  1
  O2-  O262  1  0.32495597  0.85501084  0.33793736  1
  O2-  O263  1  0.33359895  0.82748404  0.67077105  1
  O2-  O264  1  0.66939426  0.34595651  -0.00366277  1
  O2-  O265  1  0.66773895  0.34598405  0.33056526  1
  O2-  O266  1  0.66763795  0.34247320  0.66670396  1
  O2-  O267  1  0.66878204  0.83339397  0.00294877  1
  O2-  O268  1  0.66568905  0.84386211  0.33218276  1
  O2-  O269  1  0.66861890  0.82190003  0.66776666  1
  O2-  O270  1  0.16280234  0.33889395  -0.00224465  1
  O2-  O271  1  0.17098186  0.31687142  0.33609758  1
  O2-  O272  1  0.16955632  0.32327571  0.66951630  1
  O2-  O273  1  0.16256899  0.83138157  0.00064825  1
  O2-  O274  1  0.16690979  0.85138381  0.33653294  1
  O2-  O275  1  0.16758334  0.84851040  0.66885994  1
  O2-  O276  1  0.50375802  0.35455633  0.00251900  1
  O2-  O277  1  0.50153151  0.33840140  0.33721730  1
  O2-  O278  1  0.50335934  0.34690878  0.66717169  1
  O2-  O279  1  0.50212094  0.84292035  0.00358454  1
  O2-  O280  1  0.50118615  0.85242943  0.33361033  1
  O2-  O281  1  0.49736549  0.82014047  0.67105306  1
  O2-  O282  1  0.83312843  0.35087569  -0.00270273  1
  O2-  O283  1  0.83308995  0.35380928  0.33175691  1
  O2-  O284  1  0.82721691  0.33788901  0.66564092  1
  O2-  O285  1  0.82448188  0.83468436  -0.00707367  1
  O2-  O286  1  0.83013155  0.84006401  0.32792189  1
  O2-  O287  1  0.83163916  0.81744842  0.66640443  1
  O2-  O288  1  -0.00778402  0.16939786  0.16629031  1
  O2-  O289  1  0.00389276  0.17666905  0.50263282  1
  O2-  O290  1  -0.00535940  0.19001984  0.82275126  1
  O2-  O291  1  0.00657779  0.68098962  0.16012743  1
  O2-  O292  1  0.00674324  0.67368009  0.50282375  1
  O2-  O293  1  -0.00568022  0.66191831  0.83512578  1
  O2-  O294  1  0.33741781  0.18185395  0.16064150  1
  O2-  O295  1  0.33611209  0.18849207  0.50687992  1
  O2-  O296  1  0.33695782  0.17831682  0.83261954  1
  O2-  O297  1  0.32843923  0.67970923  0.16854066  1
  O2-  O298  1  0.32672376  0.68358902  0.49255174  1
  O2-  O299  1  0.33346009  0.68489037  0.83067884  1
  O2-  O300  1  0.67085449  0.17807596  0.17358955  1
  O2-  O301  1  0.66770888  0.18149843  0.49812819  1
  O2-  O302  1  0.66096894  0.17933703  0.83656239  1
  O2-  O303  1  0.66745271  0.68168910  0.16256502  1
  O2-  O304  1  0.66636496  0.67681572  0.49869036  1
  O2-  O305  1  0.66811451  0.68926879  0.83514370  1
  O2-  O306  1  0.17991111  0.18120631  0.17134030  1
  O2-  O307  1  0.16650693  0.18603512  0.50775479  1
  O2-  O308  1  0.15942869  0.18515991  0.82877204  1
  O2-  O309  1  0.16869570  0.68782381  0.16740349  1
  O2-  O310  1  0.15920139  0.67256380  0.49855141  1
  O2-  O311  1  0.17675186  0.67605688  0.82891945  1
  O2-  O312  1  0.49740544  0.17687269  0.17067392  1
  O2-  O313  1  0.50095800  0.18967111  0.49616395  1
  O2-  O314  1  0.50108677  0.17859346  0.82917055  1
  O2-  O315  1  0.51079935  0.67505722  0.16676383  1
  O2-  O316  1  0.50271657  0.67727683  0.49386695  1
  O2-  O317  1  0.49816546  0.67898911  0.84041194  1
  O2-  O318  1  0.82703182  0.17306358  0.17052858  1
  O2-  O319  1  0.82982647  0.17898909  0.50575849  1
  O2-  O320  1  0.83161787  0.18349245  0.83364764  1
  O2-  O321  1  0.83411024  0.69252289  0.15217123  1
  O2-  O322  1  0.82764696  0.68264613  0.50062712  1
  O2-  O323  1  0.83635916  0.67786974  0.82941668  1
  O2-  O324  1  -0.01219879  0.33275386  0.15921183  1
  O2-  O325  1  0.00132546  0.31788682  0.49596193  1
  O2-  O326  1  0.00891194  0.32014100  0.84363305  1
  O2-  O327  1  0.00567886  0.82362458  0.16592987  1
  O2-  O328  1  0.00345611  0.82123588  0.50353588  1
  O2-  O329  1  0.00454828  0.82912127  0.83910249  1
  O2-  O330  1  0.33009848  0.31856571  0.16590515  1
  O2-  O331  1  0.33138699  0.31254634  0.49752678  1
  O2-  O332  1  0.33335015  0.31440750  0.83647384  1
  O2-  O333  1  0.33788874  0.82630396  0.17440495  1
  O2-  O334  1  0.32900303  0.82412002  0.49549585  1
  O2-  O335  1  0.33145338  0.81931379  0.82946649  1
  O2-  O336  1  0.66583970  0.32225840  0.16355394  1
  O2-  O337  1  0.66829326  0.31977301  0.49914875  1
  O2-  O338  1  0.66426524  0.31715045  0.83197149  1
  O2-  O339  1  0.67038720  0.81466746  0.16959082  1
  O2-  O340  1  0.66288156  0.83021321  0.49164002  1
  O2-  O341  1  0.67083145  0.82045717  0.83582511  1
  O2-  O342  1  0.17322060  0.31846220  0.15900428  1
  O2-  O343  1  0.16385283  0.31295425  0.50087796  1
  O2-  O344  1  0.16701246  0.30785233  0.83657629  1
  O2-  O345  1  0.16312863  0.81588095  0.16671302  1
  O2-  O346  1  0.16966759  0.82869933  0.49856075  1
  O2-  O347  1  0.16729093  0.82362776  0.83305537  1
  O2-  O348  1  0.49753314  0.32411116  0.16991966  1
  O2-  O349  1  0.49571507  0.31828811  0.50317666  1
  O2-  O350  1  0.49959474  0.32539715  0.83646821  1
  O2-  O351  1  0.50146797  0.83083574  0.16686713  1
  O2-  O352  1  0.50277649  0.82957298  0.48870190  1
  O2-  O353  1  0.49755042  0.81400458  0.83232232  1
  O2-  O354  1  0.83114797  0.32562322  0.16480505  1
  O2-  O355  1  0.83829818  0.32656504  0.49430562  1
  O2-  O356  1  0.83380410  0.31398127  0.82608407  1
  O2-  O357  1  0.82824584  0.82492856  0.17105279  1
  O2-  O358  1  0.83572958  0.81756772  0.49954619  1
  O2-  O359  1  0.82870884  0.82239233  0.83363661  1
  O2-  O360  1  0.10768642  0.07482618  0.07731706  1
  O2-  O361  1  0.08533942  0.08071581  0.41284855  1
  O2-  O362  1  0.08029740  0.08222645  0.78784564  1
  O2-  O363  1  0.09616586  0.57862423  0.08524127  1
  O2-  O364  1  0.07968028  0.57946834  0.45193975  1
  O2-  O365  1  0.10005684  0.57896828  0.78210482  1
  O2-  O366  1  0.41338353  0.07918821  0.11418335  1
  O2-  O367  1  0.42767123  0.08067486  0.45641487  1
  O2-  O368  1  0.41424557  0.08168774  0.78388257  1
  O2-  O369  1  0.44134540  0.58127255  0.09950871  1
  O2-  O370  1  0.40975376  0.58205709  0.44857029  1
  O2-  O371  1  0.39163190  0.58181511  0.79151690  1
  O2-  O372  1  0.74496157  0.07510733  0.12082755  1
  O2-  O373  1  0.74927015  0.08077586  0.45893435  1
  O2-  O374  1  0.75834123  0.07332715  0.77580277  1
  O2-  O375  1  0.72238334  0.57888619  0.09134899  1
  O2-  O376  1  0.75326013  0.58654859  0.44493149  1
  O2-  O377  1  0.76447592  0.57528831  0.79235589  1
  O2-  O378  1  0.25847279  0.08303512  0.22094664  1
  O2-  O379  1  0.24795348  0.08788445  0.55919760  1
  O2-  O380  1  0.23588952  0.06816131  0.87626635  1
  O2-  O381  1  0.25967271  0.58485128  0.22484889  1
  O2-  O382  1  0.24558967  0.58392606  0.55009302  1
  O2-  O383  1  0.24792449  0.58272814  0.88642151  1
  O2-  O384  1  0.59483190  0.08296275  0.24763724  1
  O2-  O385  1  0.58448729  0.07828437  0.53283306  1
  O2-  O386  1  0.58634650  0.08266891  0.88932960  1
  O2-  O387  1  0.58088311  0.58263067  0.22233597  1
  O2-  O388  1  0.59273508  0.58457611  0.55668018  1
  O2-  O389  1  0.59179176  0.58395023  0.90104573  1
  O2-  O390  1  0.90247557  0.07575078  0.22340038  1
  O2-  O391  1  0.90818506  0.08308387  0.55810678  1
  O2-  O392  1  0.91334149  0.07947105  0.87301824  1
  O2-  O393  1  0.91434907  0.58147024  0.23771647  1
  O2-  O394  1  0.92402476  0.58256396  0.55331462  1
  O2-  O395  1  0.90635581  0.57924168  0.89442168  1
  O2-  O396  1  0.09901444  0.41768635  0.10889828  1
  O2-  O397  1  0.08159536  0.41231412  0.44413414  1
  O2-  O398  1  0.09456152  0.41176839  0.77225036  1
  O2-  O399  1  0.08360701  0.91932985  0.10006048  1
  O2-  O400  1  0.09361018  0.92040549  0.44698651  1
  O2-  O401  1  0.08850931  0.92200109  0.78118225  1
  O2-  O402  1  0.39735727  0.41618125  0.11594577  1
  O2-  O403  1  0.40750238  0.41471342  0.44798356  1
  O2-  O404  1  0.40028352  0.41814962  0.77934104  1
  O2-  O405  1  0.41879241  0.92353320  0.11174565  1
  O2-  O406  1  0.40289066  0.92051254  0.44021811  1
  O2-  O407  1  0.40292173  0.92222336  0.76987012  1
  O2-  O408  1  0.75453928  0.41768657  0.10903779  1
  O2-  O409  1  0.75553108  0.41884355  0.45265171  1
  O2-  O410  1  0.74773862  0.42367126  0.78254552  1
  O2-  O411  1  0.73737747  0.92355519  0.11218263  1
  O2-  O412  1  0.73576664  0.91811795  0.42249611  1
  O2-  O413  1  0.75049414  0.92389220  0.78147310  1
  O2-  O414  1  0.25799505  0.41902865  0.22228639  1
  O2-  O415  1  0.24409367  0.41319543  0.55639708  1
  O2-  O416  1  0.22729914  0.41564776  0.88060509  1
  O2-  O417  1  0.23769993  0.92045032  0.21931631  1
  O2-  O418  1  0.24646928  0.92007448  0.56408919  1
  O2-  O419  1  0.23665627  0.91855990  0.89051805  1
  O2-  O420  1  0.58155542  0.41810018  0.21986212  1
  O2-  O421  1  0.57318233  0.41490795  0.54646837  1
  O2-  O422  1  0.58569422  0.42055698  0.88163939  1
  O2-  O423  1  0.60618027  0.91684870  0.22910316  1
  O2-  O424  1  0.58184673  0.91769403  0.55612539  1
  O2-  O425  1  0.60223109  0.91319021  0.90700495  1
  O2-  O426  1  0.90499420  0.42640618  0.21633937  1
  O2-  O427  1  0.92689178  0.41748502  0.55827593  1
  O2-  O428  1  0.93508691  0.41925942  0.87262489  1
  O2-  O429  1  0.90549713  0.92155481  0.22627818  1
  O2-  O430  1  0.92837092  0.91906947  0.56130180  1
  O2-  O431  1  0.89763327  0.92107708  0.90492314  1
  O2-  O432  1  0.02032374  0.01064607  -0.03410604  1
  O2-  O433  1  0.01990872  -0.00525956  0.31010095  1
  O2-  O434  1  0.00338425  0.01010192  0.65733734  1
  O2-  O435  1  0.00492958  0.48650542  -0.00410786  1
  O2-  O436  1  -0.01297473  0.49054420  0.34744695  1
  O2-  O437  1  0.00145679  0.52135268  0.67150487  1
  O2-  O438  1  0.31788838  0.02015128  0.00549985  1
  O2-  O439  1  0.34877108  0.00269219  0.30781799  1
  O2-  O440  1  0.33094661  0.01494046  0.68244384  1
  O2-  O441  1  0.33301667  0.49087157  -0.00266018  1
  O2-  O442  1  0.33768317  0.50017678  0.32866860  1
  O2-  O443  1  0.31589659  0.50712375  0.68322151  1
  O2-  O444  1  0.67764961  -0.00821031  -0.01333691  1
  O2-  O445  1  0.67124704  0.01615673  0.35004336  1
  O2-  O446  1  0.67025355  0.02901747  0.66090635  1
  O2-  O447  1  0.66124948  0.49495299  -0.00687245  1
  O2-  O448  1  0.66178603  0.49227961  0.34066730  1
  O2-  O449  1  0.68421658  0.49027874  0.65176975  1
  O2-  O450  1  0.16439399  0.00351612  -0.00159624  1
  O2-  O451  1  0.18419191  -0.01071062  0.35242828  1
  O2-  O452  1  0.17196951  0.00333145  0.67656271  1
  O2-  O453  1  0.16743508  0.48428777  0.00041710  1
  O2-  O454  1  0.18151681  0.50500536  0.34855476  1
  O2-  O455  1  0.16113921  0.50755480  0.65454656  1
  O2-  O456  1  0.51721354  -0.00449474  0.01656226  1
  O2-  O457  1  0.51854430  -0.00883953  0.37078354  1
  O2-  O458  1  0.49256029  0.02512252  0.66232706  1
  O2-  O459  1  0.49329572  0.49816424  -0.01207560  1
  O2-  O460  1  0.50367841  0.49354556  0.33690686  1
  O2-  O461  1  0.49423131  0.47566601  0.66209847  1
  O2-  O462  1  0.82714939  0.01025156  -0.01439391  1
  O2-  O463  1  0.81103046  -0.00235137  0.29922556  1
  O2-  O464  1  0.83177401  0.01401755  0.65685019  1
  O2-  O465  1  0.83302740  0.48184945  -0.00589378  1
  O2-  O466  1  0.83309351  0.49395093  0.33649984  1
  O2-  O467  1  0.84906345  0.50209668  0.69818470  1
  O2-  O468  1  0.08078879  0.75657672  0.73591732  1
  O2-  O469  1  0.75343110  0.24789997  0.39267187  1
  O2-  O470  1  0.91759970  0.24661737  0.95441884  1
  O2-  O471  1  0.41619584  0.75540706  0.39058124  1
  O2-  O472  1  0.24934979  0.75348538  0.93209799  1
  O2-  O473  1  0.58752496  0.24943979  0.26952796  1
  O2-  O474  1  0.23704159  0.75188467  0.60108699  1
  O2-  O475  1  0.90412291  0.24913736  0.26224216  1
  O2-  O476  1  0.92348184  0.75483324  0.25812847  1
  O2-  O477  1  0.91390201  0.25048203  0.59770359  1
  O2-  O478  1  0.42733048  0.24834164  0.72768706  1
  O2-  O479  1  0.57882462  0.25008645  0.61325955  1
  O2-  O480  1  0.25594710  0.75352578  0.27832995  1
  O2-  O481  1  0.41827419  0.75637505  0.07426170  1
  O2-  O482  1  0.08970073  0.75598631  0.39722800  1
  O2-  O483  1  0.06969478  0.25224039  0.07327663  1
  O2-  O484  1  0.92027194  0.75391224  0.92005868  1
  O2-  O485  1  0.42933202  0.25082371  0.06055530  1
  O2-  O486  1  0.74266847  0.75393991  0.40062759  1
  O2-  O487  1  0.57734117  0.25220984  0.94074562  1
  O2-  O488  1  0.58135231  0.75210468  0.57705951  1
  O2-  O489  1  0.57902029  0.75150620  0.93940986  1
  O2-  O490  1  0.92979871  0.74809612  0.60382178  1
  O2-  O491  1  0.57053940  0.75120037  0.27548762  1
  O2-  O492  1  0.75277506  0.25010233  0.05798439  1
