# generated using pymatgen
data_Ca108Mn108O277
_symmetry_space_group_name_H-M   'P 1'
_cell_length_a   16.02149843
_cell_length_b   22.30057036
_cell_length_c   16.38580306
_cell_angle_alpha   89.99560506
_cell_angle_beta   89.99791952
_cell_angle_gamma   90.00178434
_symmetry_Int_Tables_number   1
_chemical_formula_structural   Ca108Mn108O277
_chemical_formula_sum   'Ca108 Mn108 O277'
_cell_volume   5854.45984185
_cell_formula_units_Z   1
loop_
 _symmetry_equiv_pos_site_id
 _symmetry_equiv_pos_as_xyz
  1  'x, y, z'
loop_
 _atom_type_symbol
 _atom_type_oxidation_number
  Ca2+  2.0
  Mn3.34+  3.34
  O2-  -2.0
loop_
 _atom_site_type_symbol
 _atom_site_label
 _atom_site_symmetry_multiplicity
 _atom_site_fract_x
 _atom_site_fract_y
 _atom_site_fract_z
 _atom_site_occupancy
  Ca2+  Ca0  1  0.07904582  0.26499252  0.23940936  1
  Ca2+  Ca1  1  0.08264659  0.25719548  0.58099876  1
  Ca2+  Ca2  1  0.09263131  0.25546333  0.93253976  1
  Ca2+  Ca3  1  0.08014963  0.75541614  0.25446102  1
  Ca2+  Ca4  1  0.07119905  0.74458324  0.59542044  1
  Ca2+  Ca5  1  0.07481638  0.72322648  0.91156027  1
  Ca2+  Ca6  1  0.41769852  0.25950048  0.24472582  1
  Ca2+  Ca7  1  0.41709795  0.26025815  0.57596429  1
  Ca2+  Ca8  1  0.43570106  0.24826379  0.92830834  1
  Ca2+  Ca9  1  0.40726761  0.74529110  0.23130591  1
  Ca2+  Ca10  1  0.44096505  0.74378816  0.59176934  1
  Ca2+  Ca11  1  0.41501903  0.73984006  0.92738670  1
  Ca2+  Ca12  1  0.75151548  0.24801225  0.23267599  1
  Ca2+  Ca13  1  0.74693028  0.25664431  0.57881636  1
  Ca2+  Ca14  1  0.73540684  0.24363701  0.93449658  1
  Ca2+  Ca15  1  0.76416347  0.75058937  0.25546659  1
  Ca2+  Ca16  1  0.74031473  0.75062998  0.58911587  1
  Ca2+  Ca17  1  0.76103643  0.73987834  0.91499829  1
  Ca2+  Ca18  1  0.25321006  0.26540753  0.07919812  1
  Ca2+  Ca19  1  0.25694231  0.25051681  0.42854283  1
  Ca2+  Ca20  1  0.24984581  0.26195004  0.74675739  1
  Ca2+  Ca21  1  0.26879238  0.73897579  0.07826586  1
  Ca2+  Ca22  1  0.23671920  0.76119726  0.41296685  1
  Ca2+  Ca23  1  0.24157858  0.74299431  0.75926593  1
  Ca2+  Ca24  1  0.59868024  0.24767452  0.06466984  1
  Ca2+  Ca25  1  0.58486948  0.25777294  0.42238439  1
  Ca2+  Ca26  1  0.59310187  0.26657130  0.75468047  1
  Ca2+  Ca27  1  0.56083813  0.73846559  0.07067910  1
  Ca2+  Ca28  1  0.58212764  0.74449182  0.44712671  1
  Ca2+  Ca29  1  0.57501536  0.73883855  0.74373982  1
  Ca2+  Ca30  1  0.90076370  0.25801063  0.08051734  1
  Ca2+  Ca31  1  0.90336027  0.24781328  0.42201488  1
  Ca2+  Ca32  1  0.90755851  0.26469476  0.74539179  1
  Ca2+  Ca33  1  0.91757156  0.74355701  0.06827119  1
  Ca2+  Ca34  1  0.92435047  0.75711454  0.42541755  1
  Ca2+  Ca35  1  0.93333375  0.73301664  0.75521613  1
  Ca2+  Ca36  1  0.25507237  0.59184910  0.04285576  1
  Ca2+  Ca37  1  0.61069669  0.10486455  0.06848108  1
  Ca2+  Ca38  1  0.25669844  0.58970097  0.40831698  1
  Ca2+  Ca39  1  0.76666467  0.08897053  0.56783221  1
  Ca2+  Ca40  1  0.44273772  0.59473003  0.58518272  1
  Ca2+  Ca41  1  0.92851489  0.59773549  0.05386313  1
  Ca2+  Ca42  1  0.24064647  0.09776904  0.07364048  1
  Ca2+  Ca43  1  0.56202986  0.60058707  0.06787408  1
  Ca2+  Ca44  1  0.77661879  0.09080907  0.57050262  1
  Ca2+  Ca45  1  0.58574601  0.08707627  0.74078265  1
  Ca2+  Ca46  1  0.42799594  0.59776439  0.22746036  1
  Ca2+  Ca47  1  0.76574028  0.59968675  0.92497942  1
  Ca2+  Ca48  1  0.25401600  0.09817224  0.07237965  1
  Ca2+  Ca49  1  0.74528722  0.58683229  0.24751129  1
  Ca2+  Ca50  1  0.07406503  0.08314249  0.56391053  1
  Ca2+  Ca51  1  0.40593528  0.59948161  0.92210764  1
  Ca2+  Ca52  1  0.56817122  0.58341264  0.72760427  1
  Ca2+  Ca53  1  0.07890670  0.59868974  0.24798967  1
  Ca2+  Ca54  1  0.89069099  0.10594952  0.07244338  1
  Ca2+  Ca55  1  0.06195646  0.08098875  0.56297206  1
  Ca2+  Ca56  1  0.57320675  0.08830345  0.74196281  1
  Ca2+  Ca57  1  0.41378506  0.08770762  0.25049542  1
  Ca2+  Ca58  1  0.06882929  0.07441154  0.29140461  1
  Ca2+  Ca59  1  0.08000351  0.07386430  0.29369566  1
  Ca2+  Ca60  1  0.42647491  0.08795190  0.24946588  1
  Ca2+  Ca61  1  0.92312697  0.58572300  0.41920211  1
  Ca2+  Ca62  1  0.42361266  0.60232222  0.22050663  1
  Ca2+  Ca63  1  0.60570275  0.09905517  0.42822034  1
  Ca2+  Ca64  1  0.40955603  0.08266830  0.58579026  1
  Ca2+  Ca65  1  0.39711782  0.08516483  0.58450793  1
  Ca2+  Ca66  1  0.74630723  0.10101312  0.93668726  1
  Ca2+  Ca67  1  0.91040951  0.58577793  0.41949650  1
  Ca2+  Ca68  1  0.22854603  0.60345560  0.79076943  1
  Ca2+  Ca69  1  0.24385091  0.58953608  0.40804163  1
  Ca2+  Ca70  1  0.75686755  0.58749946  0.24693456  1
  Ca2+  Ca71  1  0.41362152  0.60287505  0.92684300  1
  Ca2+  Ca72  1  0.41750210  0.91187628  0.58529575  1
  Ca2+  Ca73  1  0.42386573  0.88716244  0.91281076  1
  Ca2+  Ca74  1  0.91305909  0.40602226  0.41098495  1
  Ca2+  Ca75  1  0.07568307  0.40396423  0.58513308  1
  Ca2+  Ca76  1  0.09837573  0.41820998  0.92741629  1
  Ca2+  Ca77  1  0.25581829  0.41947499  0.06123204  1
  Ca2+  Ca78  1  0.25139969  0.91102358  0.73616066  1
  Ca2+  Ca79  1  0.21506262  0.92395350  0.41368233  1
  Ca2+  Ca80  1  0.44991716  0.42551166  0.60279007  1
  Ca2+  Ca81  1  0.75679776  0.40283760  0.91636599  1
  Ca2+  Ca82  1  0.74364097  0.90521892  0.25039332  1
  Ca2+  Ca83  1  0.90766612  0.91097533  0.73210198  1
  Ca2+  Ca84  1  0.76805800  0.40201958  0.91639615  1
  Ca2+  Ca85  1  0.42017103  0.41075522  0.23889838  1
  Ca2+  Ca86  1  0.75752267  0.40526714  0.25477695  1
  Ca2+  Ca87  1  0.26282690  0.91215401  0.73670532  1
  Ca2+  Ca88  1  0.71921142  0.42658189  0.57371110  1
  Ca2+  Ca89  1  0.91637159  0.41449826  0.74220165  1
  Ca2+  Ca90  1  0.24992938  0.39867348  0.41992470  1
  Ca2+  Ca91  1  0.74306889  0.89883960  0.91686418  1
  Ca2+  Ca92  1  0.75744674  0.91084931  0.58093938  1
  Ca2+  Ca93  1  0.41164547  0.89278005  0.24704946  1
  Ca2+  Ca94  1  0.75481161  0.89948682  0.91695924  1
  Ca2+  Ca95  1  0.06932615  0.89497698  0.91878527  1
  Ca2+  Ca96  1  0.75636192  0.90560191  0.24995771  1
  Ca2+  Ca97  1  0.93469491  0.91896390  0.41965453  1
  Ca2+  Ca98  1  0.08215696  0.89507314  0.91939029  1
  Ca2+  Ca99  1  0.42452162  0.89349917  0.24806910  1
  Ca2+  Ca100  1  0.26037526  0.41493883  0.75956286  1
  Ca2+  Ca101  1  0.59223424  0.90387714  0.41977315  1
  Ca2+  Ca102  1  0.42988701  0.91374937  0.58553010  1
  Ca2+  Ca103  1  0.43019839  0.40801615  0.23615988  1
  Ca2+  Ca104  1  0.74602269  0.40516605  0.25479082  1
  Ca2+  Ca105  1  0.40027257  0.42141325  0.92446273  1
  Ca2+  Ca106  1  0.07192466  0.90854131  0.57811902  1
  Ca2+  Ca107  1  0.91357966  0.89740077  0.08096473  1
  Mn3.34+  Mn108  1  0.08153418  0.33846872  0.08517607  1
  Mn3.34+  Mn109  1  0.08229907  0.33422119  0.41616545  1
  Mn3.34+  Mn110  1  0.08233708  0.34119076  0.75591459  1
  Mn3.34+  Mn111  1  0.08578261  0.82245211  0.08581343  1
  Mn3.34+  Mn112  1  0.08065983  0.83796537  0.41647296  1
  Mn3.34+  Mn113  1  0.08211560  0.82931505  0.74667494  1
  Mn3.34+  Mn114  1  0.41929450  0.34006928  0.07921830  1
  Mn3.34+  Mn115  1  0.41996568  0.34008107  0.42094427  1
  Mn3.34+  Mn116  1  0.41971631  0.34322087  0.75552780  1
  Mn3.34+  Mn117  1  0.41670861  0.82574973  0.08012239  1
  Mn3.34+  Mn118  1  0.41733621  0.82300465  0.41944523  1
  Mn3.34+  Mn119  1  0.41926167  0.82755836  0.75189970  1
  Mn3.34+  Mn120  1  0.74910080  0.33596709  0.08560319  1
  Mn3.34+  Mn121  1  0.74666730  0.34159682  0.42166007  1
  Mn3.34+  Mn122  1  0.74752140  0.34027348  0.74528638  1
  Mn3.34+  Mn123  1  0.74459630  0.82665831  0.08620349  1
  Mn3.34+  Mn124  1  0.75269682  0.83322013  0.42077259  1
  Mn3.34+  Mn125  1  0.74548622  0.83441873  0.74548769  1
  Mn3.34+  Mn126  1  0.24788541  0.33418584  0.24871191  1
  Mn3.34+  Mn127  1  0.25020785  0.33081543  0.58481786  1
  Mn3.34+  Mn128  1  0.25175443  0.33449932  0.91247148  1
  Mn3.34+  Mn129  1  0.24111882  0.83189987  0.24473328  1
  Mn3.34+  Mn130  1  0.25117814  0.83715020  0.57378941  1
  Mn3.34+  Mn131  1  0.24905562  0.82614379  0.91562022  1
  Mn3.34+  Mn132  1  0.58302172  0.33533260  0.25033026  1
  Mn3.34+  Mn133  1  0.58273046  0.33523426  0.58293021  1
  Mn3.34+  Mn134  1  0.58002826  0.33334103  0.91531003  1
  Mn3.34+  Mn135  1  0.58591896  0.82358211  0.24896215  1
  Mn3.34+  Mn136  1  0.58570017  0.83727203  0.58602566  1
  Mn3.34+  Mn137  1  0.58422562  0.82108637  0.91331145  1
  Mn3.34+  Mn138  1  0.92174234  0.33554308  0.24692319  1
  Mn3.34+  Mn139  1  0.91319626  0.33535529  0.58012786  1
  Mn3.34+  Mn140  1  0.92478157  0.33551528  0.91394047  1
  Mn3.34+  Mn141  1  0.92346142  0.83052994  0.24905247  1
  Mn3.34+  Mn142  1  0.91560239  0.83447686  0.58135369  1
  Mn3.34+  Mn143  1  0.91565800  0.82545800  0.91077004  1
  Mn3.34+  Mn144  1  0.24651666  0.67064351  0.24619671  1
  Mn3.34+  Mn145  1  0.08022083  0.66908578  0.41896642  1
  Mn3.34+  Mn146  1  0.74480912  0.66209916  0.74608504  1
  Mn3.34+  Mn147  1  0.76497372  0.16182618  0.75533674  1
  Mn3.34+  Mn148  1  0.24617334  0.16393392  0.58032069  1
  Mn3.34+  Mn149  1  0.24226471  0.16954639  0.25452272  1
  Mn3.34+  Mn150  1  0.58506754  0.67365613  0.25137933  1
  Mn3.34+  Mn151  1  0.75179360  0.16805243  0.75293823  1
  Mn3.34+  Mn152  1  0.07962596  0.17089524  0.42181425  1
  Mn3.34+  Mn153  1  0.90235051  0.16235234  0.25438684  1
  Mn3.34+  Mn154  1  0.92024943  0.16874639  0.91530908  1
  Mn3.34+  Mn155  1  0.24989974  0.17394167  0.91453507  1
  Mn3.34+  Mn156  1  0.42200969  0.17166041  0.08032847  1
  Mn3.34+  Mn157  1  0.58518849  0.16733517  0.25222162  1
  Mn3.34+  Mn158  1  0.24485348  0.66583110  0.58527954  1
  Mn3.34+  Mn159  1  0.08967656  0.66435783  0.08561879  1
  Mn3.34+  Mn160  1  0.74481071  0.66994946  0.08600431  1
  Mn3.34+  Mn161  1  0.07783999  0.17090131  0.08335906  1
  Mn3.34+  Mn162  1  0.59676225  0.16406821  0.25222709  1
  Mn3.34+  Mn163  1  0.41769046  0.17548380  0.75201090  1
  Mn3.34+  Mn164  1  0.75753115  0.65819553  0.75022299  1
  Mn3.34+  Mn165  1  0.07426861  0.16727054  0.75473916  1
  Mn3.34+  Mn166  1  0.25183168  0.16327535  0.25473066  1
  Mn3.34+  Mn167  1  0.41908094  0.17196943  0.42022783  1
  Mn3.34+  Mn168  1  0.41793109  0.66453548  0.75624659  1
  Mn3.34+  Mn169  1  0.40867677  0.16978313  0.75494006  1
  Mn3.34+  Mn170  1  0.25475739  0.67118329  0.58656988  1
  Mn3.34+  Mn171  1  0.91708277  0.17178508  0.57898180  1
  Mn3.34+  Mn172  1  0.91964920  0.66859410  0.24313446  1
  Mn3.34+  Mn173  1  0.58497743  0.16779873  0.57763469  1
  Mn3.34+  Mn174  1  0.08481436  0.17182394  0.75345290  1
  Mn3.34+  Mn175  1  0.74842857  0.66316410  0.42452050  1
  Mn3.34+  Mn176  1  0.42059757  0.66233589  0.41711090  1
  Mn3.34+  Mn177  1  0.91363819  0.16616029  0.25453285  1
  Mn3.34+  Mn178  1  0.73959205  0.65719681  0.42726685  1
  Mn3.34+  Mn179  1  0.92225469  0.66427942  0.58833849  1
  Mn3.34+  Mn180  1  0.91601173  -0.00551597  0.24904689  1
  Mn3.34+  Mn181  1  0.07249104  0.00196051  0.74579096  1
  Mn3.34+  Mn182  1  0.24164966  -0.00647097  0.24118166  1
  Mn3.34+  Mn183  1  0.58650159  -0.00562874  0.91000841  1
  Mn3.34+  Mn184  1  0.08683629  0.00782535  0.74640566  1
  Mn3.34+  Mn185  1  0.43727436  0.50092324  0.41210680  1
  Mn3.34+  Mn186  1  0.57600956  -0.00108112  0.90718181  1
  Mn3.34+  Mn187  1  0.24659590  0.50212751  0.59351533  1
  Mn3.34+  Mn188  1  0.58297766  0.50263752  0.26729532  1
  Mn3.34+  Mn189  1  0.59046550  0.50293799  0.90435006  1
  Mn3.34+  Mn190  1  0.74976310  0.00227600  0.73307914  1
  Mn3.34+  Mn191  1  0.91649709  0.49925728  0.59045395  1
  Mn3.34+  Mn192  1  0.08657132  -0.00685807  0.09075586  1
  Mn3.34+  Mn193  1  0.41932293  -0.00148466  0.75034023  1
  Mn3.34+  Mn194  1  0.24656444  0.50349813  0.23957567  1
  Mn3.34+  Mn195  1  0.23532082  0.49823542  0.24023073  1
  Mn3.34+  Mn196  1  0.41860659  0.00214547  0.41348181  1
  Mn3.34+  Mn197  1  0.07506145  -0.00090246  0.09076792  1
  Mn3.34+  Mn198  1  0.91457128  0.00226125  0.91336303  1
  Mn3.34+  Mn199  1  0.40744025  -0.00249911  0.41262128  1
  Mn3.34+  Mn200  1  0.92018682  0.50492417  0.91761991  1
  Mn3.34+  Mn201  1  0.25639677  0.49645517  0.59107266  1
  Mn3.34+  Mn202  1  0.42595945  -0.00138737  0.08201695  1
  Mn3.34+  Mn203  1  0.07630646  0.50530791  0.74571667  1
  Mn3.34+  Mn204  1  0.75046206  0.49972559  0.07494597  1
  Mn3.34+  Mn205  1  0.08325354  0.50148851  0.42442907  1
  Mn3.34+  Mn206  1  0.75199581  -0.00114987  0.07971871  1
  Mn3.34+  Mn207  1  0.75256153  -0.00116222  0.40518361  1
  Mn3.34+  Mn208  1  0.25645167  0.00474507  0.90660350  1
  Mn3.34+  Mn209  1  0.41261981  -0.00826757  0.08087138  1
  Mn3.34+  Mn210  1  0.74413864  0.50090915  0.73226042  1
  Mn3.34+  Mn211  1  0.59212472  -0.00205832  0.24156311  1
  Mn3.34+  Mn212  1  0.92542572  0.50195294  0.24730777  1
  Mn3.34+  Mn213  1  0.24467237  0.01075908  0.90649161  1
  Mn3.34+  Mn214  1  0.57658867  0.49813991  0.90826109  1
  Mn3.34+  Mn215  1  0.08418218  0.50019744  0.07525329  1
  O2-  O216  1  -0.00729645  0.17383610  0.00725363  1
  O2-  O217  1  -0.00619826  0.16007027  0.33826223  1
  O2-  O218  1  0.00408933  0.16018198  0.66126151  1
  O2-  O219  1  0.00596044  0.67523222  0.01439945  1
  O2-  O220  1  -0.00557980  0.64846258  0.33474155  1
  O2-  O221  1  0.00075937  0.66737482  0.66084475  1
  O2-  O222  1  0.33576639  0.15789214  0.00458056  1
  O2-  O223  1  0.34310553  0.14880621  0.33165968  1
  O2-  O224  1  0.33102585  0.15722738  0.67061232  1
  O2-  O225  1  0.33061714  0.66919938  -0.00743595  1
  O2-  O226  1  0.33527253  0.65112695  0.33075249  1
  O2-  O227  1  0.33816465  0.64735768  0.66058185  1
  O2-  O228  1  0.67046848  0.16866719  -0.00470920  1
  O2-  O229  1  0.66460936  0.17481620  0.34073697  1
  O2-  O230  1  0.66956985  0.14637425  0.66670511  1
  O2-  O231  1  0.66547097  0.68006993  0.00943347  1
  O2-  O232  1  0.66928595  0.65762567  0.33244157  1
  O2-  O233  1  0.66280934  0.66066797  0.67656672  1
  O2-  O234  1  0.16465705  0.15689453  0.00064544  1
  O2-  O235  1  0.15426703  0.16443659  0.33235704  1
  O2-  O236  1  0.15700348  0.15817232  0.66250923  1
  O2-  O237  1  0.16880310  0.68214849  0.01426310  1
  O2-  O238  1  0.16696740  0.65522906  0.33560192  1
  O2-  O239  1  0.17478818  0.65815645  0.67163497  1
  O2-  O240  1  0.50659190  0.16635538  0.01371444  1
  O2-  O241  1  0.50798287  0.14262065  0.33419834  1
  O2-  O242  1  0.49279015  0.15583804  0.66221963  1
  O2-  O243  1  0.49448767  0.66251437  -0.00896701  1
  O2-  O244  1  0.49432305  0.68347024  0.32672675  1
  O2-  O245  1  0.49823800  0.66224537  0.67395939  1
  O2-  O246  1  0.83908994  0.17884826  -0.00988097  1
  O2-  O247  1  0.82697961  0.18041424  0.33363990  1
  O2-  O248  1  0.83531207  0.15069329  0.66716155  1
  O2-  O249  1  0.82768048  0.67058356  0.01018564  1
  O2-  O250  1  0.82912342  0.65116860  0.33207692  1
  O2-  O251  1  0.83360875  0.65700067  0.66325188  1
  O2-  O252  1  0.00590120  0.32898380  -0.00585053  1
  O2-  O253  1  -0.00286055  0.32842636  0.33764681  1
  O2-  O254  1  0.00085456  0.33984253  0.66855759  1
  O2-  O255  1  -0.00360318  0.83383152  -0.00045400  1
  O2-  O256  1  -0.00541130  0.84382648  0.33994487  1
  O2-  O257  1  -0.00025208  0.84528443  0.66715213  1
  O2-  O258  1  0.33154879  0.34486611  -0.00019794  1
  O2-  O259  1  0.33800039  0.35475278  0.32896556  1
  O2-  O260  1  0.33411748  0.33736184  0.67160153  1
  O2-  O261  1  0.33569487  0.83047651  -0.00721799  1
  O2-  O262  1  0.34213177  0.83372106  0.33289064  1
  O2-  O263  1  0.33607234  0.85064467  0.66219890  1
  O2-  O264  1  0.67227253  0.34651953  -0.00255542  1
  O2-  O265  1  0.67052764  0.33372209  0.33156995  1
  O2-  O266  1  0.67154486  0.34246689  0.65887875  1
  O2-  O267  1  0.67370808  0.82282931  -0.00601373  1
  O2-  O268  1  0.67165930  0.83928456  0.33059155  1
  O2-  O269  1  0.67089813  0.85091950  0.65996302  1
  O2-  O270  1  0.16866359  0.34486942  -0.00176035  1
  O2-  O271  1  0.17123805  0.32399453  0.33837927  1
  O2-  O272  1  0.16320872  0.33659457  0.66886307  1
  O2-  O273  1  0.15699300  0.82430863  -0.01093465  1
  O2-  O274  1  0.16839459  0.84352102  0.33674322  1
  O2-  O275  1  0.16792444  0.85293544  0.66475557  1
  O2-  O276  1  0.49279810  0.33975419  -0.00757387  1
  O2-  O277  1  0.49468503  0.34691342  0.32799149  1
  O2-  O278  1  0.49522316  0.33135351  0.66680328  1
  O2-  O279  1  0.50121792  0.82284587  -0.00347829  1
  O2-  O280  1  0.50285544  0.82893050  0.33458218  1
  O2-  O281  1  0.49461987  0.84636623  0.66383113  1
  O2-  O282  1  0.83458507  0.33536841  -0.00284099  1
  O2-  O283  1  0.82838871  0.33263225  0.33567010  1
  O2-  O284  1  0.83613025  0.34914661  0.66708566  1
  O2-  O285  1  0.83096960  0.83888791  -0.00127835  1
  O2-  O286  1  0.83081508  0.84673000  0.33095588  1
  O2-  O287  1  0.83086729  0.84670143  0.66370007  1
  O2-  O288  1  0.00458401  0.16953459  0.18035020  1
  O2-  O289  1  0.00266259  0.18815966  0.50260425  1
  O2-  O290  1  -0.00140038  0.19545657  0.83402313  1
  O2-  O291  1  0.00432586  0.68372884  0.17136343  1
  O2-  O292  1  -0.00725831  0.67563932  0.49100538  1
  O2-  O293  1  0.00497650  0.66238876  0.82564086  1
  O2-  O294  1  0.33395135  0.16741014  0.16591375  1
  O2-  O295  1  0.33883231  0.17713844  0.51047362  1
  O2-  O296  1  0.33569666  0.19498747  0.83466741  1
  O2-  O297  1  0.33272583  0.67013449  0.17383077  1
  O2-  O298  1  0.32194187  0.68348330  0.49303143  1
  O2-  O299  1  0.33073977  0.67661020  0.83049210  1
  O2-  O300  1  0.66228936  0.17738395  0.16363077  1
  O2-  O301  1  0.67175611  0.17235092  0.50980875  1
  O2-  O302  1  0.66841781  0.17608962  0.82443669  1
  O2-  O303  1  0.67223419  0.68491811  0.17702762  1
  O2-  O304  1  0.66613898  0.67562517  0.50727109  1
  O2-  O305  1  0.67396698  0.68005714  0.83342022  1
  O2-  O306  1  0.17122113  0.17122555  0.16040383  1
  O2-  O307  1  0.16205444  0.18181639  0.50158291  1
  O2-  O308  1  0.16590936  0.19371737  0.82821693  1
  O2-  O309  1  0.16061237  0.68224022  0.17566503  1
  O2-  O310  1  0.16816955  0.68035544  0.49815721  1
  O2-  O311  1  0.17366375  0.68427250  0.84188617  1
  O2-  O312  1  0.49004867  0.17267735  0.18053759  1
  O2-  O313  1  0.50341891  0.18490556  0.49730938  1
  O2-  O314  1  0.50844554  0.18527203  0.81761525  1
  O2-  O315  1  0.50525688  0.67624524  0.17062741  1
  O2-  O316  1  0.48999129  0.67937884  0.49852103  1
  O2-  O317  1  0.49166693  0.68478243  0.83409681  1
  O2-  O318  1  0.83717808  0.17383154  0.16393072  1
  O2-  O319  1  0.82909801  0.17832135  0.51163448  1
  O2-  O320  1  0.83772174  0.19182115  0.83575112  1
  O2-  O321  1  0.83011045  0.68176133  0.17223287  1
  O2-  O322  1  0.83943317  0.67281761  0.49378678  1
  O2-  O323  1  0.83285869  0.67079776  0.82745046  1
  O2-  O324  1  -0.00340055  0.32550633  0.16113281  1
  O2-  O325  1  0.00002344  0.31913138  0.49976911  1
  O2-  O326  1  0.00076540  0.31393321  0.83088444  1
  O2-  O327  1  -0.00394687  0.81200953  0.15898017  1
  O2-  O328  1  0.00373256  0.82236174  0.50382235  1
  O2-  O329  1  0.00413243  0.82703910  0.83522469  1
  O2-  O330  1  0.33879043  0.33098261  0.17196979  1
  O2-  O331  1  0.32929716  0.32239725  0.49518427  1
  O2-  O332  1  0.33485072  0.31788473  0.83136013  1
  O2-  O333  1  0.33711102  0.82527610  0.17055222  1
  O2-  O334  1  0.33701511  0.81296839  0.50161244  1
  O2-  O335  1  0.32531664  0.82371039  0.82623039  1
  O2-  O336  1  0.67185825  0.33019257  0.17677600  1
  O2-  O337  1  0.66757145  0.31910995  0.49872238  1
  O2-  O338  1  0.67470305  0.32989906  0.83929978  1
  O2-  O339  1  0.66984933  0.80875867  0.17253217  1
  O2-  O340  1  0.66443217  0.82690139  0.49760611  1
  O2-  O341  1  0.67518185  0.82027844  0.83990069  1
  O2-  O342  1  0.17078663  0.32267496  0.16587276  1
  O2-  O343  1  0.16485788  0.31641763  0.49832920  1
  O2-  O344  1  0.16730220  0.32061604  0.83234050  1
  O2-  O345  1  0.16776317  0.80616720  0.16126110  1
  O2-  O346  1  0.16675556  0.82815436  0.49839893  1
  O2-  O347  1  0.16686912  0.83063965  0.83009163  1
  O2-  O348  1  0.49671904  0.33073803  0.16971892  1
  O2-  O349  1  0.49917554  0.31963212  0.50044949  1
  O2-  O350  1  0.49750988  0.31690745  0.83188571  1
  O2-  O351  1  0.49477705  0.81770942  0.17549502  1
  O2-  O352  1  0.49824176  0.81920215  0.50214797  1
  O2-  O353  1  0.49569571  0.81319889  0.83642735  1
  O2-  O354  1  0.82802452  0.32853674  0.17503350  1
  O2-  O355  1  0.83168937  0.31861614  0.49552827  1
  O2-  O356  1  0.83342016  0.32542893  0.83650531  1
  O2-  O357  1  0.83081738  0.81865543  0.16558399  1
  O2-  O358  1  0.83337458  0.82297435  0.49945340  1
  O2-  O359  1  0.83003060  0.83359103  0.83521903  1
  O2-  O360  1  0.09294029  0.07903704  0.11893006  1
  O2-  O361  1  0.07803856  0.07963331  0.43098050  1
  O2-  O362  1  0.07980695  0.08433855  0.79111668  1
  O2-  O363  1  0.07929468  0.57892793  0.11263319  1
  O2-  O364  1  0.09153563  0.58426836  0.44310984  1
  O2-  O365  1  0.09175526  0.57194903  0.79123387  1
  O2-  O366  1  0.40595117  0.07816868  0.11584372  1
  O2-  O367  1  0.42187594  0.08178449  0.45056583  1
  O2-  O368  1  0.43352461  0.08274385  0.77586614  1
  O2-  O369  1  0.42245492  0.56843254  0.10653271  1
  O2-  O370  1  0.39107351  0.57844717  0.45199916  1
  O2-  O371  1  0.42761246  0.58348238  0.78769313  1
  O2-  O372  1  0.75664213  0.07837223  0.08221125  1
  O2-  O373  1  0.73960252  0.07389578  0.44270609  1
  O2-  O374  1  0.74532024  0.07791046  0.79279356  1
  O2-  O375  1  0.74974348  0.58057938  0.11153157  1
  O2-  O376  1  0.76636975  0.57626128  0.42935163  1
  O2-  O377  1  0.74524467  0.57468800  0.78736014  1
  O2-  O378  1  0.25861915  0.07365240  0.20438330  1
  O2-  O379  1  0.25559913  0.08222950  0.56418019  1
  O2-  O380  1  0.25453699  0.09112014  0.89329839  1
  O2-  O381  1  0.24063517  0.58553376  0.22421651  1
  O2-  O382  1  0.24677462  0.57913655  0.54275697  1
  O2-  O383  1  0.27728766  0.56901946  0.90665063  1
  O2-  O384  1  0.56597362  0.07958495  0.20947868  1
  O2-  O385  1  0.56376214  0.08633405  0.55843863  1
  O2-  O386  1  0.58877034  0.07825387  0.87525986  1
  O2-  O387  1  0.58736417  0.58099428  0.22260612  1
  O2-  O388  1  0.57804533  0.56475825  0.58259878  1
  O2-  O389  1  0.58436025  0.58185130  0.88590247  1
  O2-  O390  1  0.92783153  0.07699757  0.22345188  1
  O2-  O391  1  0.92357110  0.08815893  0.55528209  1
  O2-  O392  1  0.89453641  0.08313159  0.91318383  1
  O2-  O393  1  0.91693853  0.58344903  0.20782999  1
  O2-  O394  1  0.92174238  0.57881718  0.55382691  1
  O2-  O395  1  0.90702372  0.58194728  0.91585579  1
  O2-  O396  1  0.09417046  0.42115152  0.09857029  1
  O2-  O397  1  0.08982633  0.42054575  0.44579930  1
  O2-  O398  1  0.07661606  0.42951614  0.79274165  1
  O2-  O399  1  0.07656895  0.91153126  0.08766236  1
  O2-  O400  1  0.07926065  0.91945196  0.44372157  1
  O2-  O401  1  0.07942597  0.92247419  0.78803195  1
  O2-  O402  1  0.40360772  0.42174403  0.10448920  1
  O2-  O403  1  0.40654202  0.42224748  0.45333525  1
  O2-  O404  1  0.40590008  0.42010709  0.77871363  1
  O2-  O405  1  0.42583724  0.91166046  0.10668616  1
  O2-  O406  1  0.42208637  0.91516763  0.43251171  1
  O2-  O407  1  0.40424201  0.91720778  0.78354944  1
  O2-  O408  1  0.75290020  0.42185674  0.11558257  1
  O2-  O409  1  0.76309136  0.42133523  0.42789931  1
  O2-  O410  1  0.75725416  0.42846611  0.78600236  1
  O2-  O411  1  0.74891851  0.91854685  0.11617183  1
  O2-  O412  1  0.74781797  0.92036429  0.44241146  1
  O2-  O413  1  0.76171791  0.92917656  0.78754668  1
  O2-  O414  1  0.24818984  0.41699565  0.22661112  1
  O2-  O415  1  0.23420557  0.41647523  0.55790491  1
  O2-  O416  1  0.24922288  0.41593681  0.89516200  1
  O2-  O417  1  0.27559197  0.91485549  0.24295442  1
  O2-  O418  1  0.27359032  0.91776992  0.54618936  1
  O2-  O419  1  0.23971462  0.92240650  0.88885776  1
  O2-  O420  1  0.57317072  0.42138250  0.23622323  1
  O2-  O421  1  0.58200401  0.41368484  0.56366312  1
  O2-  O422  1  0.58024049  0.41786937  0.89548793  1
  O2-  O423  1  0.58280660  0.91376646  0.23114218  1
  O2-  O424  1  0.56166106  0.92085728  0.54974123  1
  O2-  O425  1  0.58794483  0.91143786  0.90215547  1
  O2-  O426  1  0.89920033  0.41943253  0.25402310  1
  O2-  O427  1  0.92450792  0.41952048  0.54893926  1
  O2-  O428  1  0.90892152  0.42396573  0.88258092  1
  O2-  O429  1  0.90345914  0.91571919  0.21449331  1
  O2-  O430  1  0.91796412  0.91531571  0.56119713  1
  O2-  O431  1  0.93431103  0.91950064  0.88985239  1
  O2-  O432  1  0.00349797  -0.00489588  -0.00455819  1
  O2-  O433  1  -0.00091924  -0.00447223  0.32319492  1
  O2-  O434  1  0.01835312  0.00619610  0.64122931  1
  O2-  O435  1  0.00135978  0.50039149  0.00037813  1
  O2-  O436  1  -0.01091118  0.51073289  0.35408809  1
  O2-  O437  1  0.00600129  0.48250164  0.66461521  1
  O2-  O438  1  0.32950835  0.01115115  0.00234044  1
  O2-  O439  1  0.33828752  0.01378595  0.32024325  1
  O2-  O440  1  0.33939050  -0.01472238  0.66503804  1
  O2-  O441  1  0.33621608  0.50952515  -0.01623640  1
  O2-  O442  1  0.31941260  0.50490413  0.33953071  1
  O2-  O443  1  0.35123393  0.49845718  0.65416614  1
  O2-  O444  1  0.66788717  0.00249876  -0.00669679  1
  O2-  O445  1  0.65665682  -0.00973307  0.34249791  1
  O2-  O446  1  0.66503879  0.02591605  0.66988896  1
  O2-  O447  1  0.65852619  0.50937248  -0.00202226  1
  O2-  O448  1  0.69637750  0.49707615  0.27345765  1
  O2-  O449  1  0.66045347  0.49947020  0.67038976  1
  O2-  O450  1  0.17358491  0.01117081  0.00740457  1
  O2-  O451  1  0.16728117  0.00617393  0.32483840  1
  O2-  O452  1  0.17448399  -0.01846475  0.67896787  1
  O2-  O453  1  0.18052660  0.50207328  0.02481144  1
  O2-  O454  1  0.16238926  0.51290633  0.33421526  1
  O2-  O455  1  0.17806462  0.49086378  0.68905671  1
  O2-  O456  1  0.49517365  0.00473019  -0.00952736  1
  O2-  O457  1  0.49081119  0.00556177  0.31721490  1
  O2-  O458  1  0.48834453  0.01326494  0.65685436  1
  O2-  O459  1  0.48624209  0.50335123  -0.02879980  1
  O2-  O460  1  0.46623575  0.50884813  0.28518667  1
  O2-  O461  1  0.50252076  0.51421700  0.64514471  1
  O2-  O462  1  0.82834972  -0.02294511  -0.00886631  1
  O2-  O463  1  0.81997502  -0.01869105  0.31410655  1
  O2-  O464  1  0.81768839  -0.00190929  0.64424080  1
  O2-  O465  1  0.81619709  0.49284426  -0.02377026  1
  O2-  O466  1  0.83805680  0.52084644  0.31523266  1
  O2-  O467  1  0.82673155  0.48297749  0.66067690  1
  O2-  O468  1  0.40602463  0.75011289  0.72354321  1
  O2-  O469  1  0.91513141  0.74765628  0.91628084  1
  O2-  O470  1  0.91511075  0.74808085  0.28172471  1
  O2-  O471  1  0.41295667  0.74830836  0.07879808  1
  O2-  O472  1  0.91459085  0.74938975  0.59647201  1
  O2-  O473  1  0.58705189  0.24825506  0.60710373  1
  O2-  O474  1  0.58848257  0.75722909  0.60146970  1
  O2-  O475  1  0.75452475  0.74797425  0.72844721  1
  O2-  O476  1  0.75121950  0.24987333  0.72273976  1
  O2-  O477  1  0.24538563  0.25227667  0.94449238  1
  O2-  O478  1  0.74687062  0.25715951  0.07829179  1
  O2-  O479  1  0.40877603  0.25358668  0.07577693  1
  O2-  O480  1  0.92181878  0.25137683  0.25191350  1
  O2-  O481  1  0.25264180  0.24847653  0.60335479  1
  O2-  O482  1  0.08277094  0.75090435  0.39501712  1
  O2-  O483  1  0.91124452  0.25239310  0.60816445  1
  O2-  O484  1  0.08363795  0.75120547  0.73750656  1
  O2-  O485  1  0.09457946  0.25350545  0.07845261  1
  O2-  O486  1  0.24156141  0.75517546  0.60976052  1
  O2-  O487  1  0.56908353  0.25228430  0.26716635  1
  O2-  O488  1  0.74977995  0.74546361  0.40121101  1
  O2-  O489  1  0.26982144  0.25300987  0.26500548  1
  O2-  O490  1  0.58711065  0.25590560  0.92906756  1
  O2-  O491  1  0.25511941  0.74893022  0.27442849  1
  O2-  O492  1  0.41387094  0.25326252  0.39030977  1
