# generated using pymatgen
data_Ca108Mn108O277
_symmetry_space_group_name_H-M   'P 1'
_cell_length_a   16.01640803
_cell_length_b   22.29147769
_cell_length_c   16.38080200
_cell_angle_alpha   89.99978480
_cell_angle_beta   89.99821487
_cell_angle_gamma   90.00205741
_symmetry_Int_Tables_number   1
_chemical_formula_structural   Ca108Mn108O277
_chemical_formula_sum   'Ca108 Mn108 O277'
_cell_volume   5848.42794067
_cell_formula_units_Z   1
loop_
 _symmetry_equiv_pos_site_id
 _symmetry_equiv_pos_as_xyz
  1  'x, y, z'
loop_
 _atom_type_symbol
 _atom_type_oxidation_number
  Ca2+  2.0
  Mn3.34+  3.34
  O2-  -2.0
loop_
 _atom_site_type_symbol
 _atom_site_label
 _atom_site_symmetry_multiplicity
 _atom_site_fract_x
 _atom_site_fract_y
 _atom_site_fract_z
 _atom_site_occupancy
  Ca2+  Ca0  1  0.09262099  0.25513230  0.23628003  1
  Ca2+  Ca1  1  0.06517255  0.25930562  0.57766141  1
  Ca2+  Ca2  1  0.06065262  0.24836578  0.93463369  1
  Ca2+  Ca3  1  0.09682743  0.75135779  0.22397207  1
  Ca2+  Ca4  1  0.08797072  0.74725930  0.59543551  1
  Ca2+  Ca5  1  0.09641145  0.75280132  0.91968456  1
  Ca2+  Ca6  1  0.42800086  0.24906126  0.26623928  1
  Ca2+  Ca7  1  0.44293435  0.24409340  0.57948494  1
  Ca2+  Ca8  1  0.42420510  0.26191656  0.90234346  1
  Ca2+  Ca9  1  0.40678078  0.75453638  0.23131921  1
  Ca2+  Ca10  1  0.39514688  0.75182177  0.59997368  1
  Ca2+  Ca11  1  0.40456782  0.75195199  0.90511049  1
  Ca2+  Ca12  1  0.72884232  0.24165282  0.25397531  1
  Ca2+  Ca13  1  0.73752674  0.23881332  0.56415449  1
  Ca2+  Ca14  1  0.75780419  0.24745172  0.92727656  1
  Ca2+  Ca15  1  0.74575027  0.75398684  0.25129736  1
  Ca2+  Ca16  1  0.77138508  0.74775488  0.59207812  1
  Ca2+  Ca17  1  0.74626493  0.74660067  0.90415288  1
  Ca2+  Ca18  1  0.23026096  0.24931716  0.09296199  1
  Ca2+  Ca19  1  0.26239266  0.25007092  0.40184852  1
  Ca2+  Ca20  1  0.26802973  0.25908034  0.75172134  1
  Ca2+  Ca21  1  0.23323469  0.73712963  0.06649978  1
  Ca2+  Ca22  1  0.24259733  0.75822461  0.43407943  1
  Ca2+  Ca23  1  0.25026142  0.73573227  0.74014742  1
  Ca2+  Ca24  1  0.60944271  0.24896161  0.08904587  1
  Ca2+  Ca25  1  0.58537561  0.24282300  0.41397352  1
  Ca2+  Ca26  1  0.57625305  0.24834258  0.73112766  1
  Ca2+  Ca27  1  0.56763923  0.74509896  0.07449984  1
  Ca2+  Ca28  1  0.58973059  0.75960187  0.42591417  1
  Ca2+  Ca29  1  0.57782989  0.73907930  0.76101948  1
  Ca2+  Ca30  1  0.91042825  0.23369295  0.07272571  1
  Ca2+  Ca31  1  0.89684905  0.25319597  0.42207759  1
  Ca2+  Ca32  1  0.90433135  0.25507107  0.75626980  1
  Ca2+  Ca33  1  0.94612892  0.74529220  0.07416298  1
  Ca2+  Ca34  1  0.91889477  0.75113377  0.45052897  1
  Ca2+  Ca35  1  0.92213595  0.74072611  0.73131131  1
  Ca2+  Ca36  1  0.88703161  0.09467876  0.42887355  1
  Ca2+  Ca37  1  0.91617419  0.58277886  0.05956891  1
  Ca2+  Ca38  1  0.39347888  0.58835759  0.60442337  1
  Ca2+  Ca39  1  0.75327600  0.58661035  0.24566910  1
  Ca2+  Ca40  1  0.26144845  0.58655933  0.42152558  1
  Ca2+  Ca41  1  0.26860564  0.06768762  0.72049313  1
  Ca2+  Ca42  1  0.74475095  0.59605962  0.91602130  1
  Ca2+  Ca43  1  0.91857968  0.58933594  0.74706807  1
  Ca2+  Ca44  1  0.07380355  0.58695999  0.60805069  1
  Ca2+  Ca45  1  0.59863981  0.58659637  0.41647737  1
  Ca2+  Ca46  1  0.59499822  0.59490257  0.07022920  1
  Ca2+  Ca47  1  0.58249622  0.59365831  0.06931019  1
  Ca2+  Ca48  1  0.61385416  0.11190378  0.09609919  1
  Ca2+  Ca49  1  0.09125459  0.60139397  0.22910922  1
  Ca2+  Ca50  1  0.77117154  0.10442394  0.92802979  1
  Ca2+  Ca51  1  0.41583233  0.08916257  0.28322786  1
  Ca2+  Ca52  1  0.60322490  0.11167086  0.09656284  1
  Ca2+  Ca53  1  0.41424156  0.59179126  0.24562291  1
  Ca2+  Ca54  1  0.75557417  0.59403030  0.91816070  1
  Ca2+  Ca55  1  0.09265091  0.59895678  0.91486125  1
  Ca2+  Ca56  1  0.77278240  0.59171850  0.59022049  1
  Ca2+  Ca57  1  0.59199307  0.10668703  0.42182320  1
  Ca2+  Ca58  1  0.08775748  0.10177599  0.23818908  1
  Ca2+  Ca59  1  0.08477890  0.58730391  0.60896139  1
  Ca2+  Ca60  1  0.89673091  0.09256668  0.43165081  1
  Ca2+  Ca61  1  0.43357922  0.09373663  0.57626632  1
  Ca2+  Ca62  1  0.73749552  0.10677467  0.25211791  1
  Ca2+  Ca63  1  0.24869707  0.58658708  0.42083545  1
  Ca2+  Ca64  1  0.28081888  0.06653080  0.72266300  1
  Ca2+  Ca65  1  0.40156202  0.59187202  0.24485912  1
  Ca2+  Ca66  1  0.05396222  0.10196644  0.94483532  1
  Ca2+  Ca67  1  0.42922670  0.60781818  0.90880330  1
  Ca2+  Ca68  1  0.90161223  0.59448121  0.42783113  1
  Ca2+  Ca69  1  0.22423983  0.10020271  0.09496527  1
  Ca2+  Ca70  1  0.08372556  0.59601391  0.91112216  1
  Ca2+  Ca71  1  0.90651534  0.07727772  0.72564694  1
  Ca2+  Ca72  1  0.58640819  0.40011209  0.42551079  1
  Ca2+  Ca73  1  0.91423153  0.91265766  0.73584998  1
  Ca2+  Ca74  1  0.25923372  0.91225323  0.42731234  1
  Ca2+  Ca75  1  0.43511017  0.41009842  0.58851815  1
  Ca2+  Ca76  1  0.59613965  0.89595824  0.08629285  1
  Ca2+  Ca77  1  0.07539065  0.90998407  0.24701549  1
  Ca2+  Ca78  1  0.74738148  0.90078761  0.90753190  1
  Ca2+  Ca79  1  0.91952422  0.41115820  0.75185816  1
  Ca2+  Ca80  1  0.40183029  0.90892852  0.27480080  1
  Ca2+  Ca81  1  0.78302737  0.91733927  0.26024087  1
  Ca2+  Ca82  1  0.76004183  0.89972262  0.90768625  1
  Ca2+  Ca83  1  0.24999647  0.40909444  0.74957209  1
  Ca2+  Ca84  1  0.26269910  0.90927030  0.74132648  1
  Ca2+  Ca85  1  0.07261444  0.41039901  0.90805195  1
  Ca2+  Ca86  1  0.42405146  0.40872727  0.58798090  1
  Ca2+  Ca87  1  0.08506923  0.41074379  0.90847585  1
  Ca2+  Ca88  1  0.09048497  0.91484486  0.59477306  1
  Ca2+  Ca89  1  0.06259204  0.90943823  0.24778855  1
  Ca2+  Ca90  1  0.75873799  0.41019190  0.91561463  1
  Ca2+  Ca91  1  0.25789069  0.39815144  0.08853894  1
  Ca2+  Ca92  1  0.24289232  0.39913600  0.41646325  1
  Ca2+  Ca93  1  0.07793510  0.91459733  0.59435769  1
  Ca2+  Ca94  1  0.75747454  0.40192660  0.24844683  1
  Ca2+  Ca95  1  0.58321923  0.89656777  0.08638786  1
  Ca2+  Ca96  1  0.73968182  0.40685331  0.58469438  1
  Ca2+  Ca97  1  0.41268311  0.90909417  0.27154525  1
  Ca2+  Ca98  1  0.89083402  0.41894124  0.07447551  1
  Ca2+  Ca99  1  0.76585975  0.91603869  0.59354627  1
  Ca2+  Ca100  1  0.90095990  0.41664438  0.07738676  1
  Ca2+  Ca101  1  0.58803906  0.39986059  0.08198325  1
  Ca2+  Ca102  1  0.57665749  0.39810141  0.08121110  1
  Ca2+  Ca103  1  0.40023935  0.92225929  0.60091476  1
  Ca2+  Ca104  1  0.92123611  0.39949944  0.42213073  1
  Ca2+  Ca105  1  0.92350040  0.90236814  0.08583505  1
  Ca2+  Ca106  1  0.90929988  0.91035393  0.42162505  1
  Ca2+  Ca107  1  0.57332446  0.90044176  0.74775396  1
  Mn3.34+  Mn108  1  0.08141010  0.33193706  0.08653985  1
  Mn3.34+  Mn109  1  0.08362976  0.33178068  0.41672368  1
  Mn3.34+  Mn110  1  0.08637404  0.33793554  0.74518885  1
  Mn3.34+  Mn111  1  0.09038437  0.83410569  0.07499879  1
  Mn3.34+  Mn112  1  0.08317690  0.83500901  0.41843613  1
  Mn3.34+  Mn113  1  0.08448026  0.83160519  0.75808121  1
  Mn3.34+  Mn114  1  0.41582148  0.33069904  0.08560062  1
  Mn3.34+  Mn115  1  0.41599769  0.33239291  0.41757082  1
  Mn3.34+  Mn116  1  0.42071379  0.33598347  0.75271357  1
  Mn3.34+  Mn117  1  0.40511170  0.83329599  0.07782724  1
  Mn3.34+  Mn118  1  0.41915385  0.83663164  0.42655839  1
  Mn3.34+  Mn119  1  0.41627964  0.83565709  0.75205595  1
  Mn3.34+  Mn120  1  0.75276230  0.33153737  0.08556299  1
  Mn3.34+  Mn121  1  0.74959774  0.33215323  0.41578801  1
  Mn3.34+  Mn122  1  0.74563925  0.33712423  0.75021899  1
  Mn3.34+  Mn123  1  0.75477430  0.82291196  0.08641607  1
  Mn3.34+  Mn124  1  0.74752530  0.83408845  0.42164783  1
  Mn3.34+  Mn125  1  0.74886161  0.83295135  0.74611585  1
  Mn3.34+  Mn126  1  0.25286498  0.33439860  0.25022328  1
  Mn3.34+  Mn127  1  0.24544458  0.33122531  0.58098572  1
  Mn3.34+  Mn128  1  0.25293766  0.33696044  0.91585778  1
  Mn3.34+  Mn129  1  0.24712069  0.83372323  0.24904482  1
  Mn3.34+  Mn130  1  0.24798043  0.83452337  0.58452710  1
  Mn3.34+  Mn131  1  0.25110449  0.83105238  0.91186828  1
  Mn3.34+  Mn132  1  0.57983596  0.32892197  0.25458123  1
  Mn3.34+  Mn133  1  0.58726462  0.33300332  0.58300494  1
  Mn3.34+  Mn134  1  0.58547203  0.32995766  0.90915348  1
  Mn3.34+  Mn135  1  0.58436551  0.82404184  0.25432707  1
  Mn3.34+  Mn136  1  0.58330933  0.83268809  0.58234530  1
  Mn3.34+  Mn137  1  0.57769488  0.82654177  0.91303117  1
  Mn3.34+  Mn138  1  0.92147497  0.33473251  0.24939428  1
  Mn3.34+  Mn139  1  0.91330838  0.33258002  0.58547039  1
  Mn3.34+  Mn140  1  0.91628051  0.33317660  0.91196658  1
  Mn3.34+  Mn141  1  0.91533221  0.82876370  0.25051406  1
  Mn3.34+  Mn142  1  0.91897251  0.83550340  0.58254289  1
  Mn3.34+  Mn143  1  0.92184497  0.82693316  0.91234298  1
  Mn3.34+  Mn144  1  0.74810101  0.66995588  0.41864787  1
  Mn3.34+  Mn145  1  0.91196313  0.16194947  0.24593440  1
  Mn3.34+  Mn146  1  0.92183897  0.16654656  0.24447529  1
  Mn3.34+  Mn147  1  0.91935585  0.67551947  0.24774767  1
  Mn3.34+  Mn148  1  0.41371339  0.67941942  0.41683689  1
  Mn3.34+  Mn149  1  0.08420064  0.66674360  0.75128024  1
  Mn3.34+  Mn150  1  0.42082239  0.16234153  0.41909590  1
  Mn3.34+  Mn151  1  0.25124854  0.66448385  0.91222676  1
  Mn3.34+  Mn152  1  0.08491451  0.16645307  0.74573533  1
  Mn3.34+  Mn153  1  0.08906938  0.66692538  0.41845512  1
  Mn3.34+  Mn154  1  0.59014087  0.66217759  0.58897923  1
  Mn3.34+  Mn155  1  0.07311730  0.16738041  0.74839562  1
  Mn3.34+  Mn156  1  0.58158448  0.17013248  0.91150352  1
  Mn3.34+  Mn157  1  0.91022878  0.66984746  0.24591950  1
  Mn3.34+  Mn158  1  0.42546516  0.16392480  0.75152666  1
  Mn3.34+  Mn159  1  0.08206683  0.17474334  0.41697243  1
  Mn3.34+  Mn160  1  0.91438287  0.16661864  0.57863658  1
  Mn3.34+  Mn161  1  0.24895572  0.16905698  0.25525954  1
  Mn3.34+  Mn162  1  0.41239280  0.17220892  0.08695152  1
  Mn3.34+  Mn163  1  0.41578429  0.66593443  0.75363878  1
  Mn3.34+  Mn164  1  0.24968954  0.16894673  0.57345815  1
  Mn3.34+  Mn165  1  0.25800807  0.16206687  0.91117370  1
  Mn3.34+  Mn166  1  0.75255373  0.66626283  0.75283866  1
  Mn3.34+  Mn167  1  0.07571626  0.65997980  0.41944265  1
  Mn3.34+  Mn168  1  0.23747327  0.16155382  0.57129273  1
  Mn3.34+  Mn169  1  0.91834672  0.66623993  0.91251179  1
  Mn3.34+  Mn170  1  0.24520958  0.16858753  0.91258405  1
  Mn3.34+  Mn171  1  0.42268448  0.67342479  0.41825501  1
  Mn3.34+  Mn172  1  0.74067023  0.16284405  0.74595508  1
  Mn3.34+  Mn173  1  0.57962584  0.65765294  0.58802105  1
  Mn3.34+  Mn174  1  0.42083955  0.17853197  0.08566077  1
  Mn3.34+  Mn175  1  0.58566080  0.67604992  0.24806757  1
  Mn3.34+  Mn176  1  0.41217158  0.66672594  0.07952742  1
  Mn3.34+  Mn177  1  0.24677979  0.66789733  0.24200702  1
  Mn3.34+  Mn178  1  0.74934479  0.67198254  0.08524461  1
  Mn3.34+  Mn179  1  0.75048762  0.15861012  0.74884670  1
  Mn3.34+  Mn180  1  0.58082856  0.00138128  0.24891820  1
  Mn3.34+  Mn181  1  0.09389146  0.49801801  0.08736481  1
  Mn3.34+  Mn182  1  0.58468465  0.00634194  0.90680352  1
  Mn3.34+  Mn183  1  0.75511038  -0.00295061  0.08660156  1
  Mn3.34+  Mn184  1  0.57325601  0.49686113  0.90634548  1
  Mn3.34+  Mn185  1  0.42792132  0.50173668  0.73959096  1
  Mn3.34+  Mn186  1  0.73921410  0.50111852  0.73195161  1
  Mn3.34+  Mn187  1  0.08058979  0.49664159  0.41329129  1
  Mn3.34+  Mn188  1  0.57348443  0.00060816  0.90578561  1
  Mn3.34+  Mn189  1  0.92114180  0.50276880  0.25673580  1
  Mn3.34+  Mn190  1  0.75546869  0.49924634  0.41717788  1
  Mn3.34+  Mn191  1  0.08275852  0.50203999  0.08877679  1
  Mn3.34+  Mn192  1  0.74938514  -0.00047628  0.41622401  1
  Mn3.34+  Mn193  1  0.24635473  0.49770284  0.25413486  1
  Mn3.34+  Mn194  1  0.41926994  0.49966517  0.41876303  1
  Mn3.34+  Mn195  1  0.41086606  0.49845724  0.08077134  1
  Mn3.34+  Mn196  1  0.58469860  -0.00185447  0.59627103  1
  Mn3.34+  Mn197  1  0.25307935  -0.00216638  0.91622807  1
  Mn3.34+  Mn198  1  0.58938884  0.50086445  0.24832391  1
  Mn3.34+  Mn199  1  0.41947244  -0.00149851  0.08741692  1
  Mn3.34+  Mn200  1  0.59426382  -0.00298227  0.24151675  1
  Mn3.34+  Mn201  1  0.24200071  0.49515326  0.59902984  1
  Mn3.34+  Mn202  1  0.24292842  -0.00717978  0.91783109  1
  Mn3.34+  Mn203  1  0.07879208  -0.00136245  0.74962615  1
  Mn3.34+  Mn204  1  0.91553266  0.00307243  0.91124019  1
  Mn3.34+  Mn205  1  0.07854969  0.00436046  0.42037477  1
  Mn3.34+  Mn206  1  0.59612633  0.00487381  0.59807443  1
  Mn3.34+  Mn207  1  0.08898944  0.00942942  0.41853045  1
  Mn3.34+  Mn208  1  0.58423034  0.50112203  0.90398277  1
  Mn3.34+  Mn209  1  0.40437485  0.00279333  0.09057280  1
  Mn3.34+  Mn210  1  0.26043077  0.50253840  0.91365225  1
  Mn3.34+  Mn211  1  0.25153610  0.00188214  0.25042954  1
  Mn3.34+  Mn212  1  0.92330756  0.49423040  0.59579791  1
  Mn3.34+  Mn213  1  0.92550600  -0.00241849  0.91172965  1
  Mn3.34+  Mn214  1  0.08304915  -0.00001763  0.08193960  1
  Mn3.34+  Mn215  1  0.57824193  0.49606577  0.24919865  1
  O2-  O216  1  -0.00641282  0.17416147  0.00129433  1
  O2-  O217  1  -0.00431589  0.16286828  0.33218381  1
  O2-  O218  1  -0.00521102  0.16618330  0.66632915  1
  O2-  O219  1  -0.00418686  0.66211268  -0.00798693  1
  O2-  O220  1  0.00018237  0.65605775  0.33169401  1
  O2-  O221  1  0.00075979  0.65639161  0.67396301  1
  O2-  O222  1  0.33112648  0.16528385  0.00662823  1
  O2-  O223  1  0.33469138  0.16569464  0.33195579  1
  O2-  O224  1  0.32158686  0.17020407  0.66887517  1
  O2-  O225  1  0.33683664  0.66086014  -0.00546553  1
  O2-  O226  1  0.33308017  0.65714667  0.33187538  1
  O2-  O227  1  0.33970821  0.66442324  0.66849825  1
  O2-  O228  1  0.66592618  0.15890094  -0.00858690  1
  O2-  O229  1  0.66764660  0.16654368  0.33842832  1
  O2-  O230  1  0.66716646  0.16524776  0.66653210  1
  O2-  O231  1  0.66901486  0.67062005  0.00412787  1
  O2-  O232  1  0.66541911  0.67396632  0.33376714  1
  O2-  O233  1  0.67404370  0.65280265  0.66764113  1
  O2-  O234  1  0.16753919  0.15591556  -0.00712786  1
  O2-  O235  1  0.15831764  0.17448958  0.33133451  1
  O2-  O236  1  0.16019358  0.17476222  0.65979775  1
  O2-  O237  1  0.16489243  0.66111242  -0.01377709  1
  O2-  O238  1  0.16799844  0.64772437  0.33421449  1
  O2-  O239  1  0.15636898  0.65892347  0.66570812  1
  O2-  O240  1  0.50478263  0.16443385  0.00637281  1
  O2-  O241  1  0.49616051  0.16178285  0.33918659  1
  O2-  O242  1  0.49068364  0.16481653  0.66639583  1
  O2-  O243  1  0.50343820  0.66092455  0.01018154  1
  O2-  O244  1  0.49635219  0.66251761  0.32824372  1
  O2-  O245  1  0.49809763  0.65540724  0.66856156  1
  O2-  O246  1  0.83558120  0.17183195  -0.00436262  1
  O2-  O247  1  0.83782400  0.15724516  0.33049974  1
  O2-  O248  1  0.83391966  0.15749167  0.66995213  1
  O2-  O249  1  0.83130598  0.67151472  -0.00391907  1
  O2-  O250  1  0.82910329  0.67149312  0.33061821  1
  O2-  O251  1  0.83391525  0.65706139  0.67412537  1
  O2-  O252  1  -0.00106741  0.34892504  -0.00118262  1
  O2-  O253  1  0.00006896  0.32515023  0.33665301  1
  O2-  O254  1  -0.00271215  0.32974621  0.67247722  1
  O2-  O255  1  -0.00604994  0.83192040  0.00418779  1
  O2-  O256  1  -0.00065497  0.84365074  0.33396609  1
  O2-  O257  1  0.00370733  0.84436131  0.66272736  1
  O2-  O258  1  0.32990508  0.32818995  0.00646065  1
  O2-  O259  1  0.32945966  0.34026328  0.33953239  1
  O2-  O260  1  0.33036242  0.34087525  0.66482214  1
  O2-  O261  1  0.33382804  0.82898123  -0.00658503  1
  O2-  O262  1  0.33267933  0.83362485  0.33891202  1
  O2-  O263  1  0.33413715  0.84301787  0.66234231  1
  O2-  O264  1  0.66729996  0.34459851  0.00356622  1
  O2-  O265  1  0.66903844  0.34649084  0.32985683  1
  O2-  O266  1  0.66865903  0.33980298  0.66340371  1
  O2-  O267  1  0.66820732  0.82992838  -0.00162779  1
  O2-  O268  1  0.66848362  0.81474443  0.33461205  1
  O2-  O269  1  0.66679238  0.84827273  0.66666349  1
  O2-  O270  1  0.16288505  0.34860561  -0.00550256  1
  O2-  O271  1  0.16863566  0.32773329  0.33659824  1
  O2-  O272  1  0.16837042  0.30957763  0.66749947  1
  O2-  O273  1  0.16957178  0.83391531  -0.00443874  1
  O2-  O274  1  0.16398932  0.85057412  0.33353411  1
  O2-  O275  1  0.16299259  0.84636858  0.66491237  1
  O2-  O276  1  0.50402841  0.33017051  0.00484634  1
  O2-  O277  1  0.50313679  0.34065922  0.33987103  1
  O2-  O278  1  0.49597096  0.33731402  0.66110086  1
  O2-  O279  1  0.50888595  0.83590197  0.00786350  1
  O2-  O280  1  0.49169231  0.82153432  0.33116682  1
  O2-  O281  1  0.49728242  0.84246147  0.66175056  1
  O2-  O282  1  0.83309635  0.34780759  -0.00210429  1
  O2-  O283  1  0.83718774  0.34493424  0.33590384  1
  O2-  O284  1  0.83526926  0.34855520  0.67009744  1
  O2-  O285  1  0.83146186  0.82962711  -0.00470258  1
  O2-  O286  1  0.83199842  0.82613822  0.33418675  1
  O2-  O287  1  0.83548841  0.84378965  0.66564666  1
  O2-  O288  1  0.00256528  0.17586100  0.17297370  1
  O2-  O289  1  -0.00631605  0.18636825  0.49084132  1
  O2-  O290  1  0.00468968  0.18621656  0.83142547  1
  O2-  O291  1  0.00225025  0.68248542  0.17061181  1
  O2-  O292  1  0.00138373  0.67153693  0.50286880  1
  O2-  O293  1  0.00257049  0.68058670  0.83823191  1
  O2-  O294  1  0.33306466  0.18116949  0.16872334  1
  O2-  O295  1  0.33463827  0.18098807  0.50110185  1
  O2-  O296  1  0.33123077  0.17659846  0.82857760  1
  O2-  O297  1  0.34100361  0.67231973  0.17350060  1
  O2-  O298  1  0.32675777  0.68188247  0.49092128  1
  O2-  O299  1  0.33427322  0.67444928  0.83412716  1
  O2-  O300  1  0.66806760  0.17462932  0.16970122  1
  O2-  O301  1  0.66309664  0.17843577  0.48516698  1
  O2-  O302  1  0.66877998  0.17490626  0.83289892  1
  O2-  O303  1  0.66299949  0.69278331  0.16315214  1
  O2-  O304  1  0.66114539  0.67910835  0.49695395  1
  O2-  O305  1  0.68013346  0.67354750  0.84160504  1
  O2-  O306  1  0.17065180  0.17401033  0.17312305  1
  O2-  O307  1  0.16292086  0.19550132  0.49738736  1
  O2-  O308  1  0.16760864  0.18222136  0.82314808  1
  O2-  O309  1  0.16755516  0.67478762  0.16971789  1
  O2-  O310  1  0.17139165  0.66799306  0.49620292  1
  O2-  O311  1  0.16257920  0.67580280  0.83625001  1
  O2-  O312  1  0.50533569  0.18030995  0.16175445  1
  O2-  O313  1  0.49867808  0.17388187  0.49709973  1
  O2-  O314  1  0.49854546  0.18491670  0.83565614  1
  O2-  O315  1  0.49874990  0.67406376  0.17056629  1
  O2-  O316  1  0.50264293  0.68339726  0.50059649  1
  O2-  O317  1  0.49199134  0.68312524  0.83840789  1
  O2-  O318  1  0.83087661  0.17243524  0.17245988  1
  O2-  O319  1  0.83788655  0.17362069  0.49832152  1
  O2-  O320  1  0.82719962  0.17334674  0.82720667  1
  O2-  O321  1  0.83063667  0.68907100  0.16406523  1
  O2-  O322  1  0.82788458  0.67993999  0.49363982  1
  O2-  O323  1  0.83561644  0.68058165  0.83445163  1
  O2-  O324  1  -0.00856860  0.32903772  0.15682463  1
  O2-  O325  1  -0.00691079  0.32105629  0.49459844  1
  O2-  O326  1  0.00498296  0.32087006  0.83652546  1
  O2-  O327  1  0.00086577  0.82059282  0.17204689  1
  O2-  O328  1  0.00276867  0.82742477  0.50088421  1
  O2-  O329  1  -0.00461981  0.81412573  0.82795790  1
  O2-  O330  1  0.33303984  0.31764591  0.16415036  1
  O2-  O331  1  0.33437371  0.32325865  0.50342728  1
  O2-  O332  1  0.33288220  0.33002828  0.83117239  1
  O2-  O333  1  0.34245112  0.83394307  0.17975770  1
  O2-  O334  1  0.33067706  0.82479950  0.49929684  1
  O2-  O335  1  0.32912395  0.81980742  0.82547484  1
  O2-  O336  1  0.66523042  0.32803657  0.16418115  1
  O2-  O337  1  0.66494717  0.33003275  0.49685473  1
  O2-  O338  1  0.67745057  0.32719077  0.84372904  1
  O2-  O339  1  0.66046056  0.81466588  0.16099249  1
  O2-  O340  1  0.67273169  0.81387009  0.50539900  1
  O2-  O341  1  0.66810428  0.82040160  0.83721483  1
  O2-  O342  1  0.17059756  0.32522738  0.16250435  1
  O2-  O343  1  0.16858798  0.31293638  0.49587036  1
  O2-  O344  1  0.16539953  0.32467769  0.82990666  1
  O2-  O345  1  0.15927338  0.83579027  0.17429912  1
  O2-  O346  1  0.16361772  0.82561161  0.50148680  1
  O2-  O347  1  0.16972387  0.81907888  0.82883023  1
  O2-  O348  1  0.50801798  0.31813012  0.15943335  1
  O2-  O349  1  0.49622885  0.32734759  0.50350080  1
  O2-  O350  1  0.50680897  0.32220173  0.82777388  1
  O2-  O351  1  0.50569877  0.82623294  0.16873049  1
  O2-  O352  1  0.49694056  0.81221388  0.50138772  1
  O2-  O353  1  0.50270049  0.81713196  0.82888226  1
  O2-  O354  1  0.83454251  0.33170837  0.16495240  1
  O2-  O355  1  0.83063526  0.32739752  0.50113707  1
  O2-  O356  1  0.83602098  0.33050222  0.83153399  1
  O2-  O357  1  0.83582380  0.81091984  0.16768039  1
  O2-  O358  1  0.83530817  0.82460215  0.49988977  1
  O2-  O359  1  0.82761623  0.82020926  0.83915420  1
  O2-  O360  1  0.08981517  0.07639821  0.10886361  1
  O2-  O361  1  0.07499007  0.09008817  0.43427546  1
  O2-  O362  1  0.08191733  0.07961336  0.78206701  1
  O2-  O363  1  0.07074419  0.58319298  0.10029049  1
  O2-  O364  1  0.09222039  0.57769348  0.45529688  1
  O2-  O365  1  0.07148601  0.58388994  0.77860522  1
  O2-  O366  1  0.41276226  0.08460605  0.11372964  1
  O2-  O367  1  0.42309981  0.08244268  0.43538089  1
  O2-  O368  1  0.40528653  0.08413581  0.75925327  1
  O2-  O369  1  0.42981390  0.57951298  0.11418982  1
  O2-  O370  1  0.40335917  0.58494739  0.45124880  1
  O2-  O371  1  0.42286218  0.57911386  0.77617449  1
  O2-  O372  1  0.73705112  0.07539903  0.11278712  1
  O2-  O373  1  0.75196233  0.07744735  0.43530500  1
  O2-  O374  1  0.75733314  0.07926706  0.77637810  1
  O2-  O375  1  0.72534763  0.58544262  0.11223836  1
  O2-  O376  1  0.75102944  0.58081854  0.44399792  1
  O2-  O377  1  0.75701230  0.57654643  0.78354416  1
  O2-  O378  1  0.25054056  0.08319206  0.23057738  1
  O2-  O379  1  0.26444182  0.07942152  0.58428742  1
  O2-  O380  1  0.24438802  0.07815809  0.87448387  1
  O2-  O381  1  0.26046474  0.58126473  0.22416531  1
  O2-  O382  1  0.25067556  0.56749735  0.55062567  1
  O2-  O383  1  0.23632147  0.58161701  0.89076889  1
  O2-  O384  1  0.57254769  0.08055125  0.22903971  1
  O2-  O385  1  0.58021425  0.07678846  0.55390359  1
  O2-  O386  1  0.57619894  0.08706985  0.89743621  1
  O2-  O387  1  0.58762338  0.58322007  0.21898269  1
  O2-  O388  1  0.58234985  0.58036207  0.54960085  1
  O2-  O389  1  0.59278964  0.58438619  0.90878164  1
  O2-  O390  1  0.92407346  0.08135129  0.23999224  1
  O2-  O391  1  0.92133277  0.08417254  0.56126455  1
  O2-  O392  1  0.92363366  0.08211489  0.88219361  1
  O2-  O393  1  0.90662542  0.58292325  0.21294672  1
  O2-  O394  1  0.92599117  0.56856865  0.55220557  1
  O2-  O395  1  0.90542836  0.58436896  0.89744937  1
  O2-  O396  1  0.09185114  0.41648060  0.10141520  1
  O2-  O397  1  0.08798025  0.41695040  0.43284018  1
  O2-  O398  1  0.08345758  0.42167563  0.77601903  1
  O2-  O399  1  0.06718906  0.91933399  0.11034161  1
  O2-  O400  1  0.08880836  0.92323328  0.45227027  1
  O2-  O401  1  0.07630327  0.91696309  0.76064328  1
  O2-  O402  1  0.43656540  0.41894112  0.10163539  1
  O2-  O403  1  0.41594150  0.41753619  0.44702540  1
  O2-  O404  1  0.40542976  0.42082813  0.75284989  1
  O2-  O405  1  0.43542517  0.91831572  0.11371367  1
  O2-  O406  1  0.40586682  0.91706890  0.42135788  1
  O2-  O407  1  0.42618746  0.91429776  0.76328304  1
  O2-  O408  1  0.74956499  0.41869426  0.10623722  1
  O2-  O409  1  0.75052594  0.41932672  0.44001235  1
  O2-  O410  1  0.75737769  0.42760324  0.77612029  1
  O2-  O411  1  0.73656140  0.91458213  0.11473785  1
  O2-  O412  1  0.75943641  0.91977083  0.44436654  1
  O2-  O413  1  0.75148714  0.91570265  0.77779583  1
  O2-  O414  1  0.25128954  0.41703131  0.22777677  1
  O2-  O415  1  0.26173542  0.42235600  0.55649453  1
  O2-  O416  1  0.23280008  0.42225145  0.88684716  1
  O2-  O417  1  0.26174510  0.91887589  0.23655601  1
  O2-  O418  1  0.23033960  0.92035496  0.55962087  1
  O2-  O419  1  0.25269265  0.91369972  0.88560055  1
  O2-  O420  1  0.58405442  0.41549901  0.22147326  1
  O2-  O421  1  0.57023907  0.41774460  0.55839659  1
  O2-  O422  1  0.57906871  0.41468930  0.91384712  1
  O2-  O423  1  0.59038960  0.91585500  0.22824254  1
  O2-  O424  1  0.58568606  0.92355788  0.55804319  1
  O2-  O425  1  0.59812364  0.91755239  0.89227486  1
  O2-  O426  1  0.91079916  0.42321272  0.22054671  1
  O2-  O427  1  0.91091660  0.41836198  0.56069766  1
  O2-  O428  1  0.93229735  0.41860285  0.89242988  1
  O2-  O429  1  0.92044965  0.91827123  0.22068943  1
  O2-  O430  1  0.93233393  0.91977480  0.55946624  1
  O2-  O431  1  0.90121861  0.91600814  0.89078556  1
  O2-  O432  1  -0.00527385  0.00246838  0.00514745  1
  O2-  O433  1  0.00494222  -0.01366768  0.33381284  1
  O2-  O434  1  -0.00334618  -0.00437790  0.67839921  1
  O2-  O435  1  -0.00020708  0.49721579  0.00617399  1
  O2-  O436  1  -0.01155488  0.51656879  0.35007137  1
  O2-  O437  1  -0.00008576  0.51087954  0.66823706  1
  O2-  O438  1  0.33295551  0.00544082  0.00012628  1
  O2-  O439  1  0.34671198  -0.00291400  0.30542313  1
  O2-  O440  1  0.32806835  -0.01279645  0.68456336  1
  O2-  O441  1  0.32736329  0.49670862  0.00504230  1
  O2-  O442  1  0.33596182  0.51916849  0.33211492  1
  O2-  O443  1  0.32700249  0.50229684  0.66993525  1
  O2-  O444  1  0.65993259  -0.00817866  0.00346801  1
  O2-  O445  1  0.67201547  0.00006753  0.32993564  1
  O2-  O446  1  0.68491257  -0.00991415  0.65570083  1
  O2-  O447  1  0.66999442  0.50460876  -0.01449689  1
  O2-  O448  1  0.65990643  0.50526488  0.34331451  1
  O2-  O449  1  0.68418889  0.50296940  0.64296211  1
  O2-  O450  1  0.16606734  0.01251314  0.00045059  1
  O2-  O451  1  0.16098179  -0.00820277  0.32383743  1
  O2-  O452  1  0.17077660  -0.00294805  0.68908611  1
  O2-  O453  1  0.15210380  0.50162975  -0.01973771  1
  O2-  O454  1  0.17910144  0.51332244  0.35250932  1
  O2-  O455  1  0.15681142  0.50686891  0.65765056  1
  O2-  O456  1  0.50100088  -0.00330478  0.00249710  1
  O2-  O457  1  0.49548627  -0.00412801  0.31762047  1
  O2-  O458  1  0.48581852  0.00076500  0.64089769  1
  O2-  O459  1  0.51073050  0.51140507  0.00953575  1
  O2-  O460  1  0.49822724  0.52203551  0.32996472  1
  O2-  O461  1  0.48089830  0.49887872  0.64400390  1
  O2-  O462  1  0.82236857  -0.00678438  -0.01358862  1
  O2-  O463  1  0.84200519  -0.00218737  0.35530257  1
  O2-  O464  1  0.84651581  -0.00816938  0.67955670  1
  O2-  O465  1  0.84139039  0.50017630  0.01551681  1
  O2-  O466  1  0.82291419  0.50703976  0.32178131  1
  O2-  O467  1  0.84090228  0.50798285  0.67438291  1
  O2-  O468  1  0.58748749  0.25272223  0.58959989  1
  O2-  O469  1  0.74879787  0.74925943  0.73035734  1
  O2-  O470  1  0.91035113  0.24726985  0.26144155  1
  O2-  O471  1  0.24655629  0.74999495  0.26704353  1
  O2-  O472  1  0.25062293  0.25113633  0.92606138  1
  O2-  O473  1  0.25175512  0.25176176  0.26047961  1
  O2-  O474  1  0.59071479  0.25041221  0.93510485  1
  O2-  O475  1  0.41516798  0.25176660  0.40370520  1
  O2-  O476  1  0.41782395  0.74933686  0.08134034  1
  O2-  O477  1  0.90786512  0.25093406  0.60080039  1
  O2-  O478  1  0.58437839  0.25237346  0.26800440  1
  O2-  O479  1  0.92017438  0.75502007  0.59429239  1
  O2-  O480  1  0.74880863  0.25362490  0.40396637  1
  O2-  O481  1  0.75291811  0.25349561  0.06830417  1
  O2-  O482  1  0.58576091  0.74371180  0.60983180  1
  O2-  O483  1  0.41434132  0.25317332  0.74149520  1
  O2-  O484  1  0.25015344  0.74773001  0.92759705  1
  O2-  O485  1  0.75132393  0.24689750  0.73775961  1
  O2-  O486  1  0.08401161  0.75084844  0.73038127  1
  O2-  O487  1  0.09120122  0.75435808  0.07436848  1
  O2-  O488  1  0.41582332  0.74973380  0.73397059  1
  O2-  O489  1  0.08435700  0.74827984  0.39860858  1
  O2-  O490  1  0.91050910  0.25475981  0.93122622  1
  O2-  O491  1  0.24409588  0.75537850  0.59621950  1
  O2-  O492  1  0.08545473  0.25388422  0.07240132  1
