# generated using pymatgen
data_Ca108Mn108O277
_symmetry_space_group_name_H-M   'P 1'
_cell_length_a   16.03390246
_cell_length_b   22.31610313
_cell_length_c   16.39552052
_cell_angle_alpha   89.99537719
_cell_angle_beta   89.99652715
_cell_angle_gamma   90.00359116
_symmetry_Int_Tables_number   1
_chemical_formula_structural   Ca108Mn108O277
_chemical_formula_sum   'Ca108 Mn108 O277'
_cell_volume   5866.55035804
_cell_formula_units_Z   1
loop_
 _symmetry_equiv_pos_site_id
 _symmetry_equiv_pos_as_xyz
  1  'x, y, z'
loop_
 _atom_type_symbol
 _atom_type_oxidation_number
  Ca2+  2.0
  Mn3.34+  3.34
  O2-  -2.0
loop_
 _atom_site_type_symbol
 _atom_site_label
 _atom_site_symmetry_multiplicity
 _atom_site_fract_x
 _atom_site_fract_y
 _atom_site_fract_z
 _atom_site_occupancy
  Ca2+  Ca0  1  0.06688712  0.23073367  0.27691838  1
  Ca2+  Ca1  1  0.06806837  0.24482957  0.55485785  1
  Ca2+  Ca2  1  0.07190647  0.26081992  0.90934342  1
  Ca2+  Ca3  1  0.06959907  0.75351085  0.22291473  1
  Ca2+  Ca4  1  0.06687747  0.75990080  0.58791556  1
  Ca2+  Ca5  1  0.07134477  0.75349698  0.92972763  1
  Ca2+  Ca6  1  0.43259282  0.24213236  0.26750668  1
  Ca2+  Ca7  1  0.42998972  0.24030977  0.56120540  1
  Ca2+  Ca8  1  0.43192317  0.25748965  0.91738096  1
  Ca2+  Ca9  1  0.41703010  0.75788207  0.25308134  1
  Ca2+  Ca10  1  0.43052277  0.75295532  0.59045383  1
  Ca2+  Ca11  1  0.41842368  0.75307904  0.89451894  1
  Ca2+  Ca12  1  0.74955464  0.24775214  0.25878428  1
  Ca2+  Ca13  1  0.74467413  0.26026634  0.56633651  1
  Ca2+  Ca14  1  0.74667283  0.26184171  0.92024513  1
  Ca2+  Ca15  1  0.76719770  0.75419285  0.24440876  1
  Ca2+  Ca16  1  0.74631895  0.74563044  0.58570225  1
  Ca2+  Ca17  1  0.75953620  0.76018615  0.92310115  1
  Ca2+  Ca18  1  0.25762133  0.25501382  0.09770674  1
  Ca2+  Ca19  1  0.25984973  0.22546844  0.41076004  1
  Ca2+  Ca20  1  0.25303053  0.24979842  0.74428184  1
  Ca2+  Ca21  1  0.22624047  0.74866757  0.09778367  1
  Ca2+  Ca22  1  0.25970136  0.76278627  0.40885397  1
  Ca2+  Ca23  1  0.26433902  0.75365956  0.74498387  1
  Ca2+  Ca24  1  0.58897459  0.25177314  0.09329205  1
  Ca2+  Ca25  1  0.58570701  0.24401793  0.41915883  1
  Ca2+  Ca26  1  0.57367747  0.24086769  0.73213631  1
  Ca2+  Ca27  1  0.59067146  0.76133941  0.09233491  1
  Ca2+  Ca28  1  0.58223892  0.75981042  0.41942259  1
  Ca2+  Ca29  1  0.56781203  0.74934901  0.73856766  1
  Ca2+  Ca30  1  0.90254307  0.24732355  0.09140340  1
  Ca2+  Ca31  1  0.90637973  0.21623549  0.40661709  1
  Ca2+  Ca32  1  0.91686680  0.26561358  0.74381215  1
  Ca2+  Ca33  1  0.92475265  0.74317165  0.10314318  1
  Ca2+  Ca34  1  0.90619660  0.74883589  0.40429349  1
  Ca2+  Ca35  1  0.92553849  0.75485323  0.74759296  1
  Ca2+  Ca36  1  0.56805048  0.59584912  0.74840234  1
  Ca2+  Ca37  1  0.25939042  0.08284623  0.10154087  1
  Ca2+  Ca38  1  0.58394381  0.11212480  0.10413453  1
  Ca2+  Ca39  1  0.05912241  0.07982090  0.91272019  1
  Ca2+  Ca40  1  0.74019432  0.11004549  0.55208214  1
  Ca2+  Ca41  1  0.94057883  0.57494183  0.73499948  1
  Ca2+  Ca42  1  0.89239598  0.10020373  0.09224327  1
  Ca2+  Ca43  1  0.06623330  0.61385556  0.22867978  1
  Ca2+  Ca44  1  0.90254461  0.60113144  0.41438586  1
  Ca2+  Ca45  1  0.42246690  0.59249603  0.59699953  1
  Ca2+  Ca46  1  0.73163670  0.11405543  0.55005756  1
  Ca2+  Ca47  1  0.58376530  0.10943020  0.41785129  1
  Ca2+  Ca48  1  0.44024894  0.10076893  0.85337611  1
  Ca2+  Ca49  1  0.09835547  0.07904052  0.30607559  1
  Ca2+  Ca50  1  0.73152109  0.10919179  0.26094566  1
  Ca2+  Ca51  1  0.06916069  0.60727469  0.23539883  1
  Ca2+  Ca52  1  0.41897588  0.59474031  0.23677516  1
  Ca2+  Ca53  1  0.42740962  0.09446984  0.59970167  1
  Ca2+  Ca54  1  0.74209515  0.09513225  0.93268527  1
  Ca2+  Ca55  1  0.57408754  0.57758257  0.07601990  1
  Ca2+  Ca56  1  0.93056324  0.57783137  0.73231209  1
  Ca2+  Ca57  1  0.42508305  0.56717158  0.93905034  1
  Ca2+  Ca58  1  0.26792476  0.58811159  0.41185163  1
  Ca2+  Ca59  1  0.77331923  0.60653822  0.25219006  1
  Ca2+  Ca60  1  0.25898587  0.58770515  0.74530225  1
  Ca2+  Ca61  1  0.41555675  0.08498297  0.30179148  1
  Ca2+  Ca62  1  0.08943181  0.58337931  0.92750101  1
  Ca2+  Ca63  1  0.72731816  0.56392934  0.93869271  1
  Ca2+  Ca64  1  0.42599823  0.08483521  0.30039833  1
  Ca2+  Ca65  1  0.07221325  0.07666632  0.91727384  1
  Ca2+  Ca66  1  0.43227894  0.10412259  0.85905454  1
  Ca2+  Ca67  1  0.24020384  0.59682214  0.08590414  1
  Ca2+  Ca68  1  0.08615096  0.57869541  0.60014538  1
  Ca2+  Ca69  1  0.43678166  0.56662830  0.93726795  1
  Ca2+  Ca70  1  0.24712302  0.08273296  0.10178873  1
  Ca2+  Ca71  1  0.92072645  0.60125056  0.09134088  1
  Ca2+  Ca72  1  0.26632972  0.91670060  0.74364974  1
  Ca2+  Ca73  1  0.07520957  0.40931196  0.90185662  1
  Ca2+  Ca74  1  0.09244343  0.91654519  0.58629070  1
  Ca2+  Ca75  1  0.56926806  0.42504980  0.05772770  1
  Ca2+  Ca76  1  0.90432512  0.40256863  0.07181295  1
  Ca2+  Ca77  1  0.41478553  0.91861800  0.27910375  1
  Ca2+  Ca78  1  0.90848452  0.90668579  0.07963649  1
  Ca2+  Ca79  1  0.28142510  0.41403431  0.07401175  1
  Ca2+  Ca80  1  0.11566555  0.92128553  0.26028137  1
  Ca2+  Ca81  1  0.26113820  0.89961054  0.09051860  1
  Ca2+  Ca82  1  0.55089273  0.91973650  0.74331641  1
  Ca2+  Ca83  1  0.27780499  0.91933742  0.74560572  1
  Ca2+  Ca84  1  0.74102074  0.90482286  0.58291636  1
  Ca2+  Ca85  1  0.91522293  0.40226761  0.07098236  1
  Ca2+  Ca86  1  0.91780222  0.39396229  0.42701584  1
  Ca2+  Ca87  1  0.89878617  0.90346553  0.08247741  1
  Ca2+  Ca88  1  0.92351951  0.91476468  0.41719769  1
  Ca2+  Ca89  1  0.26165735  0.39489420  0.43288195  1
  Ca2+  Ca90  1  0.55902091  0.42471949  0.05543296  1
  Ca2+  Ca91  1  0.26552342  0.95901738  0.39564945  1
  Ca2+  Ca92  1  0.75370426  0.90622437  0.58424399  1
  Ca2+  Ca93  1  0.58583142  0.39912361  0.76074682  1
  Ca2+  Ca94  1  0.08826883  0.90757152  0.91699494  1
  Ca2+  Ca95  1  0.42912077  0.90096166  0.91531027  1
  Ca2+  Ca96  1  0.24425752  0.40699807  0.73889089  1
  Ca2+  Ca97  1  0.93546330  0.91209223  0.41987362  1
  Ca2+  Ca98  1  0.41770038  0.39306238  0.58415402  1
  Ca2+  Ca99  1  0.92543596  0.90628170  0.74232849  1
  Ca2+  Ca100  1  0.42066688  0.40976334  0.91287638  1
  Ca2+  Ca101  1  0.90702821  0.39433079  0.42795619  1
  Ca2+  Ca102  1  0.25216824  0.39838343  0.42990284  1
  Ca2+  Ca103  1  0.07420405  0.42251059  0.61432678  1
  Ca2+  Ca104  1  0.10598715  0.91850685  0.26402554  1
  Ca2+  Ca105  1  0.08535850  0.39682469  0.24451799  1
  Ca2+  Ca106  1  0.27251762  0.41745166  0.07058780  1
  Ca2+  Ca107  1  0.73388980  0.90902229  0.93103010  1
  Mn3.34+  Mn108  1  0.08600711  0.33441129  0.08150973  1
  Mn3.34+  Mn109  1  0.08547348  0.33152751  0.41932200  1
  Mn3.34+  Mn110  1  0.08129406  0.33694838  0.74893633  1
  Mn3.34+  Mn111  1  0.08370171  0.83824805  0.08336086  1
  Mn3.34+  Mn112  1  0.09140088  0.83778600  0.42231592  1
  Mn3.34+  Mn113  1  0.08983771  0.83199062  0.75182832  1
  Mn3.34+  Mn114  1  0.42323287  0.32927141  0.08713565  1
  Mn3.34+  Mn115  1  0.42792687  0.33179947  0.41270175  1
  Mn3.34+  Mn116  1  0.41690559  0.32863387  0.75131419  1
  Mn3.34+  Mn117  1  0.41807661  0.82259214  0.08245447  1
  Mn3.34+  Mn118  1  0.41838484  0.84302766  0.42465179  1
  Mn3.34+  Mn119  1  0.41821505  0.83266008  0.74555429  1
  Mn3.34+  Mn120  1  0.74246946  0.33399954  0.08817841  1
  Mn3.34+  Mn121  1  0.74127298  0.33090408  0.41052757  1
  Mn3.34+  Mn122  1  0.74845731  0.33746785  0.74665697  1
  Mn3.34+  Mn123  1  0.74244703  0.83188346  0.08678854  1
  Mn3.34+  Mn124  1  0.74791181  0.83655039  0.41634987  1
  Mn3.34+  Mn125  1  0.74469309  0.83227329  0.75724985  1
  Mn3.34+  Mn126  1  0.25500090  0.33187219  0.24911010  1
  Mn3.34+  Mn127  1  0.24819370  0.32097278  0.58625125  1
  Mn3.34+  Mn128  1  0.24997280  0.33242985  0.91140406  1
  Mn3.34+  Mn129  1  0.25464834  0.83208203  0.25116068  1
  Mn3.34+  Mn130  1  0.25529376  0.84353681  0.57093530  1
  Mn3.34+  Mn131  1  0.25024602  0.83214977  0.91600226  1
  Mn3.34+  Mn132  1  0.58561961  0.34595307  0.24872410  1
  Mn3.34+  Mn133  1  0.58695909  0.33255394  0.58027911  1
  Mn3.34+  Mn134  1  0.58745302  0.33415182  0.91346888  1
  Mn3.34+  Mn135  1  0.58515651  0.83764953  0.25274982  1
  Mn3.34+  Mn136  1  0.57795936  0.83597525  0.57915933  1
  Mn3.34+  Mn137  1  0.58383062  0.83158930  0.91315222  1
  Mn3.34+  Mn138  1  0.91393187  0.32827157  0.24877733  1
  Mn3.34+  Mn139  1  0.91374069  0.33126865  0.59025477  1
  Mn3.34+  Mn140  1  0.90940126  0.33230572  0.90928245  1
  Mn3.34+  Mn141  1  0.91605055  0.83589697  0.24878005  1
  Mn3.34+  Mn142  1  0.91725906  0.83141832  0.58055345  1
  Mn3.34+  Mn143  1  0.91462331  0.83577484  0.90988166  1
  Mn3.34+  Mn144  1  0.25693225  0.67494318  0.58172697  1
  Mn3.34+  Mn145  1  0.25441632  0.16583534  0.25326907  1
  Mn3.34+  Mn146  1  0.90438257  0.66947212  0.91588787  1
  Mn3.34+  Mn147  1  0.91154531  0.16814178  0.91600616  1
  Mn3.34+  Mn148  1  0.25956557  0.16198826  0.57922066  1
  Mn3.34+  Mn149  1  0.91387971  0.65995988  0.91057868  1
  Mn3.34+  Mn150  1  0.08115309  0.66679744  0.42272794  1
  Mn3.34+  Mn151  1  0.74245353  0.16301648  0.75384227  1
  Mn3.34+  Mn152  1  0.42240779  0.65919756  0.42341616  1
  Mn3.34+  Mn153  1  0.24472884  0.66916023  0.91433242  1
  Mn3.34+  Mn154  1  0.75112131  0.66492112  0.08570946  1
  Mn3.34+  Mn155  1  0.07781469  0.16500162  0.08976832  1
  Mn3.34+  Mn156  1  0.75583120  0.16940885  0.75071203  1
  Mn3.34+  Mn157  1  0.25573212  0.67056852  0.25186537  1
  Mn3.34+  Mn158  1  0.25952705  0.17011407  0.91784734  1
  Mn3.34+  Mn159  1  0.74947933  0.65581899  0.75117660  1
  Mn3.34+  Mn160  1  0.41454656  0.66806611  0.08474842  1
  Mn3.34+  Mn161  1  0.74438445  0.66541363  0.42599760  1
  Mn3.34+  Mn162  1  0.08442744  0.16591514  0.74120192  1
  Mn3.34+  Mn163  1  0.07484551  0.16002815  0.74320018  1
  Mn3.34+  Mn164  1  0.24565177  0.16475135  0.91181580  1
  Mn3.34+  Mn165  1  0.08745078  0.17053515  0.08698447  1
  Mn3.34+  Mn166  1  0.09042122  0.67233279  0.41992868  1
  Mn3.34+  Mn167  1  0.74410452  0.17141353  0.08935526  1
  Mn3.34+  Mn168  1  0.25505450  0.67791852  0.91628863  1
  Mn3.34+  Mn169  1  0.58667873  0.66861688  0.57735248  1
  Mn3.34+  Mn170  1  0.57892334  0.66674722  0.25178603  1
  Mn3.34+  Mn171  1  0.24775361  0.66926596  0.57962239  1
  Mn3.34+  Mn172  1  0.58454513  0.17198155  0.92050530  1
  Mn3.34+  Mn173  1  0.91148686  0.66733223  0.58131526  1
  Mn3.34+  Mn174  1  0.91483542  0.16146087  0.57853950  1
  Mn3.34+  Mn175  1  0.59248709  0.67809890  0.91877818  1
  Mn3.34+  Mn176  1  0.58455074  0.66740813  0.91469529  1
  Mn3.34+  Mn177  1  0.41855543  0.16791414  0.08450733  1
  Mn3.34+  Mn178  1  0.59006549  0.66081655  0.24947199  1
  Mn3.34+  Mn179  1  0.08289499  0.66779480  0.75214177  1
  Mn3.34+  Mn180  1  0.44421192  -0.00431918  0.08696505  1
  Mn3.34+  Mn181  1  0.75151996  0.49942025  0.09522283  1
  Mn3.34+  Mn182  1  0.08174703  0.49679070  0.07635361  1
  Mn3.34+  Mn183  1  0.58457892  -0.01059891  0.26140260  1
  Mn3.34+  Mn184  1  0.75602948  0.00402465  0.75134457  1
  Mn3.34+  Mn185  1  0.72978507  0.49676673  0.41673879  1
  Mn3.34+  Mn186  1  0.25150386  0.50477493  0.25634078  1
  Mn3.34+  Mn187  1  0.43225959  0.49728885  0.41358253  1
  Mn3.34+  Mn188  1  0.60345923  0.50215216  0.58568787  1
  Mn3.34+  Mn189  1  0.90526295  0.49222887  0.25335553  1
  Mn3.34+  Mn190  1  0.58759092  0.00324118  0.91504418  1
  Mn3.34+  Mn191  1  0.74254411  -0.00178693  0.75358180  1
  Mn3.34+  Mn192  1  0.25094610  0.50308078  0.58680797  1
  Mn3.34+  Mn193  1  0.08317150  -0.00238032  0.74033642  1
  Mn3.34+  Mn194  1  0.91949140  0.49828484  0.25244620  1
  Mn3.34+  Mn195  1  0.08483807  0.50119826  0.42257299  1
  Mn3.34+  Mn196  1  0.73522887  -0.00197512  0.40532380  1
  Mn3.34+  Mn197  1  0.90956293  0.00835397  0.26035303  1
  Mn3.34+  Mn198  1  0.89663528  -0.00051270  0.92253467  1
  Mn3.34+  Mn199  1  0.90404819  0.50167179  0.58176024  1
  Mn3.34+  Mn200  1  0.89876773  0.00372564  0.26087122  1
  Mn3.34+  Mn201  1  0.58803806  0.50288636  0.58381526  1
  Mn3.34+  Mn202  1  0.92364825  0.00855049  0.59082779  1
  Mn3.34+  Mn203  1  0.43358067  -0.00170603  0.08916242  1
  Mn3.34+  Mn204  1  0.24576911  0.49692799  0.90862398  1
  Mn3.34+  Mn205  1  0.41740134  0.49748122  0.74553252  1
  Mn3.34+  Mn206  1  0.57433279  0.49731239  0.26260756  1
  Mn3.34+  Mn207  1  0.74992879  0.49712919  0.75346454  1
  Mn3.34+  Mn208  1  0.26366235  0.00440960  0.92473852  1
  Mn3.34+  Mn209  1  0.74126935  0.50382689  0.42051774  1
  Mn3.34+  Mn210  1  0.07102231  0.00391248  0.07638741  1
  Mn3.34+  Mn211  1  0.25480769  0.00193471  0.58809573  1
  Mn3.34+  Mn212  1  0.57440341  -0.00339709  0.58918211  1
  Mn3.34+  Mn213  1  0.90943895  0.49952847  0.91887531  1
  Mn3.34+  Mn214  1  0.26344774  0.49691616  0.25977819  1
  Mn3.34+  Mn215  1  0.73853367  0.00093512  0.08446942  1
  O2-  O216  1  0.00116856  0.14078488  0.00663075  1
  O2-  O217  1  0.00327911  0.14980891  0.34496155  1
  O2-  O218  1  -0.00246220  0.14608447  0.66278160  1
  O2-  O219  1  -0.00347591  0.64479732  -0.01191396  1
  O2-  O220  1  0.00043526  0.65594259  0.33891519  1
  O2-  O221  1  0.00121117  0.64939763  0.66071364  1
  O2-  O222  1  0.32730351  0.13728425  0.00485539  1
  O2-  O223  1  0.33954172  0.16534365  0.32447898  1
  O2-  O224  1  0.32385615  0.19668145  0.65239697  1
  O2-  O225  1  0.33384412  0.66535115  -0.00184937  1
  O2-  O226  1  0.33749562  0.66385230  0.33623785  1
  O2-  O227  1  0.33267752  0.65779054  0.66442215  1
  O2-  O228  1  0.66103380  0.15377254  0.00415034  1
  O2-  O229  1  0.65313755  0.17674800  0.32821673  1
  O2-  O230  1  0.66570749  0.14569608  0.67425510  1
  O2-  O231  1  0.66263290  0.64986021  0.00457696  1
  O2-  O232  1  0.67009561  0.65591084  0.33325752  1
  O2-  O233  1  0.66988925  0.66843919  0.66882323  1
  O2-  O234  1  0.16221390  0.14304815  -0.00014658  1
  O2-  O235  1  0.17103415  0.16280790  0.32480271  1
  O2-  O236  1  0.17392121  0.16378746  0.67282503  1
  O2-  O237  1  0.16989472  0.66427863  -0.00050959  1
  O2-  O238  1  0.16752200  0.64446276  0.33718087  1
  O2-  O239  1  0.17132686  0.65389560  0.66614151  1
  O2-  O240  1  0.49268378  0.14789553  -0.00607302  1
  O2-  O241  1  0.51236901  0.16534547  0.32334507  1
  O2-  O242  1  0.48060990  0.17954817  0.66355382  1
  O2-  O243  1  0.49740550  0.66409233  -0.00313982  1
  O2-  O244  1  0.49588274  0.65763968  0.33032770  1
  O2-  O245  1  0.50894830  0.65502593  0.65751656  1
  O2-  O246  1  0.82831074  0.15698849  -0.00065601  1
  O2-  O247  1  0.81421019  0.16965046  0.32623435  1
  O2-  O248  1  0.82756084  0.14681121  0.66703081  1
  O2-  O249  1  0.82550652  0.63950431  -0.00636109  1
  O2-  O250  1  0.82592554  0.67125298  0.34460979  1
  O2-  O251  1  0.84367870  0.65092207  0.68082778  1
  O2-  O252  1  0.00411128  0.34506822  -0.00189544  1
  O2-  O253  1  0.00110249  0.35203373  0.33421501  1
  O2-  O254  1  0.00139954  0.34540535  0.66629491  1
  O2-  O255  1  -0.00087025  0.85641667  -0.00076323  1
  O2-  O256  1  0.01433498  0.85296619  0.32107802  1
  O2-  O257  1  0.00559717  0.84530550  0.65927804  1
  O2-  O258  1  0.33646001  0.34715516  -0.00770156  1
  O2-  O259  1  0.33390122  0.34738442  0.33535618  1
  O2-  O260  1  0.33137850  0.32863798  0.66972379  1
  O2-  O261  1  0.33355308  0.81655806  -0.00358868  1
  O2-  O262  1  0.34188383  0.82787581  0.33080222  1
  O2-  O263  1  0.32826993  0.84283743  0.66965568  1
  O2-  O264  1  0.65831975  0.35389795  0.00944904  1
  O2-  O265  1  0.66344867  0.32399795  0.32782420  1
  O2-  O266  1  0.66229703  0.34600728  0.66905324  1
  O2-  O267  1  0.66405292  0.83229069  -0.00246463  1
  O2-  O268  1  0.67803374  0.81366763  0.33652785  1
  O2-  O269  1  0.66473762  0.84647935  0.67094942  1
  O2-  O270  1  0.17253745  0.36294755  0.00200135  1
  O2-  O271  1  0.17066710  0.35181513  0.33536486  1
  O2-  O272  1  0.16878795  0.33272581  0.66976999  1
  O2-  O273  1  0.17037896  0.84654950  0.00323230  1
  O2-  O274  1  0.17825383  0.85065424  0.34470254  1
  O2-  O275  1  0.17588593  0.84636912  0.66866290  1
  O2-  O276  1  0.49833980  0.34224022  -0.00231432  1
  O2-  O277  1  0.50435889  0.32778514  0.32831124  1
  O2-  O278  1  0.50013706  0.33839188  0.67104996  1
  O2-  O279  1  0.49867560  0.80737309  -0.00681614  1
  O2-  O280  1  0.49703858  0.83360996  0.33844382  1
  O2-  O281  1  0.49946776  0.84632363  0.66534631  1
  O2-  O282  1  0.83138554  0.33876330  -0.00046275  1
  O2-  O283  1  0.83316473  0.35036950  0.33060524  1
  O2-  O284  1  0.83236137  0.33776670  0.66694435  1
  O2-  O285  1  0.82891209  0.84731628  -0.00789958  1
  O2-  O286  1  0.84613273  0.84308059  0.34407162  1
  O2-  O287  1  0.82683014  0.84559313  0.67042506  1
  O2-  O288  1  -0.00229948  0.18577746  0.16293105  1
  O2-  O289  1  -0.00819012  0.16810343  0.50178154  1
  O2-  O290  1  0.00817990  0.17152356  0.84041435  1
  O2-  O291  1  0.00098061  0.67359953  0.16327253  1
  O2-  O292  1  -0.00188010  0.69106514  0.49732093  1
  O2-  O293  1  -0.00623927  0.68839403  0.83415448  1
  O2-  O294  1  0.32846559  0.17569624  0.15574706  1
  O2-  O295  1  0.33464222  0.17240626  0.50596031  1
  O2-  O296  1  0.34258488  0.18380116  0.83838383  1
  O2-  O297  1  0.33460161  0.69037895  0.16161006  1
  O2-  O298  1  0.33329848  0.69096893  0.49656684  1
  O2-  O299  1  0.32818622  0.68580235  0.83243293  1
  O2-  O300  1  0.66540542  0.18143847  0.16705736  1
  O2-  O301  1  0.65821158  0.17887291  0.49983376  1
  O2-  O302  1  0.67511240  0.18403652  0.84321544  1
  O2-  O303  1  0.66869490  0.68415505  0.16951034  1
  O2-  O304  1  0.66476181  0.69502826  0.49613191  1
  O2-  O305  1  0.67072354  0.68416468  0.83396909  1
  O2-  O306  1  0.17834591  0.17788263  0.15798801  1
  O2-  O307  1  0.18393114  0.19650730  0.52267708  1
  O2-  O308  1  0.16049811  0.18383357  0.83348775  1
  O2-  O309  1  0.16817280  0.66937900  0.17730784  1
  O2-  O310  1  0.16848057  0.69655192  0.50186512  1
  O2-  O311  1  0.16463392  0.68735245  0.83754283  1
  O2-  O312  1  0.49789150  0.18448848  0.15678463  1
  O2-  O313  1  0.49686632  0.16027070  0.50463037  1
  O2-  O314  1  0.50583026  0.18727644  0.83933310  1
  O2-  O315  1  0.50016880  0.68227712  0.16264039  1
  O2-  O316  1  0.49887959  0.68686557  0.49892988  1
  O2-  O317  1  0.50791296  0.68741912  0.83431081  1
  O2-  O318  1  0.82624152  0.18001666  0.16021792  1
  O2-  O319  1  0.82692592  0.18397480  0.51527298  1
  O2-  O320  1  0.83319227  0.18813147  0.82855609  1
  O2-  O321  1  0.83202728  0.67468422  0.15931356  1
  O2-  O322  1  0.83187219  0.68808156  0.50062531  1
  O2-  O323  1  0.82960830  0.69109198  0.83322844  1
  O2-  O324  1  -0.00121223  0.31962732  0.16034451  1
  O2-  O325  1  -0.00146721  0.32876397  0.49744696  1
  O2-  O326  1  -0.00011543  0.32935671  0.83472617  1
  O2-  O327  1  -0.00789961  0.83264119  0.15701244  1
  O2-  O328  1  -0.00565497  0.81445364  0.48034427  1
  O2-  O329  1  0.00238600  0.82334658  0.83540923  1
  O2-  O330  1  0.32824451  0.33130225  0.15364414  1
  O2-  O331  1  0.32949162  0.32203927  0.50240976  1
  O2-  O332  1  0.33390638  0.30925533  0.83339704  1
  O2-  O333  1  0.32470144  0.81455970  0.16051258  1
  O2-  O334  1  0.33896038  0.81099770  0.50061920  1
  O2-  O335  1  0.33029302  0.81990695  0.83034368  1
  O2-  O336  1  0.66749608  0.31705494  0.17020487  1
  O2-  O337  1  0.66262029  0.32296104  0.49313774  1
  O2-  O338  1  0.66371077  0.31819314  0.83143308  1
  O2-  O339  1  0.67177778  0.81861807  0.17281545  1
  O2-  O340  1  0.67274704  0.82268836  0.50766865  1
  O2-  O341  1  0.66506669  0.80340205  0.83431662  1
  O2-  O342  1  0.16847144  0.32906867  0.16216972  1
  O2-  O343  1  0.17363805  0.32216504  0.49558117  1
  O2-  O344  1  0.16353966  0.31904415  0.83613896  1
  O2-  O345  1  0.15920535  0.82693307  0.17437985  1
  O2-  O346  1  0.16508968  0.80971646  0.50510377  1
  O2-  O347  1  0.16778531  0.80862435  0.84076418  1
  O2-  O348  1  0.50191846  0.31510475  0.16624428  1
  O2-  O349  1  0.49549473  0.32545707  0.50600590  1
  O2-  O350  1  0.50311261  0.31797431  0.83066974  1
  O2-  O351  1  0.49419269  0.81105869  0.16460207  1
  O2-  O352  1  0.49870468  0.81955606  0.49910029  1
  O2-  O353  1  0.49991721  0.82413879  0.83148924  1
  O2-  O354  1  0.83871928  0.32198112  0.15721043  1
  O2-  O355  1  0.84025296  0.32407194  0.49683313  1
  O2-  O356  1  0.83040939  0.31697074  0.83089268  1
  O2-  O357  1  0.83911278  0.82339881  0.15590438  1
  O2-  O358  1  0.82817921  0.81778070  0.50271497  1
  O2-  O359  1  0.83497453  0.81142631  0.82687877  1
  O2-  O360  1  0.10183000  0.08095668  0.13145882  1
  O2-  O361  1  0.06183441  0.08443892  0.44213255  1
  O2-  O362  1  0.09254126  0.07840312  0.78245622  1
  O2-  O363  1  0.09667206  0.57414172  0.11019444  1
  O2-  O364  1  0.08965115  0.58360558  0.46248823  1
  O2-  O365  1  0.07302348  0.58577035  0.78464124  1
  O2-  O366  1  0.41278307  0.08040563  0.12203071  1
  O2-  O367  1  0.44679341  0.07878285  0.43782938  1
  O2-  O368  1  0.41940114  0.06996834  0.74169154  1
  O2-  O369  1  0.41173189  0.58321100  0.09483700  1
  O2-  O370  1  0.40336001  0.57659948  0.46276628  1
  O2-  O371  1  0.41742536  0.57005870  0.80288159  1
  O2-  O372  1  0.73816307  0.08380136  0.11448949  1
  O2-  O373  1  0.73080044  0.07764312  0.42143215  1
  O2-  O374  1  0.75482367  0.08127636  0.79676770  1
  O2-  O375  1  0.74238275  0.58123736  0.12054846  1
  O2-  O376  1  0.75535966  0.57937981  0.45736598  1
  O2-  O377  1  0.75116690  0.57346343  0.80313119  1
  O2-  O378  1  0.26310858  0.08376328  0.23253698  1
  O2-  O379  1  0.27305910  0.07906999  0.56974930  1
  O2-  O380  1  0.25780703  0.08494654  0.87413522  1
  O2-  O381  1  0.27819477  0.58231674  0.22058661  1
  O2-  O382  1  0.24415935  0.58297184  0.54627711  1
  O2-  O383  1  0.24742879  0.58171616  0.88666108  1
  O2-  O384  1  0.55190538  0.05523279  0.20752982  1
  O2-  O385  1  0.60808858  0.06056640  0.53908092  1
  O2-  O386  1  0.57965744  0.08489470  0.88379122  1
  O2-  O387  1  0.57494181  0.58203359  0.21210202  1
  O2-  O388  1  0.58881820  0.58251662  0.54625537  1
  O2-  O389  1  0.57306766  0.58204302  0.89276688  1
  O2-  O390  1  0.91128825  0.08306103  0.21822672  1
  O2-  O391  1  0.87409041  0.07945847  0.55037835  1
  O2-  O392  1  0.91986963  0.08226058  0.89360504  1
  O2-  O393  1  0.91798428  0.57996078  0.22922261  1
  O2-  O394  1  0.91867442  0.58394857  0.54786160  1
  O2-  O395  1  0.91127196  0.57834983  0.86880033  1
  O2-  O396  1  0.05862106  0.41881321  0.10991307  1
  O2-  O397  1  0.09856397  0.41956628  0.45396441  1
  O2-  O398  1  0.10055243  0.41702516  0.76403181  1
  O2-  O399  1  0.08953869  0.92434667  0.11992820  1
  O2-  O400  1  0.06293740  0.92040112  0.45548937  1
  O2-  O401  1  0.09707724  0.91677718  0.78378615  1
  O2-  O402  1  0.42092026  0.41506131  0.09437570  1
  O2-  O403  1  0.40007562  0.41759517  0.45147901  1
  O2-  O404  1  0.40809117  0.41731242  0.77196762  1
  O2-  O405  1  0.41163672  0.91156381  0.09386539  1
  O2-  O406  1  0.39764767  0.91807027  0.42571391  1
  O2-  O407  1  0.40807141  0.91700245  0.78417028  1
  O2-  O408  1  0.77062650  0.41787153  0.10869661  1
  O2-  O409  1  0.76421077  0.41861919  0.44108896  1
  O2-  O410  1  0.73210082  0.41846273  0.77670549  1
  O2-  O411  1  0.75783090  0.91588676  0.09642604  1
  O2-  O412  1  0.75894647  0.92236788  0.45168674  1
  O2-  O413  1  0.74603395  0.92036576  0.79622694  1
  O2-  O414  1  0.24493368  0.42291844  0.20838303  1
  O2-  O415  1  0.25578835  0.42079330  0.56835062  1
  O2-  O416  1  0.25557544  0.41669894  0.87715239  1
  O2-  O417  1  0.25231519  0.91362638  0.22602589  1
  O2-  O418  1  0.23619323  0.93154743  0.53232297  1
  O2-  O419  1  0.25148860  0.92247853  0.88244455  1
  O2-  O420  1  0.58617311  0.42877687  0.19493867  1
  O2-  O421  1  0.57277656  0.42108109  0.56621838  1
  O2-  O422  1  0.56821647  0.41566467  0.89955018  1
  O2-  O423  1  0.55890140  0.92019041  0.21625234  1
  O2-  O424  1  0.60232639  0.92066637  0.55598465  1
  O2-  O425  1  0.58424381  0.92169798  0.88411876  1
  O2-  O426  1  0.92071808  0.41530359  0.21177365  1
  O2-  O427  1  0.92371791  0.42012323  0.55855634  1
  O2-  O428  1  0.92107501  0.41738100  0.91805339  1
  O2-  O429  1  0.90323796  0.92384383  0.21473554  1
  O2-  O430  1  0.90225219  0.91961896  0.54939580  1
  O2-  O431  1  0.90095450  0.91879919  0.87953945  1
  O2-  O432  1  0.01760317  -0.00834773  -0.03684573  1
  O2-  O433  1  0.00485017  -0.02124742  0.31798902  1
  O2-  O434  1  0.00090098  -0.02488250  0.66529074  1
  O2-  O435  1  0.01463207  0.50738322  -0.01992190  1
  O2-  O436  1  -0.00454668  0.49329225  0.34158637  1
  O2-  O437  1  0.00142116  0.51008350  0.65099542  1
  O2-  O438  1  0.31535726  0.00097749  0.04331780  1
  O2-  O439  1  0.35093119  0.00241733  0.30864234  1
  O2-  O440  1  0.33181598  -0.01975897  0.65507989  1
  O2-  O441  1  0.34312797  0.49186159  -0.02454087  1
  O2-  O442  1  0.30934277  0.49567382  0.36697158  1
  O2-  O443  1  0.32960278  0.51672561  0.67189824  1
  O2-  O444  1  0.69492181  0.00301284  -0.03140048  1
  O2-  O445  1  0.68520300  0.00879441  0.29892838  1
  O2-  O446  1  0.66522369  -0.00666555  0.66451740  1
  O2-  O447  1  0.65596197  0.50217629  0.03043668  1
  O2-  O448  1  0.67564935  0.51390045  0.31815800  1
  O2-  O449  1  0.65161836  0.51393073  0.68692103  1
  O2-  O450  1  0.16459303  0.02655774  -0.00482440  1
  O2-  O451  1  0.16249640  -0.00657478  0.32356965  1
  O2-  O452  1  0.17566925  -0.01748380  0.66636208  1
  O2-  O453  1  0.18422341  0.49798340  0.01336317  1
  O2-  O454  1  0.15499289  0.50861116  0.32156411  1
  O2-  O455  1  0.16825285  0.50526071  0.65531818  1
  O2-  O456  1  0.47945208  -0.00264474  -0.02909656  1
  O2-  O457  1  0.50666958  -0.00317708  0.33137567  1
  O2-  O458  1  0.49859615  -0.00589809  0.65897338  1
  O2-  O459  1  0.50198248  0.50291558  0.00196990  1
  O2-  O460  1  0.46804370  0.51518899  0.30212817  1
  O2-  O461  1  0.49310586  0.51199405  0.65362976  1
  O2-  O462  1  0.86364299  0.00108317  0.04578552  1
  O2-  O463  1  0.85108911  -0.00782601  0.36714752  1
  O2-  O464  1  0.82921541  -0.02294967  0.66714552  1
  O2-  O465  1  0.84664507  0.50750457  0.02222883  1
  O2-  O466  1  0.83895416  0.50936316  0.34892970  1
  O2-  O467  1  0.84110269  0.51146983  0.68480469  1
  O2-  O468  1  0.91736638  0.25246898  0.27411455  1
  O2-  O469  1  0.06731549  0.24916302  0.73529475  1
  O2-  O470  1  0.58595251  0.25382180  0.59479462  1
  O2-  O471  1  0.07995845  0.74952267  0.72195260  1
  O2-  O472  1  0.74211584  0.24942681  0.71731025  1
  O2-  O473  1  0.22775918  0.75069338  0.27471174  1
  O2-  O474  1  0.58025574  0.75333994  0.60384735  1
  O2-  O475  1  0.92633228  0.24904692  0.94310970  1
  O2-  O476  1  0.91956210  0.75041958  0.95568986  1
  O2-  O477  1  0.75878746  0.25340155  0.40287217  1
  O2-  O478  1  0.41760039  0.25313164  0.40834023  1
  O2-  O479  1  0.58825577  0.25190972  0.95164741  1
  O2-  O480  1  0.40461061  0.24771874  0.05296009  1
  O2-  O481  1  0.09668490  0.25094539  0.04823406  1
  O2-  O482  1  0.74316187  0.25294533  0.05746642  1
  O2-  O483  1  0.75324798  0.74736986  0.05964718  1
  O2-  O484  1  0.25047025  0.25187133  0.26349976  1
  O2-  O485  1  0.57693392  0.74667158  0.27106251  1
  O2-  O486  1  0.07942240  0.75860207  0.06916350  1
  O2-  O487  1  0.07769194  0.25331465  0.40618470  1
  O2-  O488  1  0.41696651  0.75449793  0.72779486  1
  O2-  O489  1  0.92375721  0.75760429  0.26340817  1
  O2-  O490  1  0.91552165  0.74919200  0.61335108  1
  O2-  O491  1  0.92699720  0.24739312  0.60764779  1
  O2-  O492  1  0.23869408  0.24857801  0.95393150  1
