# generated using pymatgen
data_Ca108Mn108O277
_symmetry_space_group_name_H-M   'P 1'
_cell_length_a   16.02806479
_cell_length_b   22.30693249
_cell_length_c   16.39059826
_cell_angle_alpha   90.00493704
_cell_angle_beta   89.99295942
_cell_angle_gamma   90.00382801
_symmetry_Int_Tables_number   1
_chemical_formula_structural   Ca108Mn108O277
_chemical_formula_sum   'Ca108 Mn108 O277'
_cell_volume   5860.24458438
_cell_formula_units_Z   1
loop_
 _symmetry_equiv_pos_site_id
 _symmetry_equiv_pos_as_xyz
  1  'x, y, z'
loop_
 _atom_type_symbol
 _atom_type_oxidation_number
  Ca2+  2.0
  Mn3.34+  3.34
  O2-  -2.0
loop_
 _atom_site_type_symbol
 _atom_site_label
 _atom_site_symmetry_multiplicity
 _atom_site_fract_x
 _atom_site_fract_y
 _atom_site_fract_z
 _atom_site_occupancy
  Ca2+  Ca0  1  0.10297985  0.24004203  0.25685403  1
  Ca2+  Ca1  1  0.10546563  0.25330971  0.58576715  1
  Ca2+  Ca2  1  0.09057320  0.23990309  0.90227102  1
  Ca2+  Ca3  1  0.06537978  0.75109636  0.25862204  1
  Ca2+  Ca4  1  0.07030162  0.74425720  0.58379056  1
  Ca2+  Ca5  1  0.10148029  0.74922177  0.91118205  1
  Ca2+  Ca6  1  0.40243887  0.24489719  0.25382832  1
  Ca2+  Ca7  1  0.40857574  0.26018274  0.58133887  1
  Ca2+  Ca8  1  0.41075018  0.25360683  0.91614084  1
  Ca2+  Ca9  1  0.42450641  0.75018625  0.26480629  1
  Ca2+  Ca10  1  0.41657075  0.73609476  0.56162329  1
  Ca2+  Ca11  1  0.40960437  0.75720966  0.91780908  1
  Ca2+  Ca12  1  0.75341183  0.25316447  0.25616299  1
  Ca2+  Ca13  1  0.73220822  0.26292247  0.57627787  1
  Ca2+  Ca14  1  0.74712609  0.26302461  0.91906646  1
  Ca2+  Ca15  1  0.75742382  0.74418735  0.25902961  1
  Ca2+  Ca16  1  0.76435342  0.73459149  0.58830314  1
  Ca2+  Ca17  1  0.74140587  0.75249852  0.89538866  1
  Ca2+  Ca18  1  0.25775230  0.24770559  0.08590441  1
  Ca2+  Ca19  1  0.24569967  0.24132338  0.40927548  1
  Ca2+  Ca20  1  0.24560630  0.25566095  0.74923354  1
  Ca2+  Ca21  1  0.25072877  0.75194329  0.07501244  1
  Ca2+  Ca22  1  0.26458574  0.74770162  0.43559653  1
  Ca2+  Ca23  1  0.23860349  0.74432875  0.74227134  1
  Ca2+  Ca24  1  0.56113897  0.24760510  0.08596196  1
  Ca2+  Ca25  1  0.57085374  0.24742418  0.40840806  1
  Ca2+  Ca26  1  0.55994158  0.26084962  0.74561349  1
  Ca2+  Ca27  1  0.57644727  0.75466314  0.08237212  1
  Ca2+  Ca28  1  0.56648794  0.74496066  0.42757350  1
  Ca2+  Ca29  1  0.61101954  0.73602078  0.73373086  1
  Ca2+  Ca30  1  0.92747035  0.25211271  0.08176134  1
  Ca2+  Ca31  1  0.95162864  0.24363428  0.40398259  1
  Ca2+  Ca32  1  0.94103238  0.26021405  0.76018691  1
  Ca2+  Ca33  1  0.92427649  0.75359966  0.09766219  1
  Ca2+  Ca34  1  0.91549699  0.74552481  0.43983957  1
  Ca2+  Ca35  1  0.90342691  0.73910048  0.72470968  1
  Ca2+  Ca36  1  0.08460712  0.57393748  0.29033351  1
  Ca2+  Ca37  1  0.91848886  0.60142913  0.43037294  1
  Ca2+  Ca38  1  0.58776106  0.58481816  0.08000866  1
  Ca2+  Ca39  1  0.90155275  0.59407855  0.72576493  1
  Ca2+  Ca40  1  0.10361910  0.10204050  0.25441437  1
  Ca2+  Ca41  1  0.94621654  0.09801357  0.75725965  1
  Ca2+  Ca42  1  0.38928309  0.55499186  0.92538218  1
  Ca2+  Ca43  1  0.41319687  0.10384741  0.58161650  1
  Ca2+  Ca44  1  0.42222706  0.58400266  0.28553403  1
  Ca2+  Ca45  1  0.54499441  0.07761914  0.06983604  1
  Ca2+  Ca46  1  0.43110100  0.58325444  0.29193400  1
  Ca2+  Ca47  1  0.42328065  0.10799610  0.24518100  1
  Ca2+  Ca48  1  0.26549530  0.59227887  0.42373306  1
  Ca2+  Ca49  1  0.74052067  0.59113520  0.26006320  1
  Ca2+  Ca50  1  0.74873342  0.08393995  0.91483547  1
  Ca2+  Ca51  1  0.95804349  0.09810185  0.76171456  1
  Ca2+  Ca52  1  0.55942921  0.08816813  0.75180451  1
  Ca2+  Ca53  1  0.74785925  0.58795156  0.90979734  1
  Ca2+  Ca54  1  0.23461560  0.10484208  0.40655727  1
  Ca2+  Ca55  1  0.91210633  0.59063881  0.07711471  1
  Ca2+  Ca56  1  0.71284096  0.11144771  0.25807321  1
  Ca2+  Ca57  1  0.21977437  0.11112131  0.75466990  1
  Ca2+  Ca58  1  0.57328944  0.60210036  0.42246589  1
  Ca2+  Ca59  1  0.09207308  0.10964647  0.57025592  1
  Ca2+  Ca60  1  0.76114531  0.59644154  0.59033799  1
  Ca2+  Ca61  1  0.75449228  0.08368284  0.58390592  1
  Ca2+  Ca62  1  0.74180511  0.08490518  0.58466983  1
  Ca2+  Ca63  1  0.25444682  0.10784804  0.09982709  1
  Ca2+  Ca64  1  0.06880493  0.59666247  0.57555227  1
  Ca2+  Ca65  1  0.10338083  0.58459825  0.92498924  1
  Ca2+  Ca66  1  0.24175646  0.58135189  0.06870817  1
  Ca2+  Ca67  1  0.94630729  0.09192192  0.40496301  1
  Ca2+  Ca68  1  0.25519524  0.58130398  0.06872638  1
  Ca2+  Ca69  1  0.73600833  0.08537787  0.91500150  1
  Ca2+  Ca70  1  0.57104684  0.08538113  0.74896868  1
  Ca2+  Ca71  1  0.42037318  0.58832239  0.55047076  1
  Ca2+  Ca72  1  0.56181500  0.91710703  0.07322839  1
  Ca2+  Ca73  1  0.56578738  0.41382875  0.74845431  1
  Ca2+  Ca74  1  0.25567021  0.41070532  0.41688915  1
  Ca2+  Ca75  1  0.08362483  0.91327846  0.26358469  1
  Ca2+  Ca76  1  0.26806687  0.91096407  0.08228455  1
  Ca2+  Ca77  1  0.26503537  0.41236121  0.42090881  1
  Ca2+  Ca78  1  0.44302457  0.92935220  0.93546352  1
  Ca2+  Ca79  1  0.74247386  0.90085952  0.24379346  1
  Ca2+  Ca80  1  0.92752808  0.90812753  0.42550221  1
  Ca2+  Ca81  1  0.73242631  0.90758138  0.91283058  1
  Ca2+  Ca82  1  0.75362339  0.90674095  0.58519064  1
  Ca2+  Ca83  1  0.73596641  0.40099593  0.24903392  1
  Ca2+  Ca84  1  0.58355441  0.40637395  0.07719145  1
  Ca2+  Ca85  1  0.27951804  0.91395135  0.08607722  1
  Ca2+  Ca86  1  0.42443229  0.89568579  0.58003244  1
  Ca2+  Ca87  1  0.75520390  0.90088896  0.24418368  1
  Ca2+  Ca88  1  0.42607058  0.40735247  0.26430430  1
  Ca2+  Ca89  1  0.91978345  0.90284130  0.07977595  1
  Ca2+  Ca90  1  0.91757697  0.40819493  0.42092363  1
  Ca2+  Ca91  1  0.09552872  0.91344047  0.26352146  1
  Ca2+  Ca92  1  0.08186803  0.90669269  0.91442741  1
  Ca2+  Ca93  1  0.93017215  0.40760517  0.42190618  1
  Ca2+  Ca94  1  0.08863525  0.39548241  0.91755939  1
  Ca2+  Ca95  1  0.08893115  0.40856928  0.25406369  1
  Ca2+  Ca96  1  0.91430116  0.40424533  0.06777503  1
  Ca2+  Ca97  1  0.25732187  0.41368099  0.06569979  1
  Ca2+  Ca98  1  0.73892345  0.41371083  0.58562241  1
  Ca2+  Ca99  1  0.06906037  0.90592311  0.91406398  1
  Ca2+  Ca100  1  0.57780977  0.90669217  0.75568462  1
  Ca2+  Ca101  1  0.08577181  0.40596227  0.58235223  1
  Ca2+  Ca102  1  0.75030479  0.40785619  0.91809388  1
  Ca2+  Ca103  1  0.24711346  0.41342892  0.06129373  1
  Ca2+  Ca104  1  0.41388104  0.89553118  0.58036406  1
  Ca2+  Ca105  1  0.76424165  0.90587603  0.58316049  1
  Ca2+  Ca106  1  0.91671895  0.91267623  0.73800038  1
  Ca2+  Ca107  1  0.25433517  0.90026004  0.74506107  1
  Mn3.34+  Mn108  1  0.08318308  0.33127847  0.08845212  1
  Mn3.34+  Mn109  1  0.08620187  0.33555414  0.41889358  1
  Mn3.34+  Mn110  1  0.08801596  0.33258456  0.74986018  1
  Mn3.34+  Mn111  1  0.08608737  0.83318013  0.08812354  1
  Mn3.34+  Mn112  1  0.08903294  0.82957838  0.42237399  1
  Mn3.34+  Mn113  1  0.08117302  0.83099538  0.74593610  1
  Mn3.34+  Mn114  1  0.41898337  0.33318290  0.08259531  1
  Mn3.34+  Mn115  1  0.42029367  0.33656563  0.41974679  1
  Mn3.34+  Mn116  1  0.40974519  0.34582295  0.75232728  1
  Mn3.34+  Mn117  1  0.42033419  0.83000013  0.08971306  1
  Mn3.34+  Mn118  1  0.41653116  0.82792301  0.41283226  1
  Mn3.34+  Mn119  1  0.41802686  0.83087893  0.75605731  1
  Mn3.34+  Mn120  1  0.74655068  0.33259183  0.08596319  1
  Mn3.34+  Mn121  1  0.74521215  0.33696144  0.41817369  1
  Mn3.34+  Mn122  1  0.75241149  0.33728278  0.74916973  1
  Mn3.34+  Mn123  1  0.74729575  0.82329686  0.08144562  1
  Mn3.34+  Mn124  1  0.74671918  0.82930056  0.41946183  1
  Mn3.34+  Mn125  1  0.75130623  0.83291816  0.75124461  1
  Mn3.34+  Mn126  1  0.25072368  0.33236001  0.24632615  1
  Mn3.34+  Mn127  1  0.25623860  0.34046052  0.58887580  1
  Mn3.34+  Mn128  1  0.25532489  0.33628167  0.91001099  1
  Mn3.34+  Mn129  1  0.25435983  0.83249061  0.25118144  1
  Mn3.34+  Mn130  1  0.24344781  0.82816152  0.58214366  1
  Mn3.34+  Mn131  1  0.25592605  0.83389273  0.91181521  1
  Mn3.34+  Mn132  1  0.58107244  0.32994232  0.24919626  1
  Mn3.34+  Mn133  1  0.57584096  0.33780405  0.57936144  1
  Mn3.34+  Mn134  1  0.57898929  0.33256323  0.91337988  1
  Mn3.34+  Mn135  1  0.57752907  0.83758192  0.24985880  1
  Mn3.34+  Mn136  1  0.58512689  0.83056256  0.58472629  1
  Mn3.34+  Mn137  1  0.57999219  0.83400152  0.91438106  1
  Mn3.34+  Mn138  1  0.91590073  0.33020022  0.24467371  1
  Mn3.34+  Mn139  1  0.91327668  0.32766703  0.58653046  1
  Mn3.34+  Mn140  1  0.91661057  0.33190571  0.91469549  1
  Mn3.34+  Mn141  1  0.91522803  0.83311887  0.25345474  1
  Mn3.34+  Mn142  1  0.92361652  0.83609674  0.58150519  1
  Mn3.34+  Mn143  1  0.91442086  0.83006058  0.91357539  1
  Mn3.34+  Mn144  1  0.41945508  0.66691252  0.08607424  1
  Mn3.34+  Mn145  1  0.08212444  0.66905039  0.08892498  1
  Mn3.34+  Mn146  1  0.41074487  0.64453319  0.74848469  1
  Mn3.34+  Mn147  1  0.91594250  0.66682075  0.25160377  1
  Mn3.34+  Mn148  1  0.58456719  0.66433091  0.91134838  1
  Mn3.34+  Mn149  1  0.75130167  0.18856386  0.75050215  1
  Mn3.34+  Mn150  1  0.91419025  0.17421648  0.57047573  1
  Mn3.34+  Mn151  1  0.58667506  0.66227852  0.58197445  1
  Mn3.34+  Mn152  1  0.40808340  0.17002410  0.75228904  1
  Mn3.34+  Mn153  1  0.58158048  0.17051830  0.57592079  1
  Mn3.34+  Mn154  1  0.75130041  0.17432554  0.41580640  1
  Mn3.34+  Mn155  1  0.91454541  0.17919821  0.58076255  1
  Mn3.34+  Mn156  1  0.25130049  0.17222557  0.91816252  1
  Mn3.34+  Mn157  1  0.25111761  0.17140228  0.58091980  1
  Mn3.34+  Mn158  1  0.74234219  0.18291527  0.75108062  1
  Mn3.34+  Mn159  1  0.57393896  0.16877467  0.91570156  1
  Mn3.34+  Mn160  1  0.75435632  0.16975648  0.08608509  1
  Mn3.34+  Mn161  1  0.41912460  0.16944809  0.41502872  1
  Mn3.34+  Mn162  1  0.92103589  0.16990118  0.92184489  1
  Mn3.34+  Mn163  1  0.75046536  0.66752111  0.08859478  1
  Mn3.34+  Mn164  1  0.08217884  0.16053073  0.08220760  1
  Mn3.34+  Mn165  1  0.74914224  0.66510426  0.41847591  1
  Mn3.34+  Mn166  1  0.24636928  0.66132638  0.58326095  1
  Mn3.34+  Mn167  1  0.74537512  0.17551792  0.08368401  1
  Mn3.34+  Mn168  1  0.24152715  0.67607801  0.25103660  1
  Mn3.34+  Mn169  1  0.08518858  0.66502482  0.74963586  1
  Mn3.34+  Mn170  1  0.41345150  0.16597833  0.08479130  1
  Mn3.34+  Mn171  1  0.25245261  0.66948458  0.24812161  1
  Mn3.34+  Mn172  1  0.08244175  0.66485069  0.42120771  1
  Mn3.34+  Mn173  1  0.58652274  0.66980826  0.24322664  1
  Mn3.34+  Mn174  1  0.41997122  0.65058890  0.74982946  1
  Mn3.34+  Mn175  1  0.25399114  0.66378009  0.91235375  1
  Mn3.34+  Mn176  1  0.57469462  0.65934412  0.90843024  1
  Mn3.34+  Mn177  1  0.92479435  0.66585401  0.91186927  1
  Mn3.34+  Mn178  1  0.91403066  0.67306437  0.91476310  1
  Mn3.34+  Mn179  1  0.91997292  0.16719802  0.24584170  1
  Mn3.34+  Mn180  1  0.74101622  0.49957102  0.41565549  1
  Mn3.34+  Mn181  1  0.73393647  -0.00115397  0.40614229  1
  Mn3.34+  Mn182  1  0.09115110  -0.00402254  0.41415062  1
  Mn3.34+  Mn183  1  0.08495057  0.49781053  0.74956466  1
  Mn3.34+  Mn184  1  0.07602944  0.00281731  0.07981447  1
  Mn3.34+  Mn185  1  0.90546238  0.49561184  0.24777416  1
  Mn3.34+  Mn186  1  0.58072900  0.00055258  0.23834213  1
  Mn3.34+  Mn187  1  0.58935009  0.49653678  0.25105396  1
  Mn3.34+  Mn188  1  0.24335196  0.50061851  0.24930173  1
  Mn3.34+  Mn189  1  0.25583355  0.00287674  0.25296107  1
  Mn3.34+  Mn190  1  0.57551679  0.49881338  0.59729418  1
  Mn3.34+  Mn191  1  0.42644915  0.50051718  0.09887439  1
  Mn3.34+  Mn192  1  0.26433533  0.50244897  0.60646732  1
  Mn3.34+  Mn193  1  0.91641289  0.50052331  0.24624429  1
  Mn3.34+  Mn194  1  0.57432222  0.00180254  0.58115197  1
  Mn3.34+  Mn195  1  0.41917685  0.00262260  0.40816087  1
  Mn3.34+  Mn196  1  0.91623241  0.00478363  0.24858036  1
  Mn3.34+  Mn197  1  0.23985267  -0.00643218  0.57497066  1
  Mn3.34+  Mn198  1  0.75040940  0.50155990  0.08076569  1
  Mn3.34+  Mn199  1  0.91745101  0.50069332  0.91624340  1
  Mn3.34+  Mn200  1  0.26340043  0.00497862  0.91901034  1
  Mn3.34+  Mn201  1  0.92302249  0.00083303  0.91742473  1
  Mn3.34+  Mn202  1  0.74132292  0.00554654  0.08684768  1
  Mn3.34+  Mn203  1  0.25286887  0.00957817  0.92111382  1
  Mn3.34+  Mn204  1  0.25273219  0.00018229  0.57273127  1
  Mn3.34+  Mn205  1  0.75543204  0.00147981  0.74608423  1
  Mn3.34+  Mn206  1  0.42943159  -0.00251224  0.40606810  1
  Mn3.34+  Mn207  1  0.74791139  0.00494271  0.40773776  1
  Mn3.34+  Mn208  1  0.75654536  0.00053645  0.08659658  1
  Mn3.34+  Mn209  1  0.91672316  0.49716235  0.58728823  1
  Mn3.34+  Mn210  1  0.09479976  0.50290074  0.74915767  1
  Mn3.34+  Mn211  1  0.07479289  0.50336701  0.09000699  1
  Mn3.34+  Mn212  1  0.74757023  0.49894911  0.73942136  1
  Mn3.34+  Mn213  1  0.40665075  0.00076247  0.75087598  1
  Mn3.34+  Mn214  1  0.57746762  0.49633589  0.91863861  1
  Mn3.34+  Mn215  1  0.08322060  -0.00337303  0.73697987  1
  O2-  O216  1  0.00294798  0.18045746  0.00052325  1
  O2-  O217  1  0.00127949  0.15820156  0.32125681  1
  O2-  O218  1  -0.00561765  0.16025461  0.66098713  1
  O2-  O219  1  -0.00028729  0.64993750  -0.00426868  1
  O2-  O220  1  0.00111567  0.65117914  0.33041402  1
  O2-  O221  1  0.00083850  0.65767953  0.67826408  1
  O2-  O222  1  0.32861078  0.15665243  0.00257773  1
  O2-  O223  1  0.33743004  0.15479672  0.34344262  1
  O2-  O224  1  0.32860036  0.15013833  0.67148839  1
  O2-  O225  1  0.33521059  0.64900027  0.00350621  1
  O2-  O226  1  0.33338726  0.66017731  0.32803533  1
  O2-  O227  1  0.33276464  0.66562343  0.66926662  1
  O2-  O228  1  0.66880615  0.15252504  -0.00067984  1
  O2-  O229  1  0.67340094  0.18862419  0.33799852  1
  O2-  O230  1  0.66458181  0.15154656  0.67004931  1
  O2-  O231  1  0.66913425  0.65429951  0.00198189  1
  O2-  O232  1  0.66651558  0.66229233  0.32879010  1
  O2-  O233  1  0.66954671  0.65787799  0.65479580  1
  O2-  O234  1  0.16576413  0.16913290  0.00110557  1
  O2-  O235  1  0.16631833  0.16651358  0.33246761  1
  O2-  O236  1  0.16628220  0.16398457  0.65427520  1
  O2-  O237  1  0.17024827  0.65525737  0.00853476  1
  O2-  O238  1  0.16908848  0.65563890  0.33583106  1
  O2-  O239  1  0.15901075  0.65292878  0.66205707  1
  O2-  O240  1  0.50029488  0.15674276  -0.00235143  1
  O2-  O241  1  0.49518521  0.17394062  0.33402231  1
  O2-  O242  1  0.50295295  0.15058753  0.66348324  1
  O2-  O243  1  0.50151276  0.64274048  -0.00674969  1
  O2-  O244  1  0.50530563  0.66706735  0.32301580  1
  O2-  O245  1  0.49514842  0.66208648  0.66464989  1
  O2-  O246  1  0.82912272  0.15294840  -0.00110851  1
  O2-  O247  1  0.83400699  0.15576843  0.33496221  1
  O2-  O248  1  0.82868103  0.16348437  0.66092723  1
  O2-  O249  1  0.83692280  0.66771366  0.00154897  1
  O2-  O250  1  0.83121034  0.64842206  0.33157518  1
  O2-  O251  1  0.83228998  0.66310911  0.66306493  1
  O2-  O252  1  -0.00073568  0.33517492  0.00497653  1
  O2-  O253  1  -0.00302304  0.35006291  0.33308334  1
  O2-  O254  1  0.00049380  0.33211292  0.66220112  1
  O2-  O255  1  0.00053140  0.84451444  -0.00032767  1
  O2-  O256  1  0.00098773  0.85001683  0.32843909  1
  O2-  O257  1  -0.00370072  0.84296795  0.67177334  1
  O2-  O258  1  0.33621450  0.34824062  0.00174323  1
  O2-  O259  1  0.33074493  0.34865520  0.32786725  1
  O2-  O260  1  0.33526833  0.33857049  0.66722351  1
  O2-  O261  1  0.33701460  0.84762337  -0.00230360  1
  O2-  O262  1  0.32973023  0.81738264  0.33368928  1
  O2-  O263  1  0.33943615  0.84052388  0.66662116  1
  O2-  O264  1  0.67041444  0.33991948  -0.00395130  1
  O2-  O265  1  0.67121443  0.32141062  0.32796689  1
  O2-  O266  1  0.67446793  0.34285171  0.66285314  1
  O2-  O267  1  0.66756350  0.83960552  -0.00180083  1
  O2-  O268  1  0.67147402  0.83940468  0.32564933  1
  O2-  O269  1  0.66737221  0.85505556  0.66848989  1
  O2-  O270  1  0.16875010  0.33454723  0.00983203  1
  O2-  O271  1  0.17181274  0.35719270  0.33840694  1
  O2-  O272  1  0.16340978  0.34383646  0.66129455  1
  O2-  O273  1  0.17318240  0.85907861  0.00551181  1
  O2-  O274  1  0.16135202  0.83581633  0.32354375  1
  O2-  O275  1  0.17219714  0.84165849  0.67290758  1
  O2-  O276  1  0.50622695  0.34437947  0.00674640  1
  O2-  O277  1  0.49844077  0.32772714  0.33048082  1
  O2-  O278  1  0.50446399  0.34349387  0.67022232  1
  O2-  O279  1  0.49977840  0.84336452  0.00122502  1
  O2-  O280  1  0.50583534  0.82047579  0.33548633  1
  O2-  O281  1  0.50026962  0.84160448  0.67095510  1
  O2-  O282  1  0.82881051  0.33625728  0.00170187  1
  O2-  O283  1  0.83269765  0.35019422  0.33196166  1
  O2-  O284  1  0.83203794  0.29609998  0.66914674  1
  O2-  O285  1  0.83798258  0.81788503  0.00392312  1
  O2-  O286  1  0.83323520  0.85374498  0.33680505  1
  O2-  O287  1  0.83370149  0.84627959  0.66676239  1
  O2-  O288  1  0.00101291  0.18469679  0.16399373  1
  O2-  O289  1  0.00457746  0.17993902  0.50067859  1
  O2-  O290  1  -0.00781410  0.17576286  0.83525786  1
  O2-  O291  1  -0.00391071  0.68165038  0.16583623  1
  O2-  O292  1  0.00407747  0.67361238  0.49764517  1
  O2-  O293  1  0.00412726  0.68979726  0.83777292  1
  O2-  O294  1  0.33476210  0.17991805  0.16284933  1
  O2-  O295  1  0.34054475  0.17543157  0.50794738  1
  O2-  O296  1  0.33400442  0.18503102  0.83283812  1
  O2-  O297  1  0.32827371  0.69190847  0.16873755  1
  O2-  O298  1  0.32770948  0.66659948  0.50567849  1
  O2-  O299  1  0.33746022  0.68159307  0.83044950  1
  O2-  O300  1  0.66920156  0.19300079  0.16467480  1
  O2-  O301  1  0.67844320  0.18214690  0.51010654  1
  O2-  O302  1  0.66958717  0.18663246  0.84252128  1
  O2-  O303  1  0.66849873  0.69138075  0.16387778  1
  O2-  O304  1  0.66189720  0.67855752  0.49214533  1
  O2-  O305  1  0.66888397  0.67588284  0.83795483  1
  O2-  O306  1  0.16014124  0.18455076  0.15368189  1
  O2-  O307  1  0.17530033  0.17991345  0.50066855  1
  O2-  O308  1  0.17863254  0.18549720  0.83439635  1
  O2-  O309  1  0.16513507  0.69734075  0.17387530  1
  O2-  O310  1  0.16818378  0.67797761  0.49828654  1
  O2-  O311  1  0.16747258  0.67711808  0.83796752  1
  O2-  O312  1  0.49359170  0.17954670  0.16238128  1
  O2-  O313  1  0.49884338  0.18348863  0.50448148  1
  O2-  O314  1  0.50878636  0.17538124  0.81931592  1
  O2-  O315  1  0.50424282  0.68522470  0.16258468  1
  O2-  O316  1  0.50437620  0.66967786  0.50395365  1
  O2-  O317  1  0.49808955  0.69043986  0.82342124  1
  O2-  O318  1  0.83306287  0.19010617  0.16489467  1
  O2-  O319  1  0.83578269  0.20011450  0.49405221  1
  O2-  O320  1  0.83299571  0.18220148  0.83439559  1
  O2-  O321  1  0.83429938  0.68662775  0.16561304  1
  O2-  O322  1  0.82880862  0.67002880  0.49400072  1
  O2-  O323  1  0.83572443  0.68717500  0.83866936  1
  O2-  O324  1  -0.00018957  0.31609248  0.16821399  1
  O2-  O325  1  -0.00249597  0.31819477  0.49594932  1
  O2-  O326  1  0.00700278  0.32281776  0.84292199  1
  O2-  O327  1  -0.00200692  0.82370088  0.17022486  1
  O2-  O328  1  -0.00293823  0.82695771  0.49322170  1
  O2-  O329  1  0.00692686  0.81797811  0.84306769  1
  O2-  O330  1  0.32722230  0.32684781  0.15902962  1
  O2-  O331  1  0.32504216  0.33194264  0.49214506  1
  O2-  O332  1  0.33235343  0.32149971  0.83100238  1
  O2-  O333  1  0.32794675  0.81631142  0.16126027  1
  O2-  O334  1  0.34028387  0.82315793  0.50944129  1
  O2-  O335  1  0.32667301  0.81081088  0.82125356  1
  O2-  O336  1  0.66382939  0.31429602  0.16465201  1
  O2-  O337  1  0.66315956  0.32289085  0.49657457  1
  O2-  O338  1  0.66576232  0.31163826  0.82699572  1
  O2-  O339  1  0.66990350  0.81480622  0.16986037  1
  O2-  O340  1  0.67490295  0.82698502  0.51435892  1
  O2-  O341  1  0.66434347  0.82473523  0.83060269  1
  O2-  O342  1  0.16268770  0.32034542  0.17163899  1
  O2-  O343  1  0.16835511  0.33288173  0.49914635  1
  O2-  O344  1  0.16640013  0.32142870  0.83929521  1
  O2-  O345  1  0.16902465  0.81844536  0.16722648  1
  O2-  O346  1  0.16607210  0.81094215  0.50152016  1
  O2-  O347  1  0.16197306  0.82925074  0.84172530  1
  O2-  O348  1  0.49551688  0.31717294  0.17022291  1
  O2-  O349  1  0.49657890  0.31929764  0.50059256  1
  O2-  O350  1  0.49811737  0.32359285  0.83358991  1
  O2-  O351  1  0.50087413  0.81322788  0.16919646  1
  O2-  O352  1  0.49664239  0.82298010  0.50920437  1
  O2-  O353  1  0.49857965  0.81641424  0.83558241  1
  O2-  O354  1  0.83123601  0.31508455  0.16443792  1
  O2-  O355  1  0.83458904  0.31743050  0.49769635  1
  O2-  O356  1  0.83085819  0.32022468  0.83249480  1
  O2-  O357  1  0.82871661  0.81992338  0.17191224  1
  O2-  O358  1  0.83117256  0.82683726  0.50343793  1
  O2-  O359  1  0.83148741  0.81876495  0.83512173  1
  O2-  O360  1  0.10096973  0.08084477  0.11667145  1
  O2-  O361  1  0.08412911  0.07232462  0.44665093  1
  O2-  O362  1  0.08502305  0.07462136  0.77497987  1
  O2-  O363  1  0.09452860  0.58405162  0.12298104  1
  O2-  O364  1  0.08465985  0.58283413  0.43409788  1
  O2-  O365  1  0.07471072  0.58119329  0.79149799  1
  O2-  O366  1  0.40943688  0.08496242  0.11119511  1
  O2-  O367  1  0.42663310  0.08100903  0.44976231  1
  O2-  O368  1  0.42240226  0.08261180  0.77526545  1
  O2-  O369  1  0.40747203  0.58302023  0.13156554  1
  O2-  O370  1  0.42833963  0.57427659  0.41945314  1
  O2-  O371  1  0.41964756  0.57173496  0.80020029  1
  O2-  O372  1  0.74876232  0.08494210  0.12542497  1
  O2-  O373  1  0.74568507  0.08297571  0.44783774  1
  O2-  O374  1  0.74558376  0.08629769  0.77882142  1
  O2-  O375  1  0.75026876  0.58004975  0.12125700  1
  O2-  O376  1  0.73432872  0.58073077  0.44376719  1
  O2-  O377  1  0.77108345  0.56842860  0.78170185  1
  O2-  O378  1  0.25192663  0.07894024  0.23028149  1
  O2-  O379  1  0.24505604  0.08095396  0.54960780  1
  O2-  O380  1  0.24652311  0.08816432  0.88786798  1
  O2-  O381  1  0.23949385  0.58300806  0.21017397  1
  O2-  O382  1  0.24564546  0.57555718  0.55552085  1
  O2-  O383  1  0.24860974  0.58058742  0.91365065  1
  O2-  O384  1  0.59098004  0.07604960  0.20453675  1
  O2-  O385  1  0.60020197  0.08374090  0.55600948  1
  O2-  O386  1  0.60260960  0.08423292  0.87956919  1
  O2-  O387  1  0.57991071  0.57815953  0.22062631  1
  O2-  O388  1  0.57491897  0.57366294  0.55559557  1
  O2-  O389  1  0.59262389  0.57778526  0.88182894  1
  O2-  O390  1  0.90911684  0.08488914  0.22531882  1
  O2-  O391  1  0.89123773  0.08931196  0.54186994  1
  O2-  O392  1  0.89408559  0.08256015  0.88396897  1
  O2-  O393  1  0.91161965  0.58107105  0.21310476  1
  O2-  O394  1  0.91826376  0.57321751  0.55955760  1
  O2-  O395  1  0.90957423  0.58196395  0.87979971  1
  O2-  O396  1  0.08036137  0.42132124  0.11010756  1
  O2-  O397  1  0.06477066  0.41995847  0.44921022  1
  O2-  O398  1  0.08497376  0.41787321  0.78144475  1
  O2-  O399  1  0.07855467  0.92174557  0.12960769  1
  O2-  O400  1  0.08725487  0.91463301  0.42305387  1
  O2-  O401  1  0.08249447  0.91772599  0.77773442  1
  O2-  O402  1  0.42317606  0.41791248  0.11661432  1
  O2-  O403  1  0.39989784  0.41867572  0.41930543  1
  O2-  O404  1  0.42441707  0.42005486  0.77321922  1
  O2-  O405  1  0.41332628  0.91045307  0.11397298  1
  O2-  O406  1  0.41850454  0.91702939  0.44364357  1
  O2-  O407  1  0.41443748  0.92060229  0.78448458  1
  O2-  O408  1  0.75289419  0.42122151  0.11151937  1
  O2-  O409  1  0.77554935  0.42261288  0.45203007  1
  O2-  O410  1  0.73833452  0.42302334  0.77966782  1
  O2-  O411  1  0.75863851  0.91715176  0.10703512  1
  O2-  O412  1  0.74065648  0.92069637  0.44880459  1
  O2-  O413  1  0.75845157  0.91975398  0.77708372  1
  O2-  O414  1  0.24454461  0.42288629  0.20922807  1
  O2-  O415  1  0.24600891  0.42810230  0.55483590  1
  O2-  O416  1  0.23119738  0.41649701  0.92298979  1
  O2-  O417  1  0.23447944  0.92316351  0.21573712  1
  O2-  O418  1  0.26154175  0.91278435  0.56134442  1
  O2-  O419  1  0.25340615  0.92521629  0.87529029  1
  O2-  O420  1  0.59424510  0.41777045  0.21742128  1
  O2-  O421  1  0.59329437  0.42368935  0.56162090  1
  O2-  O422  1  0.59900810  0.41638587  0.88962752  1
  O2-  O423  1  0.60890537  0.92134762  0.20661821  1
  O2-  O424  1  0.56216513  0.91751749  0.56854078  1
  O2-  O425  1  0.58473099  0.91511239  0.89357556  1
  O2-  O426  1  0.91007206  0.41578609  0.20835156  1
  O2-  O427  1  0.91607276  0.41677690  0.55699915  1
  O2-  O428  1  0.91071166  0.41730128  0.91531169  1
  O2-  O429  1  0.90122445  0.92251289  0.21392966  1
  O2-  O430  1  0.89646120  0.92113774  0.55989743  1
  O2-  O431  1  0.92886241  0.91896359  0.87784410  1
  O2-  O432  1  0.00001333  -0.02753982  -0.00103938  1
  O2-  O433  1  -0.00109936  -0.00602491  0.33496931  1
  O2-  O434  1  -0.03011445  0.00360345  0.71750538  1
  O2-  O435  1  -0.00046890  0.51501846  0.00171392  1
  O2-  O436  1  0.00775258  0.48702782  0.31584018  1
  O2-  O437  1  -0.00325028  0.50717962  0.67086782  1
  O2-  O438  1  0.33221773  -0.01744983  0.00667651  1
  O2-  O439  1  0.31978241  0.00616822  0.34796064  1
  O2-  O440  1  0.35117426  -0.00874721  0.64348660  1
  O2-  O441  1  0.32461960  0.50075828  0.03544591  1
  O2-  O442  1  0.32757376  0.51273343  0.32127229  1
  O2-  O443  1  0.36027528  0.51881347  0.64259952  1
  O2-  O444  1  0.67383612  0.01067327  -0.00816835  1
  O2-  O445  1  0.68238537  0.00110718  0.30130691  1
  O2-  O446  1  0.66653920  0.00569709  0.66104448  1
  O2-  O447  1  0.66545749  0.50432719  0.00033229  1
  O2-  O448  1  0.69018608  0.49906174  0.30618687  1
  O2-  O449  1  0.67318884  0.50180077  0.65045655  1
  O2-  O450  1  0.16834238  -0.01890441  -0.00159146  1
  O2-  O451  1  0.15172251  0.00207457  0.30885885  1
  O2-  O452  1  0.18096061  0.00278469  0.67595858  1
  O2-  O453  1  0.17132393  0.50334292  0.02580774  1
  O2-  O454  1  0.17238096  0.48992884  0.32719342  1
  O2-  O455  1  0.15829418  0.49978563  0.65048489  1
  O2-  O456  1  0.50799020  -0.00731134  0.01680512  1
  O2-  O457  1  0.49384740  0.01265434  0.31177521  1
  O2-  O458  1  0.51172381  0.00437344  0.69096532  1
  O2-  O459  1  0.50026353  0.51118447  0.00810119  1
  O2-  O460  1  0.48715245  0.49429049  0.29435746  1
  O2-  O461  1  0.50781718  0.49739221  0.67289720  1
  O2-  O462  1  0.82532650  0.00258584  -0.01074310  1
  O2-  O463  1  0.83897716  -0.01215250  0.33992008  1
  O2-  O464  1  0.81666235  0.00934858  0.64714766  1
  O2-  O465  1  0.83175931  0.51270563  -0.00234343  1
  O2-  O466  1  0.84831630  0.50397505  0.35268246  1
  O2-  O467  1  0.82450731  0.50090672  0.65294666  1
  O2-  O468  1  0.41755872  0.24897528  0.72498894  1
  O2-  O469  1  0.41891454  0.74796618  0.05280158  1
  O2-  O470  1  0.09291924  0.25832637  0.39375000  1
  O2-  O471  1  0.90186587  0.25000360  0.93692295  1
  O2-  O472  1  0.25233457  0.25576734  0.27054710  1
  O2-  O473  1  0.91076685  0.25145126  0.27588677  1
  O2-  O474  1  0.58453246  0.74903351  0.59920194  1
  O2-  O475  1  0.41353896  0.25271338  0.05626381  1
  O2-  O476  1  0.07397335  0.74947779  0.39503368  1
  O2-  O477  1  0.41688046  0.74863042  0.41596236  1
  O2-  O478  1  0.58565211  0.25074050  0.60835092  1
  O2-  O479  1  0.91579006  0.75014207  0.28190111  1
  O2-  O480  1  0.58110117  0.74660538  0.94168706  1
  O2-  O481  1  0.74885040  0.75571301  0.72749832  1
  O2-  O482  1  0.91963294  0.75561266  0.59053203  1
  O2-  O483  1  0.40048768  0.25263030  0.40498795  1
  O2-  O484  1  0.07891614  0.75151418  0.05216681  1
  O2-  O485  1  0.08700485  0.25425386  0.73640197  1
  O2-  O486  1  0.76023717  0.74857096  0.39648729  1
  O2-  O487  1  0.26217247  0.25338344  0.94128286  1
  O2-  O488  1  0.25551142  0.25435760  0.60139485  1
  O2-  O489  1  0.24969440  0.74949916  0.93996726  1
  O2-  O490  1  0.09291672  0.74917933  0.72756873  1
  O2-  O491  1  0.57696037  0.24972269  0.94262174  1
  O2-  O492  1  0.25237332  0.74715914  0.60206534  1
