# generated using pymatgen
data_Ca108Mn108O277
_symmetry_space_group_name_H-M   'P 1'
_cell_length_a   16.02781908
_cell_length_b   22.30790748
_cell_length_c   16.38826782
_cell_angle_alpha   89.99982894
_cell_angle_beta   90.00053506
_cell_angle_gamma   89.99199837
_symmetry_Int_Tables_number   1
_chemical_formula_structural   Ca108Mn108O277
_chemical_formula_sum   'Ca108 Mn108 O277'
_cell_volume   5859.57766091
_cell_formula_units_Z   1
loop_
 _symmetry_equiv_pos_site_id
 _symmetry_equiv_pos_as_xyz
  1  'x, y, z'
loop_
 _atom_type_symbol
 _atom_type_oxidation_number
  Ca2+  2.0
  Mn3.34+  3.34
  O2-  -2.0
loop_
 _atom_site_type_symbol
 _atom_site_label
 _atom_site_symmetry_multiplicity
 _atom_site_fract_x
 _atom_site_fract_y
 _atom_site_fract_z
 _atom_site_occupancy
  Ca2+  Ca0  1  0.09765227  0.25566053  0.24532272  1
  Ca2+  Ca1  1  0.08920867  0.25696497  0.60033296  1
  Ca2+  Ca2  1  0.08866662  0.25048153  0.90644145  1
  Ca2+  Ca3  1  0.07880840  0.75676596  0.25840942  1
  Ca2+  Ca4  1  0.08163584  0.77599978  0.58139665  1
  Ca2+  Ca5  1  0.06447732  0.75044187  0.91415385  1
  Ca2+  Ca6  1  0.40320398  0.24246481  0.26416130  1
  Ca2+  Ca7  1  0.41725288  0.24771597  0.56319857  1
  Ca2+  Ca8  1  0.41656303  0.25436574  0.91245466  1
  Ca2+  Ca9  1  0.44449930  0.72436492  0.23892292  1
  Ca2+  Ca10  1  0.42862649  0.74943987  0.58365629  1
  Ca2+  Ca11  1  0.41986816  0.74387086  0.92417017  1
  Ca2+  Ca12  1  0.75235787  0.25156216  0.25381091  1
  Ca2+  Ca13  1  0.73654823  0.24460188  0.59799272  1
  Ca2+  Ca14  1  0.74625411  0.25465806  0.89897006  1
  Ca2+  Ca15  1  0.73127560  0.74582609  0.25380464  1
  Ca2+  Ca16  1  0.74326082  0.76344390  0.57418089  1
  Ca2+  Ca17  1  0.76624619  0.75093720  0.92285429  1
  Ca2+  Ca18  1  0.24838741  0.25632362  0.08711349  1
  Ca2+  Ca19  1  0.27215672  0.24676115  0.40849811  1
  Ca2+  Ca20  1  0.24321340  0.24603385  0.75246538  1
  Ca2+  Ca21  1  0.27391371  0.74165049  0.07146731  1
  Ca2+  Ca22  1  0.24968120  0.75561993  0.41933337  1
  Ca2+  Ca23  1  0.25753719  0.76296015  0.75761492  1
  Ca2+  Ca24  1  0.58603816  0.25638124  0.08164276  1
  Ca2+  Ca25  1  0.56262050  0.24518384  0.41226110  1
  Ca2+  Ca26  1  0.59871804  0.24814014  0.74952372  1
  Ca2+  Ca27  1  0.58082874  0.71058256  0.08667357  1
  Ca2+  Ca28  1  0.58518728  0.74053608  0.41082330  1
  Ca2+  Ca29  1  0.57156730  0.75233026  0.74873669  1
  Ca2+  Ca30  1  0.91553076  0.26016350  0.08398587  1
  Ca2+  Ca31  1  0.90915999  0.25801063  0.40935884  1
  Ca2+  Ca32  1  0.90985694  0.24141852  0.76054083  1
  Ca2+  Ca33  1  0.90998128  0.75136900  0.06707240  1
  Ca2+  Ca34  1  0.90496341  0.74848404  0.40894421  1
  Ca2+  Ca35  1  0.91909579  0.76122347  0.76676647  1
  Ca2+  Ca36  1  0.12396783  0.08258972  0.25367622  1
  Ca2+  Ca37  1  0.40988475  0.10713408  0.25460990  1
  Ca2+  Ca38  1  0.90152642  0.61083714  0.06871756  1
  Ca2+  Ca39  1  0.54280566  0.58281001  0.37032105  1
  Ca2+  Ca40  1  0.07455360  0.58408306  0.25792557  1
  Ca2+  Ca41  1  0.55355565  0.11157140  0.40524954  1
  Ca2+  Ca42  1  0.08229371  0.59313511  0.93674455  1
  Ca2+  Ca43  1  0.57305901  0.58878018  0.74670536  1
  Ca2+  Ca44  1  0.75757235  0.10748746  0.88980811  1
  Ca2+  Ca45  1  0.91617302  0.59489730  0.77743585  1
  Ca2+  Ca46  1  0.28444351  0.09133786  0.40365352  1
  Ca2+  Ca47  1  0.90853440  0.07743627  0.40919240  1
  Ca2+  Ca48  1  0.91605729  0.08757769  0.07342775  1
  Ca2+  Ca49  1  0.08717360  0.58213168  0.25848222  1
  Ca2+  Ca50  1  0.92910910  0.59484552  0.77761620  1
  Ca2+  Ca51  1  0.72420136  0.59658041  0.25887535  1
  Ca2+  Ca52  1  0.44688982  0.58887437  0.96340422  1
  Ca2+  Ca53  1  0.71901125  0.61634662  0.94153232  1
  Ca2+  Ca54  1  0.44171187  0.58668271  0.56582362  1
  Ca2+  Ca55  1  0.26452998  0.58201176  0.75167973  1
  Ca2+  Ca56  1  0.72679976  0.10426462  0.26235947  1
  Ca2+  Ca57  1  0.90488403  0.60595410  0.07567385  1
  Ca2+  Ca58  1  0.74849210  0.09141469  0.61046971  1
  Ca2+  Ca59  1  0.41297554  0.10860623  0.57389651  1
  Ca2+  Ca60  1  0.59231255  0.10875231  0.75193394  1
  Ca2+  Ca61  1  0.28544739  0.58170401  0.08588953  1
  Ca2+  Ca62  1  0.09103055  0.58404726  0.57263485  1
  Ca2+  Ca63  1  0.29374292  0.57096123  0.39258409  1
  Ca2+  Ca64  1  0.43206403  0.58524661  0.56332527  1
  Ca2+  Ca65  1  0.11056786  0.07703387  0.60441509  1
  Ca2+  Ca66  1  0.27815293  0.08554888  0.40557608  1
  Ca2+  Ca67  1  0.71417274  0.59715873  0.25753441  1
  Ca2+  Ca68  1  0.44878879  0.59603760  0.96306480  1
  Ca2+  Ca69  1  0.89708285  0.08062305  0.41255341  1
  Ca2+  Ca70  1  0.56197834  0.59021588  0.74564574  1
  Ca2+  Ca71  1  0.13434049  0.08266982  0.25507275  1
  Ca2+  Ca72  1  0.92307538  0.39162445  0.75658829  1
  Ca2+  Ca73  1  0.41061581  0.40437391  0.57655068  1
  Ca2+  Ca74  1  0.08082705  0.90293162  0.91534398  1
  Ca2+  Ca75  1  0.73247422  0.40627603  0.57465789  1
  Ca2+  Ca76  1  0.57673205  0.89377289  0.08449305  1
  Ca2+  Ca77  1  0.39444714  0.91222417  0.26348274  1
  Ca2+  Ca78  1  0.58509833  0.90054143  0.74820253  1
  Ca2+  Ca79  1  0.91244394  0.90235370  0.42075386  1
  Ca2+  Ca80  1  0.73883471  0.41803830  0.26896683  1
  Ca2+  Ca81  1  0.92156749  0.90017963  0.41652355  1
  Ca2+  Ca82  1  0.56231712  0.42775201  0.41101081  1
  Ca2+  Ca83  1  0.74489916  0.40771090  0.57635112  1
  Ca2+  Ca84  1  0.10819244  0.41710786  0.25684067  1
  Ca2+  Ca85  1  0.58952567  0.89341031  0.08452473  1
  Ca2+  Ca86  1  0.92252862  0.40443603  0.41344971  1
  Ca2+  Ca87  1  0.57046694  0.43066564  0.40595682  1
  Ca2+  Ca88  1  0.57116829  0.40402746  0.74684610  1
  Ca2+  Ca89  1  0.41007538  0.41075002  0.92461979  1
  Ca2+  Ca90  1  0.11828769  0.41519373  0.25805359  1
  Ca2+  Ca91  1  0.39583291  0.43886669  0.25873752  1
  Ca2+  Ca92  1  0.38591096  0.43798093  0.26015819  1
  Ca2+  Ca93  1  0.92032329  0.91894590  0.73631370  1
  Ca2+  Ca94  1  0.56126158  0.41631272  0.07963900  1
  Ca2+  Ca95  1  0.25223946  0.39397503  0.74771561  1
  Ca2+  Ca96  1  0.90965224  0.91909216  0.73682611  1
  Ca2+  Ca97  1  0.75739908  0.89877927  0.25768041  1
  Ca2+  Ca98  1  0.72832985  0.41863587  0.26911382  1
  Ca2+  Ca99  1  0.24003862  0.92077587  0.72706511  1
  Ca2+  Ca100  1  0.24345884  0.90743827  0.08837174  1
  Ca2+  Ca101  1  0.40618010  0.90829245  0.26564136  1
  Ca2+  Ca102  1  0.41046054  0.90223807  0.91959724  1
  Ca2+  Ca103  1  0.23939217  0.91393893  0.41484514  1
  Ca2+  Ca104  1  0.25593568  0.90646951  0.08668024  1
  Ca2+  Ca105  1  0.08823974  0.40294032  0.91146224  1
  Ca2+  Ca106  1  0.92559542  0.40904404  0.08297612  1
  Ca2+  Ca107  1  0.40349792  0.90576236  0.58018234  1
  Mn3.34+  Mn108  1  0.08851585  0.33861272  0.08289686  1
  Mn3.34+  Mn109  1  0.08880953  0.33362124  0.42376443  1
  Mn3.34+  Mn110  1  0.08345321  0.32935421  0.75076998  1
  Mn3.34+  Mn111  1  0.08002430  0.82883638  0.08821150  1
  Mn3.34+  Mn112  1  0.08373996  0.83189330  0.41431482  1
  Mn3.34+  Mn113  1  0.08633030  0.83935260  0.74762990  1
  Mn3.34+  Mn114  1  0.41232653  0.34135074  0.09077453  1
  Mn3.34+  Mn115  1  0.41422191  0.33692590  0.41640234  1
  Mn3.34+  Mn116  1  0.41557586  0.32905895  0.74902070  1
  Mn3.34+  Mn117  1  0.41713655  0.82756666  0.08777762  1
  Mn3.34+  Mn118  1  0.41851311  0.82672808  0.42040295  1
  Mn3.34+  Mn119  1  0.41600906  0.83354077  0.75142422  1
  Mn3.34+  Mn120  1  0.74669885  0.33574587  0.08218411  1
  Mn3.34+  Mn121  1  0.74848671  0.33073997  0.41941086  1
  Mn3.34+  Mn122  1  0.75099190  0.33068836  0.75312184  1
  Mn3.34+  Mn123  1  0.75084269  0.82431047  0.08595505  1
  Mn3.34+  Mn124  1  0.74294756  0.83177465  0.41820504  1
  Mn3.34+  Mn125  1  0.74683360  0.83670745  0.74977121  1
  Mn3.34+  Mn126  1  0.25669887  0.33170880  0.25044293  1
  Mn3.34+  Mn127  1  0.24724195  0.33364774  0.57731547  1
  Mn3.34+  Mn128  1  0.25167708  0.33143626  0.91994101  1
  Mn3.34+  Mn129  1  0.24409647  0.83073656  0.24786820  1
  Mn3.34+  Mn130  1  0.24997170  0.83806592  0.58053464  1
  Mn3.34+  Mn131  1  0.24797595  0.83499702  0.91216452  1
  Mn3.34+  Mn132  1  0.57756923  0.33615372  0.24226667  1
  Mn3.34+  Mn133  1  0.57846606  0.33410756  0.57976815  1
  Mn3.34+  Mn134  1  0.58424254  0.33396948  0.91706406  1
  Mn3.34+  Mn135  1  0.58207436  0.82794770  0.25487704  1
  Mn3.34+  Mn136  1  0.58217425  0.83077321  0.57869917  1
  Mn3.34+  Mn137  1  0.58782984  0.82618066  0.91277077  1
  Mn3.34+  Mn138  1  0.91815622  0.33452102  0.24594136  1
  Mn3.34+  Mn139  1  0.91868532  0.33007070  0.58098853  1
  Mn3.34+  Mn140  1  0.91618056  0.33306535  0.92062431  1
  Mn3.34+  Mn141  1  0.91756753  0.83200727  0.23899404  1
  Mn3.34+  Mn142  1  0.91251438  0.83982658  0.58268341  1
  Mn3.34+  Mn143  1  0.91267049  0.83810575  0.91884481  1
  Mn3.34+  Mn144  1  0.92469780  0.16261403  0.58728488  1
  Mn3.34+  Mn145  1  0.91808521  0.16585710  0.24698536  1
  Mn3.34+  Mn146  1  0.41191619  0.66801554  0.75354964  1
  Mn3.34+  Mn147  1  0.92074577  0.16778732  0.91146648  1
  Mn3.34+  Mn148  1  0.08997908  0.67230048  0.08943024  1
  Mn3.34+  Mn149  1  0.26166205  0.66188676  0.24778045  1
  Mn3.34+  Mn150  1  0.75176690  0.67221894  0.74532455  1
  Mn3.34+  Mn151  1  0.24797155  0.66276879  0.57701403  1
  Mn3.34+  Mn152  1  0.25137619  0.66656721  0.91685695  1
  Mn3.34+  Mn153  1  0.91425112  0.15807194  0.58600445  1
  Mn3.34+  Mn154  1  0.08920172  0.17402903  0.42604748  1
  Mn3.34+  Mn155  1  0.09549056  0.66346630  0.74994950  1
  Mn3.34+  Mn156  1  0.25750864  0.66829651  0.57951863  1
  Mn3.34+  Mn157  1  0.91482921  0.66896896  0.24794796  1
  Mn3.34+  Mn158  1  0.25070098  0.15867101  0.58747513  1
  Mn3.34+  Mn159  1  0.42262565  0.16698983  0.07963123  1
  Mn3.34+  Mn160  1  0.58826899  0.66459809  0.57305088  1
  Mn3.34+  Mn161  1  0.90636114  0.66406643  0.57874709  1
  Mn3.34+  Mn162  1  0.41310111  0.16180744  0.07993877  1
  Mn3.34+  Mn163  1  0.25568796  0.16312394  0.90906722  1
  Mn3.34+  Mn164  1  0.74234765  0.66652099  0.74719501  1
  Mn3.34+  Mn165  1  0.74447672  0.16933142  0.42333164  1
  Mn3.34+  Mn166  1  0.25320437  0.66823722  0.24862504  1
  Mn3.34+  Mn167  1  0.08081997  0.66746080  0.41856116  1
  Mn3.34+  Mn168  1  0.58073345  0.17161047  0.91185591  1
  Mn3.34+  Mn169  1  0.08537543  0.66905467  0.74718131  1
  Mn3.34+  Mn170  1  0.91926118  0.67060656  0.58221702  1
  Mn3.34+  Mn171  1  0.73797172  0.16442189  0.08397389  1
  Mn3.34+  Mn172  1  0.41453944  0.17092560  0.75099651  1
  Mn3.34+  Mn173  1  0.08903529  0.16214667  0.75871463  1
  Mn3.34+  Mn174  1  0.58196887  0.16972962  0.58161359  1
  Mn3.34+  Mn175  1  0.74786098  0.16952032  0.08213155  1
  Mn3.34+  Mn176  1  0.08298522  0.16778783  0.07702185  1
  Mn3.34+  Mn177  1  0.07677070  0.16591485  0.42841936  1
  Mn3.34+  Mn178  1  0.09215253  0.16210698  0.07868362  1
  Mn3.34+  Mn179  1  0.74452667  0.66247306  0.41855643  1
  Mn3.34+  Mn180  1  0.40335747  0.00279144  0.75214206  1
  Mn3.34+  Mn181  1  0.58818982  -0.00102890  0.91634868  1
  Mn3.34+  Mn182  1  0.57603944  0.00844987  0.23924132  1
  Mn3.34+  Mn183  1  0.24887170  0.49878476  0.58205234  1
  Mn3.34+  Mn184  1  0.74503989  0.49491659  0.07870972  1
  Mn3.34+  Mn185  1  0.59054494  0.00287892  0.24071095  1
  Mn3.34+  Mn186  1  0.91569622  0.00584283  0.91091416  1
  Mn3.34+  Mn187  1  0.40989557  0.49964019  0.74562027  1
  Mn3.34+  Mn188  1  0.74371550  0.49808774  0.76343490  1
  Mn3.34+  Mn189  1  0.91220779  0.50587612  0.58023427  1
  Mn3.34+  Mn190  1  0.41204499  0.00293382  0.07897880  1
  Mn3.34+  Mn191  1  0.08349581  0.00136538  0.43163795  1
  Mn3.34+  Mn192  1  0.09272291  0.49839279  0.41708598  1
  Mn3.34+  Mn193  1  0.73395772  0.50342420  0.07961072  1
  Mn3.34+  Mn194  1  0.91968016  0.00033638  0.25028598  1
  Mn3.34+  Mn195  1  0.91158223  0.50127532  0.25216197  1
  Mn3.34+  Mn196  1  0.25068045  0.50119594  0.92232659  1
  Mn3.34+  Mn197  1  0.74945167  0.00074787  0.08429268  1
  Mn3.34+  Mn198  1  0.58271488  0.49207444  0.91454153  1
  Mn3.34+  Mn199  1  0.75587238  0.49416942  0.76428053  1
  Mn3.34+  Mn200  1  0.08305427  -0.00266645  0.08054656  1
  Mn3.34+  Mn201  1  0.42463906  -0.00771321  0.42068657  1
  Mn3.34+  Mn202  1  0.25360360  0.00288298  0.92070878  1
  Mn3.34+  Mn203  1  0.73715203  -0.00207673  0.42310310  1
  Mn3.34+  Mn204  1  0.08646346  0.00242725  0.74135730  1
  Mn3.34+  Mn205  1  0.91947606  0.49531181  0.92846115  1
  Mn3.34+  Mn206  1  0.92504430  0.49875103  0.58223554  1
  Mn3.34+  Mn207  1  0.09175811  0.50212472  0.08059339  1
  Mn3.34+  Mn208  1  0.57617240  -0.00005146  0.57228475  1
  Mn3.34+  Mn209  1  0.09101635  0.49692616  0.74691823  1
  Mn3.34+  Mn210  1  0.07086258  -0.00988163  0.08069000  1
  Mn3.34+  Mn211  1  0.57433604  0.00454192  0.91958067  1
  Mn3.34+  Mn212  1  0.74541700  -0.00221698  0.74231876  1
  Mn3.34+  Mn213  1  0.76198014  -0.00650602  0.08319543  1
  Mn3.34+  Mn214  1  0.41487451  0.00665727  0.75000201  1
  Mn3.34+  Mn215  1  0.58798660  -0.00708905  0.57164963  1
  O2-  O216  1  0.00029646  0.15000326  0.00117413  1
  O2-  O217  1  0.00632687  0.14334642  0.33706347  1
  O2-  O218  1  0.00486248  0.16210675  0.66616233  1
  O2-  O219  1  0.00603646  0.66669226  0.01011688  1
  O2-  O220  1  0.00533935  0.66017159  0.32556922  1
  O2-  O221  1  0.00015516  0.64005821  0.66565137  1
  O2-  O222  1  0.33762201  0.17625488  -0.00213069  1
  O2-  O223  1  0.33578836  0.16051828  0.33900624  1
  O2-  O224  1  0.33709416  0.18475403  0.66202939  1
  O2-  O225  1  0.33376828  0.65315547  -0.00944731  1
  O2-  O226  1  0.33088727  0.69371526  0.32983752  1
  O2-  O227  1  0.33328600  0.64396485  0.66294100  1
  O2-  O228  1  0.66436687  0.14795338  -0.00140596  1
  O2-  O229  1  0.66343269  0.16569881  0.34711429  1
  O2-  O230  1  0.66309753  0.16024833  0.65948540  1
  O2-  O231  1  0.67458201  0.69762444  -0.00744624  1
  O2-  O232  1  0.65920533  0.66470404  0.34393669  1
  O2-  O233  1  0.66268108  0.64617530  0.66936885  1
  O2-  O234  1  0.17187390  0.15358046  -0.00061338  1
  O2-  O235  1  0.17086492  0.14912252  0.34945388  1
  O2-  O236  1  0.16773756  0.16241337  0.66835975  1
  O2-  O237  1  0.17134969  0.66250186  0.00516585  1
  O2-  O238  1  0.17325504  0.65828004  0.33011035  1
  O2-  O239  1  0.16995670  0.64269952  0.66120384  1
  O2-  O240  1  0.49675099  0.17415044  -0.00445038  1
  O2-  O241  1  0.49736733  0.17697141  0.32259216  1
  O2-  O242  1  0.49825175  0.15926676  0.66412438  1
  O2-  O243  1  0.50630096  0.67609908  -0.02052687  1
  O2-  O244  1  0.49566980  0.67627539  0.34612848  1
  O2-  O245  1  0.49413576  0.65206323  0.66335534  1
  O2-  O246  1  0.83068758  0.15035256  0.00650397  1
  O2-  O247  1  0.83230009  0.14914182  0.33862171  1
  O2-  O248  1  0.83323172  0.16960698  0.66318357  1
  O2-  O249  1  0.82957485  0.66550276  0.00133230  1
  O2-  O250  1  0.82594588  0.66777038  0.32397538  1
  O2-  O251  1  0.83736490  0.64221402  0.67264730  1
  O2-  O252  1  0.00355852  0.34993116  0.00193938  1
  O2-  O253  1  0.00444756  0.35279706  0.32363166  1
  O2-  O254  1  -0.00763753  0.32490242  0.67184945  1
  O2-  O255  1  0.00577705  0.83485379  -0.00237618  1
  O2-  O256  1  -0.00592302  0.83327392  0.33320394  1
  O2-  O257  1  -0.00443495  0.85037996  0.66789950  1
  O2-  O258  1  0.33795933  0.32920439  0.00006128  1
  O2-  O259  1  0.34268417  0.35004529  0.32622241  1
  O2-  O260  1  0.33352090  0.31790453  0.66682026  1
  O2-  O261  1  0.33119210  0.84566000  0.00841788  1
  O2-  O262  1  0.32867216  0.83485131  0.33542492  1
  O2-  O263  1  0.32932760  0.84842678  0.67080505  1
  O2-  O264  1  0.65607474  0.35148277  0.01127068  1
  O2-  O265  1  0.66142360  0.34265280  0.33586963  1
  O2-  O266  1  0.66500180  0.35117427  0.66515841  1
  O2-  O267  1  0.66035862  0.82880401  0.00559444  1
  O2-  O268  1  0.66968815  0.84047271  0.32812750  1
  O2-  O269  1  0.66244468  0.84266736  0.66756299  1
  O2-  O270  1  0.16709466  0.34726305  -0.00253451  1
  O2-  O271  1  0.16902816  0.34492835  0.33529706  1
  O2-  O272  1  0.17012898  0.32950191  0.66798258  1
  O2-  O273  1  0.16833999  0.84556061  0.00377308  1
  O2-  O274  1  0.16781556  0.83120488  0.33329623  1
  O2-  O275  1  0.16755251  0.84670369  0.66523974  1
  O2-  O276  1  0.49368491  0.34079299  0.00194020  1
  O2-  O277  1  0.50390516  0.34470702  0.33390828  1
  O2-  O278  1  0.49511703  0.34729160  0.66043281  1
  O2-  O279  1  0.49811603  0.84370331  -0.00204061  1
  O2-  O280  1  0.49094661  0.84228170  0.32683399  1
  O2-  O281  1  0.49731831  0.84329062  0.66589414  1
  O2-  O282  1  0.83876958  0.35007417  0.00679316  1
  O2-  O283  1  0.83056890  0.35105318  0.33217223  1
  O2-  O284  1  0.82752788  0.34238888  0.65777145  1
  O2-  O285  1  0.83074370  0.82649902  0.00341673  1
  O2-  O286  1  0.84043997  0.83207005  0.33510429  1
  O2-  O287  1  0.83327419  0.85336686  0.66811866  1
  O2-  O288  1  0.00058696  0.18114077  0.15833411  1
  O2-  O289  1  -0.00513894  0.19413697  0.50364718  1
  O2-  O290  1  0.00210318  0.18115695  0.83457222  1
  O2-  O291  1  0.00571765  0.68236493  0.16908957  1
  O2-  O292  1  0.00615015  0.68426507  0.51091795  1
  O2-  O293  1  -0.00550381  0.67596032  0.82338783  1
  O2-  O294  1  0.33729651  0.18318561  0.15794528  1
  O2-  O295  1  0.32272438  0.17469793  0.50469212  1
  O2-  O296  1  0.33628459  0.19213033  0.83097261  1
  O2-  O297  1  0.33432513  0.67573277  0.16500471  1
  O2-  O298  1  0.34252128  0.67901295  0.50420928  1
  O2-  O299  1  0.32690880  0.67827926  0.82771518  1
  O2-  O300  1  0.67005725  0.18397390  0.16975972  1
  O2-  O301  1  0.66687208  0.18518339  0.50330987  1
  O2-  O302  1  0.66320087  0.17663237  0.83836287  1
  O2-  O303  1  0.67760801  0.67328983  0.17574665  1
  O2-  O304  1  0.67352051  0.68254654  0.50555512  1
  O2-  O305  1  0.66144350  0.67387684  0.82661830  1
  O2-  O306  1  0.15788641  0.17028913  0.17230084  1
  O2-  O307  1  0.15897061  0.18748215  0.51465825  1
  O2-  O308  1  0.16998799  0.17655176  0.83536496  1
  O2-  O309  1  0.17064507  0.69489513  0.17313854  1
  O2-  O310  1  0.16779076  0.68447947  0.50013242  1
  O2-  O311  1  0.16533965  0.68487922  0.83862963  1
  O2-  O312  1  0.49504041  0.19253571  0.15664326  1
  O2-  O313  1  0.50117103  0.17645583  0.50289657  1
  O2-  O314  1  0.50411817  0.19074265  0.82490910  1
  O2-  O315  1  0.51093087  0.64471130  0.17327442  1
  O2-  O316  1  0.50166576  0.67588864  0.50607850  1
  O2-  O317  1  0.50147542  0.67609838  0.81647719  1
  O2-  O318  1  0.82953539  0.18206313  0.16367361  1
  O2-  O319  1  0.83953988  0.18372063  0.50278546  1
  O2-  O320  1  0.83500933  0.18420696  0.84632891  1
  O2-  O321  1  0.84714567  0.68139956  0.16181195  1
  O2-  O322  1  0.83437364  0.68196579  0.49530029  1
  O2-  O323  1  0.83357196  0.67831654  0.82551591  1
  O2-  O324  1  -0.00197942  0.32317220  0.16371282  1
  O2-  O325  1  -0.00412185  0.31620297  0.49554290  1
  O2-  O326  1  0.00323222  0.32043949  0.83638817  1
  O2-  O327  1  -0.00290040  0.80281318  0.16292418  1
  O2-  O328  1  -0.00802434  0.82431961  0.49236651  1
  O2-  O329  1  0.00275318  0.83188406  0.82961128  1
  O2-  O330  1  0.33477014  0.31468191  0.16656718  1
  O2-  O331  1  0.33611364  0.32300241  0.50248676  1
  O2-  O332  1  0.33155584  0.31963136  0.83188763  1
  O2-  O333  1  0.33207418  0.81994978  0.16802746  1
  O2-  O334  1  0.33701175  0.81004211  0.50417452  1
  O2-  O335  1  0.33805238  0.82590819  0.83899313  1
  O2-  O336  1  0.66672480  0.31053180  0.17592885  1
  O2-  O337  1  0.67230375  0.32017171  0.50771804  1
  O2-  O338  1  0.66254272  0.32840931  0.82762581  1
  O2-  O339  1  0.66044817  0.82070458  0.16484262  1
  O2-  O340  1  0.66214980  0.82154955  0.49692976  1
  O2-  O341  1  0.66723796  0.80760478  0.82995635  1
  O2-  O342  1  0.16272191  0.32853982  0.17415561  1
  O2-  O343  1  0.16983088  0.30574630  0.49972712  1
  O2-  O344  1  0.16824243  0.32923697  0.83213104  1
  O2-  O345  1  0.17233575  0.81005062  0.15989411  1
  O2-  O346  1  0.17013124  0.82527844  0.49382780  1
  O2-  O347  1  0.16181204  0.81953347  0.83720766  1
  O2-  O348  1  0.50004636  0.31228138  0.16510539  1
  O2-  O349  1  0.50262698  0.32290072  0.49656590  1
  O2-  O350  1  0.50061377  0.31647436  0.82726680  1
  O2-  O351  1  0.50066669  0.83131965  0.16798315  1
  O2-  O352  1  0.50034348  0.80759285  0.49694538  1
  O2-  O353  1  0.50009844  0.81302479  0.83680930  1
  O2-  O354  1  0.83069289  0.32323370  0.16826731  1
  O2-  O355  1  0.83117579  0.31776356  0.50164504  1
  O2-  O356  1  0.84100078  0.31853704  0.82980406  1
  O2-  O357  1  0.82547858  0.80851132  0.17329981  1
  O2-  O358  1  0.83659734  0.82087449  0.49585464  1
  O2-  O359  1  0.83827469  0.83348249  0.82477394  1
  O2-  O360  1  0.06831044  0.07460006  0.12608864  1
  O2-  O361  1  0.06986265  0.08533800  0.46968345  1
  O2-  O362  1  0.08527062  0.07843264  0.76595690  1
  O2-  O363  1  0.08722903  0.58181086  0.12166736  1
  O2-  O364  1  0.08765528  0.58232887  0.43488488  1
  O2-  O365  1  0.06864413  0.57718517  0.79821223  1
  O2-  O366  1  0.42833965  0.08226605  0.12043448  1
  O2-  O367  1  0.42155813  0.07276109  0.44653220  1
  O2-  O368  1  0.42773101  0.08699238  0.77201539  1
  O2-  O369  1  0.42092664  0.57720583  0.09065434  1
  O2-  O370  1  0.41662248  0.56210051  0.44564887  1
  O2-  O371  1  0.41653332  0.57950348  0.78819268  1
  O2-  O372  1  0.75904557  0.07849443  0.12797476  1
  O2-  O373  1  0.76077906  0.08257334  0.45867538  1
  O2-  O374  1  0.72981127  0.07331055  0.76761219  1
  O2-  O375  1  0.77385930  0.57444942  0.12874665  1
  O2-  O376  1  0.73906125  0.58360149  0.40579275  1
  O2-  O377  1  0.76688835  0.57994595  0.79486191  1
  O2-  O378  1  0.25488940  0.07079571  0.23749739  1
  O2-  O379  1  0.24106769  0.07865948  0.54088362  1
  O2-  O380  1  0.27015898  0.08121875  0.88974675  1
  O2-  O381  1  0.22556289  0.58498813  0.21402271  1
  O2-  O382  1  0.24260483  0.57807653  0.53272739  1
  O2-  O383  1  0.23584950  0.58078680  0.88610509  1
  O2-  O384  1  0.57744059  0.08839365  0.23831108  1
  O2-  O385  1  0.58846251  0.08120558  0.54894479  1
  O2-  O386  1  0.57554227  0.08440260  0.88794092  1
  O2-  O387  1  0.59405251  0.57336471  0.24024536  1
  O2-  O388  1  0.57322536  0.58181421  0.56155719  1
  O2-  O389  1  0.57715920  0.57151618  0.87919050  1
  O2-  O390  1  0.91578768  0.08143179  0.21453755  1
  O2-  O391  1  0.91952823  0.07631810  0.54723833  1
  O2-  O392  1  0.90209915  0.08548967  0.89247797  1
  O2-  O393  1  0.93616246  0.57833006  0.20950118  1
  O2-  O394  1  0.93145913  0.58174873  0.54026965  1
  O2-  O395  1  0.91941517  0.57660029  0.90615722  1
  O2-  O396  1  0.07509976  0.42325326  0.12099410  1
  O2-  O397  1  0.06933082  0.41865575  0.44024521  1
  O2-  O398  1  0.07774497  0.41361892  0.76837673  1
  O2-  O399  1  0.10423016  0.91587057  0.12535282  1
  O2-  O400  1  0.07053229  0.91703078  0.42343978  1
  O2-  O401  1  0.09099438  0.92760768  0.78330091  1
  O2-  O402  1  0.42802450  0.42080522  0.12431373  1
  O2-  O403  1  0.43124469  0.41880624  0.44519212  1
  O2-  O404  1  0.40616804  0.41990526  0.77223126  1
  O2-  O405  1  0.41818880  0.92105385  0.12927376  1
  O2-  O406  1  0.40564815  0.91274556  0.43757025  1
  O2-  O407  1  0.43074967  0.92155489  0.78505424  1
  O2-  O408  1  0.73695308  0.42062274  0.12775970  1
  O2-  O409  1  0.75307679  0.41565391  0.44267666  1
  O2-  O410  1  0.77177223  0.41371484  0.77100015  1
  O2-  O411  1  0.72792439  0.91564473  0.11360306  1
  O2-  O412  1  0.77250494  0.91478364  0.42193293  1
  O2-  O413  1  0.73727214  0.92090230  0.77961595  1
  O2-  O414  1  0.25219897  0.41744987  0.22793169  1
  O2-  O415  1  0.26844763  0.41859041  0.59250819  1
  O2-  O416  1  0.25969377  0.42097239  0.89089917  1
  O2-  O417  1  0.26857308  0.92051133  0.21948632  1
  O2-  O418  1  0.26283179  0.91437401  0.55024475  1
  O2-  O419  1  0.24753853  0.92365501  0.87662329  1
  O2-  O420  1  0.59819328  0.41232314  0.21372998  1
  O2-  O421  1  0.59552123  0.42010867  0.54970163  1
  O2-  O422  1  0.56530726  0.41498499  0.88579245  1
  O2-  O423  1  0.58827414  0.92136262  0.21870359  1
  O2-  O424  1  0.56167926  0.91393855  0.55230619  1
  O2-  O425  1  0.58073197  0.91864230  0.88390179  1
  O2-  O426  1  0.90879766  0.42117721  0.22227847  1
  O2-  O427  1  0.89741884  0.42011788  0.55148294  1
  O2-  O428  1  0.93084062  0.41790796  0.89006094  1
  O2-  O429  1  0.89949811  0.91880587  0.23791051  1
  O2-  O430  1  0.91441098  0.91956494  0.55313861  1
  O2-  O431  1  0.92862325  0.92600205  0.87902629  1
  O2-  O432  1  -0.00235161  0.00137878  -0.00594417  1
  O2-  O433  1  0.00203025  0.01892281  0.34100970  1
  O2-  O434  1  -0.00097221  -0.00607200  0.68289680  1
  O2-  O435  1  -0.00690805  0.51185292  0.01821242  1
  O2-  O436  1  0.00913952  0.49815911  0.31322320  1
  O2-  O437  1  -0.00817146  0.51455162  0.67607031  1
  O2-  O438  1  0.32722689  -0.02813841  0.00569137  1
  O2-  O439  1  0.33347548  -0.00619969  0.35327440  1
  O2-  O440  1  0.33463633  -0.01408597  0.66483141  1
  O2-  O441  1  0.34171671  0.51357541  -0.01989330  1
  O2-  O442  1  0.33070691  0.50936867  0.30950836  1
  O2-  O443  1  0.34692176  0.52078832  0.64588472  1
  O2-  O444  1  0.66912749  -0.00076715  0.00021532  1
  O2-  O445  1  0.67054876  0.00857623  0.32218491  1
  O2-  O446  1  0.67391133  0.00195945  0.65160280  1
  O2-  O447  1  0.66993806  0.51246958  -0.01507108  1
  O2-  O448  1  0.65704877  0.48032888  0.34160047  1
  O2-  O449  1  0.65486485  0.49651714  0.69204542  1
  O2-  O450  1  0.16673356  -0.01659486  0.00022820  1
  O2-  O451  1  0.17637911  0.02233203  0.36510563  1
  O2-  O452  1  0.16392978  -0.00257993  0.67083889  1
  O2-  O453  1  0.15268095  0.50302319  -0.01970526  1
  O2-  O454  1  0.15720089  0.50321032  0.31785013  1
  O2-  O455  1  0.17421193  0.52158147  0.66876855  1
  O2-  O456  1  0.50744093  -0.02340138  0.00870215  1
  O2-  O457  1  0.49279563  -0.00797162  0.31970311  1
  O2-  O458  1  0.50428863  -0.00195860  0.66879023  1
  O2-  O459  1  0.49288317  0.49215864  -0.02276268  1
  O2-  O460  1  0.49689904  0.48238952  0.32219373  1
  O2-  O461  1  0.50225842  0.51098521  0.68457437  1
  O2-  O462  1  0.83630688  0.00711065  -0.00105041  1
  O2-  O463  1  0.84000385  0.00563015  0.34510967  1
  O2-  O464  1  0.84022865  -0.00029202  0.69024352  1
  O2-  O465  1  0.83762441  0.50333383  0.01073983  1
  O2-  O466  1  0.80193157  0.50727651  0.28043412  1
  O2-  O467  1  0.82862832  0.50281453  0.66591916  1
  O2-  O468  1  0.40557778  0.74793959  0.72224178  1
  O2-  O469  1  0.74432662  0.25376802  0.73637088  1
  O2-  O470  1  0.92437748  0.25039847  0.94703806  1
  O2-  O471  1  0.08992336  0.24684672  0.74158562  1
  O2-  O472  1  0.07794939  0.75297355  0.71999951  1
  O2-  O473  1  0.08925347  0.25342590  0.06385395  1
  O2-  O474  1  0.08184845  0.74907657  0.39925756  1
  O2-  O475  1  0.57910817  0.75009300  0.26311270  1
  O2-  O476  1  0.41515503  0.25689861  0.40363406  1
  O2-  O477  1  0.06963518  0.24949147  0.38056440  1
  O2-  O478  1  0.42356418  0.75035844  0.07112505  1
  O2-  O479  1  0.26206450  0.75065050  0.93558473  1
  O2-  O480  1  0.75376946  0.25186913  0.04896393  1
  O2-  O481  1  0.58065600  0.25316556  0.60729652  1
  O2-  O482  1  0.23510730  0.25023905  0.93558451  1
  O2-  O483  1  0.76095920  0.25048539  0.39106644  1
  O2-  O484  1  0.59918868  0.25247269  0.94120552  1
  O2-  O485  1  0.24627038  0.25376447  0.27082986  1
  O2-  O486  1  0.74743694  0.75107149  0.40090532  1
  O2-  O487  1  0.91397148  0.75151307  0.61601926  1
  O2-  O488  1  0.91970170  0.75842525  0.91711600  1
  O2-  O489  1  0.91419889  0.24996699  0.27226541  1
  O2-  O490  1  0.58871184  0.74793280  0.61028570  1
  O2-  O491  1  0.76564628  0.75317790  0.71554133  1
  O2-  O492  1  0.24101789  0.74938007  0.61538084  1
