# generated using pymatgen
data_Ca108Mn108O277
_symmetry_space_group_name_H-M   'P 1'
_cell_length_a   16.01867755
_cell_length_b   22.29456930
_cell_length_c   16.38125900
_cell_angle_alpha   90.00206109
_cell_angle_beta   90.00025496
_cell_angle_gamma   89.99524321
_symmetry_Int_Tables_number   1
_chemical_formula_structural   Ca108Mn108O277
_chemical_formula_sum   'Ca108 Mn108 O277'
_cell_volume   5850.23108754
_cell_formula_units_Z   1
loop_
 _symmetry_equiv_pos_site_id
 _symmetry_equiv_pos_as_xyz
  1  'x, y, z'
loop_
 _atom_type_symbol
 _atom_type_oxidation_number
  Ca2+  2.0
  Mn3.34+  3.34
  O2-  -2.0
loop_
 _atom_site_type_symbol
 _atom_site_label
 _atom_site_symmetry_multiplicity
 _atom_site_fract_x
 _atom_site_fract_y
 _atom_site_fract_z
 _atom_site_occupancy
  Ca2+  Ca0  1  0.07845703  0.24827747  0.24469741  1
  Ca2+  Ca1  1  0.07121960  0.25052705  0.58729668  1
  Ca2+  Ca2  1  0.08506271  0.25551862  0.91657424  1
  Ca2+  Ca3  1  0.07630437  0.75909321  0.24329516  1
  Ca2+  Ca4  1  0.07802122  0.75510654  0.58366148  1
  Ca2+  Ca5  1  0.07096382  0.73800989  0.91889085  1
  Ca2+  Ca6  1  0.42273862  0.25592548  0.26110315  1
  Ca2+  Ca7  1  0.44136082  0.23263486  0.58491404  1
  Ca2+  Ca8  1  0.42071086  0.24786938  0.91985059  1
  Ca2+  Ca9  1  0.42666395  0.75456881  0.23458487  1
  Ca2+  Ca10  1  0.42188704  0.75915306  0.60504308  1
  Ca2+  Ca11  1  0.41050303  0.75006997  0.90631840  1
  Ca2+  Ca12  1  0.75285382  0.25166877  0.24044063  1
  Ca2+  Ca13  1  0.73523249  0.24563375  0.58685783  1
  Ca2+  Ca14  1  0.74628388  0.24600789  0.91800800  1
  Ca2+  Ca15  1  0.74391982  0.75161379  0.23114959  1
  Ca2+  Ca16  1  0.75105420  0.75920527  0.59461868  1
  Ca2+  Ca17  1  0.76942871  0.74982519  0.92004298  1
  Ca2+  Ca18  1  0.25900223  0.24763577  0.08788662  1
  Ca2+  Ca19  1  0.27415752  0.24580539  0.41107188  1
  Ca2+  Ca20  1  0.25613369  0.26232400  0.75438413  1
  Ca2+  Ca21  1  0.25198419  0.75232420  0.07431684  1
  Ca2+  Ca22  1  0.23304302  0.74646452  0.41766732  1
  Ca2+  Ca23  1  0.26845959  0.74392315  0.75192243  1
  Ca2+  Ca24  1  0.57879290  0.25113549  0.08727172  1
  Ca2+  Ca25  1  0.57039872  0.24027622  0.43601144  1
  Ca2+  Ca26  1  0.58156392  0.24322981  0.73460565  1
  Ca2+  Ca27  1  0.57926939  0.74379961  0.10319800  1
  Ca2+  Ca28  1  0.58157212  0.75810025  0.40147089  1
  Ca2+  Ca29  1  0.56979732  0.75646420  0.75233289  1
  Ca2+  Ca30  1  0.91485859  0.25023353  0.09776682  1
  Ca2+  Ca31  1  0.92433116  0.24348676  0.41877230  1
  Ca2+  Ca32  1  0.91192697  0.25153202  0.74695152  1
  Ca2+  Ca33  1  0.91760250  0.74517501  0.06989868  1
  Ca2+  Ca34  1  0.93406979  0.75019098  0.41290460  1
  Ca2+  Ca35  1  0.91542345  0.74917435  0.76186043  1
  Ca2+  Ca36  1  0.08631955  0.09084148  0.57179583  1
  Ca2+  Ca37  1  0.07288479  0.08716564  0.92033648  1
  Ca2+  Ca38  1  0.07367978  0.09272091  0.57250975  1
  Ca2+  Ca39  1  0.93538449  0.60066351  0.77930817  1
  Ca2+  Ca40  1  0.73068510  0.08386486  0.91240184  1
  Ca2+  Ca41  1  0.90223665  0.08442791  0.73896106  1
  Ca2+  Ca42  1  0.27656989  0.07126652  0.72324108  1
  Ca2+  Ca43  1  0.58921178  0.58151912  0.38523613  1
  Ca2+  Ca44  1  0.56281905  0.08509180  0.74102705  1
  Ca2+  Ca45  1  0.74310492  0.08195442  0.91331248  1
  Ca2+  Ca46  1  0.72521142  0.09351931  0.58329591  1
  Ca2+  Ca47  1  0.77903253  0.60136161  0.91342733  1
  Ca2+  Ca48  1  0.41475134  0.60167399  0.60738218  1
  Ca2+  Ca49  1  0.40386744  0.60247480  0.60353245  1
  Ca2+  Ca50  1  0.07554017  0.09357765  0.26677864  1
  Ca2+  Ca51  1  0.28873114  0.06949865  0.72614937  1
  Ca2+  Ca52  1  0.44867847  0.59469580  0.23778752  1
  Ca2+  Ca53  1  0.91660569  0.59716865  0.04542394  1
  Ca2+  Ca54  1  0.09398263  0.60921526  0.25739068  1
  Ca2+  Ca55  1  0.74600922  0.58974978  0.58717023  1
  Ca2+  Ca56  1  0.25449087  0.60346360  0.08149953  1
  Ca2+  Ca57  1  0.08295854  0.60963680  0.25810354  1
  Ca2+  Ca58  1  0.93651717  0.60529929  0.41809862  1
  Ca2+  Ca59  1  0.41424480  0.08458257  0.26350427  1
  Ca2+  Ca60  1  0.91143065  0.09380763  0.07975572  1
  Ca2+  Ca61  1  0.56415879  0.07663195  0.05543097  1
  Ca2+  Ca62  1  0.08755344  0.61191245  0.57670377  1
  Ca2+  Ca63  1  0.70707377  0.60028626  0.23824650  1
  Ca2+  Ca64  1  0.76064084  0.08948195  0.26353376  1
  Ca2+  Ca65  1  0.06058614  0.08958384  0.91824689  1
  Ca2+  Ca66  1  0.57304295  0.60439716  0.74812547  1
  Ca2+  Ca67  1  0.91965113  0.09402130  0.41510041  1
  Ca2+  Ca68  1  0.73224233  0.08832851  0.58033573  1
  Ca2+  Ca69  1  0.46060752  0.59464186  0.23380332  1
  Ca2+  Ca70  1  0.75888678  0.59041320  0.58673692  1
  Ca2+  Ca71  1  0.08667400  0.09269327  0.26536569  1
  Ca2+  Ca72  1  0.43316895  0.39857074  0.58029046  1
  Ca2+  Ca73  1  0.91602128  0.89944294  0.75363377  1
  Ca2+  Ca74  1  0.91987748  0.89891259  0.42098372  1
  Ca2+  Ca75  1  0.26090396  0.91122422  0.73240426  1
  Ca2+  Ca76  1  0.57106391  0.91268165  0.07122268  1
  Ca2+  Ca77  1  0.07239848  0.41355139  0.60941936  1
  Ca2+  Ca78  1  0.74676952  0.40566569  0.91637938  1
  Ca2+  Ca79  1  0.57414306  0.91428197  0.75636028  1
  Ca2+  Ca80  1  0.07515745  0.40477539  0.25138423  1
  Ca2+  Ca81  1  0.92559822  0.41453987  0.74939710  1
  Ca2+  Ca82  1  0.91886365  0.89603986  0.08397067  1
  Ca2+  Ca83  1  0.74423043  0.39927042  0.57656174  1
  Ca2+  Ca84  1  0.26239136  0.40380287  0.41179244  1
  Ca2+  Ca85  1  0.75562262  0.91845129  0.59162742  1
  Ca2+  Ca86  1  0.73801921  0.90919862  0.90985886  1
  Ca2+  Ca87  1  0.74470865  0.91825697  0.59127061  1
  Ca2+  Ca88  1  0.25744412  0.40759756  0.08370482  1
  Ca2+  Ca89  1  0.40103748  0.92883412  0.59752769  1
  Ca2+  Ca90  1  0.08133914  0.89510916  0.91318118  1
  Ca2+  Ca91  1  0.91670393  0.40663644  0.07101771  1
  Ca2+  Ca92  1  0.75047214  0.89958028  0.25227351  1
  Ca2+  Ca93  1  0.40707981  0.90753391  0.25136079  1
  Ca2+  Ca94  1  0.07162970  0.41183314  0.90123696  1
  Ca2+  Ca95  1  0.26947514  0.40550586  0.08634208  1
  Ca2+  Ca96  1  0.72765809  0.41442689  0.26198970  1
  Ca2+  Ca97  1  0.75949959  0.40614303  0.91685322  1
  Ca2+  Ca98  1  0.90594993  0.40321006  0.41525614  1
  Ca2+  Ca99  1  0.56942834  0.40791478  0.08780030  1
  Ca2+  Ca100  1  0.08801217  0.40535276  0.25120960  1
  Ca2+  Ca101  1  0.42061267  0.39831208  0.58168180  1
  Ca2+  Ca102  1  0.43369413  0.91585556  0.91933607  1
  Ca2+  Ca103  1  0.42591562  0.39840302  0.91799134  1
  Ca2+  Ca104  1  0.08325319  0.41403374  0.60701362  1
  Ca2+  Ca105  1  0.25984139  0.90246444  0.09126624  1
  Ca2+  Ca106  1  0.56935968  0.90720726  0.41957442  1
  Ca2+  Ca107  1  0.74028956  0.41329896  0.26194230  1
  Mn3.34+  Mn108  1  0.08390823  0.33075988  0.07943103  1
  Mn3.34+  Mn109  1  0.08740423  0.32709397  0.42257077  1
  Mn3.34+  Mn110  1  0.08321634  0.33183213  0.75332491  1
  Mn3.34+  Mn111  1  0.08702537  0.83417173  0.08617506  1
  Mn3.34+  Mn112  1  0.09077802  0.83774216  0.41685498  1
  Mn3.34+  Mn113  1  0.08892548  0.83245797  0.74711707  1
  Mn3.34+  Mn114  1  0.42013566  0.32911810  0.08558173  1
  Mn3.34+  Mn115  1  0.42310290  0.33102153  0.41457723  1
  Mn3.34+  Mn116  1  0.41940891  0.33019864  0.75301907  1
  Mn3.34+  Mn117  1  0.41597557  0.83710358  0.08308464  1
  Mn3.34+  Mn118  1  0.40702419  0.84015572  0.42266629  1
  Mn3.34+  Mn119  1  0.41580431  0.83717416  0.75304693  1
  Mn3.34+  Mn120  1  0.74691515  0.33040090  0.08562096  1
  Mn3.34+  Mn121  1  0.74455524  0.32875024  0.41800796  1
  Mn3.34+  Mn122  1  0.74821284  0.32826396  0.74816189  1
  Mn3.34+  Mn123  1  0.74763871  0.83588602  0.08169435  1
  Mn3.34+  Mn124  1  0.74955752  0.84056275  0.42115638  1
  Mn3.34+  Mn125  1  0.74714254  0.83823732  0.75361796  1
  Mn3.34+  Mn126  1  0.25537462  0.33539952  0.25160272  1
  Mn3.34+  Mn127  1  0.25020637  0.32797388  0.58143020  1
  Mn3.34+  Mn128  1  0.25031493  0.33574642  0.91213869  1
  Mn3.34+  Mn129  1  0.24720283  0.83304016  0.25518810  1
  Mn3.34+  Mn130  1  0.24770315  0.83794148  0.57720107  1
  Mn3.34+  Mn131  1  0.24921830  0.83286498  0.91266746  1
  Mn3.34+  Mn132  1  0.57711214  0.33964459  0.25138321  1
  Mn3.34+  Mn133  1  0.58696173  0.32953369  0.58339332  1
  Mn3.34+  Mn134  1  0.58391038  0.33243082  0.91035346  1
  Mn3.34+  Mn135  1  0.58100873  0.83165773  0.24913424  1
  Mn3.34+  Mn136  1  0.57813050  0.83437390  0.58012889  1
  Mn3.34+  Mn137  1  0.58288874  0.83734949  0.91614749  1
  Mn3.34+  Mn138  1  0.91552091  0.33435074  0.24951369  1
  Mn3.34+  Mn139  1  0.91143403  0.33053391  0.58142507  1
  Mn3.34+  Mn140  1  0.91584447  0.33394549  0.91143426  1
  Mn3.34+  Mn141  1  0.91817880  0.82846249  0.24932726  1
  Mn3.34+  Mn142  1  0.92124873  0.83082331  0.58257781  1
  Mn3.34+  Mn143  1  0.91794245  0.83090401  0.91585805  1
  Mn3.34+  Mn144  1  0.91538225  0.16921372  0.25056928  1
  Mn3.34+  Mn145  1  0.91559185  0.66743898  0.24328584  1
  Mn3.34+  Mn146  1  0.24963832  0.16443085  0.25197417  1
  Mn3.34+  Mn147  1  0.91216566  0.17075664  0.91429142  1
  Mn3.34+  Mn148  1  0.57464866  0.66086250  0.91956678  1
  Mn3.34+  Mn149  1  0.24792764  0.16583645  0.91831684  1
  Mn3.34+  Mn150  1  0.92111129  0.67044302  0.58573970  1
  Mn3.34+  Mn151  1  0.42254357  0.16667036  0.75313369  1
  Mn3.34+  Mn152  1  0.25120331  0.16276504  0.57273960  1
  Mn3.34+  Mn153  1  0.26050516  0.16829584  0.57416715  1
  Mn3.34+  Mn154  1  0.75450517  0.66741583  0.41656949  1
  Mn3.34+  Mn155  1  0.08390082  0.16302150  0.08579822  1
  Mn3.34+  Mn156  1  0.08485859  0.67110686  0.07737724  1
  Mn3.34+  Mn157  1  0.25107115  0.67492204  0.24794382  1
  Mn3.34+  Mn158  1  0.25322416  0.67099479  0.91015340  1
  Mn3.34+  Mn159  1  0.91540194  0.16812830  0.57954931  1
  Mn3.34+  Mn160  1  0.74933251  0.67106706  0.08466340  1
  Mn3.34+  Mn161  1  0.41742429  0.67399458  0.41932817  1
  Mn3.34+  Mn162  1  0.42030514  0.15802207  0.08480450  1
  Mn3.34+  Mn163  1  0.09399332  0.65827374  0.75557215  1
  Mn3.34+  Mn164  1  0.40488329  0.66681756  0.42009408  1
  Mn3.34+  Mn165  1  0.58720844  0.16265012  0.25336831  1
  Mn3.34+  Mn166  1  0.58828155  0.66763264  0.91987589  1
  Mn3.34+  Mn167  1  0.74726299  0.16406659  0.75213667  1
  Mn3.34+  Mn168  1  0.26115961  0.15950960  0.91716336  1
  Mn3.34+  Mn169  1  0.74834244  0.16354342  0.08541308  1
  Mn3.34+  Mn170  1  0.74778456  0.67863661  0.41395247  1
  Mn3.34+  Mn171  1  0.75386708  0.67153338  0.75180503  1
  Mn3.34+  Mn172  1  0.25935149  0.15901887  0.25115811  1
  Mn3.34+  Mn173  1  0.41361822  0.67001734  0.08025213  1
  Mn3.34+  Mn174  1  0.57805877  0.16860765  0.25427724  1
  Mn3.34+  Mn175  1  0.75165315  0.16085486  0.42122198  1
  Mn3.34+  Mn176  1  0.57737271  0.16032298  0.91201398  1
  Mn3.34+  Mn177  1  0.08057270  0.16712928  0.75185677  1
  Mn3.34+  Mn178  1  0.58638162  0.67191256  0.58053574  1
  Mn3.34+  Mn179  1  0.24433204  0.67812653  0.58392565  1
  Mn3.34+  Mn180  1  0.58287807  0.50086001  0.56904304  1
  Mn3.34+  Mn181  1  0.57359080  0.00058652  0.59132040  1
  Mn3.34+  Mn182  1  0.91186866  0.50312655  0.24800185  1
  Mn3.34+  Mn183  1  0.57828505  -0.00317931  0.26285488  1
  Mn3.34+  Mn184  1  0.74592720  0.00018121  0.07909877  1
  Mn3.34+  Mn185  1  0.75242369  0.50139915  0.08287064  1
  Mn3.34+  Mn186  1  0.25212625  -0.00336838  0.26655085  1
  Mn3.34+  Mn187  1  0.25595838  0.50032479  0.57513831  1
  Mn3.34+  Mn188  1  0.25969532  0.50391698  0.25013273  1
  Mn3.34+  Mn189  1  0.08634967  0.50769465  0.07649761  1
  Mn3.34+  Mn190  1  0.42689946  0.49667810  0.75547569  1
  Mn3.34+  Mn191  1  0.07149485  0.50250740  0.07687961  1
  Mn3.34+  Mn192  1  0.08377234  -0.00087923  0.08344988  1
  Mn3.34+  Mn193  1  0.25414873  -0.00381340  0.92592154  1
  Mn3.34+  Mn194  1  0.91504520  -0.00193820  0.91484648  1
  Mn3.34+  Mn195  1  0.91994569  -0.00067051  0.58033570  1
  Mn3.34+  Mn196  1  0.91889404  0.50062530  0.57841035  1
  Mn3.34+  Mn197  1  0.09496196  0.50435302  0.42268280  1
  Mn3.34+  Mn198  1  0.08083589  -0.00034752  0.74641621  1
  Mn3.34+  Mn199  1  0.26758660  0.00073903  0.93019390  1
  Mn3.34+  Mn200  1  0.92167613  -0.00614453  0.24954249  1
  Mn3.34+  Mn201  1  0.74211918  0.50651337  0.08110429  1
  Mn3.34+  Mn202  1  0.25700623  0.50302351  0.90383053  1
  Mn3.34+  Mn203  1  0.42003180  0.49939616  0.40744734  1
  Mn3.34+  Mn204  1  0.57588651  0.49864238  0.91344080  1
  Mn3.34+  Mn205  1  0.09497507  -0.00571023  0.41368322  1
  Mn3.34+  Mn206  1  0.91126702  -0.00124189  0.24768109  1
  Mn3.34+  Mn207  1  0.59029282  0.00359723  0.26181910  1
  Mn3.34+  Mn208  1  0.41386115  0.50288942  0.75694301  1
  Mn3.34+  Mn209  1  0.24242268  0.50687263  0.57686485  1
  Mn3.34+  Mn210  1  0.74730436  0.50011504  0.41242301  1
  Mn3.34+  Mn211  1  0.73898189  0.49678806  0.75187396  1
  Mn3.34+  Mn212  1  0.24503054  0.50782009  0.90307646  1
  Mn3.34+  Mn213  1  0.42105351  0.50176692  0.07491420  1
  Mn3.34+  Mn214  1  0.08461819  0.49887156  0.42005537  1
  Mn3.34+  Mn215  1  0.74993504  0.50199602  0.75314102  1
  O2-  O216  1  -0.00550549  0.15877528  -0.00080569  1
  O2-  O217  1  -0.00120967  0.16266542  0.32951488  1
  O2-  O218  1  -0.00047075  0.15021586  0.66316520  1
  O2-  O219  1  0.00232940  0.66550620  0.00643769  1
  O2-  O220  1  -0.00296408  0.66592703  0.32884841  1
  O2-  O221  1  0.00477100  0.66324847  0.66452149  1
  O2-  O222  1  0.33364142  0.16045747  0.00309389  1
  O2-  O223  1  0.33669245  0.16250075  0.33149226  1
  O2-  O224  1  0.33061161  0.16217034  0.66541844  1
  O2-  O225  1  0.32863527  0.66388115  0.00346382  1
  O2-  O226  1  0.33256708  0.67723590  0.33190449  1
  O2-  O227  1  0.33594442  0.67619371  0.65360147  1
  O2-  O228  1  0.66566235  0.15927540  -0.00516018  1
  O2-  O229  1  0.67550479  0.16791811  0.33110244  1
  O2-  O230  1  0.66710602  0.15214979  0.67437850  1
  O2-  O231  1  0.66915946  0.65451034  -0.00336130  1
  O2-  O232  1  0.66260917  0.66707169  0.33920324  1
  O2-  O233  1  0.66984391  0.65258277  0.66252788  1
  O2-  O234  1  0.16230686  0.14538712  -0.00603339  1
  O2-  O235  1  0.16145192  0.16584138  0.32776480  1
  O2-  O236  1  0.17079623  0.16275746  0.66046660  1
  O2-  O237  1  0.16959566  0.66302420  0.00450194  1
  O2-  O238  1  0.16333764  0.68023542  0.32165093  1
  O2-  O239  1  0.16435796  0.68056659  0.66954380  1
  O2-  O240  1  0.50632126  0.17310756  0.00184887  1
  O2-  O241  1  0.49913593  0.15735928  0.33139081  1
  O2-  O242  1  0.50155854  0.16378011  0.67794198  1
  O2-  O243  1  0.49999577  0.66108156  0.00222684  1
  O2-  O244  1  0.49439302  0.66013586  0.33681649  1
  O2-  O245  1  0.50591435  0.65870401  0.65702679  1
  O2-  O246  1  0.82883588  0.15519614  -0.00624002  1
  O2-  O247  1  0.83487958  0.16540245  0.33518331  1
  O2-  O248  1  0.82733180  0.14924539  0.66004839  1
  O2-  O249  1  0.82933206  0.66618619  0.00392807  1
  O2-  O250  1  0.83283884  0.65607899  0.33160850  1
  O2-  O251  1  0.83199945  0.65217649  0.66520910  1
  O2-  O252  1  -0.00190649  0.33466107  -0.00401150  1
  O2-  O253  1  0.00286161  0.33836661  0.33666610  1
  O2-  O254  1  -0.00146546  0.34153152  0.66640221  1
  O2-  O255  1  -0.00029657  0.84078040  -0.00053462  1
  O2-  O256  1  0.00069624  0.82718873  0.33838030  1
  O2-  O257  1  -0.00359426  0.82854011  0.67323295  1
  O2-  O258  1  0.33433295  0.34490795  0.00026338  1
  O2-  O259  1  0.33130217  0.33570591  0.33909558  1
  O2-  O260  1  0.33507655  0.34018561  0.66287371  1
  O2-  O261  1  0.33300402  0.84648086  -0.00169976  1
  O2-  O262  1  0.33605777  0.81453998  0.33273259  1
  O2-  O263  1  0.33343266  0.83407483  0.66340251  1
  O2-  O264  1  0.66611102  0.33715418  -0.00175434  1
  O2-  O265  1  0.67293544  0.33613944  0.32606823  1
  O2-  O266  1  0.67091019  0.33911783  0.66177776  1
  O2-  O267  1  0.66631568  0.84833912  -0.00063846  1
  O2-  O268  1  0.66488830  0.83892586  0.33645381  1
  O2-  O269  1  0.66822107  0.85048066  0.66257654  1
  O2-  O270  1  0.16975825  0.35315399  0.00216322  1
  O2-  O271  1  0.16347362  0.34363384  0.33158623  1
  O2-  O272  1  0.16146533  0.33590119  0.65968859  1
  O2-  O273  1  0.17036275  0.84574054  0.00172897  1
  O2-  O274  1  0.16439957  0.81069082  0.33282911  1
  O2-  O275  1  0.17265659  0.81665089  0.66508656  1
  O2-  O276  1  0.50234268  0.33243399  -0.00180735  1
  O2-  O277  1  0.49855423  0.33779654  0.33168491  1
  O2-  O278  1  0.49881285  0.33933913  0.66444334  1
  O2-  O279  1  0.49871882  0.84358938  -0.00206405  1
  O2-  O280  1  0.49544299  0.83860064  0.33480602  1
  O2-  O281  1  0.49857438  0.84841273  0.66526448  1
  O2-  O282  1  0.83157787  0.34018552  -0.00247850  1
  O2-  O283  1  0.82796343  0.33960602  0.33161762  1
  O2-  O284  1  0.83444091  0.35021332  0.66926844  1
  O2-  O285  1  0.83131179  0.84584001  -0.00329296  1
  O2-  O286  1  0.83176463  0.83654916  0.33694496  1
  O2-  O287  1  0.82827196  0.84792845  0.66304590  1
  O2-  O288  1  0.00046478  0.17711098  0.17054142  1
  O2-  O289  1  0.00133646  0.17787711  0.50598045  1
  O2-  O290  1  0.00193211  0.18383629  0.84450233  1
  O2-  O291  1  0.00783568  0.67525715  0.17192830  1
  O2-  O292  1  -0.00489377  0.67826947  0.50373698  1
  O2-  O293  1  0.00992123  0.68379288  0.81698227  1
  O2-  O294  1  0.33678275  0.17230372  0.16889551  1
  O2-  O295  1  0.34031046  0.18615279  0.50191307  1
  O2-  O296  1  0.32843005  0.17950654  0.82749052  1
  O2-  O297  1  0.33191998  0.68075375  0.16609194  1
  O2-  O298  1  0.32986191  0.68792569  0.49999802  1
  O2-  O299  1  0.33241024  0.68142288  0.83987771  1
  O2-  O300  1  0.66661395  0.17576513  0.17170839  1
  O2-  O301  1  0.67749044  0.17626213  0.49962633  1
  O2-  O302  1  0.66770927  0.18235468  0.83738274  1
  O2-  O303  1  0.67253108  0.68061203  0.16436231  1
  O2-  O304  1  0.67171128  0.68807605  0.50220665  1
  O2-  O305  1  0.66571685  0.67670256  0.83367812  1
  O2-  O306  1  0.16696797  0.17334953  0.17297471  1
  O2-  O307  1  0.16700452  0.18650764  0.50350861  1
  O2-  O308  1  0.16503331  0.17533423  0.83880255  1
  O2-  O309  1  0.16576596  0.67851758  0.16804316  1
  O2-  O310  1  0.16082640  0.68945541  0.51195436  1
  O2-  O311  1  0.16716849  0.68580735  0.83071857  1
  O2-  O312  1  0.50157186  0.18033056  0.16765208  1
  O2-  O313  1  0.49803807  0.16611694  0.49626309  1
  O2-  O314  1  0.50048503  0.18471165  0.83629684  1
  O2-  O315  1  0.48954627  0.67393452  0.16593263  1
  O2-  O316  1  0.49693922  0.68218207  0.50166322  1
  O2-  O317  1  0.50712276  0.67635951  0.83354025  1
  O2-  O318  1  0.83547443  0.17420369  0.16740501  1
  O2-  O319  1  0.83635425  0.18473343  0.49695932  1
  O2-  O320  1  0.83263910  0.18126584  0.83273722  1
  O2-  O321  1  0.83653046  0.67724452  0.16253903  1
  O2-  O322  1  0.83288584  0.67826412  0.50062613  1
  O2-  O323  1  0.83375784  0.67569813  0.82696172  1
  O2-  O324  1  0.00446263  0.32561446  0.16810388  1
  O2-  O325  1  0.00183229  0.31752977  0.50060150  1
  O2-  O326  1  -0.00231356  0.31818226  0.83291072  1
  O2-  O327  1  -0.00556762  0.82280120  0.15977983  1
  O2-  O328  1  -0.00094661  0.81718732  0.49661993  1
  O2-  O329  1  0.00105177  0.82194933  0.83287754  1
  O2-  O330  1  0.32744849  0.32667634  0.15938376  1
  O2-  O331  1  0.33648361  0.32661346  0.50231548  1
  O2-  O332  1  0.33925944  0.32055016  0.83946474  1
  O2-  O333  1  0.33318341  0.82099383  0.16829341  1
  O2-  O334  1  0.33163332  0.81184213  0.50335349  1
  O2-  O335  1  0.33144988  0.82462572  0.83296975  1
  O2-  O336  1  0.66872795  0.32404627  0.16846967  1
  O2-  O337  1  0.66794134  0.31745242  0.50161694  1
  O2-  O338  1  0.67549418  0.31712213  0.84176739  1
  O2-  O339  1  0.66785818  0.82949704  0.16849215  1
  O2-  O340  1  0.66646048  0.81916025  0.49803163  1
  O2-  O341  1  0.66495943  0.82540219  0.83221260  1
  O2-  O342  1  0.16572623  0.33194570  0.16853754  1
  O2-  O343  1  0.17293900  0.30785142  0.49686103  1
  O2-  O344  1  0.16094462  0.32291958  0.83773189  1
  O2-  O345  1  0.17166644  0.81917578  0.16474875  1
  O2-  O346  1  0.16698618  0.81571305  0.50082660  1
  O2-  O347  1  0.16336876  0.81899352  0.83502569  1
  O2-  O348  1  0.50489250  0.32656961  0.16103244  1
  O2-  O349  1  0.49534145  0.32592908  0.50704320  1
  O2-  O350  1  0.50040035  0.31438428  0.83617316  1
  O2-  O351  1  0.50184471  0.82641218  0.16478289  1
  O2-  O352  1  0.49942495  0.81489084  0.49352372  1
  O2-  O353  1  0.50125265  0.82818873  0.83421520  1
  O2-  O354  1  0.83321092  0.33311709  0.16581972  1
  O2-  O355  1  0.83288450  0.31750039  0.49450126  1
  O2-  O356  1  0.83083897  0.31378339  0.83766295  1
  O2-  O357  1  0.83007609  0.82576169  0.16565218  1
  O2-  O358  1  0.83277739  0.81895307  0.49806134  1
  O2-  O359  1  0.83387322  0.82661396  0.83112509  1
  O2-  O360  1  0.07097732  0.07881443  0.12624614  1
  O2-  O361  1  0.07818646  0.07421100  0.44188157  1
  O2-  O362  1  0.07820686  0.08087014  0.78504010  1
  O2-  O363  1  0.08909036  0.58514065  0.11562185  1
  O2-  O364  1  0.08006676  0.58577935  0.43071004  1
  O2-  O365  1  0.08047574  0.58315134  0.75847857  1
  O2-  O366  1  0.43594623  0.08161850  0.11415057  1
  O2-  O367  1  0.41966475  0.08366899  0.41673954  1
  O2-  O368  1  0.41334041  0.08491223  0.76849799  1
  O2-  O369  1  0.40256792  0.58162722  0.10987856  1
  O2-  O370  1  0.42059584  0.58017416  0.46050642  1
  O2-  O371  1  0.42405339  0.58436159  0.74960241  1
  O2-  O372  1  0.75447040  0.07884286  0.11679418  1
  O2-  O373  1  0.76807088  0.08155321  0.44838453  1
  O2-  O374  1  0.75730300  0.08086016  0.78063443  1
  O2-  O375  1  0.75588169  0.58646787  0.10682112  1
  O2-  O376  1  0.74552871  0.58182986  0.44843436  1
  O2-  O377  1  0.74300116  0.58409498  0.77297213  1
  O2-  O378  1  0.24035466  0.07633255  0.22174933  1
  O2-  O379  1  0.22643437  0.07923039  0.57317217  1
  O2-  O380  1  0.24446012  0.07465325  0.86892775  1
  O2-  O381  1  0.23505800  0.58417603  0.22596218  1
  O2-  O382  1  0.26358126  0.58786860  0.56592757  1
  O2-  O383  1  0.24602523  0.58897504  0.89880129  1
  O2-  O384  1  0.58669738  0.07720047  0.21466298  1
  O2-  O385  1  0.58904520  0.07368215  0.56036667  1
  O2-  O386  1  0.59910607  0.07933036  0.88402235  1
  O2-  O387  1  0.58182709  0.57510463  0.23233265  1
  O2-  O388  1  0.59770930  0.58546645  0.54520050  1
  O2-  O389  1  0.58689231  0.58055870  0.88595936  1
  O2-  O390  1  0.91973984  0.08230231  0.22363242  1
  O2-  O391  1  0.92928435  0.08172378  0.55116837  1
  O2-  O392  1  0.92543729  0.07915050  0.87981582  1
  O2-  O393  1  0.93698629  0.58429679  0.22698396  1
  O2-  O394  1  0.90035001  0.58251903  0.55386533  1
  O2-  O395  1  0.90476669  0.57305589  0.90031212  1
  O2-  O396  1  0.07949383  0.42282247  0.11646570  1
  O2-  O397  1  0.09076421  0.41827519  0.45392789  1
  O2-  O398  1  0.07192709  0.41457859  0.76352536  1
  O2-  O399  1  0.08264764  0.91707135  0.09754420  1
  O2-  O400  1  0.06341757  0.91922244  0.43793156  1
  O2-  O401  1  0.07776869  0.92090190  0.77339484  1
  O2-  O402  1  0.40784100  0.41844049  0.10333214  1
  O2-  O403  1  0.40647447  0.42248999  0.45087167  1
  O2-  O404  1  0.42033363  0.41611148  0.77660529  1
  O2-  O405  1  0.41779189  0.91498390  0.11134914  1
  O2-  O406  1  0.42523945  0.91701054  0.44825519  1
  O2-  O407  1  0.41419023  0.91794277  0.77452451  1
  O2-  O408  1  0.74422782  0.41881105  0.10853625  1
  O2-  O409  1  0.75398784  0.41969265  0.43845577  1
  O2-  O410  1  0.75226562  0.41542707  0.78081375  1
  O2-  O411  1  0.75543671  0.92121425  0.10830586  1
  O2-  O412  1  0.75048048  0.92134747  0.45336064  1
  O2-  O413  1  0.75194592  0.92005842  0.76867833  1
  O2-  O414  1  0.23760911  0.42267128  0.21674936  1
  O2-  O415  1  0.24239262  0.41925516  0.55142258  1
  O2-  O416  1  0.25224717  0.42012043  0.88948294  1
  O2-  O417  1  0.26127775  0.92049571  0.22804725  1
  O2-  O418  1  0.25548220  0.91438808  0.57772568  1
  O2-  O419  1  0.24017747  0.91886143  0.88422601  1
  O2-  O420  1  0.60145854  0.42061288  0.22147504  1
  O2-  O421  1  0.57309917  0.41634139  0.56413902  1
  O2-  O422  1  0.60066426  0.41918918  0.88712946  1
  O2-  O423  1  0.58037326  0.91994489  0.23097857  1
  O2-  O424  1  0.58810879  0.92249438  0.55260359  1
  O2-  O425  1  0.58396142  0.91872486  0.89697714  1
  O2-  O426  1  0.93482269  0.41901624  0.22566369  1
  O2-  O427  1  0.92313896  0.41764043  0.55142503  1
  O2-  O428  1  0.89673314  0.41668988  0.88372636  1
  O2-  O429  1  0.91074672  0.91223984  0.23357272  1
  O2-  O430  1  0.90564155  0.91720626  0.56101291  1
  O2-  O431  1  0.92318776  0.91742764  0.89430287  1
  O2-  O432  1  -0.00231456  0.01659045  -0.00163122  1
  O2-  O433  1  -0.00212737  0.01567201  0.33596560  1
  O2-  O434  1  0.00264973  0.01694843  0.66231308  1
  O2-  O435  1  -0.00750537  0.48480473  0.00208462  1
  O2-  O436  1  0.00033173  0.49356365  0.33805366  1
  O2-  O437  1  -0.00306669  0.48897089  0.65522087  1
  O2-  O438  1  0.34737054  -0.01641240  -0.00018175  1
  O2-  O439  1  0.35269090  0.00101210  0.30387618  1
  O2-  O440  1  0.32951743  -0.01054255  0.68295913  1
  O2-  O441  1  0.31633743  0.49569740  0.01197715  1
  O2-  O442  1  0.32721731  0.49670587  0.34408971  1
  O2-  O443  1  0.33230761  0.49914853  0.66629239  1
  O2-  O444  1  0.66691191  0.00881807  0.00137359  1
  O2-  O445  1  0.68385840  -0.00301832  0.31433613  1
  O2-  O446  1  0.67275018  -0.00177073  0.64380641  1
  O2-  O447  1  0.67021983  0.49166947  -0.01057740  1
  O2-  O448  1  0.67910436  0.50174310  0.32673202  1
  O2-  O449  1  0.67224260  0.50916802  0.65283868  1
  O2-  O450  1  0.15610586  0.01428479  -0.01429615  1
  O2-  O451  1  0.15110619  0.01120737  0.31473339  1
  O2-  O452  1  0.16895301  0.01193816  0.68751933  1
  O2-  O453  1  0.15898608  0.49306837  -0.01293982  1
  O2-  O454  1  0.15586642  0.49089920  0.31849640  1
  O2-  O455  1  0.15189025  0.49551427  0.64305356  1
  O2-  O456  1  0.51018060  -0.00820504  0.01088621  1
  O2-  O457  1  0.49731007  0.00295211  0.33295989  1
  O2-  O458  1  0.50951408  -0.00543306  0.67392899  1
  O2-  O459  1  0.49886442  0.47784643  -0.00416513  1
  O2-  O460  1  0.49326562  0.51995609  0.33262851  1
  O2-  O461  1  0.49093967  0.50624391  0.64995640  1
  O2-  O462  1  0.82492620  0.01509314  -0.01209676  1
  O2-  O463  1  0.83419374  0.00732731  0.32921356  1
  O2-  O464  1  0.82109333  0.00881819  0.63604699  1
  O2-  O465  1  0.82825088  0.48873244  -0.00088571  1
  O2-  O466  1  0.83548708  0.48832338  0.33736386  1
  O2-  O467  1  0.82974167  0.50102872  0.66369112  1
  O2-  O468  1  0.58434395  0.74978573  0.93419030  1
  O2-  O469  1  0.58589551  0.75223069  0.61114281  1
  O2-  O470  1  0.91105554  0.74834405  0.26395298  1
  O2-  O471  1  0.41904365  0.75171027  0.06689601  1
  O2-  O472  1  0.74803878  0.75358934  0.06503256  1
  O2-  O473  1  0.40970702  0.25059790  0.73085392  1
  O2-  O474  1  0.08372020  0.24855558  0.73002758  1
  O2-  O475  1  0.25244707  0.75324594  0.93680059  1
  O2-  O476  1  0.91598566  0.25133684  0.25708886  1
  O2-  O477  1  0.91413198  0.75288880  0.92848708  1
  O2-  O478  1  0.24481063  0.25152785  0.93964548  1
  O2-  O479  1  0.42413694  0.75579702  0.74281982  1
  O2-  O480  1  0.90422544  0.75008598  0.60692246  1
  O2-  O481  1  0.58291016  0.24962039  0.59286878  1
  O2-  O482  1  0.58124262  0.75388812  0.25839062  1
  O2-  O483  1  0.91674361  0.24829005  0.60981724  1
  O2-  O484  1  0.74978951  0.75226332  0.73112910  1
  O2-  O485  1  0.25059849  0.24953769  0.25813313  1
  O2-  O486  1  0.09565340  0.24578644  0.06775278  1
  O2-  O487  1  0.75406585  0.24709775  0.72447766  1
  O2-  O488  1  0.40855456  0.24884610  0.07164586  1
  O2-  O489  1  0.75623389  0.24798236  0.07356155  1
  O2-  O490  1  0.08225218  0.75234123  0.06725031  1
  O2-  O491  1  0.42468338  0.25232937  0.40472239  1
  O2-  O492  1  0.58083340  0.25326588  0.25821213  1
