# generated using pymatgen
data_Ca108Mn108O277
_symmetry_space_group_name_H-M   'P 1'
_cell_length_a   16.02736945
_cell_length_b   22.30791785
_cell_length_c   16.39069682
_cell_angle_alpha   90.00023434
_cell_angle_beta   89.99765985
_cell_angle_gamma   89.99404841
_symmetry_Int_Tables_number   1
_chemical_formula_structural   Ca108Mn108O277
_chemical_formula_sum   'Ca108 Mn108 O277'
_cell_volume   5860.28448131
_cell_formula_units_Z   1
loop_
 _symmetry_equiv_pos_site_id
 _symmetry_equiv_pos_as_xyz
  1  'x, y, z'
loop_
 _atom_type_symbol
 _atom_type_oxidation_number
  Ca2+  2.0
  Mn3.34+  3.34
  O2-  -2.0
loop_
 _atom_site_type_symbol
 _atom_site_label
 _atom_site_symmetry_multiplicity
 _atom_site_fract_x
 _atom_site_fract_y
 _atom_site_fract_z
 _atom_site_occupancy
  Ca2+  Ca0  1  0.06059944  0.24958527  0.24293976  1
  Ca2+  Ca1  1  0.08698943  0.26153792  0.57665029  1
  Ca2+  Ca2  1  0.08727001  0.24670141  0.91804341  1
  Ca2+  Ca3  1  0.07926803  0.75757212  0.24410762  1
  Ca2+  Ca4  1  0.08027778  0.76169729  0.59338791  1
  Ca2+  Ca5  1  0.06690311  0.75409857  0.91011117  1
  Ca2+  Ca6  1  0.41910638  0.25643429  0.24966979  1
  Ca2+  Ca7  1  0.41833458  0.25304840  0.57310700  1
  Ca2+  Ca8  1  0.42078949  0.25536455  0.92076566  1
  Ca2+  Ca9  1  0.40523831  0.75081325  0.25991371  1
  Ca2+  Ca10  1  0.40542160  0.75005868  0.57565471  1
  Ca2+  Ca11  1  0.40867306  0.75150152  0.91110094  1
  Ca2+  Ca12  1  0.76585751  0.22528840  0.23946087  1
  Ca2+  Ca13  1  0.74799406  0.24329392  0.57409269  1
  Ca2+  Ca14  1  0.75032456  0.23063172  0.93140994  1
  Ca2+  Ca15  1  0.76322365  0.76553489  0.25521543  1
  Ca2+  Ca16  1  0.76759490  0.74665093  0.59760055  1
  Ca2+  Ca17  1  0.76889959  0.74475420  0.89874280  1
  Ca2+  Ca18  1  0.25511924  0.25022938  0.07909690  1
  Ca2+  Ca19  1  0.25532725  0.26497595  0.41510615  1
  Ca2+  Ca20  1  0.24477073  0.25101590  0.75556118  1
  Ca2+  Ca21  1  0.24584998  0.74465666  0.07981664  1
  Ca2+  Ca22  1  0.26768184  0.74960401  0.42763299  1
  Ca2+  Ca23  1  0.24154964  0.75468817  0.74894367  1
  Ca2+  Ca24  1  0.59736375  0.23892195  0.08077513  1
  Ca2+  Ca25  1  0.59645888  0.24131982  0.41179678  1
  Ca2+  Ca26  1  0.58459343  0.25095236  0.75458910  1
  Ca2+  Ca27  1  0.57768097  0.77346096  0.07592555  1
  Ca2+  Ca28  1  0.57042334  0.75893870  0.42838884  1
  Ca2+  Ca29  1  0.60241123  0.75074622  0.75436193  1
  Ca2+  Ca30  1  0.91204381  0.24019514  0.08728363  1
  Ca2+  Ca31  1  0.90195693  0.24624217  0.39593860  1
  Ca2+  Ca32  1  0.92516283  0.24764292  0.76062180  1
  Ca2+  Ca33  1  0.92603893  0.74907276  0.05922202  1
  Ca2+  Ca34  1  0.91296103  0.76282282  0.42574742  1
  Ca2+  Ca35  1  0.91159214  0.74987542  0.76493540  1
  Ca2+  Ca36  1  0.43121300  0.09261627  0.92524548  1
  Ca2+  Ca37  1  0.75340889  0.58741752  0.59478576  1
  Ca2+  Ca38  1  0.63021823  0.08085168  0.07668998  1
  Ca2+  Ca39  1  0.58224924  0.58303915  0.41661456  1
  Ca2+  Ca40  1  0.39323294  0.59175277  0.26258766  1
  Ca2+  Ca41  1  0.08334066  0.09208649  0.61036923  1
  Ca2+  Ca42  1  0.41302898  0.58433967  0.92600042  1
  Ca2+  Ca43  1  0.06561129  0.60950468  0.92440903  1
  Ca2+  Ca44  1  0.26700478  0.59071751  0.41419244  1
  Ca2+  Ca45  1  0.07068155  0.09150252  0.60973655  1
  Ca2+  Ca46  1  0.03139241  0.10941663  0.93527265  1
  Ca2+  Ca47  1  0.91845038  0.11945213  0.77382644  1
  Ca2+  Ca48  1  0.57542573  0.57637103  0.07163625  1
  Ca2+  Ca49  1  0.56961594  0.58453778  0.41881507  1
  Ca2+  Ca50  1  0.22623120  0.09942954  0.76278481  1
  Ca2+  Ca51  1  0.60706192  0.58516690  0.74768510  1
  Ca2+  Ca52  1  0.89667018  0.61059687  0.75687475  1
  Ca2+  Ca53  1  0.05489436  0.61049259  0.92361439  1
  Ca2+  Ca54  1  0.75267694  0.56996488  0.27844782  1
  Ca2+  Ca55  1  0.23663689  0.09704876  0.75992253  1
  Ca2+  Ca56  1  0.59184687  0.10685011  0.74973561  1
  Ca2+  Ca57  1  0.22629850  0.09864665  0.07198148  1
  Ca2+  Ca58  1  0.78641535  0.59976531  0.90391942  1
  Ca2+  Ca59  1  0.61521978  0.08089201  0.41603414  1
  Ca2+  Ca60  1  0.89351737  0.57801943  0.41488533  1
  Ca2+  Ca61  1  0.25879455  0.08707589  0.41466549  1
  Ca2+  Ca62  1  0.40709672  0.58468091  0.57292531  1
  Ca2+  Ca63  1  0.40194518  0.58900679  0.26697447  1
  Ca2+  Ca64  1  0.09750396  0.59032781  0.24146596  1
  Ca2+  Ca65  1  0.03769554  0.11167872  0.94237099  1
  Ca2+  Ca66  1  0.40260868  0.58695217  0.58170034  1
  Ca2+  Ca67  1  0.22535514  0.60015098  0.08293161  1
  Ca2+  Ca68  1  0.08853256  0.59190638  0.59708231  1
  Ca2+  Ca69  1  0.25254447  0.59335440  0.74635336  1
  Ca2+  Ca70  1  0.62027462  0.08218077  0.07796176  1
  Ca2+  Ca71  1  0.94096142  0.59506825  0.07227058  1
  Ca2+  Ca72  1  0.92116417  0.39396239  0.08335476  1
  Ca2+  Ca73  1  0.72892179  0.94009908  0.24077345  1
  Ca2+  Ca74  1  0.42207337  0.91438138  0.93007347  1
  Ca2+  Ca75  1  0.57850963  0.91167963  0.74903560  1
  Ca2+  Ca76  1  0.44153796  0.91474176  0.24782950  1
  Ca2+  Ca77  1  0.59522508  0.92035109  0.40776075  1
  Ca2+  Ca78  1  0.75254298  0.39189705  0.58123771  1
  Ca2+  Ca79  1  0.75197281  0.39513933  0.91374714  1
  Ca2+  Ca80  1  0.58775522  0.39676586  0.75251703  1
  Ca2+  Ca81  1  0.75105746  0.92844046  0.95060112  1
  Ca2+  Ca82  1  0.07277205  0.90866878  0.25604948  1
  Ca2+  Ca83  1  0.23259817  0.91908769  0.72748031  1
  Ca2+  Ca84  1  0.59126125  0.39806977  0.08162847  1
  Ca2+  Ca85  1  0.07474769  0.39107386  0.92122496  1
  Ca2+  Ca86  1  0.75985476  0.93063046  0.94613556  1
  Ca2+  Ca87  1  0.57917578  0.39828595  0.08179225  1
  Ca2+  Ca88  1  0.25504150  0.40906665  0.41854931  1
  Ca2+  Ca89  1  0.91502247  0.39954132  0.41393667  1
  Ca2+  Ca90  1  0.23526173  0.91208751  0.07956813  1
  Ca2+  Ca91  1  0.42958691  0.91754848  0.25072017  1
  Ca2+  Ca92  1  0.41499707  0.40364763  0.58339609  1
  Ca2+  Ca93  1  0.73886898  0.93728768  0.24314465  1
  Ca2+  Ca94  1  0.58162780  0.39935377  0.42532842  1
  Ca2+  Ca95  1  0.59378437  0.39888269  0.42587121  1
  Ca2+  Ca96  1  0.60564507  0.91981993  0.40624039  1
  Ca2+  Ca97  1  0.74047067  0.91269348  0.57625262  1
  Ca2+  Ca98  1  0.75267578  0.91010930  0.57565087  1
  Ca2+  Ca99  1  0.43355341  0.91809118  0.92741957  1
  Ca2+  Ca100  1  0.39346242  0.91125111  0.58461549  1
  Ca2+  Ca101  1  0.25127538  0.39275859  0.74648900  1
  Ca2+  Ca102  1  0.24206549  0.39511794  0.08841083  1
  Ca2+  Ca103  1  0.24753690  0.91417190  0.07713069  1
  Ca2+  Ca104  1  0.58985630  0.91178551  0.75053195  1
  Ca2+  Ca105  1  0.91205957  0.92826633  0.06857022  1
  Ca2+  Ca106  1  0.40572147  0.91341626  0.58624837  1
  Ca2+  Ca107  1  0.05203890  0.91437188  0.91272217  1
  Mn3.34+  Mn108  1  0.08185988  0.32784679  0.08685847  1
  Mn3.34+  Mn109  1  0.08122883  0.33581345  0.41370928  1
  Mn3.34+  Mn110  1  0.07737897  0.32782003  0.75029401  1
  Mn3.34+  Mn111  1  0.07813891  0.83707315  0.08510158  1
  Mn3.34+  Mn112  1  0.08286672  0.82990831  0.41717668  1
  Mn3.34+  Mn113  1  0.07786196  0.83838660  0.74978280  1
  Mn3.34+  Mn114  1  0.41553249  0.33116416  0.08480371  1
  Mn3.34+  Mn115  1  0.41810618  0.33638320  0.41385792  1
  Mn3.34+  Mn116  1  0.41756435  0.33180239  0.75247947  1
  Mn3.34+  Mn117  1  0.41457137  0.82954726  0.08653222  1
  Mn3.34+  Mn118  1  0.41208391  0.83363648  0.41687251  1
  Mn3.34+  Mn119  1  0.41462985  0.82819121  0.75088590  1
  Mn3.34+  Mn120  1  0.75409633  0.32636821  0.08654646  1
  Mn3.34+  Mn121  1  0.75248742  0.32984001  0.41332762  1
  Mn3.34+  Mn122  1  0.75701721  0.32706318  0.75278844  1
  Mn3.34+  Mn123  1  0.75178588  0.83381892  0.08710761  1
  Mn3.34+  Mn124  1  0.75575696  0.83321893  0.41529656  1
  Mn3.34+  Mn125  1  0.75645981  0.83677524  0.75356569  1
  Mn3.34+  Mn126  1  0.24740012  0.33636699  0.25077907  1
  Mn3.34+  Mn127  1  0.24736010  0.33446905  0.58215968  1
  Mn3.34+  Mn128  1  0.25337046  0.32985167  0.91659069  1
  Mn3.34+  Mn129  1  0.24808473  0.83404838  0.24769170  1
  Mn3.34+  Mn130  1  0.23830285  0.83720613  0.57801726  1
  Mn3.34+  Mn131  1  0.24577522  0.83502590  0.90905453  1
  Mn3.34+  Mn132  1  0.58650829  0.32576167  0.24776705  1
  Mn3.34+  Mn133  1  0.58374315  0.32282915  0.58633492  1
  Mn3.34+  Mn134  1  0.58392992  0.32819820  0.91323507  1
  Mn3.34+  Mn135  1  0.58610591  0.83225436  0.24733527  1
  Mn3.34+  Mn136  1  0.58302995  0.83898390  0.58034487  1
  Mn3.34+  Mn137  1  0.58682418  0.83844362  0.91631459  1
  Mn3.34+  Mn138  1  0.91361342  0.33308553  0.24748021  1
  Mn3.34+  Mn139  1  0.91951066  0.32526101  0.58270888  1
  Mn3.34+  Mn140  1  0.91545378  0.32522309  0.91589650  1
  Mn3.34+  Mn141  1  0.91500679  0.84151518  0.24804648  1
  Mn3.34+  Mn142  1  0.92244844  0.83579677  0.58555049  1
  Mn3.34+  Mn143  1  0.91173120  0.83714736  0.91539148  1
  Mn3.34+  Mn144  1  0.42176773  0.17355315  0.75207559  1
  Mn3.34+  Mn145  1  0.57833638  0.66680509  0.91617176  1
  Mn3.34+  Mn146  1  0.91712078  0.66850557  0.58437996  1
  Mn3.34+  Mn147  1  0.58313193  0.16007582  0.57938825  1
  Mn3.34+  Mn148  1  0.42608229  0.17260544  0.41240628  1
  Mn3.34+  Mn149  1  0.24138801  0.16264418  0.24583968  1
  Mn3.34+  Mn150  1  0.75964074  0.15831240  0.41544429  1
  Mn3.34+  Mn151  1  0.41388917  0.66511727  0.75212797  1
  Mn3.34+  Mn152  1  0.75519717  0.66765779  0.08589856  1
  Mn3.34+  Mn153  1  0.25027596  0.66965379  0.91465473  1
  Mn3.34+  Mn154  1  0.91055596  0.17056798  0.58071722  1
  Mn3.34+  Mn155  1  0.06679201  0.16161637  0.41271724  1
  Mn3.34+  Mn156  1  0.08868067  0.66634813  0.42018964  1
  Mn3.34+  Mn157  1  0.25069098  0.16487126  0.57702701  1
  Mn3.34+  Mn158  1  0.25590670  0.16795743  0.24763874  1
  Mn3.34+  Mn159  1  0.42350262  0.16616606  0.08690928  1
  Mn3.34+  Mn160  1  0.58762631  0.66089695  0.91393883  1
  Mn3.34+  Mn161  1  0.25010724  0.66900879  0.58461894  1
  Mn3.34+  Mn162  1  0.92266970  0.66054498  0.24840383  1
  Mn3.34+  Mn163  1  0.58908501  0.66776651  0.58651368  1
  Mn3.34+  Mn164  1  0.75249971  0.66824506  0.42257564  1
  Mn3.34+  Mn165  1  0.91323474  0.66605956  0.25127871  1
  Mn3.34+  Mn166  1  0.41412355  0.66714806  0.08514001  1
  Mn3.34+  Mn167  1  0.59053163  0.67206318  0.24697589  1
  Mn3.34+  Mn168  1  0.08232932  0.67037596  0.74966653  1
  Mn3.34+  Mn169  1  0.57813934  0.67163904  0.58896308  1
  Mn3.34+  Mn170  1  0.74152810  0.66164337  0.08767794  1
  Mn3.34+  Mn171  1  0.26121461  0.15968600  0.57674115  1
  Mn3.34+  Mn172  1  0.75030671  0.17759608  0.74911936  1
  Mn3.34+  Mn173  1  0.58148443  0.67772911  0.24953466  1
  Mn3.34+  Mn174  1  0.07637390  0.65944750  0.42344041  1
  Mn3.34+  Mn175  1  0.58624060  0.16380085  0.91372423  1
  Mn3.34+  Mn176  1  0.58174331  0.15271489  0.24669154  1
  Mn3.34+  Mn177  1  0.08002794  0.16834191  0.41092296  1
  Mn3.34+  Mn178  1  0.24415692  0.67249668  0.24903176  1
  Mn3.34+  Mn179  1  0.25504034  0.16843303  0.91701414  1
  Mn3.34+  Mn180  1  0.91848842  0.49460048  0.26205011  1
  Mn3.34+  Mn181  1  0.24124049  0.00253712  0.25173602  1
  Mn3.34+  Mn182  1  0.42377177  0.00832308  0.74455915  1
  Mn3.34+  Mn183  1  0.41656488  0.50147870  0.74528371  1
  Mn3.34+  Mn184  1  0.92329298  -0.00217095  0.56701440  1
  Mn3.34+  Mn185  1  0.59195252  0.50061032  0.24486133  1
  Mn3.34+  Mn186  1  0.41907392  0.00854371  0.41444615  1
  Mn3.34+  Mn187  1  0.07488196  -0.00121724  0.41896574  1
  Mn3.34+  Mn188  1  0.07297361  0.00233546  0.75761188  1
  Mn3.34+  Mn189  1  0.08078116  0.49673074  0.08215762  1
  Mn3.34+  Mn190  1  0.24120846  -0.00093278  0.91865557  1
  Mn3.34+  Mn191  1  0.75626724  0.00826442  0.75310781  1
  Mn3.34+  Mn192  1  0.07042530  0.49487103  0.75842000  1
  Mn3.34+  Mn193  1  0.75585733  0.49403143  0.74753270  1
  Mn3.34+  Mn194  1  0.26035210  0.49881775  0.91592826  1
  Mn3.34+  Mn195  1  0.58730774  0.49709798  0.58876153  1
  Mn3.34+  Mn196  1  0.58054022  0.49623048  0.24461738  1
  Mn3.34+  Mn197  1  0.08580114  -0.00564240  0.41988539  1
  Mn3.34+  Mn198  1  0.07746826  0.00443466  0.08143311  1
  Mn3.34+  Mn199  1  0.58109097  0.49423299  0.92340510  1
  Mn3.34+  Mn200  1  0.24045027  0.49915244  0.58467448  1
  Mn3.34+  Mn201  1  0.24625214  0.49396703  0.91960453  1
  Mn3.34+  Mn202  1  0.91151630  0.00532923  0.56679091  1
  Mn3.34+  Mn203  1  0.41260358  0.49623668  0.08937281  1
  Mn3.34+  Mn204  1  0.24977124  0.49598961  0.26033698  1
  Mn3.34+  Mn205  1  0.76726986  0.00402086  0.75405608  1
  Mn3.34+  Mn206  1  0.42279084  0.00432331  0.08061455  1
  Mn3.34+  Mn207  1  0.75647247  0.49816672  0.08179306  1
  Mn3.34+  Mn208  1  0.92935822  0.49312329  0.57944187  1
  Mn3.34+  Mn209  1  0.41287668  0.00375975  0.74737594  1
  Mn3.34+  Mn210  1  0.91657557  0.00818144  0.25836318  1
  Mn3.34+  Mn211  1  0.91901233  0.49523589  0.91947895  1
  Mn3.34+  Mn212  1  0.91629598  0.49961554  0.57867185  1
  Mn3.34+  Mn213  1  0.08369615  0.49753674  0.41107619  1
  Mn3.34+  Mn214  1  0.08486991  0.50047132  0.75834733  1
  Mn3.34+  Mn215  1  0.40777298  0.00427238  0.41476590  1
  O2-  O216  1  -0.00091218  0.19222451  0.00404699  1
  O2-  O217  1  -0.00239577  0.16650260  0.32729294  1
  O2-  O218  1  -0.00184309  0.16414691  0.65994151  1
  O2-  O219  1  0.00350366  0.67230345  0.00298552  1
  O2-  O220  1  0.00207735  0.63872985  0.33412553  1
  O2-  O221  1  0.00027220  0.65116362  0.66813528  1
  O2-  O222  1  0.33567302  0.14938643  0.00253360  1
  O2-  O223  1  0.33091708  0.14815910  0.32933062  1
  O2-  O224  1  0.33038761  0.15869359  0.67582582  1
  O2-  O225  1  0.32994120  0.64829395  -0.00042626  1
  O2-  O226  1  0.32750777  0.66371550  0.33045024  1
  O2-  O227  1  0.33649414  0.64697476  0.66357881  1
  O2-  O228  1  0.66654223  0.15547274  -0.00712608  1
  O2-  O229  1  0.65870306  0.15798392  0.33641759  1
  O2-  O230  1  0.66148033  0.18230137  0.66584738  1
  O2-  O231  1  0.66872692  0.63845678  -0.00151664  1
  O2-  O232  1  0.66669406  0.65191185  0.33356735  1
  O2-  O233  1  0.66688156  0.65810928  0.66659771  1
  O2-  O234  1  0.16287120  0.15878423  -0.01727745  1
  O2-  O235  1  0.16846169  0.14391347  0.33836500  1
  O2-  O236  1  0.16898584  0.16021441  0.66478853  1
  O2-  O237  1  0.16689263  0.65950454  -0.00894885  1
  O2-  O238  1  0.16615651  0.65141378  0.33715373  1
  O2-  O239  1  0.16941267  0.65357435  0.67052395  1
  O2-  O240  1  0.51041009  0.15162238  0.00762561  1
  O2-  O241  1  0.50559707  0.18142520  0.32948755  1
  O2-  O242  1  0.50258947  0.18395330  0.66772105  1
  O2-  O243  1  0.50217232  0.64682775  -0.00099129  1
  O2-  O244  1  0.50053298  0.65109784  0.32954756  1
  O2-  O245  1  0.50009022  0.63968433  0.66763495  1
  O2-  O246  1  0.85071043  0.17277467  -0.00039068  1
  O2-  O247  1  0.82957087  0.16186981  0.33665787  1
  O2-  O248  1  0.83619020  0.18742605  0.66782662  1
  O2-  O249  1  0.83726937  0.64955599  0.01274058  1
  O2-  O250  1  0.83480686  0.64321073  0.32917797  1
  O2-  O251  1  0.83184665  0.65639664  0.65237330  1
  O2-  O252  1  -0.00052376  0.32135388  -0.00049637  1
  O2-  O253  1  -0.00468286  0.33575566  0.33395620  1
  O2-  O254  1  -0.00017185  0.30528764  0.66602175  1
  O2-  O255  1  -0.00049857  0.83881557  -0.00060708  1
  O2-  O256  1  0.00126059  0.84406966  0.32973483  1
  O2-  O257  1  -0.00402209  0.83695581  0.67136296  1
  O2-  O258  1  0.33097880  0.34809523  0.00401720  1
  O2-  O259  1  0.33324306  0.35039788  0.33858068  1
  O2-  O260  1  0.33539657  0.33149472  0.66619337  1
  O2-  O261  1  0.32922361  0.85548099  -0.00202608  1
  O2-  O262  1  0.34456519  0.84434181  0.31982744  1
  O2-  O263  1  0.33280216  0.84771029  0.67085852  1
  O2-  O264  1  0.66582669  0.34030154  -0.00195096  1
  O2-  O265  1  0.66003651  0.33820414  0.33898347  1
  O2-  O266  1  0.66638057  0.32667074  0.67011822  1
  O2-  O267  1  0.67153350  0.85186921  -0.00279225  1
  O2-  O268  1  0.66237201  0.83905654  0.33628174  1
  O2-  O269  1  0.66777225  0.85426095  0.66693021  1
  O2-  O270  1  0.16502480  0.33274667  -0.00121779  1
  O2-  O271  1  0.17262479  0.34990973  0.34114570  1
  O2-  O272  1  0.16720911  0.32599923  0.67289790  1
  O2-  O273  1  0.16466269  0.84715190  -0.00010006  1
  O2-  O274  1  0.16868341  0.82199970  0.32793217  1
  O2-  O275  1  0.16481079  0.84078610  0.66780250  1
  O2-  O276  1  0.50418061  0.34278672  -0.00044197  1
  O2-  O277  1  0.50742189  0.33139192  0.33655209  1
  O2-  O278  1  0.49839627  0.32116753  0.66567120  1
  O2-  O279  1  0.49749342  0.84699862  0.00035496  1
  O2-  O280  1  0.50649520  0.84956194  0.34157594  1
  O2-  O281  1  0.49757652  0.85771931  0.66488481  1
  O2-  O282  1  0.83295382  0.33852787  -0.00054334  1
  O2-  O283  1  0.83499288  0.34304558  0.33617983  1
  O2-  O284  1  0.82958586  0.31800423  0.66119315  1
  O2-  O285  1  0.83358750  0.84740683  0.00561163  1
  O2-  O286  1  0.81962326  0.85792777  0.31949877  1
  O2-  O287  1  0.82608244  0.85163078  0.66209851  1
  O2-  O288  1  0.00064513  0.17869974  0.15729823  1
  O2-  O289  1  0.00000255  0.18950687  0.50093442  1
  O2-  O290  1  0.00305905  0.18303464  0.84309549  1
  O2-  O291  1  -0.00353115  0.68187262  0.16887438  1
  O2-  O292  1  0.00464356  0.68106847  0.50644702  1
  O2-  O293  1  0.00415046  0.67696068  0.82891898  1
  O2-  O294  1  0.33186350  0.18154396  0.16258417  1
  O2-  O295  1  0.33131490  0.17515197  0.48911019  1
  O2-  O296  1  0.33644971  0.18323995  0.83020178  1
  O2-  O297  1  0.33372822  0.68334825  0.17388061  1
  O2-  O298  1  0.33382344  0.67101194  0.50828831  1
  O2-  O299  1  0.32900486  0.68382905  0.82713309  1
  O2-  O300  1  0.65794220  0.17399118  0.17200673  1
  O2-  O301  1  0.66060832  0.17861881  0.50337347  1
  O2-  O302  1  0.66069210  0.18293873  0.82695025  1
  O2-  O303  1  0.66483639  0.69355951  0.16209550  1
  O2-  O304  1  0.65814006  0.69037709  0.49800139  1
  O2-  O305  1  0.66547007  0.67548615  0.83467110  1
  O2-  O306  1  0.16914390  0.18559233  0.16519865  1
  O2-  O307  1  0.15693209  0.17415520  0.49872553  1
  O2-  O308  1  0.18189721  0.17889576  0.82880028  1
  O2-  O309  1  0.16646156  0.68708212  0.17227683  1
  O2-  O310  1  0.16777690  0.68221973  0.50330012  1
  O2-  O311  1  0.16260777  0.67818789  0.83622703  1
  O2-  O312  1  0.50072875  0.18564846  0.17003178  1
  O2-  O313  1  0.50380926  0.18815655  0.50338559  1
  O2-  O314  1  0.49799293  0.18835851  0.83550354  1
  O2-  O315  1  0.49996950  0.69107220  0.16878947  1
  O2-  O316  1  0.50015399  0.67426293  0.50585155  1
  O2-  O317  1  0.49759253  0.68333845  0.83167787  1
  O2-  O318  1  0.84219487  0.16409252  0.15195676  1
  O2-  O319  1  0.83482162  0.18665412  0.49834481  1
  O2-  O320  1  0.82757130  0.18939627  0.82688510  1
  O2-  O321  1  0.82358434  0.68629938  0.17719823  1
  O2-  O322  1  0.84142636  0.68061448  0.49645685  1
  O2-  O323  1  0.83510591  0.67626122  0.83181558  1
  O2-  O324  1  -0.00441686  0.31774385  0.16096690  1
  O2-  O325  1  -0.00454063  0.31406378  0.49382350  1
  O2-  O326  1  0.00363004  0.31285512  0.83893243  1
  O2-  O327  1  -0.00063255  0.81869832  0.16541273  1
  O2-  O328  1  0.00112728  0.81785343  0.50305072  1
  O2-  O329  1  0.00072089  0.82875370  0.83730014  1
  O2-  O330  1  0.33052764  0.32083621  0.16366732  1
  O2-  O331  1  0.33910842  0.33160572  0.50056200  1
  O2-  O332  1  0.33088438  0.31764106  0.82770126  1
  O2-  O333  1  0.32703117  0.81325090  0.16214302  1
  O2-  O334  1  0.33504073  0.82421533  0.50496411  1
  O2-  O335  1  0.33809010  0.82122200  0.83984040  1
  O2-  O336  1  0.66094381  0.31743854  0.15801430  1
  O2-  O337  1  0.66389230  0.31599732  0.50260363  1
  O2-  O338  1  0.66863593  0.31516335  0.83322297  1
  O2-  O339  1  0.66813350  0.81325681  0.16888606  1
  O2-  O340  1  0.66531617  0.81848207  0.50011779  1
  O2-  O341  1  0.65959359  0.83033221  0.82286204  1
  O2-  O342  1  0.16828500  0.31495389  0.16194777  1
  O2-  O343  1  0.17017746  0.32634562  0.49698125  1
  O2-  O344  1  0.16543805  0.31528263  0.83303336  1
  O2-  O345  1  0.16784162  0.81682326  0.15977869  1
  O2-  O346  1  0.16739112  0.80966173  0.49588330  1
  O2-  O347  1  0.16551988  0.81789796  0.83286803  1
  O2-  O348  1  0.50626704  0.31355785  0.16140070  1
  O2-  O349  1  0.50545974  0.31716744  0.49835409  1
  O2-  O350  1  0.50370043  0.31843230  0.82913117  1
  O2-  O351  1  0.49180025  0.81668931  0.18252028  1
  O2-  O352  1  0.49343943  0.82862133  0.50534264  1
  O2-  O353  1  0.50360370  0.82241385  0.82788163  1
  O2-  O354  1  0.83746327  0.32949123  0.16044677  1
  O2-  O355  1  0.83096768  0.31997391  0.49882345  1
  O2-  O356  1  0.83087444  0.31105636  0.83930932  1
  O2-  O357  1  0.83498784  0.82006149  0.16452541  1
  O2-  O358  1  0.82574833  0.82217467  0.50693909  1
  O2-  O359  1  0.82866065  0.82439428  0.83751138  1
  O2-  O360  1  0.08144002  0.08230253  0.07545068  1
  O2-  O361  1  0.07675974  0.07890151  0.46300554  1
  O2-  O362  1  0.09086595  0.08173330  0.79123995  1
  O2-  O363  1  0.08454771  0.57558891  0.11136225  1
  O2-  O364  1  0.08950143  0.57791648  0.46079907  1
  O2-  O365  1  0.08665226  0.58111736  0.78755766  1
  O2-  O366  1  0.42959536  0.08210202  0.10603982  1
  O2-  O367  1  0.42518390  0.08903520  0.43816758  1
  O2-  O368  1  0.42527814  0.08737312  0.77881718  1
  O2-  O369  1  0.42627278  0.58151196  0.13005642  1
  O2-  O370  1  0.44341541  0.56681653  0.45711257  1
  O2-  O371  1  0.40517147  0.58017257  0.78797977  1
  O2-  O372  1  0.75148132  0.05759389  0.10070723  1
  O2-  O373  1  0.74890932  0.08353249  0.44487205  1
  O2-  O374  1  0.74959249  0.09076649  0.76087667  1
  O2-  O375  1  0.74908332  0.58056166  0.13032580  1
  O2-  O376  1  0.73984894  0.58715813  0.45073837  1
  O2-  O377  1  0.75410585  0.57048209  0.77953954  1
  O2-  O378  1  0.24690069  0.08290609  0.20751170  1
  O2-  O379  1  0.23488289  0.07921094  0.55169103  1
  O2-  O380  1  0.26620527  0.08179654  0.88971500  1
  O2-  O381  1  0.25542806  0.57681460  0.21560357  1
  O2-  O382  1  0.24781641  0.58056207  0.55115925  1
  O2-  O383  1  0.25135026  0.57966760  0.88147720  1
  O2-  O384  1  0.57965247  0.07660986  0.21336622  1
  O2-  O385  1  0.58032535  0.08365513  0.56847687  1
  O2-  O386  1  0.57085534  0.08625148  0.88159672  1
  O2-  O387  1  0.59889801  0.58308568  0.20739556  1
  O2-  O388  1  0.59843120  0.58046513  0.55134048  1
  O2-  O389  1  0.57151231  0.57758549  0.88057554  1
  O2-  O390  1  0.92127281  0.07136255  0.21243321  1
  O2-  O391  1  0.93823336  0.08524397  0.55409274  1
  O2-  O392  1  0.94240828  0.06088658  0.87244428  1
  O2-  O393  1  0.91468874  0.57745289  0.21000089  1
  O2-  O394  1  0.92446307  0.58017963  0.54771591  1
  O2-  O395  1  0.92993125  0.57209664  0.87907862  1
  O2-  O396  1  0.07491851  0.41520841  0.07909401  1
  O2-  O397  1  0.06702896  0.41952483  0.44214175  1
  O2-  O398  1  0.08714492  0.41466170  0.77819240  1
  O2-  O399  1  0.09842890  0.92489529  0.12346424  1
  O2-  O400  1  0.09039308  0.91268869  0.43503112  1
  O2-  O401  1  0.09364578  0.92074125  0.77766917  1
  O2-  O402  1  0.43997709  0.41432248  0.11063092  1
  O2-  O403  1  0.44506207  0.41733089  0.44286487  1
  O2-  O404  1  0.42145103  0.41916514  0.74938490  1
  O2-  O405  1  0.40842349  0.92225243  0.11818719  1
  O2-  O406  1  0.41168140  0.92250108  0.45210200  1
  O2-  O407  1  0.41592212  0.92424725  0.79348097  1
  O2-  O408  1  0.73271173  0.41560127  0.09696412  1
  O2-  O409  1  0.72997758  0.41250712  0.44861338  1
  O2-  O410  1  0.74070016  0.41503282  0.77351103  1
  O2-  O411  1  0.75532202  0.91552442  0.10962615  1
  O2-  O412  1  0.73846404  0.91606308  0.44313950  1
  O2-  O413  1  0.75067312  0.92650120  0.80371253  1
  O2-  O414  1  0.24382487  0.42108093  0.21920496  1
  O2-  O415  1  0.26171838  0.41856851  0.56770031  1
  O2-  O416  1  0.23781972  0.41500362  0.88354689  1
  O2-  O417  1  0.25464451  0.92129747  0.21156385  1
  O2-  O418  1  0.25805327  0.91734166  0.56965139  1
  O2-  O419  1  0.25392297  0.91810691  0.87780470  1
  O2-  O420  1  0.58428816  0.41509557  0.21872446  1
  O2-  O421  1  0.58272537  0.41438701  0.56501388  1
  O2-  O422  1  0.59674917  0.41369807  0.88848085  1
  O2-  O423  1  0.58180370  0.91887629  0.22428705  1
  O2-  O424  1  0.60177015  0.92274685  0.54348998  1
  O2-  O425  1  0.56642248  0.92445456  0.88130765  1
  O2-  O426  1  0.92354337  0.42082411  0.21896524  1
  O2-  O427  1  0.90701562  0.41334311  0.55975275  1
  O2-  O428  1  0.92604141  0.41456059  0.90817883  1
  O2-  O429  1  0.92327120  0.93758026  0.20628378  1
  O2-  O430  1  0.89662721  0.91847417  0.54916758  1
  O2-  O431  1  0.89898981  0.92022372  0.91113157  1
  O2-  O432  1  0.00958112  -0.01146098  0.00137143  1
  O2-  O433  1  0.00760110  -0.00736943  0.32125508  1
  O2-  O434  1  0.00487286  0.00825290  0.65660133  1
  O2-  O435  1  0.00757537  0.51810536  -0.00704171  1
  O2-  O436  1  -0.00248623  0.51875607  0.33751833  1
  O2-  O437  1  0.00303305  0.51265949  0.66691963  1
  O2-  O438  1  0.33041226  -0.01667911  0.00691801  1
  O2-  O439  1  0.34938250  -0.00815596  0.31266143  1
  O2-  O440  1  0.33141334  -0.00570424  0.66727678  1
  O2-  O441  1  0.33638157  0.51045989  -0.00028795  1
  O2-  O442  1  0.33143882  0.51831459  0.33395013  1
  O2-  O443  1  0.33710114  0.51377223  0.65296939  1
  O2-  O444  1  0.67396732  0.00344390  -0.00122922  1
  O2-  O445  1  0.66432441  -0.01266139  0.33737703  1
  O2-  O446  1  0.66791974  -0.02191669  0.68226358  1
  O2-  O447  1  0.65653269  0.50161806  0.01715253  1
  O2-  O448  1  0.65084610  0.50993183  0.34768371  1
  O2-  O449  1  0.66281159  0.50574157  0.67782244  1
  O2-  O450  1  0.17764924  -0.00611459  0.02373116  1
  O2-  O451  1  0.18131788  0.01420788  0.35590978  1
  O2-  O452  1  0.16850443  0.02341690  0.68900403  1
  O2-  O453  1  0.17357808  0.50657542  0.00831186  1
  O2-  O454  1  0.17161242  0.51777702  0.34069719  1
  O2-  O455  1  0.17017604  0.51038239  0.67896535  1
  O2-  O456  1  0.48613962  -0.00168361  -0.00890226  1
  O2-  O457  1  0.50451557  -0.02015467  0.34277134  1
  O2-  O458  1  0.49758512  -0.02653017  0.66608133  1
  O2-  O459  1  0.49879085  0.50825515  0.00701700  1
  O2-  O460  1  0.49403219  0.52725945  0.31261636  1
  O2-  O461  1  0.49475061  0.51764853  0.65719410  1
  O2-  O462  1  0.83119174  -0.00104817  0.00718317  1
  O2-  O463  1  0.82707583  -0.00242190  0.30996051  1
  O2-  O464  1  0.82775827  -0.00364447  0.65176361  1
  O2-  O465  1  0.83449373  0.51308451  -0.00455839  1
  O2-  O466  1  0.83734165  0.50423148  0.33624524  1
  O2-  O467  1  0.82762925  0.50464650  0.65396378  1
  O2-  O468  1  0.10142072  0.25027426  0.38971415  1
  O2-  O469  1  0.91335690  0.74661773  0.28500691  1
  O2-  O470  1  0.06377912  0.74464555  0.38694810  1
  O2-  O471  1  0.26145528  0.24904188  0.94156131  1
  O2-  O472  1  0.42028731  0.75537821  0.40014524  1
  O2-  O473  1  0.41769413  0.74755978  0.04894881  1
  O2-  O474  1  0.58122303  0.24876115  0.94247298  1
  O2-  O475  1  0.74862930  0.74837848  0.04828108  1
  O2-  O476  1  0.42114343  0.74414489  0.71524931  1
  O2-  O477  1  0.25619717  0.24737984  0.58963599  1
  O2-  O478  1  0.74654930  0.24827260  0.39445817  1
  O2-  O479  1  0.39872922  0.25294727  0.39744289  1
  O2-  O480  1  0.91303047  0.75577371  0.92466140  1
  O2-  O481  1  0.25729793  0.75248807  0.94144518  1
  O2-  O482  1  0.58772771  0.74962897  0.94140759  1
  O2-  O483  1  0.75599786  0.24708813  0.07373833  1
  O2-  O484  1  0.90820543  0.25241950  0.25477190  1
  O2-  O485  1  0.75006097  0.75873067  0.73383750  1
  O2-  O486  1  0.41045367  0.24850323  0.05759275  1
  O2-  O487  1  0.91487675  0.75056844  0.60928116  1
  O2-  O488  1  0.25509170  0.24903403  0.27958413  1
  O2-  O489  1  0.25651919  0.74986080  0.60821378  1
  O2-  O490  1  0.57358102  0.75553504  0.61501938  1
  O2-  O491  1  0.08639713  0.75095179  0.73095677  1
  O2-  O492  1  0.76211321  0.75037314  0.38904363  1
