# generated using pymatgen
data_Ca108Mn108O277
_symmetry_space_group_name_H-M   'P 1'
_cell_length_a   16.01740624
_cell_length_b   22.29139416
_cell_length_c   16.38021745
_cell_angle_alpha   90.00321164
_cell_angle_beta   90.00087104
_cell_angle_gamma   90.00062898
_symmetry_Int_Tables_number   1
_chemical_formula_structural   Ca108Mn108O277
_chemical_formula_sum   'Ca108 Mn108 O277'
_cell_volume   5848.56180826
_cell_formula_units_Z   1
loop_
 _symmetry_equiv_pos_site_id
 _symmetry_equiv_pos_as_xyz
  1  'x, y, z'
loop_
 _atom_type_symbol
 _atom_type_oxidation_number
  Ca2+  2.0
  Mn3.34+  3.34
  O2-  -2.0
loop_
 _atom_site_type_symbol
 _atom_site_label
 _atom_site_symmetry_multiplicity
 _atom_site_fract_x
 _atom_site_fract_y
 _atom_site_fract_z
 _atom_site_occupancy
  Ca2+  Ca0  1  0.07021331  0.24640769  0.23872123  1
  Ca2+  Ca1  1  0.07919506  0.25496851  0.57960582  1
  Ca2+  Ca2  1  0.07955316  0.22860011  0.92007675  1
  Ca2+  Ca3  1  0.09778948  0.76007123  0.25709407  1
  Ca2+  Ca4  1  0.07807892  0.76166445  0.58200062  1
  Ca2+  Ca5  1  0.06869016  0.74321034  0.91030194  1
  Ca2+  Ca6  1  0.41122935  0.26083032  0.25142538  1
  Ca2+  Ca7  1  0.42724740  0.24597814  0.58323157  1
  Ca2+  Ca8  1  0.42558450  0.24437052  0.91328554  1
  Ca2+  Ca9  1  0.41375932  0.75641660  0.24141996  1
  Ca2+  Ca10  1  0.41317247  0.76625823  0.57542372  1
  Ca2+  Ca11  1  0.40871558  0.75115899  0.93589230  1
  Ca2+  Ca12  1  0.76481995  0.24013471  0.22444979  1
  Ca2+  Ca13  1  0.74310568  0.24844122  0.60790150  1
  Ca2+  Ca14  1  0.74846413  0.22247001  0.92239629  1
  Ca2+  Ca15  1  0.73468010  0.75939749  0.24630943  1
  Ca2+  Ca16  1  0.76313909  0.75214545  0.56795613  1
  Ca2+  Ca17  1  0.76364124  0.74431721  0.92605260  1
  Ca2+  Ca18  1  0.24091468  0.24756186  0.07132895  1
  Ca2+  Ca19  1  0.24692974  0.25590976  0.40746152  1
  Ca2+  Ca20  1  0.25226879  0.23763672  0.76801799  1
  Ca2+  Ca21  1  0.25104342  0.75572601  0.08376569  1
  Ca2+  Ca22  1  0.23421315  0.75393009  0.40140792  1
  Ca2+  Ca23  1  0.22593471  0.74904435  0.76752211  1
  Ca2+  Ca24  1  0.60201041  0.24565918  0.06672947  1
  Ca2+  Ca25  1  0.57554586  0.25195175  0.41722995  1
  Ca2+  Ca26  1  0.59783516  0.24475705  0.76653195  1
  Ca2+  Ca27  1  0.58351949  0.74618953  0.08092160  1
  Ca2+  Ca28  1  0.58241350  0.75817084  0.39799473  1
  Ca2+  Ca29  1  0.57952455  0.75626838  0.75968860  1
  Ca2+  Ca30  1  0.90513821  0.23711977  0.07743602  1
  Ca2+  Ca31  1  0.92550325  0.24926526  0.39915094  1
  Ca2+  Ca32  1  0.89868862  0.24695905  0.76864676  1
  Ca2+  Ca33  1  0.91703046  0.75101998  0.06392068  1
  Ca2+  Ca34  1  0.93290291  0.75608570  0.42451452  1
  Ca2+  Ca35  1  0.93815087  0.74880814  0.76603445  1
  Ca2+  Ca36  1  0.08825803  0.60054205  0.25352656  1
  Ca2+  Ca37  1  0.24383215  0.08519116  0.06610027  1
  Ca2+  Ca38  1  0.22741126  0.60125903  0.40381823  1
  Ca2+  Ca39  1  0.07227263  0.59802990  0.58208249  1
  Ca2+  Ca40  1  0.72932089  0.58783631  0.22306377  1
  Ca2+  Ca41  1  0.26230138  0.59366334  0.07188584  1
  Ca2+  Ca42  1  0.91798489  0.08679969  0.38081854  1
  Ca2+  Ca43  1  0.59055487  0.09780003  0.41546476  1
  Ca2+  Ca44  1  0.59180930  0.58954583  0.77576191  1
  Ca2+  Ca45  1  0.42051779  0.10223334  0.89842544  1
  Ca2+  Ca46  1  0.58053061  0.10951287  0.76126646  1
  Ca2+  Ca47  1  0.89579988  0.09383036  0.09153064  1
  Ca2+  Ca48  1  0.08955289  0.09092506  0.59854972  1
  Ca2+  Ca49  1  0.59342366  0.58417279  0.38382206  1
  Ca2+  Ca50  1  0.60110332  0.58916017  0.77029541  1
  Ca2+  Ca51  1  0.42442222  0.10079487  0.62170680  1
  Ca2+  Ca52  1  0.91408103  0.11130315  0.76342069  1
  Ca2+  Ca53  1  0.76827699  0.58701633  0.60339544  1
  Ca2+  Ca54  1  0.93619423  0.60010520  0.41895421  1
  Ca2+  Ca55  1  0.91665683  0.60403331  0.76772409  1
  Ca2+  Ca56  1  0.90869678  0.59415781  0.06139490  1
  Ca2+  Ca57  1  0.58451413  0.58861565  0.37764207  1
  Ca2+  Ca58  1  0.42355540  0.58311602  0.58843151  1
  Ca2+  Ca59  1  0.06299539  0.60082552  0.58575694  1
  Ca2+  Ca60  1  0.92443485  0.60874926  0.77043511  1
  Ca2+  Ca61  1  0.41070047  0.58296735  0.58919810  1
  Ca2+  Ca62  1  0.25149133  0.59407411  0.07033900  1
  Ca2+  Ca63  1  0.07659162  0.09111784  0.59797663  1
  Ca2+  Ca64  1  0.24816110  0.08279384  0.40851611  1
  Ca2+  Ca65  1  0.60464402  0.08180494  0.05650314  1
  Ca2+  Ca66  1  0.43296339  0.58874295  0.93223178  1
  Ca2+  Ca67  1  0.72791960  0.58480383  0.93901726  1
  Ca2+  Ca68  1  0.73647976  0.58774586  0.94308064  1
  Ca2+  Ca69  1  0.42104582  0.07421017  0.24387922  1
  Ca2+  Ca70  1  0.08075928  0.60710959  0.90242804  1
  Ca2+  Ca71  1  0.23572901  0.08099019  0.41205204  1
  Ca2+  Ca72  1  0.40817203  0.90679156  0.58608679  1
  Ca2+  Ca73  1  0.58668876  0.39960210  0.40329002  1
  Ca2+  Ca74  1  0.91380911  0.41302310  0.08356466  1
  Ca2+  Ca75  1  0.25143544  0.90995340  0.09590836  1
  Ca2+  Ca76  1  0.26141058  0.40921939  0.07172680  1
  Ca2+  Ca77  1  0.23718613  0.90822609  0.40164449  1
  Ca2+  Ca78  1  0.90111666  0.41300004  0.08303905  1
  Ca2+  Ca79  1  0.58647257  0.42658920  0.06873173  1
  Ca2+  Ca80  1  0.74503569  0.40540580  0.24619352  1
  Ca2+  Ca81  1  0.08122767  0.40184528  0.25050610  1
  Ca2+  Ca82  1  0.88487789  0.41307743  0.74665563  1
  Ca2+  Ca83  1  0.07241771  0.40097132  0.58478848  1
  Ca2+  Ca84  1  0.24312834  0.39740737  0.41688095  1
  Ca2+  Ca85  1  0.59714748  0.40785323  0.76569661  1
  Ca2+  Ca86  1  0.92103451  0.40119708  0.41995787  1
  Ca2+  Ca87  1  0.41829124  0.90836271  0.92599923  1
  Ca2+  Ca88  1  0.09947810  0.41385708  0.92014995  1
  Ca2+  Ca89  1  0.73542205  0.91248964  0.93235231  1
  Ca2+  Ca90  1  0.74627895  0.91179823  0.93288704  1
  Ca2+  Ca91  1  0.25228734  0.40902845  0.75771809  1
  Ca2+  Ca92  1  0.76320122  0.89896927  0.57761599  1
  Ca2+  Ca93  1  0.58287934  0.90591699  0.39144526  1
  Ca2+  Ca94  1  0.41473641  0.40052897  0.59225573  1
  Ca2+  Ca95  1  0.91730308  0.89854503  0.75058938  1
  Ca2+  Ca96  1  0.92084071  0.90935169  0.09195441  1
  Ca2+  Ca97  1  0.08684850  0.90276910  0.92761886  1
  Ca2+  Ca98  1  0.73408834  0.40946064  0.24379386  1
  Ca2+  Ca99  1  0.42736473  0.40031743  0.59221657  1
  Ca2+  Ca100  1  0.26471310  0.40931833  0.76103849  1
  Ca2+  Ca101  1  0.57163265  0.90783881  0.75682999  1
  Ca2+  Ca102  1  0.43302435  0.41436467  0.91817062  1
  Ca2+  Ca103  1  0.75043815  0.90026272  0.57907188  1
  Ca2+  Ca104  1  0.73076555  0.41702886  0.91979978  1
  Ca2+  Ca105  1  0.08671311  0.41329120  0.91883413  1
  Ca2+  Ca106  1  0.89672940  0.41541445  0.74348016  1
  Ca2+  Ca107  1  0.25275787  0.90009673  0.75355179  1
  Mn3.34+  Mn108  1  0.08305332  0.33154513  0.08494206  1
  Mn3.34+  Mn109  1  0.08332899  0.33026554  0.41648533  1
  Mn3.34+  Mn110  1  0.08172012  0.32496629  0.75193650  1
  Mn3.34+  Mn111  1  0.08254828  0.83410259  0.09032076  1
  Mn3.34+  Mn112  1  0.07989199  0.83498913  0.41403380  1
  Mn3.34+  Mn113  1  0.08535988  0.83254984  0.74964147  1
  Mn3.34+  Mn114  1  0.42110328  0.33461752  0.08692253  1
  Mn3.34+  Mn115  1  0.41657882  0.32876726  0.41388302  1
  Mn3.34+  Mn116  1  0.42097390  0.32919131  0.75544969  1
  Mn3.34+  Mn117  1  0.42029967  0.83626648  0.08821245  1
  Mn3.34+  Mn118  1  0.41373959  0.83346457  0.41285124  1
  Mn3.34+  Mn119  1  0.41405239  0.83450217  0.75359076  1
  Mn3.34+  Mn120  1  0.74730488  0.33271094  0.07961073  1
  Mn3.34+  Mn121  1  0.74992830  0.32284791  0.41969279  1
  Mn3.34+  Mn122  1  0.74539295  0.33098474  0.75550278  1
  Mn3.34+  Mn123  1  0.74993096  0.83403044  0.09338823  1
  Mn3.34+  Mn124  1  0.75758503  0.83315569  0.40524941  1
  Mn3.34+  Mn125  1  0.74835423  0.82822049  0.75533993  1
  Mn3.34+  Mn126  1  0.25166749  0.33085240  0.24440620  1
  Mn3.34+  Mn127  1  0.24951783  0.32200122  0.58535717  1
  Mn3.34+  Mn128  1  0.25327206  0.33074786  0.91846605  1
  Mn3.34+  Mn129  1  0.25179350  0.84222882  0.24735574  1
  Mn3.34+  Mn130  1  0.24535955  0.83924567  0.57947732  1
  Mn3.34+  Mn131  1  0.24956582  0.83398697  0.92014314  1
  Mn3.34+  Mn132  1  0.57787203  0.33593465  0.24005013  1
  Mn3.34+  Mn133  1  0.58972015  0.32620434  0.58343215  1
  Mn3.34+  Mn134  1  0.58342818  0.33399553  0.91918564  1
  Mn3.34+  Mn135  1  0.58002630  0.84135536  0.24081385  1
  Mn3.34+  Mn136  1  0.58132194  0.83531225  0.58146230  1
  Mn3.34+  Mn137  1  0.58220808  0.83676357  0.91901642  1
  Mn3.34+  Mn138  1  0.91538671  0.33201680  0.24826449  1
  Mn3.34+  Mn139  1  0.91008044  0.32846924  0.58042465  1
  Mn3.34+  Mn140  1  0.91612062  0.33184185  0.91591593  1
  Mn3.34+  Mn141  1  0.91890461  0.84322585  0.24984307  1
  Mn3.34+  Mn142  1  0.92466325  0.83433706  0.58119242  1
  Mn3.34+  Mn143  1  0.91768483  0.83423343  0.91733163  1
  Mn3.34+  Mn144  1  0.40997104  0.66055391  0.76003279  1
  Mn3.34+  Mn145  1  0.24567383  0.66485145  0.91589829  1
  Mn3.34+  Mn146  1  0.90874137  0.67404520  0.24473099  1
  Mn3.34+  Mn147  1  0.58293593  0.16365094  0.24193583  1
  Mn3.34+  Mn148  1  0.42300241  0.66835570  0.08378271  1
  Mn3.34+  Mn149  1  0.75353593  0.66913297  0.41432827  1
  Mn3.34+  Mn150  1  0.24212613  0.67333203  0.58466718  1
  Mn3.34+  Mn151  1  0.42003065  0.66626925  0.75849868  1
  Mn3.34+  Mn152  1  0.25121462  0.67127596  0.24542968  1
  Mn3.34+  Mn153  1  0.90422473  0.17069624  0.58123639  1
  Mn3.34+  Mn154  1  0.07947792  0.16056449  0.08131486  1
  Mn3.34+  Mn155  1  0.58218732  0.67104416  0.57973067  1
  Mn3.34+  Mn156  1  0.59254207  0.66578374  0.57875154  1
  Mn3.34+  Mn157  1  0.74999377  0.66864108  0.75812736  1
  Mn3.34+  Mn158  1  0.24732708  0.16558808  0.91088560  1
  Mn3.34+  Mn159  1  0.58585147  0.16310198  0.91534962  1
  Mn3.34+  Mn160  1  0.91472231  0.16652676  0.57881121  1
  Mn3.34+  Mn161  1  0.91262216  0.67018258  0.58122704  1
  Mn3.34+  Mn162  1  0.41971272  0.16564364  0.41959638  1
  Mn3.34+  Mn163  1  0.74452072  0.66889632  0.08019445  1
  Mn3.34+  Mn164  1  0.58852513  0.17136941  0.58163254  1
  Mn3.34+  Mn165  1  0.41218767  0.66930502  0.40943781  1
  Mn3.34+  Mn166  1  0.08227563  0.66977205  0.08187866  1
  Mn3.34+  Mn167  1  0.07865463  0.16435969  0.41257029  1
  Mn3.34+  Mn168  1  0.58012349  0.66877493  0.23928079  1
  Mn3.34+  Mn169  1  0.91764397  0.16447425  0.91722135  1
  Mn3.34+  Mn170  1  0.24527839  0.15867928  0.24151786  1
  Mn3.34+  Mn171  1  0.25369691  0.17204588  0.58778647  1
  Mn3.34+  Mn172  1  0.74922094  0.17106437  0.41564733  1
  Mn3.34+  Mn173  1  0.25206573  0.66788611  0.58527643  1
  Mn3.34+  Mn174  1  0.24424439  0.17826458  0.58733335  1
  Mn3.34+  Mn175  1  0.25563392  0.16368028  0.24257963  1
  Mn3.34+  Mn176  1  0.59212520  0.15764076  0.24158685  1
  Mn3.34+  Mn177  1  0.92396989  0.67426567  0.25069380  1
  Mn3.34+  Mn178  1  0.41929136  0.16193067  0.08231150  1
  Mn3.34+  Mn179  1  0.91607404  0.16135414  0.24331368  1
  Mn3.34+  Mn180  1  0.23786785  0.49536960  0.57452954  1
  Mn3.34+  Mn181  1  0.76077565  0.49384341  0.42631827  1
  Mn3.34+  Mn182  1  0.74545097  0.00382711  0.75728463  1
  Mn3.34+  Mn183  1  0.25157465  -0.00098808  0.58760277  1
  Mn3.34+  Mn184  1  0.75027404  0.49898562  0.42682916  1
  Mn3.34+  Mn185  1  0.90980904  0.49857951  0.58673297  1
  Mn3.34+  Mn186  1  0.08252645  0.49573937  0.41702585  1
  Mn3.34+  Mn187  1  0.91822708  -0.00197601  0.57628099  1
  Mn3.34+  Mn188  1  0.24907593  0.49861634  0.57453013  1
  Mn3.34+  Mn189  1  0.24814337  0.00206713  0.92052406  1
  Mn3.34+  Mn190  1  0.08825568  0.00840880  0.75686182  1
  Mn3.34+  Mn191  1  0.24947956  0.49731154  0.24421313  1
  Mn3.34+  Mn192  1  0.60747188  0.49419607  0.58934112  1
  Mn3.34+  Mn193  1  0.74824746  -0.00118384  0.07210542  1
  Mn3.34+  Mn194  1  0.74825593  0.00295221  0.39057866  1
  Mn3.34+  Mn195  1  0.57851522  -0.00002378  0.57871932  1
  Mn3.34+  Mn196  1  0.42538356  -0.00162592  0.06648074  1
  Mn3.34+  Mn197  1  0.41184550  0.49314871  0.41248292  1
  Mn3.34+  Mn198  1  0.42477815  0.49921542  0.41767819  1
  Mn3.34+  Mn199  1  0.08739773  0.50103216  0.08116041  1
  Mn3.34+  Mn200  1  0.07694130  -0.00447790  0.40323135  1
  Mn3.34+  Mn201  1  0.76017150  -0.00214915  0.39484572  1
  Mn3.34+  Mn202  1  0.75971239  0.00921877  0.75363558  1
  Mn3.34+  Mn203  1  0.42043929  0.50037732  0.07556170  1
  Mn3.34+  Mn204  1  0.08198426  -0.00032269  0.08098517  1
  Mn3.34+  Mn205  1  0.07654035  0.00148313  0.75668765  1
  Mn3.34+  Mn206  1  0.41485269  0.00245980  0.74942609  1
  Mn3.34+  Mn207  1  0.41595139  -0.00322171  0.41012515  1
  Mn3.34+  Mn208  1  0.26017814  0.50179284  0.24236234  1
  Mn3.34+  Mn209  1  0.08086854  0.50090730  0.74725318  1
  Mn3.34+  Mn210  1  0.42923459  0.00256633  0.41296152  1
  Mn3.34+  Mn211  1  0.91008286  0.49867129  0.92127803  1
  Mn3.34+  Mn212  1  0.59585477  0.49329468  0.58296078  1
  Mn3.34+  Mn213  1  0.59254661  0.00648200  0.57833858  1
  Mn3.34+  Mn214  1  0.92103598  0.50257889  0.25047635  1
  Mn3.34+  Mn215  1  0.92232275  0.00275379  0.92182248  1
  O2-  O216  1  -0.00241459  0.16025317  0.00579338  1
  O2-  O217  1  -0.00322172  0.16346524  0.33542354  1
  O2-  O218  1  -0.00071919  0.17378722  0.65727693  1
  O2-  O219  1  0.00343694  0.65750036  0.00648116  1
  O2-  O220  1  -0.00072044  0.66607453  0.33154398  1
  O2-  O221  1  -0.01040578  0.65576513  0.66450087  1
  O2-  O222  1  0.33313776  0.16654121  0.00715306  1
  O2-  O223  1  0.33385992  0.14811001  0.33594692  1
  O2-  O224  1  0.33592479  0.18617401  0.66527456  1
  O2-  O225  1  0.33609947  0.65995709  0.00141291  1
  O2-  O226  1  0.32457809  0.66107553  0.33694926  1
  O2-  O227  1  0.33760559  0.64878668  0.66509598  1
  O2-  O228  1  0.65943137  0.16198978  0.00021167  1
  O2-  O229  1  0.66237946  0.18369390  0.33106815  1
  O2-  O230  1  0.65835379  0.17902568  0.66377698  1
  O2-  O231  1  0.66922477  0.66954344  -0.00214647  1
  O2-  O232  1  0.67246879  0.65934553  0.33134233  1
  O2-  O233  1  0.66871106  0.65812909  0.67069586  1
  O2-  O234  1  0.16869793  0.16067574  0.00532751  1
  O2-  O235  1  0.17574741  0.15215080  0.33973091  1
  O2-  O236  1  0.15872120  0.17709890  0.66218748  1
  O2-  O237  1  0.16821539  0.65820283  0.00453479  1
  O2-  O238  1  0.16669871  0.66294346  0.32205884  1
  O2-  O239  1  0.15848215  0.65836810  0.65970753  1
  O2-  O240  1  0.49705974  0.17007560  0.00174890  1
  O2-  O241  1  0.50617918  0.15861803  0.32878087  1
  O2-  O242  1  0.50312959  0.18018347  0.65725308  1
  O2-  O243  1  0.49282999  0.66997918  -0.00146960  1
  O2-  O244  1  0.50767768  0.66165237  0.33764457  1
  O2-  O245  1  0.49823600  0.64529159  0.66503268  1
  O2-  O246  1  0.84183670  0.16052185  0.00167488  1
  O2-  O247  1  0.83421907  0.17473482  0.33817960  1
  O2-  O248  1  0.83715190  0.17512838  0.66877253  1
  O2-  O249  1  0.82474076  0.65971866  -0.00076311  1
  O2-  O250  1  0.83625912  0.66133002  0.33156338  1
  O2-  O251  1  0.83126525  0.65916383  0.67008221  1
  O2-  O252  1  0.00021644  0.35465963  -0.00162511  1
  O2-  O253  1  -0.00377035  0.34418160  0.33291567  1
  O2-  O254  1  -0.00071041  0.32815797  0.66573429  1
  O2-  O255  1  -0.00334915  0.84466615  0.00318637  1
  O2-  O256  1  -0.00296888  0.82278902  0.32883772  1
  O2-  O257  1  -0.00324057  0.83808417  0.67204245  1
  O2-  O258  1  0.33741124  0.34138157  -0.00261019  1
  O2-  O259  1  0.32680409  0.33900712  0.33786443  1
  O2-  O260  1  0.33517219  0.33191633  0.66777125  1
  O2-  O261  1  0.33461886  0.84415389  -0.00121456  1
  O2-  O262  1  0.32718384  0.83382810  0.33917045  1
  O2-  O263  1  0.33525388  0.84667913  0.66550309  1
  O2-  O264  1  0.66179287  0.34957808  0.00548995  1
  O2-  O265  1  0.66691462  0.32971055  0.33190575  1
  O2-  O266  1  0.66136094  0.33289249  0.67314403  1
  O2-  O267  1  0.67180540  0.83453564  -0.00637392  1
  O2-  O268  1  0.66600723  0.83503113  0.33432564  1
  O2-  O269  1  0.66844419  0.84040334  0.66877471  1
  O2-  O270  1  0.16628212  0.34851303  0.00059172  1
  O2-  O271  1  0.16593904  0.34383924  0.33274106  1
  O2-  O272  1  0.16611865  0.32579568  0.66808945  1
  O2-  O273  1  0.16959153  0.84509724  0.00428109  1
  O2-  O274  1  0.16699094  0.83629205  0.33402711  1
  O2-  O275  1  0.17104826  0.83923835  0.67144673  1
  O2-  O276  1  0.49928414  0.33819291  0.00001759  1
  O2-  O277  1  0.50594427  0.32930932  0.33330615  1
  O2-  O278  1  0.49642891  0.33001794  0.66217410  1
  O2-  O279  1  0.49789007  0.82819563  -0.00401725  1
  O2-  O280  1  0.49963629  0.83275909  0.33527061  1
  O2-  O281  1  0.49949423  0.84511201  0.66741365  1
  O2-  O282  1  0.83483257  0.35237777  -0.00140927  1
  O2-  O283  1  0.82961747  0.34235157  0.33065925  1
  O2-  O284  1  0.83491988  0.33453756  0.67135384  1
  O2-  O285  1  0.83207944  0.84574112  -0.00313650  1
  O2-  O286  1  0.83975658  0.81430396  0.32645829  1
  O2-  O287  1  0.82628964  0.83602642  0.66588980  1
  O2-  O288  1  0.00016731  0.17674331  0.16458590  1
  O2-  O289  1  0.00049373  0.18239678  0.50444664  1
  O2-  O290  1  -0.00776304  0.18384362  0.83143502  1
  O2-  O291  1  0.00227681  0.68110652  0.16964001  1
  O2-  O292  1  -0.00203385  0.67165837  0.50843331  1
  O2-  O293  1  -0.00398960  0.67054443  0.83227269  1
  O2-  O294  1  0.34064763  0.18314657  0.16725551  1
  O2-  O295  1  0.32877760  0.17582930  0.50180618  1
  O2-  O296  1  0.33571948  0.18134998  0.84534825  1
  O2-  O297  1  0.32473032  0.67237227  0.15534967  1
  O2-  O298  1  0.33526213  0.67188800  0.50748793  1
  O2-  O299  1  0.33384686  0.67633736  0.84323091  1
  O2-  O300  1  0.66605247  0.18050587  0.16373978  1
  O2-  O301  1  0.66459692  0.18780035  0.49293191  1
  O2-  O302  1  0.65970497  0.17119493  0.83664815  1
  O2-  O303  1  0.66983642  0.67689027  0.16933307  1
  O2-  O304  1  0.66303717  0.66662074  0.48731909  1
  O2-  O305  1  0.66622889  0.68477469  0.82564674  1
  O2-  O306  1  0.16538802  0.17837914  0.16253913  1
  O2-  O307  1  0.16405765  0.17451189  0.50090428  1
  O2-  O308  1  0.16887817  0.17977768  0.83804398  1
  O2-  O309  1  0.16955511  0.67208005  0.16153185  1
  O2-  O310  1  0.16439801  0.66706829  0.50016378  1
  O2-  O311  1  0.16491675  0.67598768  0.84390684  1
  O2-  O312  1  0.49894302  0.18786978  0.16869738  1
  O2-  O313  1  0.50250131  0.18358239  0.49636037  1
  O2-  O314  1  0.50114605  0.18130702  0.83581504  1
  O2-  O315  1  0.49665250  0.68136745  0.16787591  1
  O2-  O316  1  0.49039516  0.66417439  0.50400210  1
  O2-  O317  1  0.51143170  0.67385059  0.82951589  1
  O2-  O318  1  0.84111857  0.17221320  0.16532345  1
  O2-  O319  1  0.83072707  0.18638156  0.49878666  1
  O2-  O320  1  0.83975145  0.17455978  0.84122975  1
  O2-  O321  1  0.83192937  0.68110350  0.16603663  1
  O2-  O322  1  0.83029694  0.67390091  0.50129991  1
  O2-  O323  1  0.83361016  0.68200975  0.82494900  1
  O2-  O324  1  -0.00598063  0.33138682  0.16220739  1
  O2-  O325  1  -0.00131430  0.31990190  0.50164759  1
  O2-  O326  1  0.00310240  0.32799421  0.83560212  1
  O2-  O327  1  -0.00360260  0.81676537  0.16748669  1
  O2-  O328  1  0.00182363  0.82535949  0.50134774  1
  O2-  O329  1  0.00120761  0.83173576  0.83533512  1
  O2-  O330  1  0.33088861  0.31368826  0.15711289  1
  O2-  O331  1  0.33774033  0.32413257  0.50934895  1
  O2-  O332  1  0.32898819  0.32157340  0.82791214  1
  O2-  O333  1  0.33103014  0.82763377  0.16292496  1
  O2-  O334  1  0.33477043  0.82901259  0.50224955  1
  O2-  O335  1  0.32962384  0.82480081  0.83254684  1
  O2-  O336  1  0.67268810  0.32096698  0.17111699  1
  O2-  O337  1  0.66358254  0.31039799  0.49717271  1
  O2-  O338  1  0.66483850  0.33343050  0.83602884  1
  O2-  O339  1  0.66285084  0.82290668  0.16343838  1
  O2-  O340  1  0.67308808  0.83082225  0.50654815  1
  O2-  O341  1  0.66672417  0.81167360  0.83547464  1
  O2-  O342  1  0.16096246  0.32466324  0.16885727  1
  O2-  O343  1  0.17057212  0.31728992  0.50078374  1
  O2-  O344  1  0.16944340  0.32591982  0.83069754  1
  O2-  O345  1  0.16993158  0.82437743  0.16373904  1
  O2-  O346  1  0.16942396  0.82466672  0.49714460  1
  O2-  O347  1  0.16515145  0.82768555  0.83763821  1
  O2-  O348  1  0.50261233  0.30644968  0.16284721  1
  O2-  O349  1  0.49859019  0.31937328  0.50567499  1
  O2-  O350  1  0.50191336  0.32244423  0.83384356  1
  O2-  O351  1  0.49976104  0.81990718  0.16516209  1
  O2-  O352  1  0.50093328  0.83077481  0.50071088  1
  O2-  O353  1  0.50097870  0.82118038  0.83558984  1
  O2-  O354  1  0.83143099  0.32884192  0.16709871  1
  O2-  O355  1  0.83687698  0.30587837  0.49457085  1
  O2-  O356  1  0.84004835  0.33128353  0.82956595  1
  O2-  O357  1  0.83936760  0.81999147  0.16672509  1
  O2-  O358  1  0.83218242  0.82745780  0.50242201  1
  O2-  O359  1  0.83371289  0.82421181  0.83257721  1
  O2-  O360  1  0.08992342  0.07887733  0.10626548  1
  O2-  O361  1  0.09233047  0.07188632  0.45901406  1
  O2-  O362  1  0.06976002  0.08740153  0.74303931  1
  O2-  O363  1  0.09240730  0.58113416  0.11012483  1
  O2-  O364  1  0.07959338  0.57469632  0.45056872  1
  O2-  O365  1  0.06091289  0.57801960  0.76607243  1
  O2-  O366  1  0.41604790  0.07333353  0.11039713  1
  O2-  O367  1  0.41426414  0.08049712  0.45540185  1
  O2-  O368  1  0.43244117  0.08090752  0.76089137  1
  O2-  O369  1  0.40364730  0.58074100  0.09920834  1
  O2-  O370  1  0.40846871  0.57853375  0.44910089  1
  O2-  O371  1  0.43358888  0.57753253  0.77642277  1
  O2-  O372  1  0.74896117  0.06655521  0.11629072  1
  O2-  O373  1  0.74551415  0.08109753  0.43476876  1
  O2-  O374  1  0.75425606  0.08792136  0.76347300  1
  O2-  O375  1  0.75721569  0.58517958  0.09153211  1
  O2-  O376  1  0.75582625  0.58169376  0.44104462  1
  O2-  O377  1  0.74392298  0.58591738  0.78706678  1
  O2-  O378  1  0.26105467  0.07864862  0.21949642  1
  O2-  O379  1  0.23386139  0.08156360  0.55261493  1
  O2-  O380  1  0.26428701  0.08193971  0.90396725  1
  O2-  O381  1  0.24737647  0.58373939  0.22147796  1
  O2-  O382  1  0.26313346  0.58070625  0.55553012  1
  O2-  O383  1  0.25118005  0.58394164  0.92462125  1
  O2-  O384  1  0.57014038  0.07979973  0.21033288  1
  O2-  O385  1  0.57154884  0.08601760  0.55517783  1
  O2-  O386  1  0.56741533  0.08435222  0.89948212  1
  O2-  O387  1  0.59219331  0.58491329  0.24742484  1
  O2-  O388  1  0.57641142  0.57535801  0.54454172  1
  O2-  O389  1  0.60210576  0.56953075  0.89496905  1
  O2-  O390  1  0.91509914  0.08379332  0.23677610  1
  O2-  O391  1  0.93965691  0.08200165  0.55221517  1
  O2-  O392  1  0.92475974  0.08045120  0.89262914  1
  O2-  O393  1  0.91998724  0.58466455  0.22302158  1
  O2-  O394  1  0.91551630  0.58103816  0.55727493  1
  O2-  O395  1  0.89601160  0.57720262  0.89972079  1
  O2-  O396  1  0.07413916  0.42153542  0.11274995  1
  O2-  O397  1  0.08683044  0.41468866  0.44564294  1
  O2-  O398  1  0.09900601  0.41993822  0.77501586  1
  O2-  O399  1  0.08002937  0.91864498  0.10422850  1
  O2-  O400  1  0.08870508  0.92196016  0.43499019  1
  O2-  O401  1  0.08908031  0.92210710  0.77825080  1
  O2-  O402  1  0.42337877  0.42326857  0.10783425  1
  O2-  O403  1  0.41773255  0.41399950  0.44932996  1
  O2-  O404  1  0.40009681  0.42052808  0.76279875  1
  O2-  O405  1  0.41268149  0.92137408  0.09413524  1
  O2-  O406  1  0.42018893  0.91787235  0.43897652  1
  O2-  O407  1  0.41992893  0.92201948  0.78274574  1
  O2-  O408  1  0.76454084  0.42258717  0.11526696  1
  O2-  O409  1  0.74468029  0.41157334  0.43580558  1
  O2-  O410  1  0.75572173  0.41968840  0.77461508  1
  O2-  O411  1  0.76071603  0.92038610  0.09422857  1
  O2-  O412  1  0.74646176  0.92208063  0.44079113  1
  O2-  O413  1  0.74966246  0.92181172  0.77998840  1
  O2-  O414  1  0.24903823  0.41598504  0.22174009  1
  O2-  O415  1  0.24855691  0.41185672  0.56756230  1
  O2-  O416  1  0.23999851  0.41951976  0.89119512  1
  O2-  O417  1  0.25061146  0.91962500  0.23844454  1
  O2-  O418  1  0.25826344  0.92075487  0.55364767  1
  O2-  O419  1  0.25044710  0.92165151  0.89046711  1
  O2-  O420  1  0.60414808  0.42083987  0.22377685  1
  O2-  O421  1  0.56362826  0.41517315  0.55339100  1
  O2-  O422  1  0.57505813  0.41660444  0.89845539  1
  O2-  O423  1  0.58156129  0.91746071  0.25287946  1
  O2-  O424  1  0.59704223  0.91892075  0.56237754  1
  O2-  O425  1  0.60679184  0.91873224  0.88627634  1
  O2-  O426  1  0.91026843  0.42006373  0.22279993  1
  O2-  O427  1  0.92138011  0.41707635  0.56317895  1
  O2-  O428  1  0.92921232  0.42188453  0.87933194  1
  O2-  O429  1  0.91798216  0.91745402  0.23121286  1
  O2-  O430  1  0.89836440  0.91586402  0.57432422  1
  O2-  O431  1  0.90492571  0.92345944  0.88698083  1
  O2-  O432  1  -0.00864555  -0.00754140  0.01308436  1
  O2-  O433  1  0.00271391  0.01224155  0.33854058  1
  O2-  O434  1  0.00178559  0.00251103  0.66217800  1
  O2-  O435  1  -0.00460606  0.49121672  0.00337770  1
  O2-  O436  1  -0.00097474  0.49916208  0.33756035  1
  O2-  O437  1  0.01777944  0.49931904  0.64412978  1
  O2-  O438  1  0.33333749  -0.00016794  0.00419236  1
  O2-  O439  1  0.32555698  0.01631763  0.34604993  1
  O2-  O440  1  0.34434513  0.00096934  0.65621584  1
  O2-  O441  1  0.32434305  0.49884253  0.02142255  1
  O2-  O442  1  0.33183608  0.50699904  0.33395881  1
  O2-  O443  1  0.34484728  0.49868556  0.64287195  1
  O2-  O444  1  0.67133914  -0.00490891  -0.00023445  1
  O2-  O445  1  0.64203731  0.00377648  0.36511886  1
  O2-  O446  1  0.66582637  -0.00215015  0.67040970  1
  O2-  O447  1  0.68465268  0.49758972  -0.01884887  1
  O2-  O448  1  0.67282521  0.50223565  0.33798406  1
  O2-  O449  1  0.65700613  0.51662424  0.68846760  1
  O2-  O450  1  0.17361523  -0.00445643  0.01226364  1
  O2-  O451  1  0.17636390  0.00429085  0.36050356  1
  O2-  O452  1  0.16240392  0.00776188  0.66265566  1
  O2-  O453  1  0.16017832  0.48749456  0.00133991  1
  O2-  O454  1  0.16676161  0.50372571  0.33017676  1
  O2-  O455  1  0.17740824  0.49785537  0.67605211  1
  O2-  O456  1  0.49860168  0.00434610  -0.00549299  1
  O2-  O457  1  0.49996318  0.01618815  0.32970178  1
  O2-  O458  1  0.50396255  -0.00393729  0.66793299  1
  O2-  O459  1  0.49075331  0.49813419  -0.00468187  1
  O2-  O460  1  0.51945406  0.50028244  0.35451772  1
  O2-  O461  1  0.49323720  0.50286686  0.64218078  1
  O2-  O462  1  0.82861501  -0.00461822  -0.00457471  1
  O2-  O463  1  0.85487250  0.00301133  0.34181037  1
  O2-  O464  1  0.83054885  -0.00368065  0.66342660  1
  O2-  O465  1  0.83922713  0.49174843  0.00139258  1
  O2-  O466  1  0.83225489  0.49644374  0.33138320  1
  O2-  O467  1  0.85338141  0.50842534  0.69020401  1
  O2-  O468  1  0.41502109  0.74603618  0.72579364  1
  O2-  O469  1  0.40691585  0.75199045  0.07594699  1
  O2-  O470  1  0.91882119  0.25271451  0.93764242  1
  O2-  O471  1  0.25161610  0.75176222  0.25823145  1
  O2-  O472  1  0.25416193  0.75188865  0.93379710  1
  O2-  O473  1  0.08771765  0.24982593  0.39631526  1
  O2-  O474  1  0.75573529  0.75314294  0.07015605  1
  O2-  O475  1  0.24680450  0.24467265  0.27052208  1
  O2-  O476  1  0.40596623  0.24680218  0.39697640  1
  O2-  O477  1  0.91960354  0.75546412  0.92708727  1
  O2-  O478  1  0.08323104  0.25079845  0.06733922  1
  O2-  O479  1  0.91474393  0.75109157  0.59554537  1
  O2-  O480  1  0.08527982  0.75167296  0.06265920  1
  O2-  O481  1  0.25967572  0.75532263  0.60275282  1
  O2-  O482  1  0.75459541  0.25462142  0.06564619  1
  O2-  O483  1  0.57836109  0.75410633  0.60134312  1
  O2-  O484  1  0.08367429  0.75413487  0.73950015  1
  O2-  O485  1  0.42151528  0.75108362  0.41911219  1
  O2-  O486  1  0.74914408  0.25281451  0.75250595  1
  O2-  O487  1  0.58521680  0.75086445  0.26171636  1
  O2-  O488  1  0.74015905  0.74947556  0.41792321  1
  O2-  O489  1  0.24330119  0.25139965  0.93564184  1
  O2-  O490  1  0.92143972  0.25175553  0.25924620  1
  O2-  O491  1  0.59131973  0.25232282  0.92878393  1
  O2-  O492  1  0.08499653  0.75543045  0.41151625  1
