# generated using pymatgen
data_Ca108Mn108O277
_symmetry_space_group_name_H-M   'P 1'
_cell_length_a   16.01802523
_cell_length_b   22.29506422
_cell_length_c   16.38348562
_cell_angle_alpha   90.00332196
_cell_angle_beta   90.00092491
_cell_angle_gamma   89.99950001
_symmetry_Int_Tables_number   1
_chemical_formula_structural   Ca108Mn108O277
_chemical_formula_sum   'Ca108 Mn108 O277'
_cell_volume   5850.91790406
_cell_formula_units_Z   1
loop_
 _symmetry_equiv_pos_site_id
 _symmetry_equiv_pos_as_xyz
  1  'x, y, z'
loop_
 _atom_type_symbol
 _atom_type_oxidation_number
  Ca2+  2.0
  Mn3.34+  3.34
  O2-  -2.0
loop_
 _atom_site_type_symbol
 _atom_site_label
 _atom_site_symmetry_multiplicity
 _atom_site_fract_x
 _atom_site_fract_y
 _atom_site_fract_z
 _atom_site_occupancy
  Ca2+  Ca0  1  0.07631974  0.24413159  0.23903032  1
  Ca2+  Ca1  1  0.10087134  0.25324637  0.57765467  1
  Ca2+  Ca2  1  0.08650562  0.24159070  0.93460137  1
  Ca2+  Ca3  1  0.07628603  0.75960742  0.23742865  1
  Ca2+  Ca4  1  0.06329843  0.75845759  0.58095660  1
  Ca2+  Ca5  1  0.06737508  0.75383776  0.93333837  1
  Ca2+  Ca6  1  0.40735341  0.25092637  0.26375971  1
  Ca2+  Ca7  1  0.40982578  0.24549040  0.57642967  1
  Ca2+  Ca8  1  0.43463813  0.23700290  0.91257106  1
  Ca2+  Ca9  1  0.44361933  0.74498119  0.26453961  1
  Ca2+  Ca10  1  0.43784538  0.74440154  0.58357298  1
  Ca2+  Ca11  1  0.43188806  0.75367305  0.91062131  1
  Ca2+  Ca12  1  0.75843147  0.24641817  0.27464514  1
  Ca2+  Ca13  1  0.74080486  0.24759427  0.56360051  1
  Ca2+  Ca14  1  0.73302014  0.25257041  0.91060198  1
  Ca2+  Ca15  1  0.73079355  0.75194164  0.26493590  1
  Ca2+  Ca16  1  0.74703818  0.74934634  0.57188350  1
  Ca2+  Ca17  1  0.75475461  0.75338203  0.91715226  1
  Ca2+  Ca18  1  0.22498703  0.23040159  0.08342704  1
  Ca2+  Ca19  1  0.25617707  0.24764422  0.42843023  1
  Ca2+  Ca20  1  0.25443943  0.24339628  0.73285749  1
  Ca2+  Ca21  1  0.23079490  0.75825888  0.09436368  1
  Ca2+  Ca22  1  0.26059592  0.76105164  0.41784142  1
  Ca2+  Ca23  1  0.25292812  0.75904210  0.73972566  1
  Ca2+  Ca24  1  0.58056385  0.25302542  0.07096281  1
  Ca2+  Ca25  1  0.59602312  0.24243192  0.42332076  1
  Ca2+  Ca26  1  0.58349608  0.25184984  0.74254417  1
  Ca2+  Ca27  1  0.58433276  0.75087939  0.10420743  1
  Ca2+  Ca28  1  0.58790163  0.73302669  0.42595314  1
  Ca2+  Ca29  1  0.57122149  0.74418293  0.73477870  1
  Ca2+  Ca30  1  0.93905231  0.24423359  0.08812977  1
  Ca2+  Ca31  1  0.90261282  0.24852867  0.40881858  1
  Ca2+  Ca32  1  0.91655539  0.25728881  0.74999325  1
  Ca2+  Ca33  1  0.93604150  0.74397299  0.07923350  1
  Ca2+  Ca34  1  0.90394486  0.75112620  0.43834893  1
  Ca2+  Ca35  1  0.91619722  0.75822888  0.72971263  1
  Ca2+  Ca36  1  0.08650304  0.09404969  0.93055965  1
  Ca2+  Ca37  1  0.44649254  0.60444448  0.59061364  1
  Ca2+  Ca38  1  0.28087331  0.58407495  0.72903292  1
  Ca2+  Ca39  1  0.05365786  0.59150511  0.94099506  1
  Ca2+  Ca40  1  0.77918471  0.08043684  0.92983206  1
  Ca2+  Ca41  1  0.25091702  0.10227279  0.41627623  1
  Ca2+  Ca42  1  0.11375924  0.08447119  0.56393157  1
  Ca2+  Ca43  1  0.12361421  0.08275589  0.56531301  1
  Ca2+  Ca44  1  0.73270862  0.60178936  0.91768414  1
  Ca2+  Ca45  1  0.74475292  0.59116771  0.26349560  1
  Ca2+  Ca46  1  0.91983564  0.07483355  0.75693444  1
  Ca2+  Ca47  1  0.06798384  0.10919555  0.24563081  1
  Ca2+  Ca48  1  0.26891608  0.58656157  0.72692177  1
  Ca2+  Ca49  1  0.06508251  0.58977355  0.94412842  1
  Ca2+  Ca50  1  0.90987569  0.09926165  0.40402304  1
  Ca2+  Ca51  1  0.60239665  0.60791166  0.08200585  1
  Ca2+  Ca52  1  0.79030971  0.07676151  0.92657091  1
  Ca2+  Ca53  1  0.57342739  0.59956005  0.73425918  1
  Ca2+  Ca54  1  0.58984692  0.08830054  0.06787502  1
  Ca2+  Ca55  1  0.73784830  0.59810838  0.57485264  1
  Ca2+  Ca56  1  0.39387098  0.10349340  0.58321994  1
  Ca2+  Ca57  1  0.59333189  0.60424857  0.08745387  1
  Ca2+  Ca58  1  0.73421961  0.59113141  0.26371108  1
  Ca2+  Ca59  1  0.06427902  0.57564806  0.59396807  1
  Ca2+  Ca60  1  0.21976033  0.60086948  0.08079416  1
  Ca2+  Ca61  1  0.93573140  0.10741938  0.08403222  1
  Ca2+  Ca62  1  0.57169244  0.09554827  0.73757095  1
  Ca2+  Ca63  1  0.45611277  0.60887526  0.88842932  1
  Ca2+  Ca64  1  0.93287599  0.10218965  0.09076319  1
  Ca2+  Ca65  1  0.76454038  0.10355125  0.28283814  1
  Ca2+  Ca66  1  0.90148778  0.58328963  0.41410602  1
  Ca2+  Ca67  1  0.40983626  0.09741552  0.26531257  1
  Ca2+  Ca68  1  0.07589733  0.09365388  0.92903961  1
  Ca2+  Ca69  1  0.25950675  0.59329470  0.43042160  1
  Ca2+  Ca70  1  0.44337755  0.60830830  0.88892806  1
  Ca2+  Ca71  1  0.07690762  0.57522025  0.59533236  1
  Ca2+  Ca72  1  0.89430404  0.92067835  0.07323234  1
  Ca2+  Ca73  1  0.43107128  0.40132973  0.90421474  1
  Ca2+  Ca74  1  0.08336371  0.91680769  0.27209358  1
  Ca2+  Ca75  1  0.41051979  0.90088094  0.25012762  1
  Ca2+  Ca76  1  0.91098667  0.40322720  0.09161760  1
  Ca2+  Ca77  1  0.24797322  0.39444684  0.09014526  1
  Ca2+  Ca78  1  0.90744599  0.41719066  0.73651308  1
  Ca2+  Ca79  1  0.41900232  0.40230202  0.90772320  1
  Ca2+  Ca80  1  0.60337589  0.41399016  0.74437015  1
  Ca2+  Ca81  1  0.92381014  0.40348448  0.09214287  1
  Ca2+  Ca82  1  0.59123648  0.90022042  0.43000268  1
  Ca2+  Ca83  1  0.23156341  0.91677602  0.42015594  1
  Ca2+  Ca84  1  0.06885440  0.40383155  0.26530648  1
  Ca2+  Ca85  1  0.07790480  0.91562734  0.57824107  1
  Ca2+  Ca86  1  0.09208738  0.91467294  0.91199909  1
  Ca2+  Ca87  1  0.25762803  0.41529362  0.72965414  1
  Ca2+  Ca88  1  0.76483295  0.91379100  0.91705433  1
  Ca2+  Ca89  1  0.39368219  0.90347776  0.91399577  1
  Ca2+  Ca90  1  0.25054002  0.90104776  0.07608073  1
  Ca2+  Ca91  1  0.75673357  0.40822485  0.27119038  1
  Ca2+  Ca92  1  0.06963596  0.40653881  0.91154600  1
  Ca2+  Ca93  1  0.07960260  0.91212824  0.91261121  1
  Ca2+  Ca94  1  0.74884829  0.40683093  0.57839259  1
  Ca2+  Ca95  1  0.74071663  0.90983261  0.58689454  1
  Ca2+  Ca96  1  0.91612625  0.91760373  0.73604194  1
  Ca2+  Ca97  1  0.43120669  0.90297435  0.58720541  1
  Ca2+  Ca98  1  0.42119210  0.40148321  0.58497396  1
  Ca2+  Ca99  1  0.88607396  0.92493689  0.06934824  1
  Ca2+  Ca100  1  0.60937474  0.90079053  0.07854788  1
  Ca2+  Ca101  1  0.59695430  0.90217486  0.07716750  1
  Ca2+  Ca102  1  0.58555550  0.39647545  0.08762623  1
  Ca2+  Ca103  1  0.91893126  0.91073572  0.42814160  1
  Ca2+  Ca104  1  0.89813452  0.42050143  0.73845980  1
  Ca2+  Ca105  1  0.24563841  0.41526188  0.72948631  1
  Ca2+  Ca106  1  0.08222048  0.40687649  0.91150832  1
  Ca2+  Ca107  1  0.42501727  0.39501866  0.25447910  1
  Mn3.34+  Mn108  1  0.08560514  0.33170498  0.08815878  1
  Mn3.34+  Mn109  1  0.08097919  0.33320702  0.41861348  1
  Mn3.34+  Mn110  1  0.08273807  0.33751907  0.74803783  1
  Mn3.34+  Mn111  1  0.08008888  0.83372272  0.08763765  1
  Mn3.34+  Mn112  1  0.08213791  0.83726922  0.41867126  1
  Mn3.34+  Mn113  1  0.08832349  0.83514115  0.74622232  1
  Mn3.34+  Mn114  1  0.41578888  0.33036832  0.08704635  1
  Mn3.34+  Mn115  1  0.41862351  0.33290761  0.41993200  1
  Mn3.34+  Mn116  1  0.41823190  0.33164987  0.74839051  1
  Mn3.34+  Mn117  1  0.41608973  0.83523624  0.08344062  1
  Mn3.34+  Mn118  1  0.41714196  0.83244682  0.42052564  1
  Mn3.34+  Mn119  1  0.41639638  0.83117109  0.74921619  1
  Mn3.34+  Mn120  1  0.74949456  0.32930163  0.08671342  1
  Mn3.34+  Mn121  1  0.74902455  0.33314077  0.42029712  1
  Mn3.34+  Mn122  1  0.74958902  0.33667862  0.74961531  1
  Mn3.34+  Mn123  1  0.75557569  0.82469669  0.08560729  1
  Mn3.34+  Mn124  1  0.75104595  0.83655738  0.41730520  1
  Mn3.34+  Mn125  1  0.74498057  0.83764122  0.75143486  1
  Mn3.34+  Mn126  1  0.24749718  0.32910506  0.25704507  1
  Mn3.34+  Mn127  1  0.24689352  0.33135029  0.57419212  1
  Mn3.34+  Mn128  1  0.25205257  0.32708967  0.91463031  1
  Mn3.34+  Mn129  1  0.24951658  0.83902465  0.25223272  1
  Mn3.34+  Mn130  1  0.25171637  0.84014586  0.58149089  1
  Mn3.34+  Mn131  1  0.24764649  0.83259415  0.90988203  1
  Mn3.34+  Mn132  1  0.58658289  0.33197079  0.25287879  1
  Mn3.34+  Mn133  1  0.58365083  0.33219852  0.58047896  1
  Mn3.34+  Mn134  1  0.58980324  0.33155731  0.91402382  1
  Mn3.34+  Mn135  1  0.58610944  0.83312174  0.25482043  1
  Mn3.34+  Mn136  1  0.58572765  0.83239062  0.58448936  1
  Mn3.34+  Mn137  1  0.58575320  0.82609213  0.90747585  1
  Mn3.34+  Mn138  1  0.91642518  0.33702648  0.25696300  1
  Mn3.34+  Mn139  1  0.92125912  0.33280043  0.57447353  1
  Mn3.34+  Mn140  1  0.91086465  0.33025508  0.91423924  1
  Mn3.34+  Mn141  1  0.91238630  0.83627687  0.25197781  1
  Mn3.34+  Mn142  1  0.91412002  0.83892056  0.58316738  1
  Mn3.34+  Mn143  1  0.91616895  0.83608390  0.90796766  1
  Mn3.34+  Mn144  1  0.74802900  0.66691185  0.42392821  1
  Mn3.34+  Mn145  1  0.58240257  0.15859605  0.57457455  1
  Mn3.34+  Mn146  1  0.91658033  0.66435880  0.24326394  1
  Mn3.34+  Mn147  1  0.08684897  0.66763853  0.41841042  1
  Mn3.34+  Mn148  1  0.90963621  0.15768896  0.57793998  1
  Mn3.34+  Mn149  1  0.74583838  0.16149454  0.75098761  1
  Mn3.34+  Mn150  1  0.91233027  0.67133245  0.91946481  1
  Mn3.34+  Mn151  1  0.41935935  0.16711342  0.08296622  1
  Mn3.34+  Mn152  1  0.08285337  0.66627646  0.75190671  1
  Mn3.34+  Mn153  1  0.40953307  0.66456829  0.08741309  1
  Mn3.34+  Mn154  1  0.07532423  0.66172581  0.42081967  1
  Mn3.34+  Mn155  1  0.25311643  0.16048479  0.91126747  1
  Mn3.34+  Mn156  1  0.42399697  0.66723240  0.41887127  1
  Mn3.34+  Mn157  1  0.42289469  0.67141252  0.08591662  1
  Mn3.34+  Mn158  1  0.24164836  0.66790751  0.25461573  1
  Mn3.34+  Mn159  1  0.08026283  0.16423716  0.41423590  1
  Mn3.34+  Mn160  1  0.75481814  0.16727461  0.74961242  1
  Mn3.34+  Mn161  1  0.41797908  0.17087396  0.41998364  1
  Mn3.34+  Mn162  1  0.08954972  0.16320441  0.75057428  1
  Mn3.34+  Mn163  1  0.25435125  0.68427106  0.90889154  1
  Mn3.34+  Mn164  1  0.24806341  0.68313974  0.91831945  1
  Mn3.34+  Mn165  1  0.07973767  0.16861994  0.74929940  1
  Mn3.34+  Mn166  1  0.41025986  0.16109192  0.08358761  1
  Mn3.34+  Mn167  1  0.75484602  0.67826269  0.08162813  1
  Mn3.34+  Mn168  1  0.07154397  0.65989407  0.75361015  1
  Mn3.34+  Mn169  1  0.58093716  0.16821541  0.25213018  1
  Mn3.34+  Mn170  1  0.24435704  0.16627012  0.24916328  1
  Mn3.34+  Mn171  1  0.41360602  0.16360736  0.75394990  1
  Mn3.34+  Mn172  1  0.75194886  0.16886004  0.09020970  1
  Mn3.34+  Mn173  1  0.92491306  0.65827585  0.23997856  1
  Mn3.34+  Mn174  1  0.76065877  0.65735640  0.75060459  1
  Mn3.34+  Mn175  1  0.25277752  0.67252443  0.58045389  1
  Mn3.34+  Mn176  1  0.91984023  0.16459975  0.58050151  1
  Mn3.34+  Mn177  1  0.74789707  0.66255128  0.75330049  1
  Mn3.34+  Mn178  1  0.74162766  0.16409434  0.09085706  1
  Mn3.34+  Mn179  1  0.25514508  0.66202906  0.25400227  1
  Mn3.34+  Mn180  1  0.42314310  0.00335833  0.42596576  1
  Mn3.34+  Mn181  1  0.07627869  0.50082733  0.08932557  1
  Mn3.34+  Mn182  1  0.40545882  0.00405394  0.07773131  1
  Mn3.34+  Mn183  1  0.58754363  0.00225254  0.90563980  1
  Mn3.34+  Mn184  1  0.75244267  0.00422612  0.42173511  1
  Mn3.34+  Mn185  1  0.90362263  0.50182617  0.90853765  1
  Mn3.34+  Mn186  1  0.07234128  0.49782536  0.40686045  1
  Mn3.34+  Mn187  1  0.57649696  -0.00282244  0.90573353  1
  Mn3.34+  Mn188  1  0.41234645  -0.00118435  0.42662465  1
  Mn3.34+  Mn189  1  0.74881013  0.49740006  0.08933207  1
  Mn3.34+  Mn190  1  0.42326311  0.50441528  0.41837410  1
  Mn3.34+  Mn191  1  0.41219988  -0.00221079  0.74160773  1
  Mn3.34+  Mn192  1  0.26075805  0.50082083  0.91046961  1
  Mn3.34+  Mn193  1  0.59742070  0.49858444  0.91028383  1
  Mn3.34+  Mn194  1  0.42577917  0.50099676  0.08969964  1
  Mn3.34+  Mn195  1  0.09147777  0.00188802  0.73256427  1
  Mn3.34+  Mn196  1  0.58247581  0.49822473  0.60074797  1
  Mn3.34+  Mn197  1  0.91871834  -0.00228819  0.26560097  1
  Mn3.34+  Mn198  1  0.24867070  0.49803350  0.57996487  1
  Mn3.34+  Mn199  1  0.75936991  0.50280760  0.08953774  1
  Mn3.34+  Mn200  1  0.40212150  0.00294966  0.74117948  1
  Mn3.34+  Mn201  1  0.24462536  0.00316930  0.25660220  1
  Mn3.34+  Mn202  1  0.41563849  0.49700938  0.09283927  1
  Mn3.34+  Mn203  1  0.91264300  0.49791330  0.59383766  1
  Mn3.34+  Mn204  1  0.74688121  -0.00027635  0.73215554  1
  Mn3.34+  Mn205  1  0.43526016  0.49775976  0.41644675  1
  Mn3.34+  Mn206  1  0.09203381  0.00254189  0.09395849  1
  Mn3.34+  Mn207  1  0.58543728  0.00475718  0.25405940  1
  Mn3.34+  Mn208  1  0.75011558  0.49790112  0.40788530  1
  Mn3.34+  Mn209  1  0.39134931  0.00641981  0.07177103  1
  Mn3.34+  Mn210  1  0.24129007  0.50204687  0.25378757  1
  Mn3.34+  Mn211  1  0.58123341  0.49847994  0.24879697  1
  Mn3.34+  Mn212  1  0.25196393  0.49691944  0.25582038  1
  Mn3.34+  Mn213  1  0.10336070  -0.00117905  0.09117676  1
  Mn3.34+  Mn214  1  0.59944318  -0.00076936  0.25178250  1
  Mn3.34+  Mn215  1  0.24972885  0.50408224  0.91217548  1
  O2-  O216  1  -0.00216599  0.15906675  -0.00561225  1
  O2-  O217  1  0.00311518  0.17662962  0.33608225  1
  O2-  O218  1  -0.00509334  0.14932958  0.66957552  1
  O2-  O219  1  -0.00562866  0.66623146  -0.00401045  1
  O2-  O220  1  -0.00186662  0.64784216  0.33370194  1
  O2-  O221  1  0.00499115  0.64907682  0.66200255  1
  O2-  O222  1  0.33458190  0.15734220  -0.00188025  1
  O2-  O223  1  0.33360789  0.16059292  0.33445303  1
  O2-  O224  1  0.34383574  0.18056972  0.67140724  1
  O2-  O225  1  0.33698757  0.65775174  -0.00528312  1
  O2-  O226  1  0.32676393  0.65640907  0.34050952  1
  O2-  O227  1  0.32703127  0.66608945  0.66541120  1
  O2-  O228  1  0.67771765  0.14978049  -0.00115673  1
  O2-  O229  1  0.66591160  0.17599859  0.32132323  1
  O2-  O230  1  0.66401905  0.15716674  0.67074496  1
  O2-  O231  1  0.66577688  0.67357656  0.00441958  1
  O2-  O232  1  0.67820109  0.66216650  0.33150874  1
  O2-  O233  1  0.66868285  0.65953543  0.67173092  1
  O2-  O234  1  0.16608644  0.16223993  -0.01209614  1
  O2-  O235  1  0.16480661  0.16426584  0.33479193  1
  O2-  O236  1  0.15865185  0.15467956  0.66152946  1
  O2-  O237  1  0.16429983  0.66986701  -0.00767254  1
  O2-  O238  1  0.16656061  0.64621020  0.34306492  1
  O2-  O239  1  0.16963689  0.65479201  0.66795146  1
  O2-  O240  1  0.50451282  0.15871827  0.00912696  1
  O2-  O241  1  0.49496052  0.17076331  0.32796041  1
  O2-  O242  1  0.49428188  0.16647418  0.66749485  1
  O2-  O243  1  0.50370465  0.65855457  0.00090326  1
  O2-  O244  1  0.49611097  0.66711310  0.33944956  1
  O2-  O245  1  0.49502008  0.66906577  0.67528208  1
  O2-  O246  1  0.83672606  0.15600309  0.00660695  1
  O2-  O247  1  0.84490812  0.17348303  0.32953763  1
  O2-  O248  1  0.83787170  0.14616848  0.67487145  1
  O2-  O249  1  0.82297811  0.66945590  -0.01047236  1
  O2-  O250  1  0.83580034  0.65601780  0.32829087  1
  O2-  O251  1  0.82672171  0.67747536  0.66524161  1
  O2-  O252  1  -0.00139023  0.34381909  0.00038764  1
  O2-  O253  1  0.00103820  0.31600545  0.33037044  1
  O2-  O254  1  -0.01073100  0.34706799  0.68010550  1
  O2-  O255  1  -0.00016648  0.85324288  0.00016083  1
  O2-  O256  1  0.00182494  0.84875356  0.33164670  1
  O2-  O257  1  0.00181010  0.84796743  0.66623383  1
  O2-  O258  1  0.33643903  0.35126688  -0.00293346  1
  O2-  O259  1  0.33689202  0.34089461  0.33099753  1
  O2-  O260  1  0.33271483  0.33615882  0.67063139  1
  O2-  O261  1  0.32890656  0.83392178  -0.00440286  1
  O2-  O262  1  0.32980823  0.84903526  0.34035821  1
  O2-  O263  1  0.33541341  0.81794746  0.66284748  1
  O2-  O264  1  0.66695367  0.34363238  0.00406833  1
  O2-  O265  1  0.67259551  0.33193053  0.32886143  1
  O2-  O266  1  0.66942520  0.34847304  0.66437916  1
  O2-  O267  1  0.66632566  0.81976023  0.00159192  1
  O2-  O268  1  0.66584366  0.84157067  0.33725766  1
  O2-  O269  1  0.67343602  0.82949987  0.66273636  1
  O2-  O270  1  0.16267238  0.35046381  -0.00344951  1
  O2-  O271  1  0.15695545  0.32479463  0.32734088  1
  O2-  O272  1  0.16874612  0.34473500  0.66990916  1
  O2-  O273  1  0.16479559  0.83448932  -0.00315080  1
  O2-  O274  1  0.16705106  0.84653896  0.33595632  1
  O2-  O275  1  0.16838844  0.82377233  0.65930135  1
  O2-  O276  1  0.50009723  0.34603640  -0.00118931  1
  O2-  O277  1  0.49842957  0.32682672  0.32886510  1
  O2-  O278  1  0.50444629  0.34182945  0.67159490  1
  O2-  O279  1  0.50519175  0.83752073  -0.00162060  1
  O2-  O280  1  0.49672683  0.84732522  0.33076566  1
  O2-  O281  1  0.49563248  0.82966421  0.66386697  1
  O2-  O282  1  0.84146551  0.33804962  0.00971882  1
  O2-  O283  1  0.83172227  0.33164885  0.33297843  1
  O2-  O284  1  0.83522809  0.34486170  0.66965316  1
  O2-  O285  1  0.83306038  0.84189503  -0.00433743  1
  O2-  O286  1  0.83892244  0.84127849  0.34220639  1
  O2-  O287  1  0.83413750  0.84175504  0.67103245  1
  O2-  O288  1  -0.01056663  0.17339550  0.16487344  1
  O2-  O289  1  0.00311889  0.18518505  0.49915536  1
  O2-  O290  1  0.00609925  0.17754976  0.83382593  1
  O2-  O291  1  0.00502315  0.67687910  0.16770438  1
  O2-  O292  1  0.00257860  0.67210473  0.50318038  1
  O2-  O293  1  0.00344133  0.67615983  0.84554468  1
  O2-  O294  1  0.33484853  0.17218876  0.16785299  1
  O2-  O295  1  0.33585294  0.17292059  0.49556502  1
  O2-  O296  1  0.33542544  0.18597592  0.83259314  1
  O2-  O297  1  0.33316916  0.68304953  0.16832520  1
  O2-  O298  1  0.32981843  0.68334271  0.49904931  1
  O2-  O299  1  0.33419557  0.68341053  0.83032036  1
  O2-  O300  1  0.65445313  0.18652589  0.16086981  1
  O2-  O301  1  0.66095780  0.17362518  0.50587902  1
  O2-  O302  1  0.67006441  0.17549434  0.83100707  1
  O2-  O303  1  0.67207540  0.68019854  0.15963795  1
  O2-  O304  1  0.67516437  0.67365879  0.50238776  1
  O2-  O305  1  0.67489785  0.68685666  0.82724694  1
  O2-  O306  1  0.16229453  0.17403907  0.17852063  1
  O2-  O307  1  0.15901929  0.17735843  0.49213364  1
  O2-  O308  1  0.17051434  0.18417317  0.82899167  1
  O2-  O309  1  0.17477965  0.67772000  0.16550371  1
  O2-  O310  1  0.16514708  0.68375606  0.50517311  1
  O2-  O311  1  0.16505009  0.68458583  0.82912432  1
  O2-  O312  1  0.49442954  0.18541621  0.16938478  1
  O2-  O313  1  0.49703297  0.18127032  0.50133065  1
  O2-  O314  1  0.49787545  0.19101694  0.81309077  1
  O2-  O315  1  0.50877897  0.67162323  0.16179524  1
  O2-  O316  1  0.49469632  0.67459832  0.50007502  1
  O2-  O317  1  0.49946959  0.68623775  0.83611935  1
  O2-  O318  1  0.82928319  0.17829578  0.16939923  1
  O2-  O319  1  0.83745620  0.17478962  0.49688166  1
  O2-  O320  1  0.83000463  0.17644033  0.83597797  1
  O2-  O321  1  0.83319188  0.68798223  0.16556537  1
  O2-  O322  1  0.83479752  0.66920256  0.49199781  1
  O2-  O323  1  0.83884491  0.68372608  0.82917544  1
  O2-  O324  1  -0.00368086  0.32178616  0.16718331  1
  O2-  O325  1  0.00242199  0.30997334  0.49865326  1
  O2-  O326  1  0.00755601  0.31791721  0.84357071  1
  O2-  O327  1  -0.00281650  0.83094215  0.16431873  1
  O2-  O328  1  -0.00200065  0.82870864  0.49781632  1
  O2-  O329  1  0.00733455  0.82913484  0.83794612  1
  O2-  O330  1  0.33363205  0.32938198  0.16723476  1
  O2-  O331  1  0.33869807  0.32562523  0.50606667  1
  O2-  O332  1  0.33582316  0.31727561  0.83407981  1
  O2-  O333  1  0.33014700  0.82829272  0.16517407  1
  O2-  O334  1  0.33546116  0.82076993  0.50517990  1
  O2-  O335  1  0.33464840  0.81027567  0.83623910  1
  O2-  O336  1  0.66616025  0.31891247  0.16543274  1
  O2-  O337  1  0.66823297  0.32914905  0.50374846  1
  O2-  O338  1  0.66161746  0.32492954  0.82459402  1
  O2-  O339  1  0.66587587  0.82176738  0.16201890  1
  O2-  O340  1  0.66845696  0.82593803  0.49949852  1
  O2-  O341  1  0.66995175  0.80879106  0.83285681  1
  O2-  O342  1  0.16800050  0.32635207  0.16513599  1
  O2-  O343  1  0.16791695  0.31897507  0.49232744  1
  O2-  O344  1  0.16774928  0.33416330  0.83324797  1
  O2-  O345  1  0.16455465  0.82529168  0.16906738  1
  O2-  O346  1  0.16917700  0.81930610  0.50008324  1
  O2-  O347  1  0.16472496  0.81045625  0.83669267  1
  O2-  O348  1  0.50288586  0.31756008  0.16567534  1
  O2-  O349  1  0.49598326  0.32198039  0.50704639  1
  O2-  O350  1  0.49384436  0.32203987  0.83691498  1
  O2-  O351  1  0.50652609  0.82970548  0.16312684  1
  O2-  O352  1  0.50169050  0.82334188  0.49763821  1
  O2-  O353  1  0.49972232  0.81475117  0.83040685  1
  O2-  O354  1  0.83827179  0.31957696  0.16669235  1
  O2-  O355  1  0.82929928  0.32573289  0.50585501  1
  O2-  O356  1  0.83475588  0.31710613  0.83011716  1
  O2-  O357  1  0.84115991  0.82051575  0.15821535  1
  O2-  O358  1  0.83001121  0.82779028  0.50345974  1
  O2-  O359  1  0.83277870  0.82080692  0.83052715  1
  O2-  O360  1  0.07683066  0.08432360  0.09903396  1
  O2-  O361  1  0.07465725  0.08365901  0.43323033  1
  O2-  O362  1  0.07594316  0.07633697  0.78938269  1
  O2-  O363  1  0.09073647  0.58090610  0.07272045  1
  O2-  O364  1  0.09442406  0.57488437  0.45929666  1
  O2-  O365  1  0.09416075  0.58161947  0.79110653  1
  O2-  O366  1  0.43415194  0.07784684  0.12847522  1
  O2-  O367  1  0.41680795  0.08596027  0.43343703  1
  O2-  O368  1  0.42241181  0.08098105  0.77809795  1
  O2-  O369  1  0.42370048  0.58254845  0.10829160  1
  O2-  O370  1  0.40478795  0.58190136  0.45389233  1
  O2-  O371  1  0.39212402  0.56566215  0.78873446  1
  O2-  O372  1  0.74414920  0.08242680  0.11716914  1
  O2-  O373  1  0.76895648  0.08068296  0.42321602  1
  O2-  O374  1  0.75544674  0.07085169  0.79071696  1
  O2-  O375  1  0.74509504  0.58531661  0.11061019  1
  O2-  O376  1  0.75251300  0.57850562  0.43781774  1
  O2-  O377  1  0.74056823  0.57808182  0.78617381  1
  O2-  O378  1  0.25457023  0.08213465  0.23435443  1
  O2-  O379  1  0.24413158  0.06886257  0.53762240  1
  O2-  O380  1  0.22201401  0.08484052  0.89365367  1
  O2-  O381  1  0.25478441  0.57975984  0.21080892  1
  O2-  O382  1  0.23809038  0.58080859  0.56199430  1
  O2-  O383  1  0.24757778  0.58724594  0.89161986  1
  O2-  O384  1  0.58151119  0.08215256  0.21254199  1
  O2-  O385  1  0.55856576  0.08401621  0.58004090  1
  O2-  O386  1  0.58996002  0.08119019  0.88188667  1
  O2-  O387  1  0.60972191  0.57403943  0.20865618  1
  O2-  O388  1  0.58628284  0.56825227  0.55942313  1
  O2-  O389  1  0.58367712  0.58101208  0.87941246  1
  O2-  O390  1  0.91413956  0.06815978  0.21547512  1
  O2-  O391  1  0.93921223  0.08048421  0.54927077  1
  O2-  O392  1  0.91663721  0.06936742  0.88930614  1
  O2-  O393  1  0.88736557  0.58091367  0.22220364  1
  O2-  O394  1  0.93515814  0.56534709  0.54258915  1
  O2-  O395  1  0.92137304  0.58693949  0.90186840  1
  O2-  O396  1  0.06526081  0.41796054  0.11260131  1
  O2-  O397  1  0.07862438  0.41845917  0.41214924  1
  O2-  O398  1  0.08859609  0.42221654  0.77918906  1
  O2-  O399  1  0.10547198  0.91660147  0.10644321  1
  O2-  O400  1  0.08623367  0.91813882  0.43941651  1
  O2-  O401  1  0.08623983  0.92553069  0.77865858  1
  O2-  O402  1  0.42486929  0.41506609  0.11121302  1
  O2-  O403  1  0.42096534  0.41758146  0.44166168  1
  O2-  O404  1  0.38785986  0.42198637  0.78063703  1
  O2-  O405  1  0.42241861  0.92187597  0.10687905  1
  O2-  O406  1  0.41849019  0.91684826  0.44889467  1
  O2-  O407  1  0.40794452  0.91928442  0.78062355  1
  O2-  O408  1  0.75854667  0.41539567  0.11525177  1
  O2-  O409  1  0.75022675  0.41940640  0.43226578  1
  O2-  O410  1  0.76196229  0.41759660  0.76806507  1
  O2-  O411  1  0.74350164  0.91583554  0.08834768  1
  O2-  O412  1  0.74827048  0.92230964  0.44963267  1
  O2-  O413  1  0.75253974  0.92851916  0.78313626  1
  O2-  O414  1  0.24297819  0.41523830  0.23120192  1
  O2-  O415  1  0.26242165  0.41675021  0.58535598  1
  O2-  O416  1  0.26136981  0.41741359  0.89068517  1
  O2-  O417  1  0.25235974  0.92559886  0.21591984  1
  O2-  O418  1  0.24910608  0.91611911  0.55802722  1
  O2-  O419  1  0.23293777  0.91101026  0.89778924  1
  O2-  O420  1  0.57814578  0.41895072  0.22133870  1
  O2-  O421  1  0.57694322  0.42363556  0.56543951  1
  O2-  O422  1  0.56488205  0.41835152  0.88285275  1
  O2-  O423  1  0.58390806  0.92040841  0.21214904  1
  O2-  O424  1  0.58098488  0.91485105  0.56295230  1
  O2-  O425  1  0.58735714  0.91433990  0.91223689  1
  O2-  O426  1  0.91939915  0.42227263  0.22216101  1
  O2-  O427  1  0.90884172  0.42037321  0.57230934  1
  O2-  O428  1  0.93291197  0.42026656  0.87324258  1
  O2-  O429  1  0.92118712  0.92983135  0.20678802  1
  O2-  O430  1  0.91638511  0.92083930  0.56585286  1
  O2-  O431  1  0.91884554  0.91851851  0.89472600  1
  O2-  O432  1  -0.00509052  -0.00853154  0.02388387  1
  O2-  O433  1  0.00586735  0.00090413  0.32067200  1
  O2-  O434  1  -0.00364513  0.00197149  0.68617686  1
  O2-  O435  1  0.01302568  0.49457975  -0.02331494  1
  O2-  O436  1  -0.00836733  0.50990390  0.34487362  1
  O2-  O437  1  -0.00089906  0.50153290  0.66257798  1
  O2-  O438  1  0.32846878  -0.02284993  -0.00805621  1
  O2-  O439  1  0.33488604  -0.00185127  0.33514076  1
  O2-  O440  1  0.34072194  0.00435852  0.64782868  1
  O2-  O441  1  0.32740401  0.50001868  0.01149644  1
  O2-  O442  1  0.33107241  0.50145178  0.34184787  1
  O2-  O443  1  0.32527787  0.50414662  0.66727067  1
  O2-  O444  1  0.66178448  0.00112159  -0.00163454  1
  O2-  O445  1  0.66945411  0.00103829  0.34146172  1
  O2-  O446  1  0.66979407  0.00189532  0.66564395  1
  O2-  O447  1  0.65702371  0.51370158  0.01602540  1
  O2-  O448  1  0.67744569  0.50179549  0.31359381  1
  O2-  O449  1  0.66489911  0.49827165  0.66523652  1
  O2-  O450  1  0.14509092  -0.00214507  -0.02021430  1
  O2-  O451  1  0.16577502  -0.00508710  0.32651994  1
  O2-  O452  1  0.14906551  0.00078540  0.63899156  1
  O2-  O453  1  0.16674744  0.48964185  -0.00560773  1
  O2-  O454  1  0.16527882  0.51079700  0.34035744  1
  O2-  O455  1  0.17138790  0.51185904  0.67132432  1
  O2-  O456  1  0.49999664  0.00724059  0.00258904  1
  O2-  O457  1  0.49684970  -0.00567577  0.33080359  1
  O2-  O458  1  0.50542672  -0.00135108  0.68052500  1
  O2-  O459  1  0.49009645  0.50095213  -0.01097770  1
  O2-  O460  1  0.49019220  0.50077934  0.31689580  1
  O2-  O461  1  0.50052025  0.50468579  0.66613263  1
  O2-  O462  1  0.83530166  0.00621260  0.01000008  1
  O2-  O463  1  0.84359924  -0.00123219  0.34395613  1
  O2-  O464  1  0.84013880  -0.00055660  0.68390968  1
  O2-  O465  1  0.84510692  0.48919871  0.01280482  1
  O2-  O466  1  0.82524950  0.51100149  0.33117875  1
  O2-  O467  1  0.83451869  0.49821410  0.66587987  1
  O2-  O468  1  0.74838139  0.25354153  0.41647134  1
  O2-  O469  1  0.26037197  0.24852219  0.25949031  1
  O2-  O470  1  0.07815820  0.75136336  0.39284932  1
  O2-  O471  1  0.41732199  0.75207827  0.06629014  1
  O2-  O472  1  0.92880210  0.74476946  0.26949291  1
  O2-  O473  1  0.58835646  0.25354302  0.93358778  1
  O2-  O474  1  0.75358667  0.75135183  0.40497750  1
  O2-  O475  1  0.92151080  0.75741398  0.59267692  1
  O2-  O476  1  0.08266042  0.25281269  0.72348596  1
  O2-  O477  1  0.90951227  0.24494808  0.60997462  1
  O2-  O478  1  0.07925652  0.75571242  0.07376969  1
  O2-  O479  1  0.58295782  0.75453991  0.26303571  1
  O2-  O480  1  0.08548448  0.25378539  0.07039889  1
  O2-  O481  1  0.06747288  0.74640849  0.72839553  1
  O2-  O482  1  0.41003095  0.75213506  0.39687863  1
  O2-  O483  1  0.74893449  0.25165282  0.72632441  1
  O2-  O484  1  0.24263722  0.25026391  0.94136944  1
  O2-  O485  1  0.59032462  0.25180651  0.59948942  1
  O2-  O486  1  0.24553395  0.25395981  0.59301428  1
  O2-  O487  1  0.24814466  0.75184786  0.27068797  1
  O2-  O488  1  0.92093015  0.75416500  0.93549293  1
  O2-  O489  1  0.41275113  0.25170284  0.05735757  1
  O2-  O490  1  0.40555916  0.25172553  0.40567533  1
  O2-  O491  1  0.74525501  0.24879129  0.05535642  1
  O2-  O492  1  0.58588748  0.75111410  0.58787150  1
