# generated using pymatgen
data_Ca108Mn108O277
_symmetry_space_group_name_H-M   'P 1'
_cell_length_a   16.03040636
_cell_length_b   22.30975336
_cell_length_c   16.39161152
_cell_angle_alpha   90.00331278
_cell_angle_beta   90.00114248
_cell_angle_gamma   89.99707674
_symmetry_Int_Tables_number   1
_chemical_formula_structural   Ca108Mn108O277
_chemical_formula_sum   'Ca108 Mn108 O277'
_cell_volume   5862.20433279
_cell_formula_units_Z   1
loop_
 _symmetry_equiv_pos_site_id
 _symmetry_equiv_pos_as_xyz
  1  'x, y, z'
loop_
 _atom_type_symbol
 _atom_type_oxidation_number
  Ca2+  2.0
  Mn3.34+  3.34
  O2-  -2.0
loop_
 _atom_site_type_symbol
 _atom_site_label
 _atom_site_symmetry_multiplicity
 _atom_site_fract_x
 _atom_site_fract_y
 _atom_site_fract_z
 _atom_site_occupancy
  Ca2+  Ca0  1  0.10580725  0.25238157  0.24044250  1
  Ca2+  Ca1  1  0.07904387  0.24116638  0.57645563  1
  Ca2+  Ca2  1  0.09610327  0.24161851  0.94001139  1
  Ca2+  Ca3  1  0.10060149  0.73792879  0.22775613  1
  Ca2+  Ca4  1  0.09251889  0.75829331  0.58970080  1
  Ca2+  Ca5  1  0.08780945  0.74836181  0.92647813  1
  Ca2+  Ca6  1  0.40098404  0.25431926  0.25412984  1
  Ca2+  Ca7  1  0.41403390  0.24721667  0.59106211  1
  Ca2+  Ca8  1  0.41347221  0.25251141  0.90534918  1
  Ca2+  Ca9  1  0.41313672  0.75817130  0.24943910  1
  Ca2+  Ca10  1  0.40441711  0.75818327  0.59146062  1
  Ca2+  Ca11  1  0.42092898  0.76126730  0.90660896  1
  Ca2+  Ca12  1  0.74928956  0.25968639  0.26497737  1
  Ca2+  Ca13  1  0.76173246  0.24713664  0.55771572  1
  Ca2+  Ca14  1  0.73872824  0.26588773  0.91976427  1
  Ca2+  Ca15  1  0.72496798  0.74164951  0.25868768  1
  Ca2+  Ca16  1  0.76249551  0.73679528  0.59811867  1
  Ca2+  Ca17  1  0.75474854  0.74544157  0.88627052  1
  Ca2+  Ca18  1  0.23822819  0.24721297  0.09194853  1
  Ca2+  Ca19  1  0.24302903  0.25078355  0.40331638  1
  Ca2+  Ca20  1  0.25813835  0.25568951  0.74858419  1
  Ca2+  Ca21  1  0.23047453  0.74392463  0.10238143  1
  Ca2+  Ca22  1  0.26191061  0.75321717  0.40330957  1
  Ca2+  Ca23  1  0.25539527  0.75549852  0.74835335  1
  Ca2+  Ca24  1  0.58980440  0.26182144  0.08336454  1
  Ca2+  Ca25  1  0.60063446  0.24788491  0.41390004  1
  Ca2+  Ca26  1  0.56863594  0.25550706  0.75165171  1
  Ca2+  Ca27  1  0.57600042  0.75309102  0.10258195  1
  Ca2+  Ca28  1  0.57526578  0.75025270  0.40276417  1
  Ca2+  Ca29  1  0.59023577  0.74920883  0.75222600  1
  Ca2+  Ca30  1  0.93056603  0.25725422  0.08195506  1
  Ca2+  Ca31  1  0.91419187  0.25550253  0.43727614  1
  Ca2+  Ca32  1  0.92118477  0.25468246  0.73321066  1
  Ca2+  Ca33  1  0.94503324  0.74296915  0.08596563  1
  Ca2+  Ca34  1  0.90984034  0.74595933  0.42026634  1
  Ca2+  Ca35  1  0.91566775  0.74434163  0.74535522  1
  Ca2+  Ca36  1  0.76242136  0.09920823  0.90515393  1
  Ca2+  Ca37  1  0.22387820  0.09081852  0.06485013  1
  Ca2+  Ca38  1  0.91714896  0.10885038  0.45625320  1
  Ca2+  Ca39  1  0.61736054  0.58757092  0.38475677  1
  Ca2+  Ca40  1  0.25402599  0.59466354  0.74663728  1
  Ca2+  Ca41  1  0.09136294  0.58687387  0.93766755  1
  Ca2+  Ca42  1  0.92192494  0.10413109  0.44987674  1
  Ca2+  Ca43  1  0.23344092  0.58085106  0.36318317  1
  Ca2+  Ca44  1  0.40847971  0.11537167  0.26241870  1
  Ca2+  Ca45  1  0.74972186  0.09937246  0.90606208  1
  Ca2+  Ca46  1  0.72325179  0.11336731  0.26111856  1
  Ca2+  Ca47  1  0.06005448  0.59883050  0.58358026  1
  Ca2+  Ca48  1  0.56633233  0.09639791  0.73628418  1
  Ca2+  Ca49  1  0.10857213  0.07522689  0.59252099  1
  Ca2+  Ca50  1  0.04920534  0.59836810  0.57947015  1
  Ca2+  Ca51  1  0.57781515  0.09607294  0.73409845  1
  Ca2+  Ca52  1  0.20684081  0.59021509  0.10034707  1
  Ca2+  Ca53  1  0.40394985  0.58033032  0.91186096  1
  Ca2+  Ca54  1  0.59067277  0.59454428  0.09910717  1
  Ca2+  Ca55  1  0.21724766  0.58974613  0.10106429  1
  Ca2+  Ca56  1  0.71285735  0.11384942  0.25946116  1
  Ca2+  Ca57  1  0.91666934  0.07901074  0.70304948  1
  Ca2+  Ca58  1  0.74921483  0.57909595  0.89376084  1
  Ca2+  Ca59  1  0.96485893  0.10555880  0.07236165  1
  Ca2+  Ca60  1  0.95413415  0.57169628  0.09558699  1
  Ca2+  Ca61  1  0.41681818  0.57938006  0.91109069  1
  Ca2+  Ca62  1  0.58759424  0.10739520  0.09528391  1
  Ca2+  Ca63  1  0.26001926  0.10452195  0.41983609  1
  Ca2+  Ca64  1  0.86777379  0.59905942  0.71841391  1
  Ca2+  Ca65  1  0.88145999  0.56590364  0.38627103  1
  Ca2+  Ca66  1  0.92154293  0.07234266  0.70420501  1
  Ca2+  Ca67  1  0.38748780  0.58723986  0.25026926  1
  Ca2+  Ca68  1  0.75243682  0.11144463  0.57153570  1
  Ca2+  Ca69  1  0.58460399  0.11606819  0.42242246  1
  Ca2+  Ca70  1  0.11703919  0.10972214  0.24024920  1
  Ca2+  Ca71  1  0.07665699  0.59498387  0.24157722  1
  Ca2+  Ca72  1  0.09830497  0.41745481  0.24083829  1
  Ca2+  Ca73  1  0.25313970  0.40433085  0.09247884  1
  Ca2+  Ca74  1  0.77239731  0.42431205  0.26900269  1
  Ca2+  Ca75  1  0.91289952  0.41610585  0.41288791  1
  Ca2+  Ca76  1  0.25073936  0.90884223  0.07344010  1
  Ca2+  Ca77  1  0.92669096  0.90268622  0.08931481  1
  Ca2+  Ca78  1  0.39148841  0.91399277  0.59097482  1
  Ca2+  Ca79  1  0.74910406  0.90516850  0.91249872  1
  Ca2+  Ca80  1  0.07858029  0.39779177  0.57680904  1
  Ca2+  Ca81  1  0.59896590  0.41535354  0.74776818  1
  Ca2+  Ca82  1  0.07923671  0.40963392  0.93869015  1
  Ca2+  Ca83  1  0.76170945  0.91653998  0.59248034  1
  Ca2+  Ca84  1  0.92151620  0.90822833  0.41237648  1
  Ca2+  Ca85  1  0.09018712  0.41058397  0.93798733  1
  Ca2+  Ca86  1  0.94862659  0.91724540  0.74070525  1
  Ca2+  Ca87  1  0.41846081  0.40304661  0.91887545  1
  Ca2+  Ca88  1  0.57157609  0.89987840  0.08595943  1
  Ca2+  Ca89  1  0.93396671  0.90617330  0.41475002  1
  Ca2+  Ca90  1  0.08776494  0.39416005  0.57342192  1
  Ca2+  Ca91  1  0.93824017  0.91707387  0.74242316  1
  Ca2+  Ca92  1  0.09568576  0.92231774  0.59412223  1
  Ca2+  Ca93  1  0.76189464  0.42445274  0.26830078  1
  Ca2+  Ca94  1  0.75628988  0.89227175  0.24857081  1
  Ca2+  Ca95  1  0.22863085  0.93462878  0.73339821  1
  Ca2+  Ca96  1  0.59006322  0.39674405  0.41925961  1
  Ca2+  Ca97  1  0.76193043  0.90479894  0.91130172  1
  Ca2+  Ca98  1  0.10833905  0.91786692  0.91432366  1
  Ca2+  Ca99  1  0.74895707  0.91461625  0.59294022  1
  Ca2+  Ca100  1  0.57091070  0.90182356  0.41972273  1
  Ca2+  Ca101  1  0.08419495  0.89722554  0.25020965  1
  Ca2+  Ca102  1  0.38414901  0.91975089  0.92117700  1
  Ca2+  Ca103  1  0.75003360  0.41129538  0.58481335  1
  Ca2+  Ca104  1  0.92171655  0.40863963  0.08422831  1
  Ca2+  Ca105  1  0.58933525  0.41164396  0.74591164  1
  Ca2+  Ca106  1  0.25180904  0.90668020  0.42246752  1
  Ca2+  Ca107  1  0.57236653  0.90494265  0.74648099  1
  Mn3.34+  Mn108  1  0.08481725  0.33304904  0.08938361  1
  Mn3.34+  Mn109  1  0.08395924  0.33366724  0.40721708  1
  Mn3.34+  Mn110  1  0.08339826  0.33157726  0.75765689  1
  Mn3.34+  Mn111  1  0.08609547  0.83339598  0.08164977  1
  Mn3.34+  Mn112  1  0.08830174  0.82898142  0.41940264  1
  Mn3.34+  Mn113  1  0.08938874  0.83150613  0.75394000  1
  Mn3.34+  Mn114  1  0.41799592  0.33384248  0.08595877  1
  Mn3.34+  Mn115  1  0.41685815  0.32909116  0.42099690  1
  Mn3.34+  Mn116  1  0.41195461  0.33811719  0.74672054  1
  Mn3.34+  Mn117  1  0.41216312  0.83650833  0.08212315  1
  Mn3.34+  Mn118  1  0.41512364  0.83702099  0.41698810  1
  Mn3.34+  Mn119  1  0.41325429  0.83778969  0.75147795  1
  Mn3.34+  Mn120  1  0.74935761  0.33593740  0.08667351  1
  Mn3.34+  Mn121  1  0.75094696  0.33549141  0.42098693  1
  Mn3.34+  Mn122  1  0.75487426  0.34077730  0.75523340  1
  Mn3.34+  Mn123  1  0.75369615  0.82709684  0.08489004  1
  Mn3.34+  Mn124  1  0.74617152  0.82334776  0.42317064  1
  Mn3.34+  Mn125  1  0.74971798  0.83188402  0.75101081  1
  Mn3.34+  Mn126  1  0.25723741  0.34022784  0.25332474  1
  Mn3.34+  Mn127  1  0.25461765  0.32746819  0.58040658  1
  Mn3.34+  Mn128  1  0.25282960  0.32928091  0.91669009  1
  Mn3.34+  Mn129  1  0.25415148  0.83281651  0.24850317  1
  Mn3.34+  Mn130  1  0.24730791  0.83434732  0.58272947  1
  Mn3.34+  Mn131  1  0.24847726  0.83863387  0.91019242  1
  Mn3.34+  Mn132  1  0.57736140  0.32850531  0.24760644  1
  Mn3.34+  Mn133  1  0.58026567  0.33281802  0.58085801  1
  Mn3.34+  Mn134  1  0.58320223  0.33576387  0.92053521  1
  Mn3.34+  Mn135  1  0.57870236  0.83166794  0.25079931  1
  Mn3.34+  Mn136  1  0.58097384  0.83297131  0.57906418  1
  Mn3.34+  Mn137  1  0.57923684  0.83388862  0.91740822  1
  Mn3.34+  Mn138  1  0.91976320  0.33784350  0.24958894  1
  Mn3.34+  Mn139  1  0.91348870  0.33408159  0.58763623  1
  Mn3.34+  Mn140  1  0.91267881  0.33253901  0.90850722  1
  Mn3.34+  Mn141  1  0.91711060  0.82447049  0.24714856  1
  Mn3.34+  Mn142  1  0.91904657  0.83149028  0.57996174  1
  Mn3.34+  Mn143  1  0.92444089  0.83523525  0.91609093  1
  Mn3.34+  Mn144  1  0.42117215  0.16215763  0.08118068  1
  Mn3.34+  Mn145  1  0.91697455  0.16762276  0.25096650  1
  Mn3.34+  Mn146  1  0.25165962  0.15808500  0.91443320  1
  Mn3.34+  Mn147  1  0.41156070  0.16744608  0.07973354  1
  Mn3.34+  Mn148  1  0.25072942  0.66769703  0.91143856  1
  Mn3.34+  Mn149  1  0.42279471  0.65913364  0.42645297  1
  Mn3.34+  Mn150  1  0.75105918  0.17608980  0.74978227  1
  Mn3.34+  Mn151  1  0.92404395  0.65691740  0.91279269  1
  Mn3.34+  Mn152  1  0.92660629  0.16197068  0.24901081  1
  Mn3.34+  Mn153  1  0.75001615  0.66410574  0.09092298  1
  Mn3.34+  Mn154  1  0.41740478  0.17133982  0.42391836  1
  Mn3.34+  Mn155  1  0.09253180  0.15877551  0.75654216  1
  Mn3.34+  Mn156  1  0.91023658  0.66194497  0.25006431  1
  Mn3.34+  Mn157  1  0.40579532  0.16555558  0.75193365  1
  Mn3.34+  Mn158  1  0.91784396  0.17055175  0.90995453  1
  Mn3.34+  Mn159  1  0.58139443  0.65396235  0.58251346  1
  Mn3.34+  Mn160  1  0.91409193  0.66217611  0.91467068  1
  Mn3.34+  Mn161  1  0.08793487  0.16784259  0.42045023  1
  Mn3.34+  Mn162  1  0.08058101  0.67731373  0.41298420  1
  Mn3.34+  Mn163  1  0.75147089  0.17180870  0.08232171  1
  Mn3.34+  Mn164  1  0.41329305  0.66461856  0.42369805  1
  Mn3.34+  Mn165  1  0.41142993  0.66882103  0.08357440  1
  Mn3.34+  Mn166  1  0.58138013  0.66227316  0.91156517  1
  Mn3.34+  Mn167  1  0.41485734  0.66848289  0.74579811  1
  Mn3.34+  Mn168  1  0.75955902  0.65901407  0.09491918  1
  Mn3.34+  Mn169  1  0.42136524  0.66346114  0.08522790  1
  Mn3.34+  Mn170  1  0.08780646  0.66773463  0.75396055  1
  Mn3.34+  Mn171  1  0.08354528  0.16473484  0.75497909  1
  Mn3.34+  Mn172  1  0.59141787  0.65674797  0.91035974  1
  Mn3.34+  Mn173  1  0.25174852  0.66601668  0.58215782  1
  Mn3.34+  Mn174  1  0.58060259  0.17354727  0.58164367  1
  Mn3.34+  Mn175  1  0.08061846  0.67152850  0.42197733  1
  Mn3.34+  Mn176  1  0.25453972  0.16149109  0.58373498  1
  Mn3.34+  Mn177  1  0.59291084  0.65133122  0.58390161  1
  Mn3.34+  Mn178  1  0.57974208  0.17096587  0.91373601  1
  Mn3.34+  Mn179  1  0.75411055  0.66399036  0.42319906  1
  Mn3.34+  Mn180  1  0.40591593  0.00020653  0.08563075  1
  Mn3.34+  Mn181  1  0.25202145  0.50263139  0.57772688  1
  Mn3.34+  Mn182  1  0.41675031  0.00488706  0.43106536  1
  Mn3.34+  Mn183  1  0.92347480  -0.00029073  0.25166620  1
  Mn3.34+  Mn184  1  0.40740870  0.49231090  0.42169150  1
  Mn3.34+  Mn185  1  0.93544002  0.00895689  0.91970256  1
  Mn3.34+  Mn186  1  0.73769645  -0.00365400  0.41603326  1
  Mn3.34+  Mn187  1  0.57026174  0.00518920  0.91917504  1
  Mn3.34+  Mn188  1  0.90525236  0.50030983  0.58835026  1
  Mn3.34+  Mn189  1  0.26532236  -0.00638040  0.25340099  1
  Mn3.34+  Mn190  1  0.26352741  0.49539093  0.58105130  1
  Mn3.34+  Mn191  1  0.58802977  0.49759635  0.59035512  1
  Mn3.34+  Mn192  1  0.07267274  0.50416680  0.75416299  1
  Mn3.34+  Mn193  1  0.41764675  0.49956808  0.73681550  1
  Mn3.34+  Mn194  1  0.74928897  -0.00054789  0.08565799  1
  Mn3.34+  Mn195  1  0.56888078  0.49414095  0.24212121  1
  Mn3.34+  Mn196  1  0.25017991  0.49678866  0.91735243  1
  Mn3.34+  Mn197  1  0.08109494  0.50103302  0.40035086  1
  Mn3.34+  Mn198  1  0.76362568  0.00577506  0.08378408  1
  Mn3.34+  Mn199  1  0.59295635  0.49402520  0.93179469  1
  Mn3.34+  Mn200  1  0.55652274  0.00626820  0.92017327  1
  Mn3.34+  Mn201  1  0.55494410  -0.00525416  0.25281557  1
  Mn3.34+  Mn202  1  0.91311268  0.49592816  0.91827875  1
  Mn3.34+  Mn203  1  0.58257724  0.50069789  0.24166686  1
  Mn3.34+  Mn204  1  0.57804507  0.00180407  0.58186280  1
  Mn3.34+  Mn205  1  0.56807778  -0.00247152  0.25079027  1
  Mn3.34+  Mn206  1  0.41915132  0.49600467  0.08201569  1
  Mn3.34+  Mn207  1  0.73977170  -0.00089616  0.74928685  1
  Mn3.34+  Mn208  1  0.08588256  0.49754613  0.75277088  1
  Mn3.34+  Mn209  1  0.08832542  0.00070028  0.41928999  1
  Mn3.34+  Mn210  1  0.41862651  0.49750780  0.42392403  1
  Mn3.34+  Mn211  1  0.08154383  -0.00477839  0.07647329  1
  Mn3.34+  Mn212  1  0.40957593  0.00289490  0.74128677  1
  Mn3.34+  Mn213  1  0.75009648  0.50010205  0.07626460  1
  Mn3.34+  Mn214  1  0.75273324  0.00213557  0.41613628  1
  Mn3.34+  Mn215  1  0.25319060  0.00078885  0.25185768  1
  O2-  O216  1  -0.01111063  0.18402244  -0.00647678  1
  O2-  O217  1  0.00048373  0.14114153  0.33689044  1
  O2-  O218  1  0.00620453  0.15295795  0.66909122  1
  O2-  O219  1  -0.00581643  0.64578102  0.00094002  1
  O2-  O220  1  -0.00851318  0.67716414  0.33849995  1
  O2-  O221  1  0.00173756  0.64925730  0.68263349  1
  O2-  O222  1  0.33509808  0.14759513  0.00183580  1
  O2-  O223  1  0.33644639  0.17488975  0.34630498  1
  O2-  O224  1  0.33098025  0.16717452  0.66792984  1
  O2-  O225  1  0.34082578  0.64982081  -0.00438881  1
  O2-  O226  1  0.33272438  0.65252991  0.34260094  1
  O2-  O227  1  0.32734493  0.65733244  0.67025143  1
  O2-  O228  1  0.66991926  0.14989084  -0.00392777  1
  O2-  O229  1  0.65744849  0.17633390  0.32986999  1
  O2-  O230  1  0.66459331  0.15864220  0.66994412  1
  O2-  O231  1  0.66982162  0.65539657  0.00451524  1
  O2-  O232  1  0.67110212  0.68245040  0.35396673  1
  O2-  O233  1  0.65611086  0.68659652  0.66283005  1
  O2-  O234  1  0.17378095  0.16567996  -0.00527444  1
  O2-  O235  1  0.16889108  0.15827812  0.34355512  1
  O2-  O236  1  0.16600228  0.14849419  0.66885458  1
  O2-  O237  1  0.17400776  0.66088208  -0.00576101  1
  O2-  O238  1  0.15696389  0.66538223  0.33068260  1
  O2-  O239  1  0.15958313  0.64358204  0.65998132  1
  O2-  O240  1  0.50148807  0.14631606  -0.00074225  1
  O2-  O241  1  0.49316554  0.17517753  0.34267069  1
  O2-  O242  1  0.49715305  0.16001152  0.66726737  1
  O2-  O243  1  0.50331535  0.64128134  -0.00064585  1
  O2-  O244  1  0.50217933  0.64591774  0.34895117  1
  O2-  O245  1  0.50162619  0.66568653  0.66253150  1
  O2-  O246  1  0.83716722  0.14635837  0.00020939  1
  O2-  O247  1  0.83691835  0.14205690  0.32654506  1
  O2-  O248  1  0.83719829  0.15903859  0.68026081  1
  O2-  O249  1  0.83099989  0.65684427  0.00199568  1
  O2-  O250  1  0.82882942  0.67752431  0.33503444  1
  O2-  O251  1  0.85764148  0.68537207  0.65727823  1
  O2-  O252  1  0.00318701  0.33358378  -0.00202350  1
  O2-  O253  1  0.00069739  0.35827396  0.33023711  1
  O2-  O254  1  0.00083159  0.34594295  0.66710587  1
  O2-  O255  1  0.00852733  0.85383374  -0.00573938  1
  O2-  O256  1  -0.00019787  0.83343359  0.33675068  1
  O2-  O257  1  0.00551798  0.84642404  0.65881469  1
  O2-  O258  1  0.33280004  0.34781447  -0.00101255  1
  O2-  O259  1  0.33688506  0.32579805  0.33689266  1
  O2-  O260  1  0.33419880  0.33470850  0.66274032  1
  O2-  O261  1  0.33088836  0.84081056  -0.00600236  1
  O2-  O262  1  0.32940400  0.84796835  0.33716032  1
  O2-  O263  1  0.32711302  0.84721185  0.67054272  1
  O2-  O264  1  0.66738022  0.34181176  0.00122826  1
  O2-  O265  1  0.67019493  0.33896957  0.33131512  1
  O2-  O266  1  0.66686612  0.34683360  0.66785137  1
  O2-  O267  1  0.66897741  0.84710590  0.00171427  1
  O2-  O268  1  0.66714937  0.83778111  0.33582512  1
  O2-  O269  1  0.66711006  0.84429547  0.66458469  1
  O2-  O270  1  0.16797840  0.34174006  0.00488830  1
  O2-  O271  1  0.16338181  0.34197674  0.32774913  1
  O2-  O272  1  0.16280383  0.34988950  0.66890987  1
  O2-  O273  1  0.17008125  0.84405153  -0.00074873  1
  O2-  O274  1  0.16809675  0.84467401  0.33560592  1
  O2-  O275  1  0.16672874  0.84713934  0.66833045  1
  O2-  O276  1  0.49880874  0.34498006  -0.00145228  1
  O2-  O277  1  0.50602387  0.31138460  0.33847589  1
  O2-  O278  1  0.50739922  0.34933205  0.67379876  1
  O2-  O279  1  0.49272112  0.85463984  -0.00831498  1
  O2-  O280  1  0.49900136  0.84799235  0.33279109  1
  O2-  O281  1  0.49534755  0.84549663  0.66001099  1
  O2-  O282  1  0.84200285  0.33319025  0.00251787  1
  O2-  O283  1  0.83366418  0.34782094  0.33343007  1
  O2-  O284  1  0.82578012  0.33401977  0.66441319  1
  O2-  O285  1  0.83716966  0.84827149  0.00020829  1
  O2-  O286  1  0.83690169  0.83139835  0.34174036  1
  O2-  O287  1  0.83952765  0.85147843  0.67195297  1
  O2-  O288  1  0.00536523  0.17773590  0.17257940  1
  O2-  O289  1  0.00147295  0.17940245  0.49468758  1
  O2-  O290  1  -0.00186386  0.18808857  0.82777856  1
  O2-  O291  1  -0.00843526  0.67825615  0.17899391  1
  O2-  O292  1  0.00720822  0.68499793  0.50899821  1
  O2-  O293  1  0.00972450  0.68418583  0.83892436  1
  O2-  O294  1  0.33920211  0.17959269  0.16462925  1
  O2-  O295  1  0.33113715  0.18331053  0.50277554  1
  O2-  O296  1  0.33379662  0.18147051  0.83452933  1
  O2-  O297  1  0.32808896  0.67555326  0.16055104  1
  O2-  O298  1  0.33602611  0.68785875  0.50123053  1
  O2-  O299  1  0.33891459  0.68312031  0.84008698  1
  O2-  O300  1  0.67142660  0.18024700  0.16298344  1
  O2-  O301  1  0.66332466  0.17952397  0.50850439  1
  O2-  O302  1  0.66754307  0.18259665  0.83280124  1
  O2-  O303  1  0.66334759  0.68472974  0.15951902  1
  O2-  O304  1  0.66836181  0.67938041  0.50605306  1
  O2-  O305  1  0.67439156  0.67168604  0.83516553  1
  O2-  O306  1  0.17071075  0.17634571  0.16023333  1
  O2-  O307  1  0.16750854  0.18058435  0.49949336  1
  O2-  O308  1  0.16969075  0.18038131  0.83365195  1
  O2-  O309  1  0.16182751  0.66627552  0.16301746  1
  O2-  O310  1  0.16541217  0.68451690  0.49980041  1
  O2-  O311  1  0.17487258  0.68756809  0.82844836  1
  O2-  O312  1  0.49929254  0.18007616  0.16037332  1
  O2-  O313  1  0.50391088  0.18831931  0.50001865  1
  O2-  O314  1  0.50705051  0.17568364  0.82419074  1
  O2-  O315  1  0.49613599  0.68009902  0.16570932  1
  O2-  O316  1  0.50362986  0.68848922  0.50462078  1
  O2-  O317  1  0.49424021  0.68010258  0.83496784  1
  O2-  O318  1  0.83352508  0.18187813  0.16923094  1
  O2-  O319  1  0.83897886  0.17202712  0.49882361  1
  O2-  O320  1  0.82114093  0.18876054  0.84491028  1
  O2-  O321  1  0.83257808  0.69271504  0.17142731  1
  O2-  O322  1  0.82678420  0.69107284  0.49134969  1
  O2-  O323  1  0.83892907  0.67329345  0.83194994  1
  O2-  O324  1  -0.00128634  0.32554319  0.16792601  1
  O2-  O325  1  0.00061750  0.33046166  0.50119691  1
  O2-  O326  1  -0.00149941  0.30942971  0.83648326  1
  O2-  O327  1  0.00242183  0.81825436  0.16560005  1
  O2-  O328  1  -0.00278109  0.80954950  0.49529816  1
  O2-  O329  1  -0.00819616  0.82481436  0.82081562  1
  O2-  O330  1  0.32982955  0.32064486  0.15972743  1
  O2-  O331  1  0.33206901  0.30734905  0.49817081  1
  O2-  O332  1  0.33526252  0.32660958  0.83621093  1
  O2-  O333  1  0.32887555  0.81652809  0.15764866  1
  O2-  O334  1  0.33229977  0.82242878  0.50245187  1
  O2-  O335  1  0.33141788  0.81720588  0.83594650  1
  O2-  O336  1  0.66819089  0.31473958  0.17396720  1
  O2-  O337  1  0.66743009  0.32074134  0.50149265  1
  O2-  O338  1  0.66208495  0.31883701  0.82422970  1
  O2-  O339  1  0.66848724  0.81702201  0.16661835  1
  O2-  O340  1  0.66414101  0.80628538  0.50247987  1
  O2-  O341  1  0.66850677  0.82059760  0.83885052  1
  O2-  O342  1  0.16678740  0.33272832  0.16714635  1
  O2-  O343  1  0.15607510  0.32220387  0.50398895  1
  O2-  O344  1  0.15730183  0.32057723  0.84783953  1
  O2-  O345  1  0.16347639  0.82263854  0.16875083  1
  O2-  O346  1  0.17077516  0.81167192  0.49566135  1
  O2-  O347  1  0.16171041  0.81268359  0.84137419  1
  O2-  O348  1  0.49624233  0.30925632  0.16812456  1
  O2-  O349  1  0.50418419  0.31179255  0.49928349  1
  O2-  O350  1  0.50021809  0.32420392  0.83511263  1
  O2-  O351  1  0.50014210  0.82558765  0.16022033  1
  O2-  O352  1  0.50122081  0.81756751  0.49688119  1
  O2-  O353  1  0.50572690  0.82388495  0.82579897  1
  O2-  O354  1  0.83364489  0.31799008  0.17145070  1
  O2-  O355  1  0.83475584  0.33330335  0.50174996  1
  O2-  O356  1  0.83191349  0.30843594  0.82764475  1
  O2-  O357  1  0.83397938  0.80883427  0.16680518  1
  O2-  O358  1  0.83036011  0.81224453  0.50699556  1
  O2-  O359  1  0.82876893  0.82720743  0.84149539  1
  O2-  O360  1  0.09043218  0.06845345  0.11746380  1
  O2-  O361  1  0.07144138  0.08230343  0.45357311  1
  O2-  O362  1  0.06095844  0.08177500  0.77879699  1
  O2-  O363  1  0.08549753  0.56329737  0.11525526  1
  O2-  O364  1  0.08975710  0.57992252  0.44700159  1
  O2-  O365  1  0.09973373  0.58197697  0.79534836  1
  O2-  O366  1  0.42802943  0.07936150  0.12445463  1
  O2-  O367  1  0.42174358  0.08721212  0.43007030  1
  O2-  O368  1  0.43495110  0.07947019  0.77711192  1
  O2-  O369  1  0.43318383  0.57839038  0.11693493  1
  O2-  O370  1  0.41791832  0.57727446  0.46859879  1
  O2-  O371  1  0.40965786  0.58108644  0.77719545  1
  O2-  O372  1  0.74159035  0.08432845  0.12315561  1
  O2-  O373  1  0.73944514  0.08305831  0.43143723  1
  O2-  O374  1  0.74061676  0.08187314  0.77280750  1
  O2-  O375  1  0.74216659  0.57724115  0.13256817  1
  O2-  O376  1  0.75044384  0.58755164  0.43263142  1
  O2-  O377  1  0.75209917  0.56313807  0.76925106  1
  O2-  O378  1  0.26185673  0.07627369  0.21066056  1
  O2-  O379  1  0.24429310  0.08405973  0.55076267  1
  O2-  O380  1  0.24467813  0.08072747  0.91406693  1
  O2-  O381  1  0.26177481  0.56596818  0.21350083  1
  O2-  O382  1  0.24589344  0.57888877  0.53474609  1
  O2-  O383  1  0.26565407  0.57672418  0.88051369  1
  O2-  O384  1  0.58634884  0.07841077  0.22428361  1
  O2-  O385  1  0.58319293  0.08660294  0.56624303  1
  O2-  O386  1  0.60388620  0.08016990  0.87179781  1
  O2-  O387  1  0.57424253  0.58049239  0.23066346  1
  O2-  O388  1  0.58491797  0.57261055  0.53196343  1
  O2-  O389  1  0.57034485  0.57642041  0.87637932  1
  O2-  O390  1  0.91488373  0.08048670  0.20485717  1
  O2-  O391  1  0.89488851  0.06728208  0.57096623  1
  O2-  O392  1  0.89367546  0.08082531  0.86110174  1
  O2-  O393  1  0.92514755  0.58258424  0.23801152  1
  O2-  O394  1  0.92915626  0.56626540  0.52940358  1
  O2-  O395  1  0.90346647  0.57598036  0.87393392  1
  O2-  O396  1  0.07427463  0.41804489  0.08656327  1
  O2-  O397  1  0.08391116  0.42556497  0.44348514  1
  O2-  O398  1  0.07667936  0.42013561  0.79463144  1
  O2-  O399  1  0.07891639  0.91878874  0.11678585  1
  O2-  O400  1  0.06692560  0.91669163  0.45530153  1
  O2-  O401  1  0.08196022  0.91503141  0.77901047  1
  O2-  O402  1  0.40420535  0.41691909  0.10202467  1
  O2-  O403  1  0.44207327  0.41297110  0.43812989  1
  O2-  O404  1  0.42785570  0.42321911  0.78118151  1
  O2-  O405  1  0.41477449  0.92067409  0.11290852  1
  O2-  O406  1  0.41791409  0.92284412  0.45741158  1
  O2-  O407  1  0.42233889  0.92479640  0.78692206  1
  O2-  O408  1  0.75769567  0.42224967  0.12297338  1
  O2-  O409  1  0.73747113  0.41735488  0.43743165  1
  O2-  O410  1  0.73820442  0.41626459  0.77741171  1
  O2-  O411  1  0.76492184  0.91911878  0.11392501  1
  O2-  O412  1  0.74818767  0.91585090  0.45053717  1
  O2-  O413  1  0.73160840  0.91744895  0.77867967  1
  O2-  O414  1  0.24275725  0.41911039  0.22693529  1
  O2-  O415  1  0.23619552  0.41665668  0.55528627  1
  O2-  O416  1  0.23316949  0.41693878  0.90231013  1
  O2-  O417  1  0.24341440  0.91792949  0.21193155  1
  O2-  O418  1  0.24199208  0.91445960  0.55611645  1
  O2-  O419  1  0.24723746  0.91809599  0.87783950  1
  O2-  O420  1  0.58594175  0.41497068  0.23392004  1
  O2-  O421  1  0.58623204  0.41881221  0.55189210  1
  O2-  O422  1  0.57685576  0.41839880  0.88345929  1
  O2-  O423  1  0.60486832  0.91835524  0.21840078  1
  O2-  O424  1  0.60653157  0.92065212  0.54881215  1
  O2-  O425  1  0.60706039  0.92777531  0.88567530  1
  O2-  O426  1  0.90475358  0.41799432  0.22032017  1
  O2-  O427  1  0.92836251  0.42398642  0.55758372  1
  O2-  O428  1  0.94016707  0.41756509  0.90054348  1
  O2-  O429  1  0.91547157  0.91438326  0.22617814  1
  O2-  O430  1  0.89238991  0.92115958  0.54273389  1
  O2-  O431  1  0.89727657  0.92913702  0.87217935  1
  O2-  O432  1  -0.02593768  -0.00094094  0.03562470  1
  O2-  O433  1  -0.01794693  -0.00866931  0.35904957  1
  O2-  O434  1  -0.00278725  -0.00427843  0.67939127  1
  O2-  O435  1  0.01126791  0.50617965  -0.03434621  1
  O2-  O436  1  -0.01279798  0.50114406  0.35605281  1
  O2-  O437  1  0.00084859  0.51089342  0.65669013  1
  O2-  O438  1  0.32303828  -0.01078944  0.01620346  1
  O2-  O439  1  0.32689735  0.00331381  0.35228396  1
  O2-  O440  1  0.33283305  -0.01396098  0.66885063  1
  O2-  O441  1  0.32722448  0.51605427  0.00487049  1
  O2-  O442  1  0.33181798  0.51650921  0.34394923  1
  O2-  O443  1  0.31907072  0.51026868  0.67997007  1
  O2-  O444  1  0.66409958  0.01137788  -0.00068590  1
  O2-  O445  1  0.66993869  0.00810468  0.31857626  1
  O2-  O446  1  0.68896757  -0.00228393  0.64032887  1
  O2-  O447  1  0.67120445  0.53208695  0.00125807  1
  O2-  O448  1  0.66972087  0.49970740  0.31595741  1
  O2-  O449  1  0.66934918  0.47865627  0.65761611  1
  O2-  O450  1  0.16165323  -0.01373153  0.00733825  1
  O2-  O451  1  0.15871037  -0.00940008  0.32226549  1
  O2-  O452  1  0.15543634  -0.00354081  0.65401378  1
  O2-  O453  1  0.16422501  0.50598083  -0.01794872  1
  O2-  O454  1  0.14174323  0.51165250  0.31141392  1
  O2-  O455  1  0.15749684  0.50865154  0.65533033  1
  O2-  O456  1  0.50589183  -0.00434125  0.02087558  1
  O2-  O457  1  0.51171666  -0.00718097  0.35857123  1
  O2-  O458  1  0.52228274  -0.00142686  0.69338394  1
  O2-  O459  1  0.48318928  0.50651813  -0.02046572  1
  O2-  O460  1  0.50109003  0.50638008  0.33675271  1
  O2-  O461  1  0.51910226  0.49452686  0.68486119  1
  O2-  O462  1  0.81600689  0.00023856  -0.02421253  1
  O2-  O463  1  0.82664498  -0.01937517  0.33033474  1
  O2-  O464  1  0.84433058  -0.01715489  0.69589926  1
  O2-  O465  1  0.85436305  0.50672203  0.02193313  1
  O2-  O466  1  0.83379739  0.48243265  0.34559053  1
  O2-  O467  1  0.82864672  0.50434472  0.65717619  1
  O2-  O468  1  0.92076328  0.74580553  0.94235378  1
  O2-  O469  1  0.09147206  0.24479447  0.72232126  1
  O2-  O470  1  0.07344540  0.25036061  0.38857987  1
  O2-  O471  1  0.24744005  0.75032447  0.61169331  1
  O2-  O472  1  0.75785890  0.75455489  0.74074786  1
  O2-  O473  1  0.58209827  0.74334023  0.94360775  1
  O2-  O474  1  0.58538781  0.25324684  0.61470881  1
  O2-  O475  1  0.08494504  0.75463061  0.06255997  1
  O2-  O476  1  0.42971935  0.74943516  0.04744108  1
  O2-  O477  1  0.41890511  0.25193106  0.73562405  1
  O2-  O478  1  0.56932364  0.75408658  0.26488139  1
  O2-  O479  1  0.08298844  0.74907027  0.72319339  1
  O2-  O480  1  0.24530451  0.25603325  0.25566758  1
  O2-  O481  1  0.76262439  0.25578218  0.40617555  1
  O2-  O482  1  0.41657516  0.74861770  0.38858702  1
  O2-  O483  1  0.08835263  0.25308900  0.08175689  1
  O2-  O484  1  0.41552762  0.24878601  0.04852187  1
  O2-  O485  1  0.58072635  0.25153737  0.94206136  1
  O2-  O486  1  0.91913157  0.25564267  0.59343999  1
  O2-  O487  1  0.25926004  0.24976848  0.93787824  1
  O2-  O488  1  0.41527023  0.75257453  0.72885186  1
  O2-  O489  1  0.91768024  0.24957411  0.28319412  1
  O2-  O490  1  0.23395274  0.24916031  0.60915780  1
  O2-  O491  1  0.25472147  0.75514250  0.26576033  1
  O2-  O492  1  0.74923644  0.24981243  0.05617320  1
