# generated using pymatgen
data_Ca108Mn108O277
_symmetry_space_group_name_H-M   'P 1'
_cell_length_a   16.03303171
_cell_length_b   22.31447266
_cell_length_c   16.39390277
_cell_angle_alpha   90.00499966
_cell_angle_beta   89.99677077
_cell_angle_gamma   90.00117811
_symmetry_Int_Tables_number   1
_chemical_formula_structural   Ca108Mn108O277
_chemical_formula_sum   'Ca108 Mn108 O277'
_cell_volume   5865.22439342
_cell_formula_units_Z   1
loop_
 _symmetry_equiv_pos_site_id
 _symmetry_equiv_pos_as_xyz
  1  'x, y, z'
loop_
 _atom_type_symbol
 _atom_type_oxidation_number
  Ca2+  2.0
  Mn3.34+  3.34
  O2-  -2.0
loop_
 _atom_site_type_symbol
 _atom_site_label
 _atom_site_symmetry_multiplicity
 _atom_site_fract_x
 _atom_site_fract_y
 _atom_site_fract_z
 _atom_site_occupancy
  Ca2+  Ca0  1  0.07292510  0.24772801  0.25290374  1
  Ca2+  Ca1  1  0.09454910  0.25968826  0.58784571  1
  Ca2+  Ca2  1  0.07078331  0.26772274  0.91367795  1
  Ca2+  Ca3  1  0.09880264  0.74214521  0.26609593  1
  Ca2+  Ca4  1  0.05717421  0.74096701  0.58301805  1
  Ca2+  Ca5  1  0.05789945  0.74729909  0.90561409  1
  Ca2+  Ca6  1  0.45046908  0.23165555  0.25420731  1
  Ca2+  Ca7  1  0.41208088  0.24269515  0.59222638  1
  Ca2+  Ca8  1  0.42534395  0.24698765  0.91016404  1
  Ca2+  Ca9  1  0.39532653  0.75010076  0.25867460  1
  Ca2+  Ca10  1  0.42482101  0.75197101  0.57873914  1
  Ca2+  Ca11  1  0.42893451  0.75450389  0.91551155  1
  Ca2+  Ca12  1  0.73405330  0.24496063  0.27138866  1
  Ca2+  Ca13  1  0.73384766  0.24568378  0.55830394  1
  Ca2+  Ca14  1  0.75524319  0.25897487  0.91234692  1
  Ca2+  Ca15  1  0.75807342  0.74915815  0.23707651  1
  Ca2+  Ca16  1  0.77238978  0.75087384  0.59491812  1
  Ca2+  Ca17  1  0.75881759  0.75790253  0.90830595  1
  Ca2+  Ca18  1  0.26916780  0.25769693  0.07968387  1
  Ca2+  Ca19  1  0.25968238  0.26215064  0.42335225  1
  Ca2+  Ca20  1  0.26920711  0.26006162  0.74578746  1
  Ca2+  Ca21  1  0.25111440  0.74927810  0.10556129  1
  Ca2+  Ca22  1  0.23626607  0.72842329  0.40381567  1
  Ca2+  Ca23  1  0.23543635  0.75111716  0.75243247  1
  Ca2+  Ca24  1  0.56673771  0.25140483  0.08059969  1
  Ca2+  Ca25  1  0.59133437  0.25133499  0.41338715  1
  Ca2+  Ca26  1  0.55768079  0.24054907  0.75367716  1
  Ca2+  Ca27  1  0.59519663  0.75707378  0.06810763  1
  Ca2+  Ca28  1  0.56771995  0.75035984  0.42832985  1
  Ca2+  Ca29  1  0.59128808  0.74559853  0.75417190  1
  Ca2+  Ca30  1  0.92179878  0.26184992  0.06911796  1
  Ca2+  Ca31  1  0.89337144  0.24576213  0.40897960  1
  Ca2+  Ca32  1  0.91685444  0.25482065  0.78119615  1
  Ca2+  Ca33  1  0.90209141  0.74401572  0.06388112  1
  Ca2+  Ca34  1  0.94096599  0.74365732  0.43187052  1
  Ca2+  Ca35  1  0.91498337  0.73917280  0.75220119  1
  Ca2+  Ca36  1  0.76977593  0.59612320  0.90920512  1
  Ca2+  Ca37  1  0.37783728  0.60023671  0.25122896  1
  Ca2+  Ca38  1  0.24477478  0.09810962  0.42381360  1
  Ca2+  Ca39  1  0.59371104  0.11546916  0.41919255  1
  Ca2+  Ca40  1  0.91166578  0.09248986  0.06367801  1
  Ca2+  Ca41  1  0.06378990  0.59781024  0.58216514  1
  Ca2+  Ca42  1  0.76973324  0.58408089  0.25087183  1
  Ca2+  Ca43  1  0.76254023  0.59826886  0.91600566  1
  Ca2+  Ca44  1  0.93883001  0.60762483  0.42529816  1
  Ca2+  Ca45  1  0.74872494  0.08848084  0.91602040  1
  Ca2+  Ca46  1  0.22201297  0.56498681  0.73411499  1
  Ca2+  Ca47  1  0.74186556  0.11132676  0.26124342  1
  Ca2+  Ca48  1  0.47918973  0.08970747  0.61768772  1
  Ca2+  Ca49  1  0.42660053  0.58828074  0.58089521  1
  Ca2+  Ca50  1  0.91292689  0.08525573  0.76925042  1
  Ca2+  Ca51  1  0.59645199  0.11814637  0.42810456  1
  Ca2+  Ca52  1  0.44959426  0.58611601  0.91639018  1
  Ca2+  Ca53  1  0.29919278  0.08738270  0.73978190  1
  Ca2+  Ca54  1  0.07807274  0.09197226  0.55940432  1
  Ca2+  Ca55  1  0.26184628  0.59455798  0.08069475  1
  Ca2+  Ca56  1  0.05146584  0.07919826  0.91641387  1
  Ca2+  Ca57  1  0.91948397  0.59598007  0.73828330  1
  Ca2+  Ca58  1  0.91025870  0.08629066  0.75949391  1
  Ca2+  Ca59  1  0.10268942  0.59765110  0.27482447  1
  Ca2+  Ca60  1  0.90047089  0.09163301  0.06178195  1
  Ca2+  Ca61  1  0.07018702  0.08205088  0.28931100  1
  Ca2+  Ca62  1  0.55554078  0.08883969  0.08513989  1
  Ca2+  Ca63  1  0.38913331  0.59847675  0.25287170  1
  Ca2+  Ca64  1  0.76760891  0.59779852  0.58986009  1
  Ca2+  Ca65  1  0.22939277  0.56132786  0.72874284  1
  Ca2+  Ca66  1  0.43802924  0.58902852  0.91817649  1
  Ca2+  Ca67  1  0.70623558  0.10280876  0.57994379  1
  Ca2+  Ca68  1  0.08159452  0.08190267  0.28787109  1
  Ca2+  Ca69  1  0.88519200  0.11371743  0.41225714  1
  Ca2+  Ca70  1  0.01826545  0.58707050  0.89569047  1
  Ca2+  Ca71  1  0.90509754  0.58629234  0.07410672  1
  Ca2+  Ca72  1  0.58940786  0.89477155  0.41919077  1
  Ca2+  Ca73  1  0.90937179  0.40228444  0.40736768  1
  Ca2+  Ca74  1  0.91078318  0.91111038  0.06735872  1
  Ca2+  Ca75  1  0.94255149  0.41461787  0.76267327  1
  Ca2+  Ca76  1  0.08335017  0.90270701  0.91469637  1
  Ca2+  Ca77  1  0.07864969  0.90747089  0.26034762  1
  Ca2+  Ca78  1  0.42062050  0.40137648  0.24728766  1
  Ca2+  Ca79  1  0.39063842  0.41755382  0.59070751  1
  Ca2+  Ca80  1  0.43630575  0.90602670  0.24004261  1
  Ca2+  Ca81  1  0.58777420  0.40904343  0.41496027  1
  Ca2+  Ca82  1  0.23064863  0.91116444  0.41879770  1
  Ca2+  Ca83  1  0.74737299  0.40074037  0.58114490  1
  Ca2+  Ca84  1  0.43358711  0.40640669  0.91524159  1
  Ca2+  Ca85  1  0.92638817  0.89912276  0.42486345  1
  Ca2+  Ca86  1  0.25508200  0.91755235  0.75005979  1
  Ca2+  Ca87  1  0.42722556  0.92348825  0.94227798  1
  Ca2+  Ca88  1  0.74444762  0.41179861  0.93030433  1
  Ca2+  Ca89  1  0.90423222  0.90714907  0.75725965  1
  Ca2+  Ca90  1  0.91469331  0.90805011  0.75760081  1
  Ca2+  Ca91  1  0.42366541  0.91515781  0.59206902  1
  Ca2+  Ca92  1  0.09109985  0.90830376  0.25941785  1
  Ca2+  Ca93  1  0.57544387  0.41049533  0.41649245  1
  Ca2+  Ca94  1  0.11974774  0.43340531  0.62389606  1
  Ca2+  Ca95  1  0.26745010  0.91616566  0.75097098  1
  Ca2+  Ca96  1  0.74107167  0.88772427  0.25596274  1
  Ca2+  Ca97  1  0.27203571  0.90198317  0.08044307  1
  Ca2+  Ca98  1  0.25951794  0.41419602  0.07151932  1
  Ca2+  Ca99  1  0.93283075  0.41324466  0.75847383  1
  Ca2+  Ca100  1  0.08810456  0.39652134  0.25587010  1
  Ca2+  Ca101  1  0.58137340  0.91994002  0.74409439  1
  Ca2+  Ca102  1  0.24062278  0.90735267  0.41664231  1
  Ca2+  Ca103  1  0.26898381  0.41134741  0.07556144  1
  Ca2+  Ca104  1  0.07533712  0.39568869  0.25534697  1
  Ca2+  Ca105  1  0.43289439  0.91776685  0.58855275  1
  Ca2+  Ca106  1  0.58020117  0.39632746  0.75898231  1
  Ca2+  Ca107  1  0.57066465  0.91979154  0.74322959  1
  Mn3.34+  Mn108  1  0.08218320  0.33415209  0.08079585  1
  Mn3.34+  Mn109  1  0.07992440  0.32556250  0.42536331  1
  Mn3.34+  Mn110  1  0.09359748  0.33827211  0.75202311  1
  Mn3.34+  Mn111  1  0.08437034  0.83243908  0.08302284  1
  Mn3.34+  Mn112  1  0.08307910  0.83053737  0.42382773  1
  Mn3.34+  Mn113  1  0.08457455  0.83335782  0.74817073  1
  Mn3.34+  Mn114  1  0.42428690  0.33221963  0.08317281  1
  Mn3.34+  Mn115  1  0.41484357  0.33459517  0.42120568  1
  Mn3.34+  Mn116  1  0.41454657  0.33485264  0.75003659  1
  Mn3.34+  Mn117  1  0.42399471  0.83348749  0.08522467  1
  Mn3.34+  Mn118  1  0.41572596  0.83301688  0.41592087  1
  Mn3.34+  Mn119  1  0.41491941  0.83389171  0.75912584  1
  Mn3.34+  Mn120  1  0.74617267  0.33951863  0.09185007  1
  Mn3.34+  Mn121  1  0.74980641  0.33340651  0.41564923  1
  Mn3.34+  Mn122  1  0.74943640  0.33258449  0.75027504  1
  Mn3.34+  Mn123  1  0.74891674  0.83159918  0.07915104  1
  Mn3.34+  Mn124  1  0.75419241  0.82108334  0.41925074  1
  Mn3.34+  Mn125  1  0.74625037  0.83737510  0.74894439  1
  Mn3.34+  Mn126  1  0.25469504  0.33444457  0.25497649  1
  Mn3.34+  Mn127  1  0.25034007  0.33849704  0.58135168  1
  Mn3.34+  Mn128  1  0.25135273  0.33554522  0.91190109  1
  Mn3.34+  Mn129  1  0.25374949  0.83427228  0.24605817  1
  Mn3.34+  Mn130  1  0.24742296  0.83446382  0.58350976  1
  Mn3.34+  Mn131  1  0.25040294  0.83154815  0.91831440  1
  Mn3.34+  Mn132  1  0.58765756  0.33140225  0.24301945  1
  Mn3.34+  Mn133  1  0.57752175  0.33499321  0.58339975  1
  Mn3.34+  Mn134  1  0.58767270  0.33306579  0.91819666  1
  Mn3.34+  Mn135  1  0.58292927  0.82632404  0.24526319  1
  Mn3.34+  Mn136  1  0.59111108  0.83369530  0.58113136  1
  Mn3.34+  Mn137  1  0.58841965  0.83870971  0.91766576  1
  Mn3.34+  Mn138  1  0.90354348  0.33066773  0.24011581  1
  Mn3.34+  Mn139  1  0.91874935  0.33620078  0.58188028  1
  Mn3.34+  Mn140  1  0.91338546  0.34195828  0.92394430  1
  Mn3.34+  Mn141  1  0.91693174  0.82396916  0.24638256  1
  Mn3.34+  Mn142  1  0.91648959  0.83592911  0.58612570  1
  Mn3.34+  Mn143  1  0.91494009  0.83619799  0.91692829  1
  Mn3.34+  Mn144  1  0.41449862  0.17063191  0.42397870  1
  Mn3.34+  Mn145  1  0.10002752  0.16205748  0.08557889  1
  Mn3.34+  Mn146  1  0.08119473  0.16843715  0.74823597  1
  Mn3.34+  Mn147  1  0.41695932  0.66502876  0.75346387  1
  Mn3.34+  Mn148  1  0.25072212  0.66502567  0.90849720  1
  Mn3.34+  Mn149  1  0.57592503  0.66840577  0.24164661  1
  Mn3.34+  Mn150  1  0.25478358  0.16876377  0.25010105  1
  Mn3.34+  Mn151  1  0.58972774  0.66844598  0.91295958  1
  Mn3.34+  Mn152  1  0.07879742  0.66181181  0.08317363  1
  Mn3.34+  Mn153  1  0.08273884  0.66684131  0.75681270  1
  Mn3.34+  Mn154  1  0.58567043  0.67358890  0.24417515  1
  Mn3.34+  Mn155  1  0.41883638  0.15834455  0.08422280  1
  Mn3.34+  Mn156  1  0.08860083  0.66699795  0.08079703  1
  Mn3.34+  Mn157  1  0.91422980  0.16161056  0.58083358  1
  Mn3.34+  Mn158  1  0.74779199  0.16968522  0.74869603  1
  Mn3.34+  Mn159  1  0.25613514  0.66571155  0.58320528  1
  Mn3.34+  Mn160  1  0.26504079  0.16369483  0.24814352  1
  Mn3.34+  Mn161  1  0.09428514  0.16213649  0.75069198  1
  Mn3.34+  Mn162  1  0.74022477  0.67064146  0.42045775  1
  Mn3.34+  Mn163  1  0.73720532  0.16511187  0.75071495  1
  Mn3.34+  Mn164  1  0.74088973  0.17288785  0.08450474  1
  Mn3.34+  Mn165  1  0.24663735  0.66025471  0.58154822  1
  Mn3.34+  Mn166  1  0.57272415  0.16483843  0.91306888  1
  Mn3.34+  Mn167  1  0.75143411  0.18017999  0.08107514  1
  Mn3.34+  Mn168  1  0.07909202  0.17426997  0.42409951  1
  Mn3.34+  Mn169  1  0.91857999  0.66443434  0.24271634  1
  Mn3.34+  Mn170  1  0.08613060  0.16812695  0.08268712  1
  Mn3.34+  Mn171  1  0.25788178  0.15809049  0.91572875  1
  Mn3.34+  Mn172  1  0.75308859  0.67103515  0.41809618  1
  Mn3.34+  Mn173  1  0.58233689  0.66846325  0.58811612  1
  Mn3.34+  Mn174  1  0.42060113  0.66893385  0.08056760  1
  Mn3.34+  Mn175  1  0.25252134  0.16770666  0.58116692  1
  Mn3.34+  Mn176  1  0.41689979  0.66344634  0.42132718  1
  Mn3.34+  Mn177  1  0.24749337  0.16300492  0.91789843  1
  Mn3.34+  Mn178  1  0.74681693  0.66428321  0.08268432  1
  Mn3.34+  Mn179  1  0.74783476  0.67093305  0.74878665  1
  Mn3.34+  Mn180  1  0.09531624  0.49343967  0.42483044  1
  Mn3.34+  Mn181  1  0.40307580  0.49720599  0.40675068  1
  Mn3.34+  Mn182  1  0.26408553  0.00387718  0.92912938  1
  Mn3.34+  Mn183  1  0.89083073  -0.00287897  0.24372093  1
  Mn3.34+  Mn184  1  0.26723528  0.00081308  0.24393218  1
  Mn3.34+  Mn185  1  0.10629888  0.00095328  0.08251353  1
  Mn3.34+  Mn186  1  0.58401549  0.49545864  0.23805213  1
  Mn3.34+  Mn187  1  0.91790718  0.49857552  0.25223847  1
  Mn3.34+  Mn188  1  0.43379433  0.50064302  0.07475042  1
  Mn3.34+  Mn189  1  0.75521395  0.50054923  0.41447417  1
  Mn3.34+  Mn190  1  0.74525196  0.49920394  0.75455491  1
  Mn3.34+  Mn191  1  0.41939310  0.01141131  0.41083704  1
  Mn3.34+  Mn192  1  0.58937925  -0.00322664  0.24998180  1
  Mn3.34+  Mn193  1  0.91937843  0.49628102  0.59306957  1
  Mn3.34+  Mn194  1  0.25237215  0.50135376  0.92174148  1
  Mn3.34+  Mn195  1  0.72298384  -0.00692480  0.08880014  1
  Mn3.34+  Mn196  1  0.74435671  -0.00064146  0.73693066  1
  Mn3.34+  Mn197  1  0.24843249  0.49852712  0.25282924  1
  Mn3.34+  Mn198  1  0.08272193  0.50041354  0.42658242  1
  Mn3.34+  Mn199  1  0.09557390  0.00726524  0.08296236  1
  Mn3.34+  Mn200  1  0.73219169  -0.00000579  0.09261485  1
  Mn3.34+  Mn201  1  0.43376351  0.00651734  0.41123245  1
  Mn3.34+  Mn202  1  0.08905092  -0.00086169  0.74716208  1
  Mn3.34+  Mn203  1  0.75266092  -0.00129723  0.43221598  1
  Mn3.34+  Mn204  1  0.73848213  -0.00715557  0.43344992  1
  Mn3.34+  Mn205  1  0.57594476  0.00755596  0.92282428  1
  Mn3.34+  Mn206  1  0.59605251  0.50009558  0.23888738  1
  Mn3.34+  Mn207  1  0.73470434  0.50382367  0.75244258  1
  Mn3.34+  Mn208  1  0.07107734  0.50048541  0.07300981  1
  Mn3.34+  Mn209  1  0.91689277  -0.00015596  0.58529517  1
  Mn3.34+  Mn210  1  0.25277420  0.00776624  0.59377842  1
  Mn3.34+  Mn211  1  0.06075442  0.49480372  0.06945617  1
  Mn3.34+  Mn212  1  0.74060420  0.50364519  0.06399484  1
  Mn3.34+  Mn213  1  0.41947461  0.49857566  0.74173354  1
  Mn3.34+  Mn214  1  0.90656339  0.00131988  0.24310598  1
  Mn3.34+  Mn215  1  0.58237589  0.50592652  0.58484596  1
  O2-  O216  1  0.00336442  0.14896229  0.00403937  1
  O2-  O217  1  0.00610426  0.16948037  0.33601398  1
  O2-  O218  1  -0.00299076  0.14503138  0.66557117  1
  O2-  O219  1  -0.00154347  0.65236759  0.00469198  1
  O2-  O220  1  -0.00398733  0.66566504  0.32267694  1
  O2-  O221  1  0.00831901  0.65732490  0.67434320  1
  O2-  O222  1  0.33309924  0.15731138  -0.00087572  1
  O2-  O223  1  0.33488217  0.14527625  0.33664853  1
  O2-  O224  1  0.34067416  0.15018539  0.64445189  1
  O2-  O225  1  0.33833693  0.65994073  -0.00690163  1
  O2-  O226  1  0.33432018  0.66038206  0.34198795  1
  O2-  O227  1  0.32958954  0.64775658  0.67234128  1
  O2-  O228  1  0.66181223  0.15675389  0.00596344  1
  O2-  O229  1  0.66374728  0.16383862  0.33393058  1
  O2-  O230  1  0.65993514  0.17275397  0.66997043  1
  O2-  O231  1  0.67154739  0.64850651  -0.00522279  1
  O2-  O232  1  0.66392793  0.68036624  0.33381286  1
  O2-  O233  1  0.67116406  0.65786158  0.65942141  1
  O2-  O234  1  0.16669816  0.13636848  -0.00266843  1
  O2-  O235  1  0.16611572  0.16470319  0.33320942  1
  O2-  O236  1  0.16658793  0.14980380  0.66594473  1
  O2-  O237  1  0.17061680  0.64690418  -0.00070912  1
  O2-  O238  1  0.16820706  0.66794939  0.32743839  1
  O2-  O239  1  0.17303303  0.65182777  0.67475528  1
  O2-  O240  1  0.49916751  0.15714883  -0.00039916  1
  O2-  O241  1  0.49500077  0.15771875  0.34674036  1
  O2-  O242  1  0.50596147  0.18339252  0.65534329  1
  O2-  O243  1  0.49794569  0.66542952  -0.00682585  1
  O2-  O244  1  0.49279389  0.65891971  0.32519133  1
  O2-  O245  1  0.48954376  0.66600814  0.66326616  1
  O2-  O246  1  0.82251054  0.15965250  -0.00626303  1
  O2-  O247  1  0.83579462  0.17379792  0.32082263  1
  O2-  O248  1  0.82939001  0.13987247  0.66684967  1
  O2-  O249  1  0.83081994  0.65226923  0.00742203  1
  O2-  O250  1  0.82844691  0.66664119  0.32945674  1
  O2-  O251  1  0.83085392  0.66088215  0.67418569  1
  O2-  O252  1  0.00100107  0.34363591  0.00057794  1
  O2-  O253  1  -0.00154609  0.32182295  0.33344992  1
  O2-  O254  1  -0.00129080  0.33979404  0.66771442  1
  O2-  O255  1  0.00065597  0.84762578  0.00185768  1
  O2-  O256  1  -0.00195114  0.84061979  0.33413165  1
  O2-  O257  1  -0.00219333  0.85644866  0.67191817  1
  O2-  O258  1  0.33694534  0.34286230  0.00268878  1
  O2-  O259  1  0.33370047  0.35328912  0.33675020  1
  O2-  O260  1  0.33109969  0.34575922  0.67005109  1
  O2-  O261  1  0.33441484  0.81721433  0.00392174  1
  O2-  O262  1  0.33293287  0.86197587  0.33169146  1
  O2-  O263  1  0.34042122  0.85077574  0.66382671  1
  O2-  O264  1  0.67544372  0.32831615  -0.00407133  1
  O2-  O265  1  0.66482780  0.34913785  0.33668381  1
  O2-  O266  1  0.66911996  0.33569929  0.66210897  1
  O2-  O267  1  0.66591691  0.84514984  0.00393803  1
  O2-  O268  1  0.66501997  0.81485444  0.33338554  1
  O2-  O269  1  0.66272686  0.85489692  0.66959331  1
  O2-  O270  1  0.17417248  0.35099963  0.00739179  1
  O2-  O271  1  0.15775515  0.33256044  0.33315719  1
  O2-  O272  1  0.16441046  0.33989513  0.66218892  1
  O2-  O273  1  0.17250033  0.85189229  0.00487390  1
  O2-  O274  1  0.16839990  0.84449492  0.33022674  1
  O2-  O275  1  0.17995372  0.84872399  0.67886481  1
  O2-  O276  1  0.50336160  0.34268285  0.00112705  1
  O2-  O277  1  0.50234802  0.35025188  0.33697875  1
  O2-  O278  1  0.49716067  0.34343637  0.66476715  1
  O2-  O279  1  0.49574328  0.83449803  -0.00364862  1
  O2-  O280  1  0.50086428  0.83795485  0.33212935  1
  O2-  O281  1  0.49717781  0.84662329  0.67113545  1
  O2-  O282  1  0.82907059  0.33558448  0.00270954  1
  O2-  O283  1  0.83477945  0.33388141  0.33575023  1
  O2-  O284  1  0.84206504  0.35964585  0.67606324  1
  O2-  O285  1  0.83380810  0.84581575  0.00022581  1
  O2-  O286  1  0.83198711  0.81257237  0.32819277  1
  O2-  O287  1  0.83302514  0.84785021  0.66904109  1
  O2-  O288  1  0.00808809  0.18431473  0.16081471  1
  O2-  O289  1  -0.00159742  0.18718252  0.50555692  1
  O2-  O290  1  -0.00285373  0.17192343  0.82503184  1
  O2-  O291  1  -0.00091285  0.69104162  0.16190748  1
  O2-  O292  1  -0.00364946  0.67274476  0.50568521  1
  O2-  O293  1  -0.00212008  0.67416380  0.82838379  1
  O2-  O294  1  0.33399121  0.18233385  0.16056221  1
  O2-  O295  1  0.31799597  0.18262449  0.48930734  1
  O2-  O296  1  0.32243328  0.17544113  0.82579870  1
  O2-  O297  1  0.34071200  0.67795056  0.16190408  1
  O2-  O298  1  0.33684453  0.68338088  0.50428349  1
  O2-  O299  1  0.33503435  0.69105748  0.83243331  1
  O2-  O300  1  0.67345714  0.18875117  0.16770045  1
  O2-  O301  1  0.65262679  0.17804224  0.50640465  1
  O2-  O302  1  0.67138158  0.18228623  0.84288836  1
  O2-  O303  1  0.66743440  0.68711524  0.16399223  1
  O2-  O304  1  0.66620479  0.68804608  0.50109211  1
  O2-  O305  1  0.67221532  0.68226809  0.83912230  1
  O2-  O306  1  0.16928596  0.18955532  0.17146214  1
  O2-  O307  1  0.16093015  0.18616658  0.50238734  1
  O2-  O308  1  0.15617101  0.18069493  0.84880513  1
  O2-  O309  1  0.16535390  0.67743581  0.16127609  1
  O2-  O310  1  0.16155564  0.67953183  0.51428327  1
  O2-  O311  1  0.16531945  0.69100327  0.84045724  1
  O2-  O312  1  0.50227634  0.17372906  0.15381336  1
  O2-  O313  1  0.49415918  0.17901814  0.49990845  1
  O2-  O314  1  0.49823799  0.17407965  0.83819350  1
  O2-  O315  1  0.49942025  0.69353571  0.16088408  1
  O2-  O316  1  0.49820279  0.68169697  0.50390345  1
  O2-  O317  1  0.49883504  0.68351989  0.83397955  1
  O2-  O318  1  0.84724246  0.18109870  0.14116877  1
  O2-  O319  1  0.83549599  0.18375806  0.51091973  1
  O2-  O320  1  0.83296897  0.16823454  0.82485487  1
  O2-  O321  1  0.83107666  0.67850731  0.16567453  1
  O2-  O322  1  0.83208305  0.68249105  0.49699019  1
  O2-  O323  1  0.82353735  0.67724406  0.83341146  1
  O2-  O324  1  -0.00019004  0.31622883  0.17092905  1
  O2-  O325  1  -0.00611607  0.30687083  0.50004771  1
  O2-  O326  1  -0.00339987  0.33359976  0.82901292  1
  O2-  O327  1  0.00892894  0.82391644  0.17746717  1
  O2-  O328  1  0.00071660  0.82529129  0.50265654  1
  O2-  O329  1  -0.00286469  0.82494644  0.82633084  1
  O2-  O330  1  0.32534383  0.33359190  0.15759046  1
  O2-  O331  1  0.34146314  0.32139166  0.50848373  1
  O2-  O332  1  0.33992537  0.32211865  0.84050979  1
  O2-  O333  1  0.33768489  0.82006944  0.16583646  1
  O2-  O334  1  0.33532219  0.83424646  0.50121378  1
  O2-  O335  1  0.32638418  0.80992998  0.82937195  1
  O2-  O336  1  0.66317101  0.31111461  0.16175076  1
  O2-  O337  1  0.66137441  0.32752423  0.49752689  1
  O2-  O338  1  0.66559195  0.31321538  0.82643130  1
  O2-  O339  1  0.67162763  0.81315564  0.16966674  1
  O2-  O340  1  0.66587678  0.81410695  0.49521441  1
  O2-  O341  1  0.65890180  0.83422721  0.82356942  1
  O2-  O342  1  0.16001980  0.32242861  0.17489186  1
  O2-  O343  1  0.16774939  0.31569643  0.49953626  1
  O2-  O344  1  0.16966582  0.31835617  0.83315930  1
  O2-  O345  1  0.16543103  0.82026252  0.16974268  1
  O2-  O346  1  0.17693814  0.82770561  0.49116871  1
  O2-  O347  1  0.16064352  0.81945489  0.84163024  1
  O2-  O348  1  0.49133141  0.31833607  0.17518760  1
  O2-  O349  1  0.50543992  0.31461964  0.49476323  1
  O2-  O350  1  0.50145632  0.32418781  0.83249416  1
  O2-  O351  1  0.49835024  0.80951939  0.16788411  1
  O2-  O352  1  0.49877609  0.82014138  0.50311740  1
  O2-  O353  1  0.50104693  0.81543511  0.82799374  1
  O2-  O354  1  0.82595564  0.30167093  0.16466469  1
  O2-  O355  1  0.82900301  0.32242462  0.50636867  1
  O2-  O356  1  0.83068666  0.32677636  0.83370318  1
  O2-  O357  1  0.83971005  0.81088713  0.16022562  1
  O2-  O358  1  0.84188150  0.81372111  0.49428652  1
  O2-  O359  1  0.83764159  0.82615848  0.82443597  1
  O2-  O360  1  0.09340194  0.08058684  0.14190885  1
  O2-  O361  1  0.09217738  0.08216749  0.42286955  1
  O2-  O362  1  0.07272336  0.07921604  0.78216375  1
  O2-  O363  1  0.08052344  0.57746343  0.13189752  1
  O2-  O364  1  0.08506049  0.57956051  0.44329497  1
  O2-  O365  1  0.09919657  0.58450839  0.78480494  1
  O2-  O366  1  0.41823042  0.08210939  0.11020098  1
  O2-  O367  1  0.40693674  0.08398320  0.46359460  1
  O2-  O368  1  0.43309293  0.06597787  0.74653739  1
  O2-  O369  1  0.42238958  0.58053271  0.12158783  1
  O2-  O370  1  0.41579916  0.58075743  0.44130603  1
  O2-  O371  1  0.41114518  0.57524170  0.78674289  1
  O2-  O372  1  0.75839391  0.08473129  0.11660835  1
  O2-  O373  1  0.74898630  0.08009036  0.45220143  1
  O2-  O374  1  0.75002592  0.07820175  0.77955669  1
  O2-  O375  1  0.74442527  0.57502617  0.11803375  1
  O2-  O376  1  0.75648386  0.58163610  0.44885280  1
  O2-  O377  1  0.73574264  0.58595521  0.77514317  1
  O2-  O378  1  0.23003409  0.08471989  0.23357848  1
  O2-  O379  1  0.22543892  0.08172468  0.55356206  1
  O2-  O380  1  0.24119785  0.07665915  0.87142237  1
  O2-  O381  1  0.24913359  0.57587790  0.21598288  1
  O2-  O382  1  0.26654516  0.58148899  0.56220486  1
  O2-  O383  1  0.26120638  0.57707965  0.87155681  1
  O2-  O384  1  0.62227626  0.06418313  0.20085887  1
  O2-  O385  1  0.59170726  0.05327342  0.52532489  1
  O2-  O386  1  0.60009438  0.08246369  0.89359763  1
  O2-  O387  1  0.59547853  0.58310153  0.22430791  1
  O2-  O388  1  0.58006246  0.58583847  0.55999221  1
  O2-  O389  1  0.57807829  0.58805927  0.88884659  1
  O2-  O390  1  0.92640180  0.07682969  0.20123082  1
  O2-  O391  1  0.93107094  0.07586388  0.53816275  1
  O2-  O392  1  0.91207524  0.06681387  0.88918682  1
  O2-  O393  1  0.90901874  0.57677157  0.21244700  1
  O2-  O394  1  0.91555092  0.56795739  0.55108322  1
  O2-  O395  1  0.87890127  0.56107851  0.85701959  1
  O2-  O396  1  0.08566532  0.42200733  0.12577952  1
  O2-  O397  1  0.06636814  0.41403806  0.43260287  1
  O2-  O398  1  0.08015212  0.41924834  0.76136677  1
  O2-  O399  1  0.07435554  0.92398167  0.12393960  1
  O2-  O400  1  0.09234730  0.91823468  0.41582276  1
  O2-  O401  1  0.09783050  0.91943119  0.77917968  1
  O2-  O402  1  0.40716070  0.41961986  0.10747695  1
  O2-  O403  1  0.43794515  0.41885181  0.45440424  1
  O2-  O404  1  0.43459560  0.42148559  0.77545736  1
  O2-  O405  1  0.41646548  0.91204632  0.10524768  1
  O2-  O406  1  0.43384329  0.92528035  0.44939921  1
  O2-  O407  1  0.39911460  0.91581765  0.79508563  1
  O2-  O408  1  0.74009752  0.43200616  0.10264153  1
  O2-  O409  1  0.74891681  0.42001234  0.44459685  1
  O2-  O410  1  0.73261013  0.41717355  0.77893567  1
  O2-  O411  1  0.75724742  0.91460737  0.12389833  1
  O2-  O412  1  0.75124725  0.91092503  0.41604923  1
  O2-  O413  1  0.76347208  0.92230193  0.77508228  1
  O2-  O414  1  0.23154642  0.42117237  0.21515065  1
  O2-  O415  1  0.24800813  0.41691749  0.55993750  1
  O2-  O416  1  0.27214011  0.42025763  0.91616517  1
  O2-  O417  1  0.23764556  0.91807918  0.21228575  1
  O2-  O418  1  0.25768232  0.93074850  0.54626610  1
  O2-  O419  1  0.25241339  0.92383827  0.88318411  1
  O2-  O420  1  0.58020837  0.41515101  0.21476635  1
  O2-  O421  1  0.59172798  0.42615691  0.54810454  1
  O2-  O422  1  0.59700017  0.41176939  0.89385144  1
  O2-  O423  1  0.59161612  0.91504629  0.23489873  1
  O2-  O424  1  0.56987702  0.91290654  0.55191918  1
  O2-  O425  1  0.56264945  0.92859331  0.88200863  1
  O2-  O426  1  0.94047773  0.41637553  0.24406989  1
  O2-  O427  1  0.91082764  0.42511985  0.54300437  1
  O2-  O428  1  0.89211270  0.42240825  0.88668280  1
  O2-  O429  1  0.89500252  0.91384711  0.23174178  1
  O2-  O430  1  0.90530383  0.92062378  0.55369785  1
  O2-  O431  1  0.93445880  0.92077661  0.89031015  1
  O2-  O432  1  -0.00367674  0.01990543  0.02440007  1
  O2-  O433  1  0.00067182  -0.00614621  0.31255335  1
  O2-  O434  1  -0.00377637  0.00459091  0.68066187  1
  O2-  O435  1  -0.01206137  0.52489599  -0.00573046  1
  O2-  O436  1  -0.00118678  0.50648633  0.34113580  1
  O2-  O437  1  -0.00966479  0.49261545  0.67456513  1
  O2-  O438  1  0.32508808  -0.02212326  0.01101301  1
  O2-  O439  1  0.30883042  -0.00639806  0.36517633  1
  O2-  O440  1  0.33938342  -0.01695704  0.65756344  1
  O2-  O441  1  0.31783709  0.50798899  0.02791111  1
  O2-  O442  1  0.35950107  0.50103912  0.28648722  1
  O2-  O443  1  0.32466032  0.50320394  0.68407995  1
  O2-  O444  1  0.67756153  0.00248612  -0.01961657  1
  O2-  O445  1  0.65841132  0.00171465  0.34626233  1
  O2-  O446  1  0.64487450  0.00095011  0.69521209  1
  O2-  O447  1  0.68585606  0.51073004  -0.02674306  1
  O2-  O448  1  0.66562167  0.49403335  0.33761555  1
  O2-  O449  1  0.67978264  0.49463569  0.64863821  1
  O2-  O450  1  0.15137276  -0.00662477  -0.02483718  1
  O2-  O451  1  0.15004427  -0.00451034  0.28894679  1
  O2-  O452  1  0.19588431  0.00384021  0.70109024  1
  O2-  O453  1  0.16626968  0.50000158  0.00518709  1
  O2-  O454  1  0.15646554  0.49846847  0.32180139  1
  O2-  O455  1  0.14840638  0.52566824  0.63901386  1
  O2-  O456  1  0.50256467  0.00655172  -0.00194255  1
  O2-  O457  1  0.48510483  -0.00223373  0.30836392  1
  O2-  O458  1  0.49475434  -0.02357443  0.66982234  1
  O2-  O459  1  0.47129791  0.49947612  -0.03773416  1
  O2-  O460  1  0.50981635  0.48670103  0.33499350  1
  O2-  O461  1  0.48002802  0.49823225  0.63994047  1
  O2-  O462  1  0.84142037  0.00276379  0.03982320  1
  O2-  O463  1  0.83809751  0.01251509  0.34827578  1
  O2-  O464  1  0.85097289  0.00583210  0.69514735  1
  O2-  O465  1  0.83122621  0.51414860  0.01275244  1
  O2-  O466  1  0.83351966  0.50840283  0.33092661  1
  O2-  O467  1  0.83765860  0.50773128  0.67628933  1
  O2-  O468  1  0.57537173  0.24765291  0.93671734  1
  O2-  O469  1  0.09168318  0.74827888  0.04605037  1
  O2-  O470  1  0.58365374  0.25672172  0.27590049  1
  O2-  O471  1  0.09823362  0.24822231  0.04772149  1
  O2-  O472  1  0.92060186  0.25848373  0.92523473  1
  O2-  O473  1  0.91917636  0.75838377  0.61210548  1
  O2-  O474  1  0.91459468  0.75581715  0.93047165  1
  O2-  O475  1  0.41278331  0.25536948  0.73572405  1
  O2-  O476  1  0.57915690  0.75221389  0.61221182  1
  O2-  O477  1  0.59496313  0.75280305  0.93261909  1
  O2-  O478  1  0.24642561  0.24764495  0.94278375  1
  O2-  O479  1  0.74286508  0.25544197  0.40900053  1
  O2-  O480  1  0.74929319  0.74815556  0.05148823  1
  O2-  O481  1  0.25507618  0.75670003  0.26906693  1
  O2-  O482  1  0.25195643  0.24860916  0.60996418  1
  O2-  O483  1  0.26139424  0.74625020  0.61278253  1
  O2-  O484  1  0.77563601  0.25113013  0.72550046  1
  O2-  O485  1  0.41537008  0.25161489  0.06006474  1
  O2-  O486  1  0.08439563  0.25029917  0.73136375  1
  O2-  O487  1  0.26341064  0.24869844  0.27456425  1
  O2-  O488  1  0.40610927  0.25235194  0.38969599  1
  O2-  O489  1  0.08517963  0.75284308  0.40454938  1
  O2-  O490  1  0.74009698  0.75495288  0.72999864  1
  O2-  O491  1  0.08551958  0.75216161  0.72260137  1
  O2-  O492  1  0.41289949  0.74945259  0.39823940  1
