# generated using pymatgen
data_Ca108Mn108O277
_symmetry_space_group_name_H-M   'P 1'
_cell_length_a   16.01568761
_cell_length_b   22.29056908
_cell_length_c   16.38026849
_cell_angle_alpha   89.99885724
_cell_angle_beta   90.00323058
_cell_angle_gamma   90.00497516
_symmetry_Int_Tables_number   1
_chemical_formula_structural   Ca108Mn108O277
_chemical_formula_sum   'Ca108 Mn108 O277'
_cell_volume   5847.73601534
_cell_formula_units_Z   1
loop_
 _symmetry_equiv_pos_site_id
 _symmetry_equiv_pos_as_xyz
  1  'x, y, z'
loop_
 _atom_type_symbol
 _atom_type_oxidation_number
  Ca2+  2.0
  Mn3.34+  3.34
  O2-  -2.0
loop_
 _atom_site_type_symbol
 _atom_site_label
 _atom_site_symmetry_multiplicity
 _atom_site_fract_x
 _atom_site_fract_y
 _atom_site_fract_z
 _atom_site_occupancy
  Ca2+  Ca0  1  0.06606954  0.24472062  0.24966807  1
  Ca2+  Ca1  1  0.09758080  0.25610326  0.56662052  1
  Ca2+  Ca2  1  0.07756861  0.25039189  0.93784065  1
  Ca2+  Ca3  1  0.08256235  0.75968597  0.25511221  1
  Ca2+  Ca4  1  0.06562494  0.73439084  0.59878252  1
  Ca2+  Ca5  1  0.08423724  0.74428665  0.89357544  1
  Ca2+  Ca6  1  0.42509376  0.25290600  0.25785589  1
  Ca2+  Ca7  1  0.39111213  0.24854503  0.57660639  1
  Ca2+  Ca8  1  0.41435422  0.25502112  0.91565417  1
  Ca2+  Ca9  1  0.41491821  0.72917053  0.25612283  1
  Ca2+  Ca10  1  0.42006918  0.75191926  0.56952673  1
  Ca2+  Ca11  1  0.43108155  0.74543514  0.91844110  1
  Ca2+  Ca12  1  0.77306611  0.24265494  0.24064554  1
  Ca2+  Ca13  1  0.75227477  0.26149592  0.58327782  1
  Ca2+  Ca14  1  0.75322588  0.25353667  0.93036407  1
  Ca2+  Ca15  1  0.74361079  0.74615124  0.22912985  1
  Ca2+  Ca16  1  0.76711428  0.75861721  0.58917140  1
  Ca2+  Ca17  1  0.73368973  0.74410986  0.92397104  1
  Ca2+  Ca18  1  0.22174578  0.24038743  0.08187675  1
  Ca2+  Ca19  1  0.23431293  0.24323307  0.43527430  1
  Ca2+  Ca20  1  0.25001522  0.26489546  0.73514382  1
  Ca2+  Ca21  1  0.25290917  0.75316873  0.08294316  1
  Ca2+  Ca22  1  0.25973203  0.75489687  0.40704884  1
  Ca2+  Ca23  1  0.23878976  0.74585834  0.76068616  1
  Ca2+  Ca24  1  0.59455338  0.24767056  0.09197885  1
  Ca2+  Ca25  1  0.57863026  0.25586972  0.40641632  1
  Ca2+  Ca26  1  0.58430133  0.26762025  0.74964261  1
  Ca2+  Ca27  1  0.58829678  0.74938036  0.07165848  1
  Ca2+  Ca28  1  0.55643030  0.74381901  0.40529179  1
  Ca2+  Ca29  1  0.57779513  0.75663944  0.76747301  1
  Ca2+  Ca30  1  0.93075744  0.24373157  0.10386121  1
  Ca2+  Ca31  1  0.94030938  0.23713556  0.40059949  1
  Ca2+  Ca32  1  0.91539489  0.26184148  0.75344236  1
  Ca2+  Ca33  1  0.90782085  0.75293669  0.08574167  1
  Ca2+  Ca34  1  0.93395710  0.74147231  0.42794727  1
  Ca2+  Ca35  1  0.92874235  0.74492893  0.73943904  1
  Ca2+  Ca36  1  0.58546739  0.59588418  0.76490800  1
  Ca2+  Ca37  1  0.06794647  0.09835151  0.26193661  1
  Ca2+  Ca38  1  0.42903047  0.08771998  0.25633295  1
  Ca2+  Ca39  1  0.06313522  0.59867377  0.57859642  1
  Ca2+  Ca40  1  0.09324324  0.10773165  0.55153513  1
  Ca2+  Ca41  1  0.08440199  0.10651095  0.54686154  1
  Ca2+  Ca42  1  0.24016336  0.08681898  0.73751372  1
  Ca2+  Ca43  1  0.92865067  0.10390762  0.09207393  1
  Ca2+  Ca44  1  0.22586391  0.59408392  0.76049567  1
  Ca2+  Ca45  1  0.91109626  0.08143355  0.76008551  1
  Ca2+  Ca46  1  0.42316319  0.60225249  0.92859189  1
  Ca2+  Ca47  1  0.26061700  0.60437142  0.42264740  1
  Ca2+  Ca48  1  0.76924992  0.58706495  0.60003207  1
  Ca2+  Ca49  1  0.77925789  0.59067047  0.59944488  1
  Ca2+  Ca50  1  0.21852757  0.59847115  0.75605424  1
  Ca2+  Ca51  1  0.57693302  0.60874229  0.08055997  1
  Ca2+  Ca52  1  0.56790092  0.60691714  0.08518092  1
  Ca2+  Ca53  1  0.06713118  0.58543938  0.27824165  1
  Ca2+  Ca54  1  0.40464470  0.59527230  0.57772729  1
  Ca2+  Ca55  1  0.25007546  0.60426262  0.42253851  1
  Ca2+  Ca56  1  0.07913517  0.58610901  0.27860244  1
  Ca2+  Ca57  1  0.57398907  0.08142521  0.40740928  1
  Ca2+  Ca58  1  0.59686399  0.59443894  0.76613054  1
  Ca2+  Ca59  1  0.07876995  0.09311670  0.95135415  1
  Ca2+  Ca60  1  0.74142878  0.08092872  0.58679325  1
  Ca2+  Ca61  1  0.41614516  0.08799603  0.25580117  1
  Ca2+  Ca62  1  0.28144605  0.60311995  0.08282905  1
  Ca2+  Ca63  1  0.94134770  0.59808409  0.75823248  1
  Ca2+  Ca64  1  0.42134541  0.09584233  0.92988221  1
  Ca2+  Ca65  1  0.94494336  0.60084471  0.74954398  1
  Ca2+  Ca66  1  0.25350468  0.08692358  0.73599875  1
  Ca2+  Ca67  1  0.23546816  0.10015840  0.42916486  1
  Ca2+  Ca68  1  0.59724095  0.09504064  0.07922859  1
  Ca2+  Ca69  1  0.75889459  0.08344857  0.93517796  1
  Ca2+  Ca70  1  0.41536318  0.59834904  0.92427518  1
  Ca2+  Ca71  1  0.75471412  0.59183256  0.92023660  1
  Ca2+  Ca72  1  0.91090017  0.90233167  0.76247275  1
  Ca2+  Ca73  1  0.24147269  0.89930470  0.75651004  1
  Ca2+  Ca74  1  0.59392481  0.90646673  0.42559438  1
  Ca2+  Ca75  1  0.57960747  0.40494445  0.41940327  1
  Ca2+  Ca76  1  0.58979495  0.40848024  0.07513376  1
  Ca2+  Ca77  1  0.60032331  0.40586419  0.07716772  1
  Ca2+  Ca78  1  0.74745536  0.41344464  0.60841418  1
  Ca2+  Ca79  1  0.23081636  0.40894222  0.42348309  1
  Ca2+  Ca80  1  0.26010313  0.40857745  0.06515635  1
  Ca2+  Ca81  1  0.41303421  0.40399003  0.58584425  1
  Ca2+  Ca82  1  0.24916947  0.40829108  0.06213506  1
  Ca2+  Ca83  1  0.91000835  0.41505031  0.75122657  1
  Ca2+  Ca84  1  0.42254107  0.89771089  0.91589062  1
  Ca2+  Ca85  1  0.75068112  0.90018469  0.24669990  1
  Ca2+  Ca86  1  0.23669862  0.90475228  0.08302229  1
  Ca2+  Ca87  1  0.08628495  0.90319434  0.57966105  1
  Ca2+  Ca88  1  0.93147338  0.90417689  0.41353025  1
  Ca2+  Ca89  1  0.76472596  0.41502440  0.90743378  1
  Ca2+  Ca90  1  0.75445491  0.90673536  0.91947227  1
  Ca2+  Ca91  1  0.43085502  0.90598954  0.57979685  1
  Ca2+  Ca92  1  0.94035352  0.41138908  0.41799209  1
  Ca2+  Ca93  1  0.90683163  0.40649760  0.07700164  1
  Ca2+  Ca94  1  0.41986768  0.90350280  0.25085087  1
  Ca2+  Ca95  1  0.25148036  0.90199358  0.75316003  1
  Ca2+  Ca96  1  0.42949515  0.40786206  0.25075636  1
  Ca2+  Ca97  1  0.07487240  0.40813320  0.25949575  1
  Ca2+  Ca98  1  0.59212879  0.90419257  0.07639417  1
  Ca2+  Ca99  1  0.40721800  0.90367627  0.25113374  1
  Ca2+  Ca100  1  0.40608329  0.40859695  0.90789947  1
  Ca2+  Ca101  1  0.92188642  0.91136630  0.06084819  1
  Ca2+  Ca102  1  0.07988584  0.40528273  0.91183208  1
  Ca2+  Ca103  1  0.58242898  0.90675456  0.42561520  1
  Ca2+  Ca104  1  0.91891308  0.90384740  0.41370696  1
  Ca2+  Ca105  1  0.09855882  0.90282337  0.57683783  1
  Ca2+  Ca106  1  0.41675044  0.40821084  0.25132704  1
  Ca2+  Ca107  1  0.92897933  0.40765453  0.41495646  1
  Mn3.34+  Mn108  1  0.07965841  0.33085564  0.08722890  1
  Mn3.34+  Mn109  1  0.08503756  0.33197522  0.41733707  1
  Mn3.34+  Mn110  1  0.08391544  0.33598758  0.74741849  1
  Mn3.34+  Mn111  1  0.08073823  0.83631646  0.08175853  1
  Mn3.34+  Mn112  1  0.09019257  0.83376217  0.41461408  1
  Mn3.34+  Mn113  1  0.07913734  0.82958587  0.75311405  1
  Mn3.34+  Mn114  1  0.41712971  0.32478403  0.08402131  1
  Mn3.34+  Mn115  1  0.41363507  0.33366095  0.42162113  1
  Mn3.34+  Mn116  1  0.41647546  0.33641493  0.74894828  1
  Mn3.34+  Mn117  1  0.41718115  0.82592568  0.08461493  1
  Mn3.34+  Mn118  1  0.41330774  0.83174422  0.41849495  1
  Mn3.34+  Mn119  1  0.42042869  0.83040154  0.74927272  1
  Mn3.34+  Mn120  1  0.75484872  0.33215774  0.08547298  1
  Mn3.34+  Mn121  1  0.75097043  0.33329320  0.42013641  1
  Mn3.34+  Mn122  1  0.74924916  0.33592890  0.75453101  1
  Mn3.34+  Mn123  1  0.75226366  0.83294420  0.08223492  1
  Mn3.34+  Mn124  1  0.75057566  0.82834973  0.41693761  1
  Mn3.34+  Mn125  1  0.74881610  0.83716123  0.75335130  1
  Mn3.34+  Mn126  1  0.24758395  0.33298297  0.25009037  1
  Mn3.34+  Mn127  1  0.24635092  0.33618197  0.58556061  1
  Mn3.34+  Mn128  1  0.24707431  0.33491710  0.90915885  1
  Mn3.34+  Mn129  1  0.24420195  0.83496107  0.24875796  1
  Mn3.34+  Mn130  1  0.25256942  0.82749734  0.58095485  1
  Mn3.34+  Mn131  1  0.24779217  0.83037287  0.92003314  1
  Mn3.34+  Mn132  1  0.59351069  0.33454948  0.25158555  1
  Mn3.34+  Mn133  1  0.58220169  0.33507549  0.58295075  1
  Mn3.34+  Mn134  1  0.58394652  0.32946356  0.91393018  1
  Mn3.34+  Mn135  1  0.58408680  0.83177238  0.24560175  1
  Mn3.34+  Mn136  1  0.59106456  0.83692873  0.59048270  1
  Mn3.34+  Mn137  1  0.58609366  0.83130718  0.91445969  1
  Mn3.34+  Mn138  1  0.91240430  0.33547477  0.24879628  1
  Mn3.34+  Mn139  1  0.91994026  0.33482004  0.58277340  1
  Mn3.34+  Mn140  1  0.91737023  0.33913496  0.91428151  1
  Mn3.34+  Mn141  1  0.91910280  0.83047797  0.24492831  1
  Mn3.34+  Mn142  1  0.91455710  0.82890483  0.58504470  1
  Mn3.34+  Mn143  1  0.91666856  0.83620922  0.91375794  1
  Mn3.34+  Mn144  1  0.58301228  0.15723936  0.57828768  1
  Mn3.34+  Mn145  1  0.58599589  0.16721911  0.24568818  1
  Mn3.34+  Mn146  1  0.41598028  0.17525086  0.08311195  1
  Mn3.34+  Mn147  1  0.74527661  0.66495862  0.41173986  1
  Mn3.34+  Mn148  1  0.91367880  0.17240385  0.58344000  1
  Mn3.34+  Mn149  1  0.25072769  0.16584654  0.24522594  1
  Mn3.34+  Mn150  1  0.75138810  0.66855169  0.75773492  1
  Mn3.34+  Mn151  1  0.42648192  0.16357800  0.75240053  1
  Mn3.34+  Mn152  1  0.75502637  0.16709283  0.08781916  1
  Mn3.34+  Mn153  1  0.74000472  0.16177612  0.75567710  1
  Mn3.34+  Mn154  1  0.75339304  0.16815656  0.75487901  1
  Mn3.34+  Mn155  1  0.25369202  0.67093869  0.24390384  1
  Mn3.34+  Mn156  1  0.57796543  0.66774940  0.24989275  1
  Mn3.34+  Mn157  1  0.76009411  0.16230094  0.41393862  1
  Mn3.34+  Mn158  1  0.41249566  0.16883051  0.42076858  1
  Mn3.34+  Mn159  1  0.75331556  0.66372683  0.08458212  1
  Mn3.34+  Mn160  1  0.74960032  0.16704783  0.41284425  1
  Mn3.34+  Mn161  1  0.91353894  0.66653335  0.24540734  1
  Mn3.34+  Mn162  1  0.57524241  0.66253790  0.57653815  1
  Mn3.34+  Mn163  1  0.75755995  0.67189794  0.41186038  1
  Mn3.34+  Mn164  1  0.07230144  0.16513568  0.75753621  1
  Mn3.34+  Mn165  1  0.24141255  0.16010594  0.24499329  1
  Mn3.34+  Mn166  1  0.08689643  0.66952528  0.07974213  1
  Mn3.34+  Mn167  1  0.41616934  0.16923137  0.75251099  1
  Mn3.34+  Mn168  1  0.91609930  0.16009507  0.91961777  1
  Mn3.34+  Mn169  1  0.24845518  0.67072294  0.58549523  1
  Mn3.34+  Mn170  1  0.08248157  0.66881972  0.42255829  1
  Mn3.34+  Mn171  1  0.58497580  0.16571732  0.91837294  1
  Mn3.34+  Mn172  1  0.08589411  0.17159958  0.75519746  1
  Mn3.34+  Mn173  1  0.07354950  0.66351722  0.07975718  1
  Mn3.34+  Mn174  1  0.41455453  0.66573955  0.75219711  1
  Mn3.34+  Mn175  1  0.58739274  0.66976669  0.57855508  1
  Mn3.34+  Mn176  1  0.57481766  0.15080561  0.57958766  1
  Mn3.34+  Mn177  1  0.24988524  0.66539332  0.91652128  1
  Mn3.34+  Mn178  1  0.91347556  0.65987472  0.91805745  1
  Mn3.34+  Mn179  1  0.25037028  0.16361077  0.92105304  1
  Mn3.34+  Mn180  1  0.58627912  -0.00105317  0.91377964  1
  Mn3.34+  Mn181  1  0.40638844  0.00449367  0.08268391  1
  Mn3.34+  Mn182  1  0.58452397  0.49541820  0.91839827  1
  Mn3.34+  Mn183  1  0.41746631  0.50229471  0.08416418  1
  Mn3.34+  Mn184  1  0.91355000  0.00347955  0.25239990  1
  Mn3.34+  Mn185  1  0.07807136  -0.00122901  0.07222776  1
  Mn3.34+  Mn186  1  0.06746035  0.49888474  0.07387330  1
  Mn3.34+  Mn187  1  0.42388294  0.50073193  0.41384718  1
  Mn3.34+  Mn188  1  0.91411140  0.50138993  0.24880008  1
  Mn3.34+  Mn189  1  0.40642167  0.00115223  0.41559553  1
  Mn3.34+  Mn190  1  0.08010439  0.50401924  0.06900039  1
  Mn3.34+  Mn191  1  0.74195933  0.49764045  0.41250525  1
  Mn3.34+  Mn192  1  0.07869628  -0.00239482  0.76246443  1
  Mn3.34+  Mn193  1  0.92355409  -0.00173855  0.25277927  1
  Mn3.34+  Mn194  1  0.24530842  0.49810038  0.59024224  1
  Mn3.34+  Mn195  1  0.41363105  0.49906297  0.74333343  1
  Mn3.34+  Mn196  1  0.91791428  0.00344566  0.58205350  1
  Mn3.34+  Mn197  1  0.75241853  0.50253414  0.40974659  1
  Mn3.34+  Mn198  1  0.24679439  0.50034048  0.24608175  1
  Mn3.34+  Mn199  1  0.42037355  -0.00182511  0.08230075  1
  Mn3.34+  Mn200  1  0.58193255  0.50518107  0.25244770  1
  Mn3.34+  Mn201  1  0.59638106  0.00079070  0.25049580  1
  Mn3.34+  Mn202  1  0.75595335  0.00101653  0.07641489  1
  Mn3.34+  Mn203  1  0.58555539  0.50163174  0.59078081  1
  Mn3.34+  Mn204  1  0.92062717  0.50000025  0.58832200  1
  Mn3.34+  Mn205  1  0.25742367  0.50555979  0.24713525  1
  Mn3.34+  Mn206  1  0.08618328  0.49466766  0.74677528  1
  Mn3.34+  Mn207  1  0.44855436  0.00155448  0.73734450  1
  Mn3.34+  Mn208  1  0.90689269  -0.00166241  0.58288982  1
  Mn3.34+  Mn209  1  0.24313189  -0.00130095  0.91784081  1
  Mn3.34+  Mn210  1  0.75759558  0.50270349  0.07423569  1
  Mn3.34+  Mn211  1  0.73356572  -0.00301853  0.73931522  1
  Mn3.34+  Mn212  1  0.25250403  0.00110988  0.58462564  1
  Mn3.34+  Mn213  1  0.23753005  -0.00389678  0.26486606  1
  Mn3.34+  Mn214  1  0.43711561  0.00112669  0.74420219  1
  Mn3.34+  Mn215  1  0.75085874  -0.00068495  0.41985294  1
  O2-  O216  1  -0.00713079  0.16757982  -0.00133760  1
  O2-  O217  1  0.00727575  0.17155839  0.32550742  1
  O2-  O218  1  -0.00750026  0.16108021  0.67225974  1
  O2-  O219  1  -0.00365871  0.67928356  -0.00322228  1
  O2-  O220  1  0.00441488  0.66102373  0.33331187  1
  O2-  O221  1  -0.00102607  0.65725799  0.66911073  1
  O2-  O222  1  0.33487415  0.18420126  -0.00016742  1
  O2-  O223  1  0.33463942  0.15431825  0.32633809  1
  O2-  O224  1  0.32963962  0.15626730  0.67677089  1
  O2-  O225  1  0.33619560  0.66758861  -0.00748877  1
  O2-  O226  1  0.32267696  0.66322373  0.33155156  1
  O2-  O227  1  0.32993523  0.65680796  0.67187254  1
  O2-  O228  1  0.66603535  0.16658736  -0.00046967  1
  O2-  O229  1  0.65967819  0.15442533  0.33883385  1
  O2-  O230  1  0.66841574  0.16626594  0.65993517  1
  O2-  O231  1  0.66901220  0.65602330  0.00593307  1
  O2-  O232  1  0.67105960  0.67395737  0.32870915  1
  O2-  O233  1  0.67061593  0.65950212  0.66043503  1
  O2-  O234  1  0.16362182  0.17453674  -0.01178109  1
  O2-  O235  1  0.16992568  0.15869676  0.33118997  1
  O2-  O236  1  0.15948265  0.15066098  0.67004674  1
  O2-  O237  1  0.17134028  0.65400949  0.00379039  1
  O2-  O238  1  0.16634055  0.65610677  0.33014098  1
  O2-  O239  1  0.16976615  0.66318093  0.66608586  1
  O2-  O240  1  0.50111647  0.17621870  0.00128464  1
  O2-  O241  1  0.49672596  0.15681949  0.32678642  1
  O2-  O242  1  0.50243291  0.17880087  0.66504211  1
  O2-  O243  1  0.49604885  0.66128939  -0.00372616  1
  O2-  O244  1  0.50364522  0.66736350  0.32745044  1
  O2-  O245  1  0.50281628  0.64938823  0.67341635  1
  O2-  O246  1  0.82868016  0.16463202  -0.00539061  1
  O2-  O247  1  0.83631055  0.16661399  0.33372213  1
  O2-  O248  1  0.83120382  0.15837664  0.66770044  1
  O2-  O249  1  0.82900694  0.67082700  -0.00427795  1
  O2-  O250  1  0.83725870  0.67134650  0.33399084  1
  O2-  O251  1  0.83189276  0.66241340  0.67619913  1
  O2-  O252  1  -0.00086338  0.33800343  -0.00043997  1
  O2-  O253  1  -0.00237662  0.34167793  0.33389740  1
  O2-  O254  1  -0.00702746  0.32895865  0.67141333  1
  O2-  O255  1  -0.00623754  0.82830353  -0.00007333  1
  O2-  O256  1  -0.00379332  0.84012992  0.33693913  1
  O2-  O257  1  0.00332171  0.84922316  0.66276318  1
  O2-  O258  1  0.33131741  0.32659761  0.00016392  1
  O2-  O259  1  0.33666359  0.34880964  0.33086603  1
  O2-  O260  1  0.33647414  0.33915572  0.66146752  1
  O2-  O261  1  0.33713236  0.83189955  -0.00083197  1
  O2-  O262  1  0.33718378  0.84266180  0.32860727  1
  O2-  O263  1  0.32864748  0.83905171  0.67076624  1
  O2-  O264  1  0.66572552  0.33400758  0.00161252  1
  O2-  O265  1  0.66276115  0.34185892  0.34347916  1
  O2-  O266  1  0.66808950  0.33057640  0.66397165  1
  O2-  O267  1  0.66951027  0.84132985  -0.00047289  1
  O2-  O268  1  0.66452377  0.84335933  0.33355085  1
  O2-  O269  1  0.67169217  0.81488230  0.67284741  1
  O2-  O270  1  0.16743899  0.33455385  0.00030092  1
  O2-  O271  1  0.16532064  0.34658223  0.33053942  1
  O2-  O272  1  0.16562640  0.33650828  0.66681533  1
  O2-  O273  1  0.17109595  0.83866895  0.00430951  1
  O2-  O274  1  0.16955543  0.83545222  0.33469814  1
  O2-  O275  1  0.16955360  0.83569798  0.66783724  1
  O2-  O276  1  0.50371660  0.32355828  0.00431286  1
  O2-  O277  1  0.49894859  0.34441407  0.33148526  1
  O2-  O278  1  0.49821337  0.32730444  0.66208670  1
  O2-  O279  1  0.50265669  0.83386176  0.00474280  1
  O2-  O280  1  0.50263039  0.84768457  0.33529521  1
  O2-  O281  1  0.49411563  0.83890782  0.66155742  1
  O2-  O282  1  0.83232243  0.33672122  -0.00338192  1
  O2-  O283  1  0.84123022  0.34729246  0.34477950  1
  O2-  O284  1  0.83481880  0.33480400  0.66676373  1
  O2-  O285  1  0.83490814  0.83366074  -0.00004127  1
  O2-  O286  1  0.83398444  0.84061176  0.33303293  1
  O2-  O287  1  0.83847496  0.83012390  0.67510567  1
  O2-  O288  1  0.00351320  0.17322034  0.17246763  1
  O2-  O289  1  -0.00065314  0.18557107  0.51430767  1
  O2-  O290  1  -0.00130637  0.18571744  0.84104136  1
  O2-  O291  1  0.00299757  0.67541480  0.17029827  1
  O2-  O292  1  0.00767379  0.67301461  0.50041172  1
  O2-  O293  1  -0.01458393  0.67834067  0.83726862  1
  O2-  O294  1  0.33614502  0.17863579  0.17003914  1
  O2-  O295  1  0.33084440  0.17665050  0.49096525  1
  O2-  O296  1  0.33777264  0.17606873  0.84177568  1
  O2-  O297  1  0.32596209  0.68342024  0.16155343  1
  O2-  O298  1  0.32588317  0.67993538  0.50567135  1
  O2-  O299  1  0.33414219  0.67717793  0.83278126  1
  O2-  O300  1  0.66444822  0.17370543  0.16312111  1
  O2-  O301  1  0.67140231  0.18250601  0.49857791  1
  O2-  O302  1  0.66512702  0.18513967  0.83877388  1
  O2-  O303  1  0.66371153  0.67381854  0.15862357  1
  O2-  O304  1  0.66556872  0.68327323  0.49134997  1
  O2-  O305  1  0.66016158  0.67914284  0.82049293  1
  O2-  O306  1  0.16071793  0.17191581  0.16968342  1
  O2-  O307  1  0.16331920  0.17583999  0.50245469  1
  O2-  O308  1  0.17695068  0.17716357  0.82732163  1
  O2-  O309  1  0.15991550  0.67047558  0.16945740  1
  O2-  O310  1  0.17169039  0.68180833  0.49668769  1
  O2-  O311  1  0.17216687  0.67119437  0.83331057  1
  O2-  O312  1  0.49538380  0.18345964  0.16681642  1
  O2-  O313  1  0.50406338  0.18189463  0.49255609  1
  O2-  O314  1  0.49929930  0.18147514  0.83956149  1
  O2-  O315  1  0.50945333  0.68127594  0.16157017  1
  O2-  O316  1  0.49167752  0.67375344  0.50402588  1
  O2-  O317  1  0.49553352  0.66588185  0.83096206  1
  O2-  O318  1  0.83809765  0.17447503  0.15594933  1
  O2-  O319  1  0.82890273  0.18399233  0.50539616  1
  O2-  O320  1  0.83763168  0.18066530  0.83590275  1
  O2-  O321  1  0.83479009  0.68020742  0.16507963  1
  O2-  O322  1  0.82201409  0.68038621  0.50414689  1
  O2-  O323  1  0.82841189  0.68743097  0.83869562  1
  O2-  O324  1  0.00242681  0.33169948  0.17080655  1
  O2-  O325  1  -0.00443258  0.32141218  0.49459979  1
  O2-  O326  1  -0.00054014  0.31797336  0.83974425  1
  O2-  O327  1  -0.00538237  0.82696037  0.16037745  1
  O2-  O328  1  -0.00044522  0.82824119  0.50172584  1
  O2-  O329  1  -0.00639069  0.82207690  0.82931122  1
  O2-  O330  1  0.33707972  0.32635607  0.16730845  1
  O2-  O331  1  0.33103680  0.32637952  0.49799675  1
  O2-  O332  1  0.33372646  0.32119131  0.83733475  1
  O2-  O333  1  0.33495338  0.82274746  0.16725100  1
  O2-  O334  1  0.33692716  0.82115287  0.50461498  1
  O2-  O335  1  0.32862598  0.82755177  0.82907661  1
  O2-  O336  1  0.66045293  0.33114627  0.15624421  1
  O2-  O337  1  0.66448045  0.31856036  0.50141116  1
  O2-  O338  1  0.67037368  0.31830439  0.84049026  1
  O2-  O339  1  0.66577707  0.82961923  0.16373315  1
  O2-  O340  1  0.66442847  0.81886441  0.49377437  1
  O2-  O341  1  0.67113318  0.82140377  0.83708047  1
  O2-  O342  1  0.17498220  0.33405202  0.15668612  1
  O2-  O343  1  0.17000412  0.32916963  0.49489451  1
  O2-  O344  1  0.16188426  0.31985284  0.83898182  1
  O2-  O345  1  0.17124472  0.82899486  0.16205073  1
  O2-  O346  1  0.16006701  0.82085781  0.50983866  1
  O2-  O347  1  0.17101568  0.82603970  0.82776949  1
  O2-  O348  1  0.49863930  0.32612772  0.16754506  1
  O2-  O349  1  0.49992777  0.32009203  0.49856494  1
  O2-  O350  1  0.49753040  0.31873550  0.83840645  1
  O2-  O351  1  0.49470004  0.82301271  0.17184270  1
  O2-  O352  1  0.50204166  0.82735832  0.49397451  1
  O2-  O353  1  0.49414585  0.82582504  0.83972486  1
  O2-  O354  1  0.83740241  0.32563410  0.16168202  1
  O2-  O355  1  0.83353686  0.32068670  0.50342921  1
  O2-  O356  1  0.83446799  0.31793219  0.83822430  1
  O2-  O357  1  0.82945543  0.82532296  0.16823306  1
  O2-  O358  1  0.84113643  0.81964329  0.49132441  1
  O2-  O359  1  0.83338514  0.81513727  0.83667461  1
  O2-  O360  1  0.07301984  0.06792541  0.11716694  1
  O2-  O361  1  0.09823324  0.06626344  0.43873608  1
  O2-  O362  1  0.08464339  0.08283326  0.78796198  1
  O2-  O363  1  0.08604434  0.57873477  0.11417192  1
  O2-  O364  1  0.10740350  0.58600758  0.43069616  1
  O2-  O365  1  0.08255449  0.57428831  0.77978945  1
  O2-  O366  1  0.42209278  0.08499441  0.10887173  1
  O2-  O367  1  0.41805946  0.08369390  0.42547477  1
  O2-  O368  1  0.40626065  0.07692833  0.79196621  1
  O2-  O369  1  0.42714206  0.58182160  0.08886776  1
  O2-  O370  1  0.38503362  0.57294657  0.44806009  1
  O2-  O371  1  0.41836919  0.57843000  0.78404498  1
  O2-  O372  1  0.74554811  0.08256040  0.09225233  1
  O2-  O373  1  0.74791449  0.08107623  0.44729089  1
  O2-  O374  1  0.75741924  0.07901612  0.78592163  1
  O2-  O375  1  0.74194746  0.58012118  0.09994000  1
  O2-  O376  1  0.75210586  0.58113125  0.45467910  1
  O2-  O377  1  0.73376305  0.58121154  0.77355077  1
  O2-  O378  1  0.26918010  0.07581796  0.22015839  1
  O2-  O379  1  0.23058607  0.07870287  0.56766009  1
  O2-  O380  1  0.25007541  0.07742230  0.87554538  1
  O2-  O381  1  0.24720365  0.58552743  0.21974135  1
  O2-  O382  1  0.24688508  0.57790991  0.55476373  1
  O2-  O383  1  0.27643345  0.58228989  0.89100224  1
  O2-  O384  1  0.56448355  0.08206340  0.21689969  1
  O2-  O385  1  0.60187762  0.07467636  0.53858108  1
  O2-  O386  1  0.57931357  0.08069386  0.89892719  1
  O2-  O387  1  0.57974303  0.58434852  0.21944528  1
  O2-  O388  1  0.58827973  0.58172782  0.55394740  1
  O2-  O389  1  0.57898551  0.57553551  0.89490411  1
  O2-  O390  1  0.92854744  0.08134836  0.22577409  1
  O2-  O391  1  0.91540469  0.08467231  0.56139017  1
  O2-  O392  1  0.92043164  0.08110138  0.89415220  1
  O2-  O393  1  0.93357992  0.58275325  0.23081228  1
  O2-  O394  1  0.91361147  0.57772395  0.56484846  1
  O2-  O395  1  0.89568694  0.58117871  0.87976067  1
  O2-  O396  1  0.08765952  0.41904439  0.09933966  1
  O2-  O397  1  0.07314191  0.41757823  0.42694276  1
  O2-  O398  1  0.06659658  0.41660128  0.77692046  1
  O2-  O399  1  0.08323288  0.92275041  0.10294425  1
  O2-  O400  1  0.06456019  0.91799962  0.44957028  1
  O2-  O401  1  0.09925650  0.91476899  0.75984951  1
  O2-  O402  1  0.41179923  0.41960307  0.11130824  1
  O2-  O403  1  0.42613521  0.41928156  0.44590197  1
  O2-  O404  1  0.41881921  0.41890520  0.77248899  1
  O2-  O405  1  0.41501129  0.91794459  0.10965400  1
  O2-  O406  1  0.43083061  0.92052240  0.43917237  1
  O2-  O407  1  0.40408169  0.92014402  0.77324367  1
  O2-  O408  1  0.74158536  0.41937131  0.09658499  1
  O2-  O409  1  0.74772594  0.41801236  0.45275271  1
  O2-  O410  1  0.76218843  0.41609412  0.76707876  1
  O2-  O411  1  0.75189801  0.92012300  0.10473204  1
  O2-  O412  1  0.74821983  0.91804641  0.43679096  1
  O2-  O413  1  0.76487009  0.92476596  0.78324327  1
  O2-  O414  1  0.26125429  0.41967532  0.21673169  1
  O2-  O415  1  0.26301195  0.42097187  0.55842156  1
  O2-  O416  1  0.25391967  0.41551046  0.92169204  1
  O2-  O417  1  0.26849141  0.92160587  0.21928202  1
  O2-  O418  1  0.23727938  0.91890124  0.57477273  1
  O2-  O419  1  0.25778813  0.91676792  0.89261974  1
  O2-  O420  1  0.56616090  0.42471025  0.20899772  1
  O2-  O421  1  0.58392595  0.42348584  0.55867509  1
  O2-  O422  1  0.58059075  0.41472001  0.92205577  1
  O2-  O423  1  0.57266367  0.91747810  0.22166306  1
  O2-  O424  1  0.58051201  0.91611268  0.55665989  1
  O2-  O425  1  0.58019212  0.91729981  0.90588060  1
  O2-  O426  1  0.92257775  0.42135889  0.22126892  1
  O2-  O427  1  0.90775131  0.42263163  0.54954977  1
  O2-  O428  1  0.91290962  0.41725336  0.89013743  1
  O2-  O429  1  0.90662400  0.91729128  0.22953831  1
  O2-  O430  1  0.91587864  0.91673268  0.55640897  1
  O2-  O431  1  0.90457679  0.91549448  0.90045197  1
  O2-  O432  1  -0.00542044  0.00410646  0.01128443  1
  O2-  O433  1  -0.00865490  -0.01068683  0.34084178  1
  O2-  O434  1  0.00055720  -0.00134134  0.66878571  1
  O2-  O435  1  -0.01041726  0.48506539  -0.00194039  1
  O2-  O436  1  0.01046646  0.49752257  0.31030438  1
  O2-  O437  1  -0.01221948  0.50706402  0.68386022  1
  O2-  O438  1  0.33652645  0.00332901  -0.01165569  1
  O2-  O439  1  0.34613165  -0.00194455  0.30891958  1
  O2-  O440  1  0.32913832  0.00748116  0.68206858  1
  O2-  O441  1  0.33422066  0.49495221  0.01521789  1
  O2-  O442  1  0.33250860  0.48710411  0.33511831  1
  O2-  O443  1  0.34019805  0.51073203  0.65564825  1
  O2-  O444  1  0.66573217  0.00112148  0.00318787  1
  O2-  O445  1  0.64944489  -0.00650642  0.36100468  1
  O2-  O446  1  0.67120209  0.01456066  0.65856170  1
  O2-  O447  1  0.65465723  0.49882037  0.01649080  1
  O2-  O448  1  0.65399183  0.49109619  0.34069552  1
  O2-  O449  1  0.67938831  0.51506891  0.64484856  1
  O2-  O450  1  0.16207157  0.00778486  0.00266211  1
  O2-  O451  1  0.16452785  0.02034146  0.33266009  1
  O2-  O452  1  0.17511311  0.00387576  0.68311490  1
  O2-  O453  1  0.18207777  0.49987193  0.02566878  1
  O2-  O454  1  0.16571133  0.50619585  0.32796380  1
  O2-  O455  1  0.17273607  0.51813835  0.67689072  1
  O2-  O456  1  0.49825667  0.00471502  -0.00538368  1
  O2-  O457  1  0.49488448  0.00378460  0.32877965  1
  O2-  O458  1  0.49549512  -0.00721774  0.63984415  1
  O2-  O459  1  0.49718863  0.49913703  -0.00106023  1
  O2-  O460  1  0.49113470  0.48293993  0.32291745  1
  O2-  O461  1  0.50728866  0.51591454  0.67314982  1
  O2-  O462  1  0.83236842  -0.00012126  0.00281485  1
  O2-  O463  1  0.82649259  -0.00594215  0.32947506  1
  O2-  O464  1  0.83734109  0.00904794  0.67944229  1
  O2-  O465  1  0.82081992  0.49354056  -0.00910504  1
  O2-  O466  1  0.84957678  0.49048364  0.34945426  1
  O2-  O467  1  0.83015796  0.50237315  0.65225804  1
  O2-  O468  1  0.07883210  0.25250078  0.08224434  1
  O2-  O469  1  0.74509495  0.25049202  0.07575529  1
  O2-  O470  1  0.91547255  0.25573800  0.25692018  1
  O2-  O471  1  0.40671120  0.25236415  0.73829216  1
  O2-  O472  1  0.74949035  0.24939223  0.73543006  1
  O2-  O473  1  0.92401341  0.75000230  0.26099791  1
  O2-  O474  1  0.74699886  0.25066446  0.39519690  1
  O2-  O475  1  0.24167162  0.75160044  0.26407766  1
  O2-  O476  1  0.41687493  0.25134096  0.39471073  1
  O2-  O477  1  0.08533922  0.25119171  0.73446910  1
  O2-  O478  1  0.42296201  0.74754126  0.73642475  1
  O2-  O479  1  0.24823821  0.25558684  0.59374359  1
  O2-  O480  1  0.09073490  0.75289707  0.08033915  1
  O2-  O481  1  0.58277008  0.24919125  0.26429316  1
  O2-  O482  1  0.08113371  0.75162005  0.74029080  1
  O2-  O483  1  0.59016597  0.75245211  0.26392884  1
  O2-  O484  1  0.08018005  0.75107295  0.39842460  1
  O2-  O485  1  0.24146035  0.74875654  0.92511436  1
  O2-  O486  1  0.57096362  0.74974092  0.59561279  1
  O2-  O487  1  0.08816651  0.25328443  0.40072939  1
  O2-  O488  1  0.74391501  0.75033800  0.07491848  1
  O2-  O489  1  0.25502644  0.24964651  0.26339870  1
  O2-  O490  1  0.41472568  0.75399892  0.40066129  1
  O2-  O491  1  0.92196629  0.75157417  0.59544515  1
  O2-  O492  1  0.58248935  0.75306107  0.92694792  1
