# generated using pymatgen
data_Ca108Mn108O277
_symmetry_space_group_name_H-M   'P 1'
_cell_length_a   16.03181928
_cell_length_b   22.31427547
_cell_length_c   16.39378631
_cell_angle_alpha   89.98733926
_cell_angle_beta   90.00473021
_cell_angle_gamma   89.98515916
_symmetry_Int_Tables_number   1
_chemical_formula_structural   Ca108Mn108O277
_chemical_formula_sum   'Ca108 Mn108 O277'
_cell_volume   5864.68704463
_cell_formula_units_Z   1
loop_
 _symmetry_equiv_pos_site_id
 _symmetry_equiv_pos_as_xyz
  1  'x, y, z'
loop_
 _atom_type_symbol
 _atom_type_oxidation_number
  Ca2+  2.0
  Mn3.34+  3.34
  O2-  -2.0
loop_
 _atom_site_type_symbol
 _atom_site_label
 _atom_site_symmetry_multiplicity
 _atom_site_fract_x
 _atom_site_fract_y
 _atom_site_fract_z
 _atom_site_occupancy
  Ca2+  Ca0  1  0.09547331  0.24860795  0.25327928  1
  Ca2+  Ca1  1  0.09520085  0.24374524  0.59244222  1
  Ca2+  Ca2  1  0.11278579  0.24145762  0.90149891  1
  Ca2+  Ca3  1  0.09233214  0.74696446  0.25404577  1
  Ca2+  Ca4  1  0.09300782  0.75502773  0.60681184  1
  Ca2+  Ca5  1  0.09458926  0.76179792  0.89408263  1
  Ca2+  Ca6  1  0.40514632  0.25606106  0.25209606  1
  Ca2+  Ca7  1  0.40816861  0.25422346  0.59469432  1
  Ca2+  Ca8  1  0.40131814  0.24552358  0.90166044  1
  Ca2+  Ca9  1  0.41583587  0.74765499  0.23831460  1
  Ca2+  Ca10  1  0.40653014  0.75032250  0.59076430  1
  Ca2+  Ca11  1  0.40505853  0.75530807  0.91802353  1
  Ca2+  Ca12  1  0.75317469  0.24817602  0.26034726  1
  Ca2+  Ca13  1  0.74114758  0.25472283  0.59313028  1
  Ca2+  Ca14  1  0.73675243  0.24700724  0.89477994  1
  Ca2+  Ca15  1  0.74738945  0.74321991  0.27402758  1
  Ca2+  Ca16  1  0.75138555  0.75584374  0.57623302  1
  Ca2+  Ca17  1  0.74875940  0.75944024  0.89999486  1
  Ca2+  Ca18  1  0.24836524  0.23896955  0.08357078  1
  Ca2+  Ca19  1  0.23827622  0.24335958  0.41470752  1
  Ca2+  Ca20  1  0.24973052  0.23182106  0.75313647  1
  Ca2+  Ca21  1  0.27023217  0.75366021  0.08539636  1
  Ca2+  Ca22  1  0.25904631  0.75816628  0.42682280  1
  Ca2+  Ca23  1  0.24891056  0.73239748  0.74236258  1
  Ca2+  Ca24  1  0.57278655  0.26549560  0.08755376  1
  Ca2+  Ca25  1  0.58244571  0.25657491  0.40956956  1
  Ca2+  Ca26  1  0.57597339  0.25194360  0.75181457  1
  Ca2+  Ca27  1  0.55727587  0.74676777  0.09258180  1
  Ca2+  Ca28  1  0.59858733  0.75059896  0.41418656  1
  Ca2+  Ca29  1  0.56506581  0.73752293  0.74423796  1
  Ca2+  Ca30  1  0.92879878  0.24899368  0.08840036  1
  Ca2+  Ca31  1  0.92570498  0.25171779  0.41182856  1
  Ca2+  Ca32  1  0.92968347  0.24168686  0.74138751  1
  Ca2+  Ca33  1  0.92737671  0.75733239  0.08720010  1
  Ca2+  Ca34  1  0.89270005  0.75419363  0.41939214  1
  Ca2+  Ca35  1  0.93096225  0.75743336  0.74603707  1
  Ca2+  Ca36  1  0.88992393  0.60016579  0.39445699  1
  Ca2+  Ca37  1  0.75372793  0.59536329  0.89361415  1
  Ca2+  Ca38  1  0.06645605  0.61245034  0.87571696  1
  Ca2+  Ca39  1  0.06572657  0.58181301  0.25684297  1
  Ca2+  Ca40  1  0.09618175  0.58748966  0.62165472  1
  Ca2+  Ca41  1  0.25289142  0.08820428  0.42565942  1
  Ca2+  Ca42  1  0.76187670  0.06404365  0.93477326  1
  Ca2+  Ca43  1  0.42854081  0.61757977  0.89142796  1
  Ca2+  Ca44  1  0.42544717  0.59503945  0.61793568  1
  Ca2+  Ca45  1  0.41691061  0.59002388  0.61768364  1
  Ca2+  Ca46  1  0.11167369  0.10846342  0.24940161  1
  Ca2+  Ca47  1  0.26716288  0.60327392  0.41110615  1
  Ca2+  Ca48  1  0.28608862  0.61160664  0.09839369  1
  Ca2+  Ca49  1  0.57949906  0.08872278  0.75426226  1
  Ca2+  Ca50  1  0.60951212  0.60948858  0.42322306  1
  Ca2+  Ca51  1  0.07826718  0.61357439  0.87736086  1
  Ca2+  Ca52  1  0.09834306  0.08571504  0.60750717  1
  Ca2+  Ca53  1  0.89751319  0.59509604  0.39996258  1
  Ca2+  Ca54  1  0.60583316  0.07404249  0.07548513  1
  Ca2+  Ca55  1  0.59113108  0.08866210  0.75393373  1
  Ca2+  Ca56  1  0.90375254  0.09640699  0.41411429  1
  Ca2+  Ca57  1  0.41527645  0.08719355  0.26708931  1
  Ca2+  Ca58  1  0.90777775  0.59369908  0.09503463  1
  Ca2+  Ca59  1  0.36694920  0.09435238  0.90427347  1
  Ca2+  Ca60  1  0.27981546  0.60590994  0.10584527  1
  Ca2+  Ca61  1  0.41942933  0.61379628  0.89396945  1
  Ca2+  Ca62  1  0.72598985  0.58041010  0.62395188  1
  Ca2+  Ca63  1  0.92177151  0.07015397  0.05979977  1
  Ca2+  Ca64  1  0.75485385  0.09177119  0.57815018  1
  Ca2+  Ca65  1  0.60380452  0.08016403  0.40657670  1
  Ca2+  Ca66  1  0.76423925  0.08954626  0.57459660  1
  Ca2+  Ca67  1  0.40392549  0.08750194  0.26648034  1
  Ca2+  Ca68  1  0.07576711  0.58307995  0.25920699  1
  Ca2+  Ca69  1  0.75464350  0.59752523  0.25450202  1
  Ca2+  Ca70  1  0.54376096  0.60201302  0.08938004  1
  Ca2+  Ca71  1  0.41318841  0.61085647  0.25230394  1
  Ca2+  Ca72  1  0.07550023  0.89689106  0.25431779  1
  Ca2+  Ca73  1  0.58132581  0.90791113  0.74741758  1
  Ca2+  Ca74  1  0.59763851  0.41630014  0.72262431  1
  Ca2+  Ca75  1  0.08833724  0.89652869  0.25537537  1
  Ca2+  Ca76  1  0.58688846  0.41667223  0.72490429  1
  Ca2+  Ca77  1  0.60267698  0.90428872  0.08390398  1
  Ca2+  Ca78  1  0.40897004  0.90811400  0.90840841  1
  Ca2+  Ca79  1  0.90495607  0.40875795  0.74027497  1
  Ca2+  Ca80  1  0.40225381  0.91568636  0.56899633  1
  Ca2+  Ca81  1  0.23983625  0.90701426  0.07484551  1
  Ca2+  Ca82  1  0.89204133  0.92412532  0.06384582  1
  Ca2+  Ca83  1  0.07729441  0.40504950  0.58035643  1
  Ca2+  Ca84  1  0.91632321  0.40873580  0.74070511  1
  Ca2+  Ca85  1  0.08990801  0.40548257  0.58069546  1
  Ca2+  Ca86  1  0.39178258  0.91852288  0.56685128  1
  Ca2+  Ca87  1  0.41669922  0.39693943  0.91365240  1
  Ca2+  Ca88  1  0.91549184  0.40380448  0.09101372  1
  Ca2+  Ca89  1  0.25006226  0.39160806  0.08943259  1
  Ca2+  Ca90  1  0.74711967  0.40815654  0.91440537  1
  Ca2+  Ca91  1  0.22510547  0.92971883  0.72337148  1
  Ca2+  Ca92  1  0.75978488  0.40783320  0.91395657  1
  Ca2+  Ca93  1  0.39789374  0.90913968  0.90724243  1
  Ca2+  Ca94  1  0.25250672  0.39867334  0.41843165  1
  Ca2+  Ca95  1  0.08076093  0.92658108  0.90195289  1
  Ca2+  Ca96  1  0.73785107  0.91772303  0.27389296  1
  Ca2+  Ca97  1  0.90096126  0.92157121  0.05974529  1
  Ca2+  Ca98  1  0.25174521  0.39514230  0.74896141  1
  Ca2+  Ca99  1  0.74899647  0.39847600  0.25850378  1
  Ca2+  Ca100  1  0.88343028  0.90989305  0.42686362  1
  Ca2+  Ca101  1  0.42815741  0.40346346  0.24836211  1
  Ca2+  Ca102  1  0.06981101  0.92863049  0.90187675  1
  Ca2+  Ca103  1  0.75854602  0.91719678  0.91988942  1
  Ca2+  Ca104  1  0.58747434  0.91191350  0.41601411  1
  Ca2+  Ca105  1  0.08119354  0.40472299  0.25774569  1
  Ca2+  Ca106  1  0.90568692  0.40712963  0.09668733  1
  Ca2+  Ca107  1  0.59354214  0.90577982  0.74933743  1
  Mn3.34+  Mn108  1  0.08657912  0.32595401  0.08354158  1
  Mn3.34+  Mn109  1  0.08105891  0.33068619  0.41724996  1
  Mn3.34+  Mn110  1  0.08415574  0.32904678  0.75284255  1
  Mn3.34+  Mn111  1  0.08616001  0.83782370  0.08242632  1
  Mn3.34+  Mn112  1  0.07974619  0.82937526  0.42654467  1
  Mn3.34+  Mn113  1  0.08313498  0.84113547  0.74234978  1
  Mn3.34+  Mn114  1  0.41676266  0.33496212  0.08352211  1
  Mn3.34+  Mn115  1  0.41960584  0.33270802  0.42009880  1
  Mn3.34+  Mn116  1  0.41938345  0.33306742  0.74716095  1
  Mn3.34+  Mn117  1  0.41510860  0.83593157  0.08787150  1
  Mn3.34+  Mn118  1  0.41592565  0.84194455  0.40937606  1
  Mn3.34+  Mn119  1  0.40959488  0.83235573  0.74696828  1
  Mn3.34+  Mn120  1  0.74607056  0.33279187  0.08847310  1
  Mn3.34+  Mn121  1  0.75071814  0.32609865  0.42091577  1
  Mn3.34+  Mn122  1  0.74897277  0.32993993  0.74893791  1
  Mn3.34+  Mn123  1  0.74821389  0.83010765  0.09114497  1
  Mn3.34+  Mn124  1  0.74374093  0.83528241  0.42210657  1
  Mn3.34+  Mn125  1  0.75573115  0.83335079  0.74411218  1
  Mn3.34+  Mn126  1  0.25081129  0.32900458  0.25187626  1
  Mn3.34+  Mn127  1  0.25552056  0.33036432  0.58074183  1
  Mn3.34+  Mn128  1  0.24966958  0.32953057  0.91664184  1
  Mn3.34+  Mn129  1  0.25890000  0.82996127  0.25431104  1
  Mn3.34+  Mn130  1  0.24258341  0.83916779  0.57789355  1
  Mn3.34+  Mn131  1  0.24451452  0.83941295  0.90817421  1
  Mn3.34+  Mn132  1  0.58397911  0.33180476  0.25240054  1
  Mn3.34+  Mn133  1  0.58179503  0.33075418  0.57356857  1
  Mn3.34+  Mn134  1  0.57932555  0.32967251  0.91951407  1
  Mn3.34+  Mn135  1  0.58079790  0.83254343  0.25045325  1
  Mn3.34+  Mn136  1  0.57875836  0.83441898  0.57806026  1
  Mn3.34+  Mn137  1  0.58058999  0.83119645  0.91760418  1
  Mn3.34+  Mn138  1  0.91942468  0.33162093  0.25598541  1
  Mn3.34+  Mn139  1  0.90974830  0.33329921  0.57151238  1
  Mn3.34+  Mn140  1  0.92328652  0.33145209  0.91461671  1
  Mn3.34+  Mn141  1  0.90941413  0.83059887  0.24765311  1
  Mn3.34+  Mn142  1  0.91785180  0.84196761  0.58552813  1
  Mn3.34+  Mn143  1  0.91599509  0.83980946  0.91077054  1
  Mn3.34+  Mn144  1  0.92187476  0.16862654  0.24833498  1
  Mn3.34+  Mn145  1  0.93011537  0.15795080  0.91313504  1
  Mn3.34+  Mn146  1  0.92038543  0.16330267  0.91371881  1
  Mn3.34+  Mn147  1  0.75494717  0.16160309  0.75303583  1
  Mn3.34+  Mn148  1  0.74687095  0.16739857  0.08615079  1
  Mn3.34+  Mn149  1  0.58593931  0.66924448  0.57982199  1
  Mn3.34+  Mn150  1  0.24832693  0.67230789  0.91347311  1
  Mn3.34+  Mn151  1  0.09446679  0.66147014  0.42383663  1
  Mn3.34+  Mn152  1  0.08328896  0.16518608  0.42345651  1
  Mn3.34+  Mn153  1  0.42489135  0.16725064  0.42804527  1
  Mn3.34+  Mn154  1  0.92413778  0.16190604  0.58095971  1
  Mn3.34+  Mn155  1  0.58699835  0.67801848  0.91587629  1
  Mn3.34+  Mn156  1  0.08740780  0.15905617  0.08813895  1
  Mn3.34+  Mn157  1  0.41460584  0.16280646  0.74632522  1
  Mn3.34+  Mn158  1  0.42542080  0.16648493  0.08176202  1
  Mn3.34+  Mn159  1  0.25053689  0.15905357  0.58798331  1
  Mn3.34+  Mn160  1  0.58807616  0.16686780  0.24964866  1
  Mn3.34+  Mn161  1  0.75107618  0.16521285  0.41751210  1
  Mn3.34+  Mn162  1  0.58383903  0.66580189  0.25197736  1
  Mn3.34+  Mn163  1  0.74346137  0.68073371  0.08441537  1
  Mn3.34+  Mn164  1  0.74392348  0.66916171  0.75048873  1
  Mn3.34+  Mn165  1  0.58780486  0.16674779  0.58287328  1
  Mn3.34+  Mn166  1  0.75566764  0.16165771  0.08952675  1
  Mn3.34+  Mn167  1  0.09344292  0.15324532  0.75558246  1
  Mn3.34+  Mn168  1  0.42391263  0.67140485  0.42167987  1
  Mn3.34+  Mn169  1  0.08913756  0.67528457  0.07991899  1
  Mn3.34+  Mn170  1  0.75478700  0.67262527  0.08409993  1
  Mn3.34+  Mn171  1  0.41170201  0.16097491  0.08416502  1
  Mn3.34+  Mn172  1  0.25336711  0.66875504  0.58412988  1
  Mn3.34+  Mn173  1  0.91759102  0.66516947  0.58815741  1
  Mn3.34+  Mn174  1  0.41601344  0.16121244  0.43030175  1
  Mn3.34+  Mn175  1  0.90916416  0.67392223  0.91218623  1
  Mn3.34+  Mn176  1  0.08321266  0.66594445  0.42417979  1
  Mn3.34+  Mn177  1  0.90930123  0.65872800  0.58688936  1
  Mn3.34+  Mn178  1  0.58052515  0.16451046  0.91674245  1
  Mn3.34+  Mn179  1  0.07818546  0.67072436  0.08280400  1
  Mn3.34+  Mn180  1  0.58204283  -0.00094630  0.92374872  1
  Mn3.34+  Mn181  1  0.42177734  0.49719316  0.41789732  1
  Mn3.34+  Mn182  1  0.58371725  0.00051836  0.25595473  1
  Mn3.34+  Mn183  1  0.41814096  0.49432284  0.08070471  1
  Mn3.34+  Mn184  1  0.24899268  0.49455724  0.25927523  1
  Mn3.34+  Mn185  1  0.76661928  -0.00399292  0.74628959  1
  Mn3.34+  Mn186  1  0.40179557  0.00834835  0.73472505  1
  Mn3.34+  Mn187  1  0.24790852  0.50658514  0.91457754  1
  Mn3.34+  Mn188  1  0.24295136  0.00258480  0.25243647  1
  Mn3.34+  Mn189  1  0.40268170  0.00295013  0.07735816  1
  Mn3.34+  Mn190  1  0.58704129  0.49948086  0.24540281  1
  Mn3.34+  Mn191  1  0.08837686  0.49401980  0.74581726  1
  Mn3.34+  Mn192  1  0.75101081  0.49344459  0.42528602  1
  Mn3.34+  Mn193  1  0.10272848  0.00708668  0.06935107  1
  Mn3.34+  Mn194  1  0.09018948  -0.00488848  0.43591146  1
  Mn3.34+  Mn195  1  0.25361464  0.50002248  0.58080679  1
  Mn3.34+  Mn196  1  0.41393870  0.49687438  0.74734541  1
  Mn3.34+  Mn197  1  0.58221867  0.00192265  0.58708808  1
  Mn3.34+  Mn198  1  0.07607274  0.00031174  0.43590425  1
  Mn3.34+  Mn199  1  0.92009210  0.50198373  0.91904232  1
  Mn3.34+  Mn200  1  0.58454218  0.49732917  0.57999901  1
  Mn3.34+  Mn201  1  0.24727037  0.50011699  0.90173452  1
  Mn3.34+  Mn202  1  0.91369195  0.00469492  0.25332475  1
  Mn3.34+  Mn203  1  0.90379867  0.01064048  0.25652364  1
  Mn3.34+  Mn204  1  0.09331919  0.49718405  0.08775961  1
  Mn3.34+  Mn205  1  0.92475276  -0.00175029  0.60439080  1
  Mn3.34+  Mn206  1  0.25480358  -0.00502746  0.25463130  1
  Mn3.34+  Mn207  1  0.74033529  0.50020804  0.08315336  1
  Mn3.34+  Mn208  1  0.57408277  0.50176219  0.90711178  1
  Mn3.34+  Mn209  1  0.41298569  -0.00475122  0.08123739  1
  Mn3.34+  Mn210  1  0.07787335  0.50007026  0.41810113  1
  Mn3.34+  Mn211  1  0.90722239  0.50122460  0.59401244  1
  Mn3.34+  Mn212  1  0.08174690  0.50169913  0.08729700  1
  Mn3.34+  Mn213  1  0.58416519  0.50725695  0.90556795  1
  Mn3.34+  Mn214  1  0.43325711  0.50093482  0.41769447  1
  Mn3.34+  Mn215  1  0.73527413  0.49489796  0.42327574  1
  O2-  O216  1  -0.00686869  0.15348025  0.01175266  1
  O2-  O217  1  0.00305100  0.14328877  0.33282010  1
  O2-  O218  1  0.00364629  0.17422411  0.65932473  1
  O2-  O219  1  -0.00812976  0.66034621  0.00364117  1
  O2-  O220  1  0.00347100  0.65187190  0.33900035  1
  O2-  O221  1  -0.00218372  0.65731541  0.66486335  1
  O2-  O222  1  0.33242443  0.15816869  0.00534302  1
  O2-  O223  1  0.33706544  0.15031763  0.34478323  1
  O2-  O224  1  0.34017674  0.16300675  0.66126539  1
  O2-  O225  1  0.33428853  0.65294080  -0.01018582  1
  O2-  O226  1  0.34221381  0.67134342  0.34162521  1
  O2-  O227  1  0.33019454  0.65805994  0.66159077  1
  O2-  O228  1  0.67462155  0.15286656  -0.00400379  1
  O2-  O229  1  0.66560179  0.17246821  0.34166216  1
  O2-  O230  1  0.67304608  0.14274461  0.66437296  1
  O2-  O231  1  0.66702953  0.67158865  0.00046984  1
  O2-  O232  1  0.67100140  0.65747862  0.32329942  1
  O2-  O233  1  0.66101363  0.67086084  0.66907596  1
  O2-  O234  1  0.14676769  0.19237984  0.01147554  1
  O2-  O235  1  0.16936077  0.15246881  0.35371787  1
  O2-  O236  1  0.16871016  0.16234817  0.66824536  1
  O2-  O237  1  0.16367363  0.64112600  -0.00144110  1
  O2-  O238  1  0.16214836  0.65078784  0.32794463  1
  O2-  O239  1  0.16759505  0.66698218  0.65292226  1
  O2-  O240  1  0.49889998  0.13557753  0.00359816  1
  O2-  O241  1  0.50225938  0.14593139  0.33666030  1
  O2-  O242  1  0.51182262  0.14890765  0.66935886  1
  O2-  O243  1  0.50287629  0.66495133  -0.00663958  1
  O2-  O244  1  0.50704928  0.65267737  0.33904026  1
  O2-  O245  1  0.49760200  0.67129151  0.65447418  1
  O2-  O246  1  0.83498573  0.16363836  0.00227651  1
  O2-  O247  1  0.83525400  0.17106085  0.33694548  1
  O2-  O248  1  0.83256052  0.16128499  0.65947270  1
  O2-  O249  1  0.83148249  0.68663355  -0.00140263  1
  O2-  O250  1  0.83785431  0.66478318  0.32363093  1
  O2-  O251  1  0.82467302  0.65048355  0.66417087  1
  O2-  O252  1  -0.00685755  0.34222863  0.01163225  1
  O2-  O253  1  0.00039286  0.34603828  0.33604444  1
  O2-  O254  1  -0.00229168  0.33685272  0.66147842  1
  O2-  O255  1  -0.01614195  0.84716607  0.01152703  1
  O2-  O256  1  -0.00554797  0.83726709  0.32986347  1
  O2-  O257  1  0.00044643  0.83446928  0.66424775  1
  O2-  O258  1  0.33466328  0.34462954  -0.00152010  1
  O2-  O259  1  0.33891638  0.34894805  0.32742160  1
  O2-  O260  1  0.33641496  0.34489847  0.66562364  1
  O2-  O261  1  0.32765754  0.85003245  -0.00134092  1
  O2-  O262  1  0.33937303  0.80532368  0.33254547  1
  O2-  O263  1  0.33608749  0.85294297  0.66167948  1
  O2-  O264  1  0.67534546  0.34034646  -0.00667510  1
  O2-  O265  1  0.67255049  0.32180772  0.33070335  1
  O2-  O266  1  0.66971609  0.34241243  0.66707931  1
  O2-  O267  1  0.66207459  0.82087842  0.00220720  1
  O2-  O268  1  0.66406980  0.84240061  0.33173179  1
  O2-  O269  1  0.65864186  0.83899947  0.66848435  1
  O2-  O270  1  0.17055961  0.32795670  0.00396309  1
  O2-  O271  1  0.16632820  0.34582811  0.33518699  1
  O2-  O272  1  0.16269393  0.34828560  0.66393915  1
  O2-  O273  1  0.15494795  0.85787910  -0.01673321  1
  O2-  O274  1  0.16627487  0.82815983  0.32841070  1
  O2-  O275  1  0.17006674  0.84337289  0.66673137  1
  O2-  O276  1  0.50228183  0.34960545  0.00330962  1
  O2-  O277  1  0.50242946  0.34500002  0.33579614  1
  O2-  O278  1  0.50822460  0.34296910  0.67222947  1
  O2-  O279  1  0.49522857  0.85698712  -0.00070642  1
  O2-  O280  1  0.50592810  0.83668939  0.33960383  1
  O2-  O281  1  0.49822354  0.84739991  0.66883526  1
  O2-  O282  1  0.83434927  0.34833413  0.00249193  1
  O2-  O283  1  0.82883571  0.32556391  0.32881821  1
  O2-  O284  1  0.83985110  0.33448234  0.67189936  1
  O2-  O285  1  0.82870473  0.83421195  -0.00356222  1
  O2-  O286  1  0.82885678  0.84043937  0.32991150  1
  O2-  O287  1  0.83372169  0.84178740  0.66452183  1
  O2-  O288  1  0.00490031  0.18582366  0.16643049  1
  O2-  O289  1  -0.00606547  0.18549752  0.49594706  1
  O2-  O290  1  0.00534070  0.17539502  0.82873176  1
  O2-  O291  1  0.00575450  0.68842712  0.17071993  1
  O2-  O292  1  -0.00347938  0.67782730  0.49945716  1
  O2-  O293  1  -0.00269528  0.69191298  0.84600062  1
  O2-  O294  1  0.34748377  0.17977135  0.17381810  1
  O2-  O295  1  0.32764069  0.18009958  0.50066586  1
  O2-  O296  1  0.33890829  0.17215160  0.82561843  1
  O2-  O297  1  0.33159340  0.68254930  0.16866504  1
  O2-  O298  1  0.33931203  0.68542303  0.49964519  1
  O2-  O299  1  0.33232874  0.68366593  0.84176314  1
  O2-  O300  1  0.66531689  0.18949741  0.16039588  1
  O2-  O301  1  0.67612686  0.18378305  0.50764274  1
  O2-  O302  1  0.65833262  0.17653408  0.82266619  1
  O2-  O303  1  0.66476006  0.68364936  0.16566608  1
  O2-  O304  1  0.66588815  0.68419656  0.50741831  1
  O2-  O305  1  0.66770770  0.68967313  0.83580446  1
  O2-  O306  1  0.15941757  0.18190869  0.16528584  1
  O2-  O307  1  0.16344048  0.18140457  0.50580644  1
  O2-  O308  1  0.16845849  0.16547106  0.82924705  1
  O2-  O309  1  0.17199947  0.68256407  0.16068065  1
  O2-  O310  1  0.17963270  0.68408907  0.49169361  1
  O2-  O311  1  0.16324350  0.68273791  0.84154328  1
  O2-  O312  1  0.50362783  0.17594827  0.16278838  1
  O2-  O313  1  0.51127024  0.18128824  0.49829815  1
  O2-  O314  1  0.50190829  0.17526678  0.83291515  1
  O2-  O315  1  0.50010169  0.67507708  0.17551069  1
  O2-  O316  1  0.50790038  0.68985156  0.49626859  1
  O2-  O317  1  0.49880572  0.69417527  0.84690051  1
  O2-  O318  1  0.83297988  0.19179789  0.16439240  1
  O2-  O319  1  0.83338233  0.17398991  0.50085104  1
  O2-  O320  1  0.83565493  0.17941912  0.83653679  1
  O2-  O321  1  0.83694636  0.68481954  0.15998208  1
  O2-  O322  1  0.84165815  0.67148431  0.49778687  1
  O2-  O323  1  0.82611279  0.68207092  0.83572340  1
  O2-  O324  1  0.00077412  0.32290528  0.16541185  1
  O2-  O325  1  0.00471902  0.31735226  0.50601579  1
  O2-  O326  1  -0.01377698  0.32313904  0.81824444  1
  O2-  O327  1  0.00610732  0.81791412  0.17777766  1
  O2-  O328  1  -0.01051718  0.82189697  0.49246466  1
  O2-  O329  1  0.00549545  0.82992339  0.84232266  1
  O2-  O330  1  0.32881245  0.31741261  0.16167356  1
  O2-  O331  1  0.32511482  0.31509332  0.48986579  1
  O2-  O332  1  0.33815078  0.33073376  0.83160937  1
  O2-  O333  1  0.33263657  0.81850999  0.16709925  1
  O2-  O334  1  0.33817934  0.82748054  0.49931625  1
  O2-  O335  1  0.33750337  0.82365361  0.84008127  1
  O2-  O336  1  0.66990927  0.31183108  0.16956806  1
  O2-  O337  1  0.66540934  0.31084216  0.49763468  1
  O2-  O338  1  0.66474536  0.32509397  0.83190661  1
  O2-  O339  1  0.66326443  0.81606129  0.16518670  1
  O2-  O340  1  0.65922310  0.82037055  0.49942015  1
  O2-  O341  1  0.65636528  0.82010665  0.83051813  1
  O2-  O342  1  0.16669552  0.31525418  0.16855708  1
  O2-  O343  1  0.16287778  0.32170685  0.50370980  1
  O2-  O344  1  0.17262646  0.32713930  0.82742978  1
  O2-  O345  1  0.16980649  0.81642231  0.16913663  1
  O2-  O346  1  0.16078195  0.81327638  0.50338769  1
  O2-  O347  1  0.16601939  0.83242077  0.82998755  1
  O2-  O348  1  0.49230437  0.32558346  0.17197315  1
  O2-  O349  1  0.49538231  0.31032489  0.50317971  1
  O2-  O350  1  0.49914854  0.32082113  0.83621012  1
  O2-  O351  1  0.50260109  0.82526145  0.16235725  1
  O2-  O352  1  0.49540398  0.81052635  0.50599333  1
  O2-  O353  1  0.49394377  0.82449198  0.83601958  1
  O2-  O354  1  0.83963413  0.31639537  0.15986668  1
  O2-  O355  1  0.83228911  0.30018122  0.49984222  1
  O2-  O356  1  0.82419377  0.32255993  0.84137559  1
  O2-  O357  1  0.83458655  0.80395427  0.16624336  1
  O2-  O358  1  0.83135762  0.82692925  0.49865072  1
  O2-  O359  1  0.83609653  0.82143361  0.83349229  1
  O2-  O360  1  0.07034331  0.07610979  0.12351934  1
  O2-  O361  1  0.07607039  0.08110277  0.46418508  1
  O2-  O362  1  0.07813246  0.07865162  0.75146523  1
  O2-  O363  1  0.08289965  0.58372500  0.11557880  1
  O2-  O364  1  0.10225618  0.58171126  0.46717061  1
  O2-  O365  1  0.09935838  0.57408529  0.76057584  1
  O2-  O366  1  0.42012592  0.07579935  0.13187107  1
  O2-  O367  1  0.42206460  0.08095791  0.44508119  1
  O2-  O368  1  0.44089779  0.07737567  0.78701102  1
  O2-  O369  1  0.41198914  0.57211299  0.12830297  1
  O2-  O370  1  0.42298087  0.57913577  0.46785813  1
  O2-  O371  1  0.42062405  0.57840395  0.76856620  1
  O2-  O372  1  0.74871427  0.07819864  0.10116864  1
  O2-  O373  1  0.74837113  0.08179202  0.44149090  1
  O2-  O374  1  0.74079946  0.07811202  0.78994713  1
  O2-  O375  1  0.76241498  0.58476964  0.11128732  1
  O2-  O376  1  0.74672479  0.57134775  0.47126765  1
  O2-  O377  1  0.73569532  0.58803978  0.76786298  1
  O2-  O378  1  0.26260064  0.07744542  0.21141502  1
  O2-  O379  1  0.23607731  0.08197413  0.55894767  1
  O2-  O380  1  0.22934393  0.07434045  0.89720338  1
  O2-  O381  1  0.22510049  0.57057553  0.21521674  1
  O2-  O382  1  0.26012409  0.58252913  0.55062303  1
  O2-  O383  1  0.24354226  0.58591514  0.88115103  1
  O2-  O384  1  0.58513517  0.07827653  0.21439045  1
  O2-  O385  1  0.61020539  0.08071361  0.54905339  1
  O2-  O386  1  0.59541063  0.07870679  0.89305544  1
  O2-  O387  1  0.59412596  0.58048721  0.21433959  1
  O2-  O388  1  0.57814274  0.57975840  0.55673023  1
  O2-  O389  1  0.57194148  0.58892390  0.88543242  1
  O2-  O390  1  0.90950037  0.08648914  0.20634608  1
  O2-  O391  1  0.90556013  0.07291819  0.54708305  1
  O2-  O392  1  0.90799867  0.07813449  0.91122609  1
  O2-  O393  1  0.95217589  0.56270602  0.20450255  1
  O2-  O394  1  0.92217518  0.57494848  0.53823690  1
  O2-  O395  1  0.93162770  0.58569077  0.89011241  1
  O2-  O396  1  0.09170108  0.41635204  0.11512615  1
  O2-  O397  1  0.09096293  0.41656914  0.44716593  1
  O2-  O398  1  0.05976131  0.41471091  0.76286432  1
  O2-  O399  1  0.09560798  0.92258780  0.12489312  1
  O2-  O400  1  0.08614582  0.91340097  0.41348697  1
  O2-  O401  1  0.09028622  0.92483387  0.77197064  1
  O2-  O402  1  0.39711125  0.41557885  0.11291811  1
  O2-  O403  1  0.40806584  0.41692706  0.44674147  1
  O2-  O404  1  0.44149503  0.41912858  0.77771644  1
  O2-  O405  1  0.39113778  0.91983922  0.11639132  1
  O2-  O406  1  0.43820600  0.92058515  0.44008791  1
  O2-  O407  1  0.43052103  0.92599500  0.77859184  1
  O2-  O408  1  0.76851001  0.42112966  0.12561398  1
  O2-  O409  1  0.75296623  0.41230732  0.41783832  1
  O2-  O410  1  0.74813084  0.41565583  0.77857399  1
  O2-  O411  1  0.76792021  0.91471121  0.12210020  1
  O2-  O412  1  0.73970652  0.91556087  0.42937484  1
  O2-  O413  1  0.72958284  0.91618165  0.78500172  1
  O2-  O414  1  0.24485735  0.41576547  0.22368737  1
  O2-  O415  1  0.23844962  0.41796424  0.55293707  1
  O2-  O416  1  0.25911733  0.41944711  0.89636846  1
  O2-  O417  1  0.22565494  0.91677994  0.22824641  1
  O2-  O418  1  0.25423576  0.91773905  0.55233057  1
  O2-  O419  1  0.26522222  0.91814911  0.87562406  1
  O2-  O420  1  0.60074361  0.41684346  0.23070693  1
  O2-  O421  1  0.58259695  0.41624046  0.57242082  1
  O2-  O422  1  0.59105504  0.41979203  0.88222349  1
  O2-  O423  1  0.59366410  0.92190209  0.22052635  1
  O2-  O424  1  0.55722576  0.92267772  0.55633297  1
  O2-  O425  1  0.56699178  0.92167991  0.88337987  1
  O2-  O426  1  0.91650599  0.41430519  0.22632144  1
  O2-  O427  1  0.93564591  0.42228874  0.56236393  1
  O2-  O428  1  0.89651507  0.42261368  0.87377060  1
  O2-  O429  1  0.93331859  0.92533539  0.20505076  1
  O2-  O430  1  0.92194254  0.92442575  0.55538982  1
  O2-  O431  1  0.92572146  0.92040332  0.90671040  1
  O2-  O432  1  0.00024284  -0.01208043  0.02186151  1
  O2-  O433  1  0.00850610  0.00116953  0.33054671  1
  O2-  O434  1  0.02764515  0.00154103  0.63156522  1
  O2-  O435  1  -0.01635092  0.49239742  0.02612401  1
  O2-  O436  1  -0.00807674  0.53476588  0.35531547  1
  O2-  O437  1  0.00087479  0.49871839  0.66150024  1
  O2-  O438  1  0.36002070  -0.00393558  -0.03116254  1
  O2-  O439  1  0.33571584  0.01517078  0.33124638  1
  O2-  O440  1  0.33521051  -0.01905293  0.65663753  1
  O2-  O441  1  0.32657203  0.51222824  0.00141391  1
  O2-  O442  1  0.31807065  0.51304204  0.35727124  1
  O2-  O443  1  0.33900332  0.51009336  0.65831414  1
  O2-  O444  1  0.67239621  -0.01283784  -0.01669413  1
  O2-  O445  1  0.65494935  -0.00471256  0.33674943  1
  O2-  O446  1  0.65085679  0.00191315  0.69128943  1
  O2-  O447  1  0.68082590  0.49929976  -0.02810088  1
  O2-  O448  1  0.66220121  0.51372095  0.33929608  1
  O2-  O449  1  0.66030396  0.49522589  0.66165191  1
  O2-  O450  1  0.16584129  -0.02393821  -0.01176170  1
  O2-  O451  1  0.16846471  0.01469655  0.34631602  1
  O2-  O452  1  0.16742862  0.00976002  0.66299930  1
  O2-  O453  1  0.15752493  0.50027026  -0.00996996  1
  O2-  O454  1  0.13975926  0.49820173  0.30949589  1
  O2-  O455  1  0.15582364  0.48899999  0.64659668  1
  O2-  O456  1  0.52079093  -0.00072132  0.03096494  1
  O2-  O457  1  0.49660990  0.01490153  0.31674173  1
  O2-  O458  1  0.50344593  0.00195594  0.67975617  1
  O2-  O459  1  0.50207939  0.51261213  -0.00150012  1
  O2-  O460  1  0.48400306  0.50444208  0.31010614  1
  O2-  O461  1  0.50002793  0.50430523  0.66383426  1
  O2-  O462  1  0.83215540  -0.00846607  -0.00183702  1
  O2-  O463  1  0.84116468  -0.00808845  0.34773202  1
  O2-  O464  1  0.81557470  0.00987391  0.63959088  1
  O2-  O465  1  0.83099219  0.48327917  -0.00070700  1
  O2-  O466  1  0.82535404  0.51805504  0.34409680  1
  O2-  O467  1  0.84064716  0.48590539  0.67571158  1
  O2-  O468  1  0.42325287  0.24969887  0.73275606  1
  O2-  O469  1  0.74447908  0.24731099  0.73482278  1
  O2-  O470  1  0.76003577  0.75193261  0.72478393  1
  O2-  O471  1  0.56209426  0.24803656  0.26811588  1
  O2-  O472  1  0.08624143  0.75893007  0.74175953  1
  O2-  O473  1  0.07687941  0.74676636  0.39332844  1
  O2-  O474  1  0.25319407  0.25275754  0.27797316  1
  O2-  O475  1  0.75000680  0.75457118  0.40746468  1
  O2-  O476  1  0.08622452  0.75689973  0.04118631  1
  O2-  O477  1  0.24325469  0.75291961  0.94588123  1
  O2-  O478  1  0.25642206  0.75323002  0.60292524  1
  O2-  O479  1  0.41984094  0.24541849  0.39072421  1
  O2-  O480  1  0.25021187  0.25121547  0.60981074  1
  O2-  O481  1  0.91132160  0.74946850  0.59900683  1
  O2-  O482  1  0.93536517  0.24876286  0.27380315  1
  O2-  O483  1  0.08322532  0.24868348  0.39172047  1
  O2-  O484  1  0.58459932  0.24617040  0.94512454  1
  O2-  O485  1  0.41826971  0.75950426  0.05764925  1
  O2-  O486  1  0.40867318  0.75567269  0.72869010  1
  O2-  O487  1  0.58528478  0.24703697  0.61342724  1
  O2-  O488  1  0.42525920  0.25188589  0.05317519  1
  O2-  O489  1  0.25867535  0.25138036  0.91993014  1
  O2-  O490  1  0.92632793  0.24432825  0.93519502  1
  O2-  O491  1  0.58127274  0.74903657  0.27216524  1
  O2-  O492  1  0.09133053  0.24929225  0.74016367  1
