# generated using pymatgen
data_Ca108Mn108O277
_symmetry_space_group_name_H-M   'P 1'
_cell_length_a   16.03187623
_cell_length_b   22.31141516
_cell_length_c   16.39094184
_cell_angle_alpha   89.99915705
_cell_angle_beta   90.00244561
_cell_angle_gamma   89.99801808
_symmetry_Int_Tables_number   1
_chemical_formula_structural   Ca108Mn108O277
_chemical_formula_sum   'Ca108 Mn108 O277'
_cell_volume   5862.93902278
_cell_formula_units_Z   1
loop_
 _symmetry_equiv_pos_site_id
 _symmetry_equiv_pos_as_xyz
  1  'x, y, z'
loop_
 _atom_type_symbol
 _atom_type_oxidation_number
  Ca2+  2.0
  Mn3.34+  3.34
  O2-  -2.0
loop_
 _atom_site_type_symbol
 _atom_site_label
 _atom_site_symmetry_multiplicity
 _atom_site_fract_x
 _atom_site_fract_y
 _atom_site_fract_z
 _atom_site_occupancy
  Ca2+  Ca0  1  0.06895651  0.24581360  0.26741522  1
  Ca2+  Ca1  1  0.07670028  0.24904218  0.56807084  1
  Ca2+  Ca2  1  0.06700551  0.25438836  0.92203889  1
  Ca2+  Ca3  1  0.07647121  0.76350203  0.25916409  1
  Ca2+  Ca4  1  0.08721244  0.75949740  0.58762883  1
  Ca2+  Ca5  1  0.07573202  0.75869585  0.89969225  1
  Ca2+  Ca6  1  0.44162442  0.24375368  0.23373427  1
  Ca2+  Ca7  1  0.40260545  0.23758277  0.59232990  1
  Ca2+  Ca8  1  0.42938159  0.24853640  0.91441458  1
  Ca2+  Ca9  1  0.44228842  0.75339937  0.24073177  1
  Ca2+  Ca10  1  0.41066018  0.76955309  0.58743957  1
  Ca2+  Ca11  1  0.41824281  0.75940070  0.92035036  1
  Ca2+  Ca12  1  0.74083583  0.24025829  0.23540340  1
  Ca2+  Ca13  1  0.76215244  0.24163323  0.58777237  1
  Ca2+  Ca14  1  0.74797884  0.22951429  0.93060436  1
  Ca2+  Ca15  1  0.72940752  0.74413085  0.25307710  1
  Ca2+  Ca16  1  0.74605633  0.75072812  0.58068560  1
  Ca2+  Ca17  1  0.75930697  0.75481924  0.91332586  1
  Ca2+  Ca18  1  0.25500282  0.24988260  0.08162413  1
  Ca2+  Ca19  1  0.21828292  0.24198704  0.43779109  1
  Ca2+  Ca20  1  0.25917636  0.24019429  0.73625981  1
  Ca2+  Ca21  1  0.27310420  0.76207844  0.07412646  1
  Ca2+  Ca22  1  0.23826391  0.75761216  0.42399280  1
  Ca2+  Ca23  1  0.25303157  0.76416385  0.75072076  1
  Ca2+  Ca24  1  0.59932377  0.23784689  0.08759521  1
  Ca2+  Ca25  1  0.59464488  0.25003298  0.40621983  1
  Ca2+  Ca26  1  0.58282084  0.23866915  0.75267920  1
  Ca2+  Ca27  1  0.57221219  0.74955235  0.10006153  1
  Ca2+  Ca28  1  0.59271301  0.74627763  0.40102178  1
  Ca2+  Ca29  1  0.58271336  0.75704865  0.74516211  1
  Ca2+  Ca30  1  0.89450239  0.22887720  0.08152794  1
  Ca2+  Ca31  1  0.93152790  0.23456624  0.42522497  1
  Ca2+  Ca32  1  0.90733201  0.23864394  0.74139617  1
  Ca2+  Ca33  1  0.90399930  0.76416298  0.07766792  1
  Ca2+  Ca34  1  0.91273410  0.75624164  0.41905235  1
  Ca2+  Ca35  1  0.91380793  0.75250696  0.75512828  1
  Ca2+  Ca36  1  0.57231211  0.61454404  0.10896686  1
  Ca2+  Ca37  1  0.22315843  0.57633579  0.40925817  1
  Ca2+  Ca38  1  0.41177424  0.58594393  0.92284236  1
  Ca2+  Ca39  1  0.75209145  0.59205541  0.90319085  1
  Ca2+  Ca40  1  0.21212076  0.08532650  0.43065234  1
  Ca2+  Ca41  1  0.60275239  0.10155806  0.09455517  1
  Ca2+  Ca42  1  0.27567935  0.59297716  0.08529381  1
  Ca2+  Ca43  1  0.61122391  0.60185915  0.73295872  1
  Ca2+  Ca44  1  0.90541638  0.59491957  0.08230016  1
  Ca2+  Ca45  1  0.06087728  0.57791324  0.58751686  1
  Ca2+  Ca46  1  0.81723111  0.09522814  0.58771642  1
  Ca2+  Ca47  1  0.42504989  0.59072105  0.58399081  1
  Ca2+  Ca48  1  0.46674112  0.09293564  0.24609903  1
  Ca2+  Ca49  1  0.45008107  0.61426020  0.24999238  1
  Ca2+  Ca50  1  0.90978524  0.57845116  0.43089267  1
  Ca2+  Ca51  1  0.06946051  0.09391051  0.57007073  1
  Ca2+  Ca52  1  0.76490833  0.59270796  0.90298574  1
  Ca2+  Ca53  1  0.08688457  0.58352843  0.26670711  1
  Ca2+  Ca54  1  0.74915077  0.60179287  0.58883686  1
  Ca2+  Ca55  1  0.94887500  0.08498164  0.40158253  1
  Ca2+  Ca56  1  0.91631643  0.58953787  0.73579350  1
  Ca2+  Ca57  1  0.59851935  0.09286357  0.38013221  1
  Ca2+  Ca58  1  0.41602380  0.10348939  0.90793263  1
  Ca2+  Ca59  1  0.60833149  0.58918919  0.39067574  1
  Ca2+  Ca60  1  0.07164701  0.08913529  0.25827758  1
  Ca2+  Ca61  1  0.89731617  0.58119392  0.43063446  1
  Ca2+  Ca62  1  0.07351933  0.58324088  0.26635684  1
  Ca2+  Ca63  1  0.26158255  0.59221849  0.08454243  1
  Ca2+  Ca64  1  0.90567166  0.58968612  0.73509911  1
  Ca2+  Ca65  1  0.25897121  0.08220481  0.68638552  1
  Ca2+  Ca66  1  0.91765588  0.59465039  0.07995547  1
  Ca2+  Ca67  1  0.05919536  0.09395101  0.56989748  1
  Ca2+  Ca68  1  0.74494085  0.10532051  0.23749418  1
  Ca2+  Ca69  1  0.23570136  0.09441858  0.07447137  1
  Ca2+  Ca70  1  0.43772074  0.59231113  0.58206096  1
  Ca2+  Ca71  1  0.21817154  0.07984046  0.43387576  1
  Ca2+  Ca72  1  0.92403140  0.92269877  0.72237983  1
  Ca2+  Ca73  1  0.24098913  0.91908640  0.40383919  1
  Ca2+  Ca74  1  0.41596503  0.90605687  0.91714007  1
  Ca2+  Ca75  1  0.08309718  0.90528505  0.92515472  1
  Ca2+  Ca76  1  0.74345413  0.91679050  0.91795949  1
  Ca2+  Ca77  1  0.23613198  0.39606935  0.08934085  1
  Ca2+  Ca78  1  0.91681472  0.40929263  0.73680248  1
  Ca2+  Ca79  1  0.23315957  0.40167911  0.75369043  1
  Ca2+  Ca80  1  0.57626678  0.90636406  0.74427665  1
  Ca2+  Ca81  1  0.08910486  0.40790074  0.26230884  1
  Ca2+  Ca82  1  0.24992435  0.91244206  0.73593798  1
  Ca2+  Ca83  1  0.90786289  0.41267152  0.74141357  1
  Ca2+  Ca84  1  0.41580212  0.39135911  0.25205362  1
  Ca2+  Ca85  1  0.93025871  0.39448703  0.08433591  1
  Ca2+  Ca86  1  0.23096857  0.40437095  0.41716107  1
  Ca2+  Ca87  1  0.92573665  0.40860937  0.43311874  1
  Ca2+  Ca88  1  0.41147536  0.39648468  0.91263127  1
  Ca2+  Ca89  1  0.91594680  0.91356355  0.08794493  1
  Ca2+  Ca90  1  0.58812428  0.39617179  0.74992524  1
  Ca2+  Ca91  1  0.41620166  0.39131668  0.57468918  1
  Ca2+  Ca92  1  0.75450914  0.91529606  0.91849668  1
  Ca2+  Ca93  1  0.92210689  0.92016371  0.73188848  1
  Ca2+  Ca94  1  0.58447054  0.39322575  0.08903794  1
  Ca2+  Ca95  1  0.24443281  0.40210367  0.75159938  1
  Ca2+  Ca96  1  0.73291482  0.40403088  0.26625044  1
  Ca2+  Ca97  1  0.08218173  0.93090754  0.27171683  1
  Ca2+  Ca98  1  0.58854386  0.90940250  0.10335903  1
  Ca2+  Ca99  1  0.56932667  0.91602881  0.38196582  1
  Ca2+  Ca100  1  0.74969797  0.39609996  0.90676796  1
  Ca2+  Ca101  1  0.76123603  0.90579817  0.58529865  1
  Ca2+  Ca102  1  0.74095145  0.40099293  0.27140463  1
  Ca2+  Ca103  1  0.23120838  0.92189601  0.40757650  1
  Ca2+  Ca104  1  0.56065438  0.92133563  0.38054530  1
  Ca2+  Ca105  1  0.08622445  0.92478023  0.57343727  1
  Ca2+  Ca106  1  0.07181517  0.93112073  0.27112731  1
  Ca2+  Ca107  1  0.75369910  0.40584943  0.57180387  1
  Mn3.34+  Mn108  1  0.08206048  0.32799900  0.08511885  1
  Mn3.34+  Mn109  1  0.07839946  0.33674469  0.41787068  1
  Mn3.34+  Mn110  1  0.07880471  0.33146937  0.74713086  1
  Mn3.34+  Mn111  1  0.08669299  0.83673273  0.09175643  1
  Mn3.34+  Mn112  1  0.07835538  0.83185026  0.41978520  1
  Mn3.34+  Mn113  1  0.08555865  0.83587159  0.74829513  1
  Mn3.34+  Mn114  1  0.41563929  0.32901022  0.08191888  1
  Mn3.34+  Mn115  1  0.41425721  0.32553865  0.41931011  1
  Mn3.34+  Mn116  1  0.41815846  0.32857711  0.74919005  1
  Mn3.34+  Mn117  1  0.41898115  0.83419941  0.08561382  1
  Mn3.34+  Mn118  1  0.41296997  0.83000031  0.41513974  1
  Mn3.34+  Mn119  1  0.41629277  0.83686925  0.74887557  1
  Mn3.34+  Mn120  1  0.75282027  0.33189479  0.08260477  1
  Mn3.34+  Mn121  1  0.75227107  0.33403351  0.42518845  1
  Mn3.34+  Mn122  1  0.74634931  0.32752759  0.74640822  1
  Mn3.34+  Mn123  1  0.74930206  0.83745684  0.09032719  1
  Mn3.34+  Mn124  1  0.75343279  0.83177838  0.41523876  1
  Mn3.34+  Mn125  1  0.74730090  0.83317567  0.75028770  1
  Mn3.34+  Mn126  1  0.24925443  0.32831351  0.25289317  1
  Mn3.34+  Mn127  1  0.24536942  0.33068991  0.57909520  1
  Mn3.34+  Mn128  1  0.24368123  0.33021495  0.91568695  1
  Mn3.34+  Mn129  1  0.25744336  0.83894838  0.24094185  1
  Mn3.34+  Mn130  1  0.24915565  0.84269597  0.57930053  1
  Mn3.34+  Mn131  1  0.24879811  0.83539146  0.91868158  1
  Mn3.34+  Mn132  1  0.58182859  0.32543209  0.25205713  1
  Mn3.34+  Mn133  1  0.58486934  0.32885102  0.57906320  1
  Mn3.34+  Mn134  1  0.58424193  0.33082215  0.91655054  1
  Mn3.34+  Mn135  1  0.58600925  0.83468486  0.24789102  1
  Mn3.34+  Mn136  1  0.58041166  0.83879766  0.57265088  1
  Mn3.34+  Mn137  1  0.58250225  0.83686730  0.91928886  1
  Mn3.34+  Mn138  1  0.91762719  0.32763430  0.25060100  1
  Mn3.34+  Mn139  1  0.91862932  0.33298718  0.58111548  1
  Mn3.34+  Mn140  1  0.91595207  0.33267936  0.91358483  1
  Mn3.34+  Mn141  1  0.90830770  0.84665311  0.25213382  1
  Mn3.34+  Mn142  1  0.91736433  0.83581303  0.57744681  1
  Mn3.34+  Mn143  1  0.91846151  0.83849804  0.91526405  1
  Mn3.34+  Mn144  1  0.75659438  0.16307666  0.42251027  1
  Mn3.34+  Mn145  1  0.08262815  0.66631167  0.74746615  1
  Mn3.34+  Mn146  1  0.42048366  0.66970470  0.75099236  1
  Mn3.34+  Mn147  1  0.07734932  0.67845334  0.08415899  1
  Mn3.34+  Mn148  1  0.58640069  0.16377536  0.91381067  1
  Mn3.34+  Mn149  1  0.74928099  0.67304773  0.08594629  1
  Mn3.34+  Mn150  1  0.91009208  0.67453214  0.25263245  1
  Mn3.34+  Mn151  1  0.24619899  0.15976952  0.24385458  1
  Mn3.34+  Mn152  1  0.07691671  0.16132863  0.76165893  1
  Mn3.34+  Mn153  1  0.74998316  0.16164417  0.75290407  1
  Mn3.34+  Mn154  1  0.58410502  0.67343620  0.57886303  1
  Mn3.34+  Mn155  1  0.24224764  0.65963161  0.90448668  1
  Mn3.34+  Mn156  1  0.07446707  0.66880682  0.42461165  1
  Mn3.34+  Mn157  1  0.41896182  0.16537792  0.08009851  1
  Mn3.34+  Mn158  1  0.25667426  0.16430941  0.24588577  1
  Mn3.34+  Mn159  1  0.24362687  0.66057134  0.58411491  1
  Mn3.34+  Mn160  1  0.74982536  0.66727542  0.41811495  1
  Mn3.34+  Mn161  1  0.24868436  0.68192565  0.25547596  1
  Mn3.34+  Mn162  1  0.25787439  0.67623007  0.25339538  1
  Mn3.34+  Mn163  1  0.57861930  0.66352088  0.91541235  1
  Mn3.34+  Mn164  1  0.25299966  0.66661288  0.58701369  1
  Mn3.34+  Mn165  1  0.41962759  0.67459336  0.42340411  1
  Mn3.34+  Mn166  1  0.91995682  0.66896732  0.90944320  1
  Mn3.34+  Mn167  1  0.24818321  0.17285665  0.91572432  1
  Mn3.34+  Mn168  1  0.08497727  0.68498545  0.08165272  1
  Mn3.34+  Mn169  1  0.59118736  0.67050947  0.91962107  1
  Mn3.34+  Mn170  1  0.07341246  0.16235524  0.08099187  1
  Mn3.34+  Mn171  1  0.91464206  0.67241350  0.58336886  1
  Mn3.34+  Mn172  1  0.59186885  0.16751184  0.58410557  1
  Mn3.34+  Mn173  1  0.41147362  0.16919282  0.42329424  1
  Mn3.34+  Mn174  1  0.91673980  0.16312445  0.24793941  1
  Mn3.34+  Mn175  1  0.90956741  0.16325144  0.91717306  1
  Mn3.34+  Mn176  1  0.25278207  0.66433019  0.90569709  1
  Mn3.34+  Mn177  1  0.08659929  0.16601235  0.75830938  1
  Mn3.34+  Mn178  1  0.42190333  0.16224984  0.74473882  1
  Mn3.34+  Mn179  1  0.42390637  0.16399456  0.42457756  1
  Mn3.34+  Mn180  1  0.07500610  0.00207191  0.07681941  1
  Mn3.34+  Mn181  1  0.41764795  0.00171427  0.74354037  1
  Mn3.34+  Mn182  1  0.43083191  0.50060624  0.08331884  1
  Mn3.34+  Mn183  1  0.58899006  0.49678882  0.57391737  1
  Mn3.34+  Mn184  1  0.74775001  0.00574857  0.73924057  1
  Mn3.34+  Mn185  1  0.40738990  -0.00092540  0.08649276  1
  Mn3.34+  Mn186  1  0.42027765  0.49512896  0.08164885  1
  Mn3.34+  Mn187  1  0.42469574  0.49571125  0.41802169  1
  Mn3.34+  Mn188  1  0.76085173  0.00099637  0.40512688  1
  Mn3.34+  Mn189  1  0.75457866  -0.00159201  0.07758962  1
  Mn3.34+  Mn190  1  0.24662130  0.00809005  0.90757107  1
  Mn3.34+  Mn191  1  0.74133557  0.49858329  0.73911426  1
  Mn3.34+  Mn192  1  0.58502017  0.00477810  0.91950909  1
  Mn3.34+  Mn193  1  0.57510973  0.01255128  0.58747408  1
  Mn3.34+  Mn194  1  0.89325439  0.50122353  0.25869247  1
  Mn3.34+  Mn195  1  0.58515717  0.00463619  0.58261384  1
  Mn3.34+  Mn196  1  0.08239065  0.50091975  0.08248686  1
  Mn3.34+  Mn197  1  0.94353500  0.49939064  0.92623214  1
  Mn3.34+  Mn198  1  0.41468004  0.00391260  0.41613289  1
  Mn3.34+  Mn199  1  0.58370740  0.49989329  0.90598703  1
  Mn3.34+  Mn200  1  0.23567810  0.00399125  0.90624023  1
  Mn3.34+  Mn201  1  0.08847606  0.50170647  0.75509636  1
  Mn3.34+  Mn202  1  0.40908413  0.50657192  0.74678709  1
  Mn3.34+  Mn203  1  0.42287809  0.49996057  0.74775623  1
  Mn3.34+  Mn204  1  0.58916478  0.49782621  0.25342366  1
  Mn3.34+  Mn205  1  0.08557167  0.00267969  0.74535866  1
  Mn3.34+  Mn206  1  0.74978230  0.50116238  0.08561165  1
  Mn3.34+  Mn207  1  0.41402484  0.50057459  0.41753443  1
  Mn3.34+  Mn208  1  0.24140424  0.49653209  0.58589882  1
  Mn3.34+  Mn209  1  0.73880965  0.50766405  0.08708798  1
  Mn3.34+  Mn210  1  0.22311860  0.49862100  0.92757343  1
  Mn3.34+  Mn211  1  0.90940343  0.49744188  0.25620817  1
  Mn3.34+  Mn212  1  0.77246659  -0.00548909  0.40316370  1
  Mn3.34+  Mn213  1  0.41780332  -0.00508797  0.08871259  1
  Mn3.34+  Mn214  1  0.25476983  0.49861879  0.24887035  1
  Mn3.34+  Mn215  1  0.92182921  0.00865847  0.92697349  1
  O2-  O216  1  -0.00090915  0.17845103  -0.00082620  1
  O2-  O217  1  0.00364740  0.16295838  0.32443015  1
  O2-  O218  1  0.00122262  0.14533798  0.67924486  1
  O2-  O219  1  -0.00146469  0.65129142  0.00015680  1
  O2-  O220  1  0.00061480  0.65551818  0.32797147  1
  O2-  O221  1  -0.00259156  0.65791420  0.66560529  1
  O2-  O222  1  0.32704450  0.15800284  0.00315844  1
  O2-  O223  1  0.34904858  0.15217123  0.32573871  1
  O2-  O224  1  0.33727144  0.16369576  0.67286230  1
  O2-  O225  1  0.33006485  0.64978307  -0.00751035  1
  O2-  O226  1  0.33715563  0.66276911  0.33807430  1
  O2-  O227  1  0.33598110  0.64352681  0.66478394  1
  O2-  O228  1  0.65869436  0.16087447  -0.00363239  1
  O2-  O229  1  0.68082191  0.17099038  0.33970970  1
  O2-  O230  1  0.67753308  0.14844686  0.65433264  1
  O2-  O231  1  0.67055009  0.64072048  0.00068069  1
  O2-  O232  1  0.67857912  0.65969095  0.33656972  1
  O2-  O233  1  0.66365922  0.68150845  0.66106964  1
  O2-  O234  1  0.16695018  0.17986009  0.00321854  1
  O2-  O235  1  0.17347637  0.14816414  0.33286150  1
  O2-  O236  1  0.16079182  0.15437246  0.67641922  1
  O2-  O237  1  0.17330501  0.65375387  0.00975460  1
  O2-  O238  1  0.16607613  0.65468689  0.33421267  1
  O2-  O239  1  0.15870063  0.64197979  0.65971608  1
  O2-  O240  1  0.49652472  0.15189145  -0.00095875  1
  O2-  O241  1  0.50274925  0.16899895  0.34215716  1
  O2-  O242  1  0.50541217  0.15775535  0.66645752  1
  O2-  O243  1  0.50014398  0.64400508  -0.00888973  1
  O2-  O244  1  0.50580852  0.66689490  0.35456940  1
  O2-  O245  1  0.50489131  0.65285336  0.66689369  1
  O2-  O246  1  0.83572892  0.15900104  -0.00634351  1
  O2-  O247  1  0.84090717  0.15487027  0.34059534  1
  O2-  O248  1  0.83296916  0.16504569  0.67823577  1
  O2-  O249  1  0.83376288  0.64942436  -0.00432431  1
  O2-  O250  1  0.84571702  0.65629828  0.34762901  1
  O2-  O251  1  0.83916192  0.66745286  0.66909748  1
  O2-  O252  1  0.00174311  0.33354409  -0.00092958  1
  O2-  O253  1  -0.00173080  0.34667186  0.32986170  1
  O2-  O254  1  -0.00143638  0.35398704  0.66666304  1
  O2-  O255  1  -0.00056171  0.84315242  0.00542316  1
  O2-  O256  1  0.00211264  0.83963529  0.32937643  1
  O2-  O257  1  -0.00370366  0.83960468  0.66682909  1
  O2-  O258  1  0.32655063  0.34184245  0.00214657  1
  O2-  O259  1  0.32803195  0.34386629  0.33842913  1
  O2-  O260  1  0.32887470  0.34531129  0.67013750  1
  O2-  O261  1  0.33495567  0.84523121  -0.00089466  1
  O2-  O262  1  0.32802732  0.80766373  0.33320283  1
  O2-  O263  1  0.32933105  0.84513021  0.66727742  1
  O2-  O264  1  0.66789144  0.34679676  0.00057605  1
  O2-  O265  1  0.66905583  0.32961720  0.33687964  1
  O2-  O266  1  0.67021092  0.34954049  0.66057318  1
  O2-  O267  1  0.67073997  0.85435590  -0.00065080  1
  O2-  O268  1  0.66252837  0.84801787  0.34091618  1
  O2-  O269  1  0.66722515  0.83283342  0.66365455  1
  O2-  O270  1  0.16780972  0.31511825  0.00271299  1
  O2-  O271  1  0.16323591  0.33873317  0.33025435  1
  O2-  O272  1  0.16711175  0.34621824  0.66667886  1
  O2-  O273  1  0.15782754  0.82671505  -0.00132426  1
  O2-  O274  1  0.16683822  0.83556492  0.33778120  1
  O2-  O275  1  0.16145683  0.85323027  0.65954927  1
  O2-  O276  1  0.49729025  0.34828085  -0.00204862  1
  O2-  O277  1  0.49163254  0.32295473  0.32803897  1
  O2-  O278  1  0.49944234  0.34788741  0.66804741  1
  O2-  O279  1  0.50180346  0.85704093  0.00290081  1
  O2-  O280  1  0.49938954  0.83105059  0.33488550  1
  O2-  O281  1  0.50606473  0.83436362  0.66554591  1
  O2-  O282  1  0.83436300  0.35233479  0.00087360  1
  O2-  O283  1  0.83174672  0.34671113  0.33415357  1
  O2-  O284  1  0.83249253  0.34318470  0.66711561  1
  O2-  O285  1  0.83212012  0.85244518  -0.00302287  1
  O2-  O286  1  0.83560452  0.81374278  0.32795928  1
  O2-  O287  1  0.83625868  0.82828935  0.66880901  1
  O2-  O288  1  0.00008896  0.18481871  0.16429955  1
  O2-  O289  1  0.00187831  0.17035123  0.50385200  1
  O2-  O290  1  -0.00060556  0.18387300  0.83520968  1
  O2-  O291  1  -0.00313311  0.68996946  0.16995120  1
  O2-  O292  1  -0.00325305  0.69092543  0.50666221  1
  O2-  O293  1  -0.00420739  0.68449692  0.82634127  1
  O2-  O294  1  0.33401242  0.18395034  0.16460564  1
  O2-  O295  1  0.32209932  0.17838269  0.48756884  1
  O2-  O296  1  0.33504618  0.18936133  0.84333173  1
  O2-  O297  1  0.32102475  0.68176130  0.15818353  1
  O2-  O298  1  0.33256528  0.68850727  0.50321796  1
  O2-  O299  1  0.34549178  0.68289221  0.83749128  1
  O2-  O300  1  0.66515078  0.17265611  0.16796719  1
  O2-  O301  1  0.66622723  0.18729264  0.49563818  1
  O2-  O302  1  0.66355706  0.18151625  0.83361608  1
  O2-  O303  1  0.66753150  0.68261410  0.15530870  1
  O2-  O304  1  0.66497906  0.67946262  0.49866565  1
  O2-  O305  1  0.67480971  0.68252758  0.84369469  1
  O2-  O306  1  0.16500132  0.18489829  0.16236583  1
  O2-  O307  1  0.15255477  0.16488550  0.50199027  1
  O2-  O308  1  0.16404394  0.19329735  0.83460188  1
  O2-  O309  1  0.16166738  0.69226518  0.17451202  1
  O2-  O310  1  0.16988706  0.67862591  0.49767561  1
  O2-  O311  1  0.16299113  0.68444302  0.83030460  1
  O2-  O312  1  0.49879363  0.17079829  0.15721129  1
  O2-  O313  1  0.49742571  0.19096224  0.50318727  1
  O2-  O314  1  0.49555263  0.17885556  0.83730440  1
  O2-  O315  1  0.49797676  0.68044321  0.16870024  1
  O2-  O316  1  0.48632269  0.68689098  0.51728009  1
  O2-  O317  1  0.51268793  0.68878871  0.82740911  1
  O2-  O318  1  0.82929105  0.17489383  0.17807301  1
  O2-  O319  1  0.83108954  0.18018021  0.50074479  1
  O2-  O320  1  0.82997416  0.18152712  0.83431248  1
  O2-  O321  1  0.84064568  0.68634073  0.15768183  1
  O2-  O322  1  0.83249124  0.68592498  0.50491628  1
  O2-  O323  1  0.83336307  0.67783870  0.83883823  1
  O2-  O324  1  -0.00019103  0.31833554  0.16794374  1
  O2-  O325  1  -0.00612592  0.32716890  0.49513483  1
  O2-  O326  1  -0.00824907  0.32646239  0.82269192  1
  O2-  O327  1  0.00122213  0.80882887  0.16245967  1
  O2-  O328  1  0.00025326  0.81745347  0.50332965  1
  O2-  O329  1  -0.00283883  0.82538782  0.83014481  1
  O2-  O330  1  0.33668880  0.31853362  0.17128840  1
  O2-  O331  1  0.33412059  0.31019418  0.50233883  1
  O2-  O332  1  0.33108359  0.32058819  0.83266288  1
  O2-  O333  1  0.34037230  0.81197088  0.17150731  1
  O2-  O334  1  0.32741406  0.81947252  0.49550425  1
  O2-  O335  1  0.33583899  0.82493033  0.83568159  1
  O2-  O336  1  0.67133997  0.32910930  0.17367858  1
  O2-  O337  1  0.67190449  0.31394217  0.50238801  1
  O2-  O338  1  0.66444387  0.32271782  0.82974835  1
  O2-  O339  1  0.66473541  0.82245542  0.16264890  1
  O2-  O340  1  0.67063440  0.82120731  0.50362053  1
  O2-  O341  1  0.66748185  0.81553688  0.83355295  1
  O2-  O342  1  0.17017303  0.31716823  0.16432726  1
  O2-  O343  1  0.16646004  0.32739719  0.49608439  1
  O2-  O344  1  0.17070842  0.31818877  0.82432421  1
  O2-  O345  1  0.17230579  0.80776116  0.16770436  1
  O2-  O346  1  0.16280694  0.82000977  0.50129271  1
  O2-  O347  1  0.16559198  0.82345795  0.83249197  1
  O2-  O348  1  0.50383875  0.32519356  0.16398796  1
  O2-  O349  1  0.49598060  0.31106377  0.50420445  1
  O2-  O350  1  0.49748842  0.32453339  0.83405477  1
  O2-  O351  1  0.50724221  0.82475303  0.16215506  1
  O2-  O352  1  0.50171230  0.80871890  0.49359708  1
  O2-  O353  1  0.50112238  0.82376420  0.83457339  1
  O2-  O354  1  0.82927165  0.32991238  0.17227777  1
  O2-  O355  1  0.83407049  0.31443015  0.49974258  1
  O2-  O356  1  0.83266259  0.33016272  0.82486901  1
  O2-  O357  1  0.83608588  0.82405722  0.16337409  1
  O2-  O358  1  0.83285840  0.81564341  0.50491298  1
  O2-  O359  1  0.82962486  0.82029273  0.83272483  1
  O2-  O360  1  0.09793193  0.07768341  0.11750234  1
  O2-  O361  1  0.08212640  0.06540861  0.44196336  1
  O2-  O362  1  0.10076199  0.07937627  0.78709254  1
  O2-  O363  1  0.07631084  0.58537028  0.12351550  1
  O2-  O364  1  0.06713405  0.58625784  0.44864186  1
  O2-  O365  1  0.05989812  0.58372465  0.76869797  1
  O2-  O366  1  0.40422113  0.08087997  0.11501905  1
  O2-  O367  1  0.41587839  0.08105672  0.45442549  1
  O2-  O368  1  0.40493733  0.08111668  0.77456976  1
  O2-  O369  1  0.40243893  0.57641833  0.12850156  1
  O2-  O370  1  0.41835789  0.58236997  0.45004997  1
  O2-  O371  1  0.43200330  0.58382748  0.78956581  1
  O2-  O372  1  0.73617018  0.06854874  0.11335372  1
  O2-  O373  1  0.75249637  0.07318789  0.45068194  1
  O2-  O374  1  0.74724322  0.07915958  0.77541132  1
  O2-  O375  1  0.77086881  0.58548477  0.12249567  1
  O2-  O376  1  0.76019527  0.58533909  0.45345308  1
  O2-  O377  1  0.75395188  0.57960121  0.77000630  1
  O2-  O378  1  0.25339001  0.08009366  0.21394156  1
  O2-  O379  1  0.20241957  0.06197699  0.56235450  1
  O2-  O380  1  0.25614186  0.08837095  0.88440071  1
  O2-  O381  1  0.23344004  0.58631886  0.21606032  1
  O2-  O382  1  0.26582443  0.57922392  0.53805598  1
  O2-  O383  1  0.25375898  0.57809788  0.87804317  1
  O2-  O384  1  0.59761335  0.07336363  0.23143716  1
  O2-  O385  1  0.58476049  0.08528984  0.53414435  1
  O2-  O386  1  0.56549297  0.08138137  0.89282640  1
  O2-  O387  1  0.57772852  0.57425180  0.22969500  1
  O2-  O388  1  0.56852955  0.57820531  0.53709867  1
  O2-  O389  1  0.60595865  0.58358598  0.87040629  1
  O2-  O390  1  0.92353652  0.08471460  0.23139071  1
  O2-  O391  1  0.93628889  0.06839343  0.53792845  1
  O2-  O392  1  0.92663414  0.08273925  0.88926438  1
  O2-  O393  1  0.93324925  0.58044355  0.21080807  1
  O2-  O394  1  0.91944899  0.57868925  0.56530479  1
  O2-  O395  1  0.90570258  0.57915205  0.87510342  1
  O2-  O396  1  0.08743529  0.42059105  0.11099541  1
  O2-  O397  1  0.08342964  0.41892634  0.41949952  1
  O2-  O398  1  0.09668994  0.41968299  0.78022661  1
  O2-  O399  1  0.08512914  0.92601963  0.12843743  1
  O2-  O400  1  0.09239333  0.91407902  0.43184513  1
  O2-  O401  1  0.06695843  0.92564434  0.78628438  1
  O2-  O402  1  0.41753033  0.41508680  0.11297877  1
  O2-  O403  1  0.41535194  0.41434746  0.43968439  1
  O2-  O404  1  0.40393084  0.41920976  0.77620769  1
  O2-  O405  1  0.41456218  0.91635864  0.12237845  1
  O2-  O406  1  0.42350256  0.92040069  0.42479996  1
  O2-  O407  1  0.42586946  0.92177647  0.78151452  1
  O2-  O408  1  0.73907813  0.42189593  0.11677539  1
  O2-  O409  1  0.75210582  0.41305950  0.43008417  1
  O2-  O410  1  0.74662220  0.41919680  0.76899741  1
  O2-  O411  1  0.75208448  0.92225243  0.11676120  1
  O2-  O412  1  0.76421616  0.91944299  0.44602482  1
  O2-  O413  1  0.75019537  0.92501997  0.78039820  1
  O2-  O414  1  0.25090053  0.41422308  0.22588355  1
  O2-  O415  1  0.26926121  0.41678357  0.55016449  1
  O2-  O416  1  0.26077867  0.42212187  0.88532730  1
  O2-  O417  1  0.22237013  0.91912620  0.25800589  1
  O2-  O418  1  0.23931867  0.91998757  0.54388761  1
  O2-  O419  1  0.24107199  0.92163227  0.88178399  1
  O2-  O420  1  0.59149135  0.41496066  0.23304324  1
  O2-  O421  1  0.58042020  0.41512314  0.55823465  1
  O2-  O422  1  0.58359679  0.41646535  0.88726698  1
  O2-  O423  1  0.57618422  0.91699529  0.24258617  1
  O2-  O424  1  0.57919127  0.92905621  0.52537536  1
  O2-  O425  1  0.60234217  0.92642189  0.87609572  1
  O2-  O426  1  0.91843227  0.41821615  0.21826951  1
  O2-  O427  1  0.89620663  0.41800308  0.56788925  1
  O2-  O428  1  0.90629039  0.42378624  0.88141320  1
  O2-  O429  1  0.94664419  0.92084503  0.21975181  1
  O2-  O430  1  0.91277343  0.91466275  0.58094584  1
  O2-  O431  1  0.90372976  0.93267497  0.86552544  1
  O2-  O432  1  -0.00127295  -0.02756366  -0.00208354  1
  O2-  O433  1  0.01540350  0.01037764  0.31370409  1
  O2-  O434  1  0.00663286  -0.00742635  0.66690656  1
  O2-  O435  1  -0.03036552  0.50502984  0.05106884  1
  O2-  O436  1  -0.00419986  0.52047541  0.33333314  1
  O2-  O437  1  -0.01635951  0.49875611  0.70824242  1
  O2-  O438  1  0.33582640  0.00303198  -0.01021795  1
  O2-  O439  1  0.30281368  0.00610726  0.39686949  1
  O2-  O440  1  0.31725848  -0.00606980  0.70548013  1
  O2-  O441  1  0.33695653  0.51593438  -0.00142559  1
  O2-  O442  1  0.31750363  0.51036882  0.35309773  1
  O2-  O443  1  0.35331245  0.51076114  0.64254197  1
  O2-  O444  1  0.67134859  -0.01428011  -0.00204444  1
  O2-  O445  1  0.65975663  -0.00629046  0.36523608  1
  O2-  O446  1  0.67407379  -0.01798618  0.65378540  1
  O2-  O447  1  0.67012356  0.51017217  -0.00860190  1
  O2-  O448  1  0.69722757  0.49781447  0.29196008  1
  O2-  O449  1  0.67609458  0.52184656  0.64795230  1
  O2-  O450  1  0.16327104  0.00212616  -0.00174609  1
  O2-  O451  1  0.16359164  -0.00045063  0.34550772  1
  O2-  O452  1  0.16539154  -0.01388494  0.68063599  1
  O2-  O453  1  0.19366138  0.50755645  0.05131154  1
  O2-  O454  1  0.15525420  0.51012559  0.31534760  1
  O2-  O455  1  0.18958828  0.49497388  0.69624177  1
  O2-  O456  1  0.50152594  -0.00992738  0.00333425  1
  O2-  O457  1  0.50626069  0.01282573  0.35299923  1
  O2-  O458  1  0.51390852  -0.00606739  0.68285288  1
  O2-  O459  1  0.49958754  0.51105710  -0.00924904  1
  O2-  O460  1  0.49665120  0.50164707  0.32604812  1
  O2-  O461  1  0.50939720  0.51282656  0.66668603  1
  O2-  O462  1  0.83313954  -0.01875814  -0.00401398  1
  O2-  O463  1  0.86008200  0.00971599  0.34674413  1
  O2-  O464  1  0.83474713  -0.00964579  0.67372271  1
  O2-  O465  1  0.82809404  0.52118628  -0.00798093  1
  O2-  O466  1  0.85136051  0.49886377  0.36749655  1
  O2-  O467  1  0.84043415  0.50324968  0.69369103  1
  O2-  O468  1  0.91950091  0.74816983  0.94016896  1
  O2-  O469  1  0.09043623  0.74931019  0.72502887  1
  O2-  O470  1  0.41777390  0.24864299  0.05899548  1
  O2-  O471  1  0.74076567  0.74974732  0.39719537  1
  O2-  O472  1  0.90595765  0.25246376  0.93011192  1
  O2-  O473  1  0.24235951  0.75084287  0.61274567  1
  O2-  O474  1  0.58661083  0.24794492  0.25139510  1
  O2-  O475  1  0.75215495  0.75283298  0.05118214  1
  O2-  O476  1  0.42291797  0.24956803  0.72797428  1
  O2-  O477  1  0.42322515  0.75739238  0.05666051  1
  O2-  O478  1  0.57778680  0.25013791  0.94192859  1
  O2-  O479  1  0.07826178  0.25431044  0.40799572  1
  O2-  O480  1  0.74130336  0.24854909  0.72679863  1
  O2-  O481  1  0.91269092  0.25020304  0.27574726  1
  O2-  O482  1  0.74932584  0.25364820  0.07090726  1
  O2-  O483  1  0.07218464  0.24739443  0.71974756  1
  O2-  O484  1  0.59087706  0.24935428  0.61549662  1
  O2-  O485  1  0.23875996  0.25291718  0.59916652  1
  O2-  O486  1  0.40920668  0.75029896  0.72329549  1
  O2-  O487  1  0.92942539  0.25430722  0.60337385  1
  O2-  O488  1  0.58939456  0.75435958  0.26317110  1
  O2-  O489  1  0.25391093  0.74528207  0.93540819  1
  O2-  O490  1  0.57790413  0.74943392  0.95510812  1
  O2-  O491  1  0.08404895  0.74853350  0.39481342  1
  O2-  O492  1  0.24925763  0.24346097  0.28132923  1
