# generated using pymatgen
data_Ca108Mn108O277
_symmetry_space_group_name_H-M   'P 1'
_cell_length_a   16.02639742
_cell_length_b   22.30567659
_cell_length_c   16.38912843
_cell_angle_alpha   89.99957834
_cell_angle_beta   89.99892270
_cell_angle_gamma   89.99884965
_symmetry_Int_Tables_number   1
_chemical_formula_structural   Ca108Mn108O277
_chemical_formula_sum   'Ca108 Mn108 O277'
_cell_volume   5858.77969057
_cell_formula_units_Z   1
loop_
 _symmetry_equiv_pos_site_id
 _symmetry_equiv_pos_as_xyz
  1  'x, y, z'
loop_
 _atom_type_symbol
 _atom_type_oxidation_number
  Ca2+  2.0
  Mn3.34+  3.34
  O2-  -2.0
loop_
 _atom_site_type_symbol
 _atom_site_label
 _atom_site_symmetry_multiplicity
 _atom_site_fract_x
 _atom_site_fract_y
 _atom_site_fract_z
 _atom_site_occupancy
  Ca2+  Ca0  1  0.07118756  0.25566493  0.23467223  1
  Ca2+  Ca1  1  0.07919604  0.26505347  0.59718556  1
  Ca2+  Ca2  1  0.08030082  0.27428602  0.91988295  1
  Ca2+  Ca3  1  0.09060419  0.74191342  0.24936515  1
  Ca2+  Ca4  1  0.07411724  0.74324925  0.59312164  1
  Ca2+  Ca5  1  0.08867281  0.73360490  0.90421900  1
  Ca2+  Ca6  1  0.44194444  0.24230290  0.24686592  1
  Ca2+  Ca7  1  0.44371888  0.24943271  0.58707331  1
  Ca2+  Ca8  1  0.42350684  0.25793676  0.92093997  1
  Ca2+  Ca9  1  0.42773246  0.75722782  0.24782879  1
  Ca2+  Ca10  1  0.42571766  0.75578971  0.57517440  1
  Ca2+  Ca11  1  0.40708316  0.75315027  0.92048002  1
  Ca2+  Ca12  1  0.73396699  0.23896134  0.26147522  1
  Ca2+  Ca13  1  0.72285319  0.24045066  0.56004900  1
  Ca2+  Ca14  1  0.74301538  0.25958450  0.92057910  1
  Ca2+  Ca15  1  0.72548258  0.74418062  0.24393101  1
  Ca2+  Ca16  1  0.75164895  0.73445127  0.58185593  1
  Ca2+  Ca17  1  0.74447075  0.75591471  0.91672590  1
  Ca2+  Ca18  1  0.24693463  0.26667888  0.08168128  1
  Ca2+  Ca19  1  0.25498816  0.26456710  0.40808110  1
  Ca2+  Ca20  1  0.24728647  0.26094965  0.76102429  1
  Ca2+  Ca21  1  0.25606366  0.73554919  0.08131313  1
  Ca2+  Ca22  1  0.25119511  0.75670128  0.41010022  1
  Ca2+  Ca23  1  0.23406892  0.74460918  0.75603546  1
  Ca2+  Ca24  1  0.58160349  0.23696132  0.10476318  1
  Ca2+  Ca25  1  0.60105296  0.23821554  0.41086310  1
  Ca2+  Ca26  1  0.58144506  0.24370406  0.73771767  1
  Ca2+  Ca27  1  0.58549220  0.74575738  0.10391782  1
  Ca2+  Ca28  1  0.58439867  0.75357951  0.40460114  1
  Ca2+  Ca29  1  0.58993847  0.74653570  0.73598389  1
  Ca2+  Ca30  1  0.91376507  0.26973601  0.08572902  1
  Ca2+  Ca31  1  0.88410223  0.24655440  0.40549719  1
  Ca2+  Ca32  1  0.92252426  0.26237392  0.75537958  1
  Ca2+  Ca33  1  0.89206932  0.74405572  0.08120430  1
  Ca2+  Ca34  1  0.92002582  0.74903341  0.42709619  1
  Ca2+  Ca35  1  0.92444225  0.74533233  0.73996380  1
  Ca2+  Ca36  1  0.59787009  0.08926612  0.74355718  1
  Ca2+  Ca37  1  0.21361323  0.59683779  0.75926355  1
  Ca2+  Ca38  1  0.92172716  0.09664218  0.09525366  1
  Ca2+  Ca39  1  0.72742906  0.07972002  0.90898503  1
  Ca2+  Ca40  1  0.07552777  0.08679732  0.90366093  1
  Ca2+  Ca41  1  0.07545854  0.08310842  0.25451956  1
  Ca2+  Ca42  1  0.58703473  0.60497831  0.09999030  1
  Ca2+  Ca43  1  0.77275385  0.60055430  0.91652012  1
  Ca2+  Ca44  1  0.21835330  0.57895944  0.39857915  1
  Ca2+  Ca45  1  0.41778943  0.59578721  0.23837730  1
  Ca2+  Ca46  1  0.41301760  0.58270760  0.93619890  1
  Ca2+  Ca47  1  0.59748713  0.61012458  0.42380795  1
  Ca2+  Ca48  1  0.91921951  0.60299779  0.44122577  1
  Ca2+  Ca49  1  0.43917079  0.09222868  0.58433662  1
  Ca2+  Ca50  1  0.73963223  0.09292881  0.26986773  1
  Ca2+  Ca51  1  0.94365725  0.60238471  0.74676454  1
  Ca2+  Ca52  1  0.92866706  0.60240822  0.06803991  1
  Ca2+  Ca53  1  0.24736751  0.08746803  0.74031718  1
  Ca2+  Ca54  1  0.28890492  0.09738457  0.08930045  1
  Ca2+  Ca55  1  0.72544458  0.60610032  0.24257495  1
  Ca2+  Ca56  1  0.44609242  0.61154461  0.58967315  1
  Ca2+  Ca57  1  0.47334227  0.09456248  0.24010031  1
  Ca2+  Ca58  1  0.93951482  0.60423603  0.06945467  1
  Ca2+  Ca59  1  0.59620793  0.08993358  0.40039881  1
  Ca2+  Ca60  1  0.44743029  0.09700899  0.58790841  1
  Ca2+  Ca61  1  0.26917591  0.07922604  0.40392282  1
  Ca2+  Ca62  1  0.42648224  0.59836270  0.24304040  1
  Ca2+  Ca63  1  0.08856235  0.08676251  0.90477350  1
  Ca2+  Ca64  1  0.23018809  0.58156515  0.39505787  1
  Ca2+  Ca65  1  0.60226493  0.09496715  0.40500343  1
  Ca2+  Ca66  1  0.06260598  0.59168898  0.60284832  1
  Ca2+  Ca67  1  0.07192413  0.07225905  0.61998232  1
  Ca2+  Ca68  1  0.73126155  0.10254696  0.56419612  1
  Ca2+  Ca69  1  0.76247835  0.59802129  0.91964630  1
  Ca2+  Ca70  1  0.90896029  0.09554561  0.09533513  1
  Ca2+  Ca71  1  0.58795063  0.60786014  0.42056309  1
  Ca2+  Ca72  1  0.61051973  0.90902518  0.75240535  1
  Ca2+  Ca73  1  0.41422632  0.40841064  0.58580478  1
  Ca2+  Ca74  1  0.40705618  0.41209674  0.24502282  1
  Ca2+  Ca75  1  0.23801673  0.90239450  0.75007280  1
  Ca2+  Ca76  1  0.88517105  0.91572644  0.42035112  1
  Ca2+  Ca77  1  0.72876765  0.90832929  0.90750362  1
  Ca2+  Ca78  1  0.76257976  0.39581293  0.58080788  1
  Ca2+  Ca79  1  0.58244688  0.39726973  0.75524738  1
  Ca2+  Ca80  1  0.93050723  0.41294425  0.41300043  1
  Ca2+  Ca81  1  0.90050307  0.90686401  0.74105998  1
  Ca2+  Ca82  1  0.42115444  0.41223828  0.92843036  1
  Ca2+  Ca83  1  0.75880498  0.40573527  0.91778984  1
  Ca2+  Ca84  1  0.41942794  0.41125334  0.24732113  1
  Ca2+  Ca85  1  0.22806124  0.41309696  0.74387558  1
  Ca2+  Ca86  1  0.76195444  0.40344666  0.25275238  1
  Ca2+  Ca87  1  0.56059047  0.92901060  0.38852599  1
  Ca2+  Ca88  1  0.09415198  0.90877174  0.25065515  1
  Ca2+  Ca89  1  0.95606525  0.42230420  0.76023022  1
  Ca2+  Ca90  1  0.73384585  0.91960939  0.26835560  1
  Ca2+  Ca91  1  0.08175083  0.91096087  0.25314281  1
  Ca2+  Ca92  1  0.25085999  0.90230261  0.74984546  1
  Ca2+  Ca93  1  0.44210475  0.91078434  0.91784776  1
  Ca2+  Ca94  1  0.89678885  0.91892143  0.41808650  1
  Ca2+  Ca95  1  0.92312655  0.89560058  0.08475681  1
  Ca2+  Ca96  1  0.91017673  0.89515703  0.08553445  1
  Ca2+  Ca97  1  0.57460057  0.40590746  0.07829606  1
  Ca2+  Ca98  1  0.22675540  0.41648762  0.40755782  1
  Ca2+  Ca99  1  0.56992337  0.92692060  0.38471353  1
  Ca2+  Ca100  1  0.08088091  0.89270375  0.90922849  1
  Ca2+  Ca101  1  0.07579117  0.41103449  0.26857947  1
  Ca2+  Ca102  1  0.56929433  0.90477238  0.09458178  1
  Ca2+  Ca103  1  0.40176738  0.40924195  0.58459721  1
  Ca2+  Ca104  1  0.07487768  0.90831792  0.59090279  1
  Ca2+  Ca105  1  0.58741846  0.40536993  0.41094341  1
  Ca2+  Ca106  1  0.27907817  0.91020658  0.41281953  1
  Ca2+  Ca107  1  0.26363458  0.89857337  0.08651505  1
  Mn3.34+  Mn108  1  0.08247516  0.34039302  0.08222449  1
  Mn3.34+  Mn109  1  0.07940875  0.33351645  0.42287636  1
  Mn3.34+  Mn110  1  0.08427162  0.33584812  0.75105680  1
  Mn3.34+  Mn111  1  0.08799833  0.82157811  0.08415249  1
  Mn3.34+  Mn112  1  0.08306414  0.83399357  0.42409100  1
  Mn3.34+  Mn113  1  0.07993763  0.83163029  0.74975512  1
  Mn3.34+  Mn114  1  0.41521792  0.33868182  0.08522762  1
  Mn3.34+  Mn115  1  0.41699286  0.33298940  0.41906186  1
  Mn3.34+  Mn116  1  0.41483882  0.33391285  0.75569233  1
  Mn3.34+  Mn117  1  0.41760366  0.83201230  0.08346508  1
  Mn3.34+  Mn118  1  0.42080809  0.83337120  0.41822286  1
  Mn3.34+  Mn119  1  0.42158620  0.83455244  0.74779873  1
  Mn3.34+  Mn120  1  0.74947513  0.33145079  0.08514817  1
  Mn3.34+  Mn121  1  0.75126646  0.33629928  0.41658239  1
  Mn3.34+  Mn122  1  0.75327660  0.33011575  0.74950590  1
  Mn3.34+  Mn123  1  0.74282045  0.82932046  0.08387114  1
  Mn3.34+  Mn124  1  0.74396656  0.83058003  0.42265820  1
  Mn3.34+  Mn125  1  0.75158542  0.83206293  0.74893411  1
  Mn3.34+  Mn126  1  0.24614138  0.33406273  0.24617258  1
  Mn3.34+  Mn127  1  0.24600524  0.33411137  0.57819307  1
  Mn3.34+  Mn128  1  0.24774615  0.33946131  0.91887319  1
  Mn3.34+  Mn129  1  0.25712083  0.83145022  0.24945784  1
  Mn3.34+  Mn130  1  0.25272665  0.83128632  0.57861538  1
  Mn3.34+  Mn131  1  0.25314562  0.82988823  0.91792849  1
  Mn3.34+  Mn132  1  0.58572289  0.33164537  0.24718401  1
  Mn3.34+  Mn133  1  0.58595242  0.33228823  0.58087670  1
  Mn3.34+  Mn134  1  0.58585486  0.33229708  0.91553475  1
  Mn3.34+  Mn135  1  0.58147966  0.83593183  0.24895938  1
  Mn3.34+  Mn136  1  0.58647093  0.83115382  0.57797812  1
  Mn3.34+  Mn137  1  0.58126890  0.83478288  0.91498884  1
  Mn3.34+  Mn138  1  0.91560284  0.33463439  0.24863009  1
  Mn3.34+  Mn139  1  0.91812645  0.33388116  0.57954122  1
  Mn3.34+  Mn140  1  0.91769696  0.34570056  0.91836189  1
  Mn3.34+  Mn141  1  0.91253966  0.83073547  0.25354986  1
  Mn3.34+  Mn142  1  0.91141598  0.83490935  0.58249102  1
  Mn3.34+  Mn143  1  0.91573564  0.82342703  0.91297704  1
  Mn3.34+  Mn144  1  0.24249579  0.66780401  0.24193441  1
  Mn3.34+  Mn145  1  0.08319215  0.16724351  0.08360160  1
  Mn3.34+  Mn146  1  0.25630204  0.66495428  0.58170683  1
  Mn3.34+  Mn147  1  0.25097720  0.16790396  0.24926237  1
  Mn3.34+  Mn148  1  0.91075245  0.17043206  0.25196775  1
  Mn3.34+  Mn149  1  0.08205946  0.66831300  0.42087786  1
  Mn3.34+  Mn150  1  0.57124591  0.16434640  0.92332848  1
  Mn3.34+  Mn151  1  0.41334135  0.66477108  0.08438599  1
  Mn3.34+  Mn152  1  0.41879885  0.16802822  0.75243367  1
  Mn3.34+  Mn153  1  0.25522701  0.17558182  0.57779084  1
  Mn3.34+  Mn154  1  0.75206500  0.67045195  0.74010801  1
  Mn3.34+  Mn155  1  0.24632676  0.66006090  0.57894974  1
  Mn3.34+  Mn156  1  0.08450337  0.16664456  0.75066104  1
  Mn3.34+  Mn157  1  0.91577330  0.16942299  0.58527524  1
  Mn3.34+  Mn158  1  0.07476166  0.16334170  0.42048681  1
  Mn3.34+  Mn159  1  0.91395900  0.66448189  0.25319148  1
  Mn3.34+  Mn160  1  0.57504784  0.66285035  0.91159599  1
  Mn3.34+  Mn161  1  0.58076063  0.15893426  0.92156826  1
  Mn3.34+  Mn162  1  0.24642389  0.18138862  0.58082347  1
  Mn3.34+  Mn163  1  0.26154184  0.16302858  0.24861367  1
  Mn3.34+  Mn164  1  0.25329447  0.17014983  0.92084057  1
  Mn3.34+  Mn165  1  0.24726591  0.66764499  0.91960660  1
  Mn3.34+  Mn166  1  0.41429308  0.66333360  0.75537734  1
  Mn3.34+  Mn167  1  0.92442348  0.66765488  0.90781578  1
  Mn3.34+  Mn168  1  0.41605827  0.66726777  0.41803140  1
  Mn3.34+  Mn169  1  0.75526788  0.67183653  0.41910105  1
  Mn3.34+  Mn170  1  0.58537701  0.66776442  0.91345339  1
  Mn3.34+  Mn171  1  0.74461468  0.16647773  0.08882345  1
  Mn3.34+  Mn172  1  0.90775543  0.16291629  0.58364395  1
  Mn3.34+  Mn173  1  0.74944171  0.16113777  0.75095174  1
  Mn3.34+  Mn174  1  0.08385882  0.16869905  0.41936712  1
  Mn3.34+  Mn175  1  0.26503639  0.16700313  0.92022125  1
  Mn3.34+  Mn176  1  0.91189148  0.17325192  0.91232290  1
  Mn3.34+  Mn177  1  0.90149482  0.16804547  0.90948457  1
  Mn3.34+  Mn178  1  0.41712859  0.16443385  0.42345761  1
  Mn3.34+  Mn179  1  0.92446050  0.65994034  0.25104253  1
  Mn3.34+  Mn180  1  0.08338299  0.50381463  0.08697584  1
  Mn3.34+  Mn181  1  0.26789567  -0.00547755  0.25899557  1
  Mn3.34+  Mn182  1  0.25063495  0.00417560  0.57400732  1
  Mn3.34+  Mn183  1  0.90899169  0.00077270  0.25366582  1
  Mn3.34+  Mn184  1  0.72198611  0.00543872  0.07678856  1
  Mn3.34+  Mn185  1  0.26142022  -0.00068685  0.57506509  1
  Mn3.34+  Mn186  1  0.59251409  -0.01269453  0.58866456  1
  Mn3.34+  Mn187  1  0.58443482  0.50438203  0.58515074  1
  Mn3.34+  Mn188  1  0.92627756  0.49326259  0.59894015  1
  Mn3.34+  Mn189  1  0.27121483  -0.00012268  0.91669318  1
  Mn3.34+  Mn190  1  0.76118295  0.49774266  0.75422945  1
  Mn3.34+  Mn191  1  0.24115280  0.50078552  0.24211366  1
  Mn3.34+  Mn192  1  0.90936095  0.00096204  0.60358938  1
  Mn3.34+  Mn193  1  0.58114967  0.49893598  0.91951793  1
  Mn3.34+  Mn194  1  0.92176590  0.50003176  0.26137645  1
  Mn3.34+  Mn195  1  0.60298534  -0.00701138  0.58813114  1
  Mn3.34+  Mn196  1  0.73236300  -0.00015719  0.08037545  1
  Mn3.34+  Mn197  1  0.42056165  0.00416881  0.75495524  1
  Mn3.34+  Mn198  1  0.42870402  -0.00396171  0.07630261  1
  Mn3.34+  Mn199  1  0.58839510  0.49661086  0.25470072  1
  Mn3.34+  Mn200  1  0.07188551  0.49641932  0.08388303  1
  Mn3.34+  Mn201  1  0.59820870  0.49847815  0.58289266  1
  Mn3.34+  Mn202  1  0.09267121  0.00046802  0.07902492  1
  Mn3.34+  Mn203  1  0.23668549  0.49562949  0.59523243  1
  Mn3.34+  Mn204  1  0.75279357  0.50381623  0.41558435  1
  Mn3.34+  Mn205  1  0.24970755  0.50426725  0.92409837  1
  Mn3.34+  Mn206  1  0.25989471  -0.00359477  0.91649943  1
  Mn3.34+  Mn207  1  0.75343558  0.50132730  0.08460151  1
  Mn3.34+  Mn208  1  0.90033385  -0.00240402  0.90510134  1
  Mn3.34+  Mn209  1  0.76390424  0.49612663  0.08177569  1
  Mn3.34+  Mn210  1  0.41663811  0.50381414  0.41638929  1
  Mn3.34+  Mn211  1  0.41228866  0.50062111  0.74819189  1
  Mn3.34+  Mn212  1  0.08509000  0.00094750  0.41536344  1
  Mn3.34+  Mn213  1  0.24018969  0.49860991  0.92411673  1
  Mn3.34+  Mn214  1  0.74925585  0.50492403  0.75420776  1
  Mn3.34+  Mn215  1  0.91100346  0.00140359  0.90440779  1
  O2-  O216  1  -0.00376014  0.14209548  -0.00618409  1
  O2-  O217  1  0.00546564  0.16007446  0.32501291  1
  O2-  O218  1  -0.00061493  0.16134124  0.66153945  1
  O2-  O219  1  -0.00890033  0.68456044  -0.00435129  1
  O2-  O220  1  -0.00123054  0.65099205  0.33721205  1
  O2-  O221  1  -0.00713934  0.67327708  0.65883971  1
  O2-  O222  1  0.33260605  0.17411170  0.00922015  1
  O2-  O223  1  0.33188174  0.16636315  0.34157140  1
  O2-  O224  1  0.33922793  0.15521227  0.65918508  1
  O2-  O225  1  0.33750484  0.65771278  -0.00291548  1
  O2-  O226  1  0.32961802  0.64209139  0.34067606  1
  O2-  O227  1  0.32634748  0.64639023  0.67203203  1
  O2-  O228  1  0.66827747  0.14802714  -0.00102706  1
  O2-  O229  1  0.66663324  0.16339158  0.33323880  1
  O2-  O230  1  0.67393631  0.16262326  0.67098162  1
  O2-  O231  1  0.66494389  0.64458278  -0.00776751  1
  O2-  O232  1  0.66951198  0.66275593  0.33704508  1
  O2-  O233  1  0.67067039  0.67274147  0.66769777  1
  O2-  O234  1  0.16864725  0.13890055  -0.00094727  1
  O2-  O235  1  0.17130770  0.14755605  0.33361302  1
  O2-  O236  1  0.16791996  0.15615670  0.66270560  1
  O2-  O237  1  0.16887967  0.67602376  -0.00370395  1
  O2-  O238  1  0.16591248  0.65650857  0.33092884  1
  O2-  O239  1  0.16189531  0.65532541  0.65387395  1
  O2-  O240  1  0.49555474  0.17429980  0.00312718  1
  O2-  O241  1  0.49639095  0.16341702  0.34564238  1
  O2-  O242  1  0.50333985  0.15561143  0.67619184  1
  O2-  O243  1  0.50088447  0.65307608  0.00070126  1
  O2-  O244  1  0.49339221  0.64818405  0.33624012  1
  O2-  O245  1  0.48245796  0.68823692  0.66993615  1
  O2-  O246  1  0.83010926  0.14031695  -0.00030460  1
  O2-  O247  1  0.82916505  0.16448136  0.32281297  1
  O2-  O248  1  0.83275873  0.18245021  0.67072343  1
  O2-  O249  1  0.84035287  0.66077547  -0.00076346  1
  O2-  O250  1  0.83583549  0.64111612  0.33220736  1
  O2-  O251  1  0.84016814  0.67170107  0.67671919  1
  O2-  O252  1  0.00021218  0.34410935  0.00144659  1
  O2-  O253  1  0.00370349  0.33497438  0.33397264  1
  O2-  O254  1  -0.00460895  0.33352856  0.66845815  1
  O2-  O255  1  -0.00321137  0.82607027  0.00370881  1
  O2-  O256  1  -0.00504772  0.85661132  0.33770956  1
  O2-  O257  1  -0.00465724  0.84330016  0.66793855  1
  O2-  O258  1  0.33885457  0.32867533  -0.00021489  1
  O2-  O259  1  0.33186770  0.34048527  0.33747150  1
  O2-  O260  1  0.32991138  0.34594587  0.66614880  1
  O2-  O261  1  0.34149454  0.85072370  -0.00922757  1
  O2-  O262  1  0.33532663  0.84324031  0.33297723  1
  O2-  O263  1  0.32875137  0.84089420  0.67000589  1
  O2-  O264  1  0.66920253  0.34857910  -0.00382269  1
  O2-  O265  1  0.66981190  0.35158515  0.32913120  1
  O2-  O266  1  0.66789974  0.34452523  0.66455833  1
  O2-  O267  1  0.66406999  0.85322027  0.00320775  1
  O2-  O268  1  0.65933042  0.84737539  0.34203169  1
  O2-  O269  1  0.66165011  0.83519332  0.67020945  1
  O2-  O270  1  0.16839888  0.34104873  0.00357897  1
  O2-  O271  1  0.16510284  0.33957567  0.33689510  1
  O2-  O272  1  0.17190348  0.32756708  0.66673050  1
  O2-  O273  1  0.16962984  0.84538469  0.00261947  1
  O2-  O274  1  0.16735075  0.85264573  0.33766083  1
  O2-  O275  1  0.16631984  0.84891710  0.66390743  1
  O2-  O276  1  0.49740940  0.33848460  -0.00105521  1
  O2-  O277  1  0.49498724  0.34611430  0.32894729  1
  O2-  O278  1  0.49673909  0.34888102  0.66154096  1
  O2-  O279  1  0.50209261  0.84441458  0.00163491  1
  O2-  O280  1  0.50287557  0.84078208  0.33500068  1
  O2-  O281  1  0.50228401  0.81922926  0.66505815  1
  O2-  O282  1  0.83090540  0.34049282  -0.00054632  1
  O2-  O283  1  0.84050958  0.34777511  0.34111550  1
  O2-  O284  1  0.83258751  0.31895935  0.66356289  1
  O2-  O285  1  0.83330583  0.83583820  0.00051925  1
  O2-  O286  1  0.82878549  0.85188946  0.33090757  1
  O2-  O287  1  0.83804350  0.82638528  0.67119965  1
  O2-  O288  1  -0.00436060  0.17848700  0.16041595  1
  O2-  O289  1  -0.00771178  0.18983251  0.50175531  1
  O2-  O290  1  0.00920308  0.17614228  0.84272746  1
  O2-  O291  1  -0.00943828  0.68283044  0.16196723  1
  O2-  O292  1  0.00574363  0.67951443  0.49893132  1
  O2-  O293  1  -0.00785382  0.68351316  0.82923315  1
  O2-  O294  1  0.33887838  0.18187558  0.16943426  1
  O2-  O295  1  0.33349632  0.19837110  0.49638181  1
  O2-  O296  1  0.32919651  0.18438545  0.82512819  1
  O2-  O297  1  0.33908333  0.67676601  0.17611256  1
  O2-  O298  1  0.34037328  0.68032181  0.50781115  1
  O2-  O299  1  0.33631616  0.68751526  0.83072398  1
  O2-  O300  1  0.67411322  0.17465631  0.16873934  1
  O2-  O301  1  0.65733014  0.16518212  0.48817702  1
  O2-  O302  1  0.66348620  0.17908747  0.83174337  1
  O2-  O303  1  0.66002411  0.67590719  0.16662598  1
  O2-  O304  1  0.66751963  0.68395990  0.48771895  1
  O2-  O305  1  0.67409877  0.67051611  0.83907377  1
  O2-  O306  1  0.17114625  0.17161055  0.16633758  1
  O2-  O307  1  0.16504169  0.19873679  0.49748036  1
  O2-  O308  1  0.17098250  0.17261949  0.84084199  1
  O2-  O309  1  0.16992806  0.68826914  0.16674105  1
  O2-  O310  1  0.17826189  0.68384818  0.48950359  1
  O2-  O311  1  0.17502499  0.67605568  0.83520174  1
  O2-  O312  1  0.49605407  0.17642158  0.16761033  1
  O2-  O313  1  0.49000324  0.17495984  0.50565914  1
  O2-  O314  1  0.49900804  0.18296504  0.83557273  1
  O2-  O315  1  0.49138538  0.67479642  0.16662474  1
  O2-  O316  1  0.50336271  0.68026193  0.48906558  1
  O2-  O317  1  0.49992878  0.68886275  0.83345303  1
  O2-  O318  1  0.84267575  0.17755740  0.15444502  1
  O2-  O319  1  0.82632400  0.17805325  0.50795200  1
  O2-  O320  1  0.82456218  0.19522355  0.82893627  1
  O2-  O321  1  0.83463040  0.67435695  0.17194786  1
  O2-  O322  1  0.83863114  0.68160395  0.49218065  1
  O2-  O323  1  0.82848029  0.68466673  0.84835705  1
  O2-  O324  1  -0.00117246  0.32518155  0.16838566  1
  O2-  O325  1  -0.00413498  0.30712821  0.49649537  1
  O2-  O326  1  -0.00258519  0.32987945  0.83093509  1
  O2-  O327  1  -0.00118663  0.81878693  0.16908480  1
  O2-  O328  1  -0.00080365  0.81692188  0.50618379  1
  O2-  O329  1  0.00233625  0.81819035  0.83599493  1
  O2-  O330  1  0.33912623  0.31810694  0.17264081  1
  O2-  O331  1  0.33799575  0.31428424  0.50587668  1
  O2-  O332  1  0.33510932  0.31949650  0.83615877  1
  O2-  O333  1  0.32768710  0.81938140  0.15698542  1
  O2-  O334  1  0.33233229  0.81930175  0.49571686  1
  O2-  O335  1  0.32695293  0.82145427  0.82527705  1
  O2-  O336  1  0.66070848  0.32455603  0.16112241  1
  O2-  O337  1  0.66403727  0.32763163  0.49620393  1
  O2-  O338  1  0.66458312  0.31490112  0.82557622  1
  O2-  O339  1  0.66857250  0.83042021  0.17061584  1
  O2-  O340  1  0.66980807  0.80576865  0.50259012  1
  O2-  O341  1  0.66632348  0.82533853  0.83673262  1
  O2-  O342  1  0.16260295  0.32137540  0.17046763  1
  O2-  O343  1  0.16591232  0.31182675  0.49777003  1
  O2-  O344  1  0.16901398  0.32638651  0.82988096  1
  O2-  O345  1  0.16096629  0.82314234  0.17517860  1
  O2-  O346  1  0.16688118  0.82034593  0.50122932  1
  O2-  O347  1  0.16887356  0.82137690  0.83334836  1
  O2-  O348  1  0.49875196  0.31698380  0.16449323  1
  O2-  O349  1  0.49867499  0.32094965  0.49983518  1
  O2-  O350  1  0.50293040  0.31982376  0.83068122  1
  O2-  O351  1  0.50340846  0.82417715  0.16181661  1
  O2-  O352  1  0.50595774  0.81079837  0.49494422  1
  O2-  O353  1  0.49607182  0.81654433  0.83639439  1
  O2-  O354  1  0.82415028  0.32023871  0.17805590  1
  O2-  O355  1  0.82963466  0.31815667  0.50363172  1
  O2-  O356  1  0.83009171  0.31690189  0.83554060  1
  O2-  O357  1  0.83895578  0.82232728  0.15967515  1
  O2-  O358  1  0.83971009  0.82115725  0.49250422  1
  O2-  O359  1  0.83391122  0.81753454  0.83547253  1
  O2-  O360  1  0.06164795  0.08008098  0.11837044  1
  O2-  O361  1  0.09930587  0.08153404  0.46455384  1
  O2-  O362  1  0.09537170  0.08208472  0.77187632  1
  O2-  O363  1  0.06703023  0.58205771  0.11256644  1
  O2-  O364  1  0.09500327  0.58663943  0.45194662  1
  O2-  O365  1  0.07750719  0.57832675  0.75334608  1
  O2-  O366  1  0.40783417  0.06010265  0.13281732  1
  O2-  O367  1  0.39673252  0.08521271  0.46017418  1
  O2-  O368  1  0.40722026  0.08577830  0.77366950  1
  O2-  O369  1  0.42489407  0.58236507  0.10663691  1
  O2-  O370  1  0.42315255  0.58403435  0.45516118  1
  O2-  O371  1  0.41017436  0.57897253  0.78696334  1
  O2-  O372  1  0.76597145  0.07865766  0.12708195  1
  O2-  O373  1  0.72403882  0.05894602  0.44618515  1
  O2-  O374  1  0.74852471  0.08498109  0.77801513  1
  O2-  O375  1  0.74922492  0.57990247  0.11418694  1
  O2-  O376  1  0.73826880  0.58456609  0.44394679  1
  O2-  O377  1  0.76785355  0.58531243  0.77873913  1
  O2-  O378  1  0.25207547  0.07749103  0.22273995  1
  O2-  O379  1  0.25599217  0.08705058  0.54617135  1
  O2-  O380  1  0.25007617  0.08084619  0.87903977  1
  O2-  O381  1  0.25950632  0.58248820  0.22974597  1
  O2-  O382  1  0.25332993  0.57398315  0.53572566  1
  O2-  O383  1  0.25848786  0.58366866  0.88997517  1
  O2-  O384  1  0.60421645  0.07183878  0.25826169  1
  O2-  O385  1  0.57498695  0.07195022  0.54650250  1
  O2-  O386  1  0.58508942  0.08154501  0.88286894  1
  O2-  O387  1  0.57768743  0.57517034  0.23003902  1
  O2-  O388  1  0.57564118  0.58243611  0.55308201  1
  O2-  O389  1  0.57783299  0.57859916  0.88190994  1
  O2-  O390  1  0.91828025  0.08288724  0.22940516  1
  O2-  O391  1  0.92163325  0.07728659  0.55944960  1
  O2-  O392  1  0.92039555  0.08160868  0.86989399  1
  O2-  O393  1  0.91719836  0.57443644  0.20434868  1
  O2-  O394  1  0.93026385  0.56442161  0.55921731  1
  O2-  O395  1  0.91082468  0.58855770  0.88970722  1
  O2-  O396  1  0.09008957  0.42209407  0.12715642  1
  O2-  O397  1  0.07957341  0.41155958  0.43633017  1
  O2-  O398  1  0.09150251  0.41489825  0.75777881  1
  O2-  O399  1  0.06044742  0.91996300  0.11449715  1
  O2-  O400  1  0.07202935  0.91888665  0.45299793  1
  O2-  O401  1  0.10206963  0.91761472  0.78027871  1
  O2-  O402  1  0.42942134  0.42076830  0.11380802  1
  O2-  O403  1  0.42048797  0.42122444  0.45201338  1
  O2-  O404  1  0.42199083  0.41881482  0.78119356  1
  O2-  O405  1  0.41431081  0.91918644  0.10932023  1
  O2-  O406  1  0.42991707  0.91287465  0.43657640  1
  O2-  O407  1  0.39524447  0.92389176  0.78299084  1
  O2-  O408  1  0.75030630  0.41650532  0.11262100  1
  O2-  O409  1  0.75151726  0.42317411  0.44784688  1
  O2-  O410  1  0.73812325  0.41842453  0.78111432  1
  O2-  O411  1  0.77058190  0.92209288  0.11235951  1
  O2-  O412  1  0.75084084  0.91185814  0.44171656  1
  O2-  O413  1  0.75837952  0.91332154  0.77434154  1
  O2-  O414  1  0.26630837  0.41785880  0.23070693  1
  O2-  O415  1  0.26578417  0.42257942  0.54011692  1
  O2-  O416  1  0.25839940  0.42160269  0.87955137  1
  O2-  O417  1  0.23281390  0.92047349  0.21548281  1
  O2-  O418  1  0.25125747  0.91726175  0.55413704  1
  O2-  O419  1  0.24564680  0.91537190  0.88709397  1
  O2-  O420  1  0.56950898  0.41763227  0.22158264  1
  O2-  O421  1  0.57632693  0.41938100  0.54937058  1
  O2-  O422  1  0.58406487  0.41838861  0.88955778  1
  O2-  O423  1  0.58983977  0.92118287  0.24048716  1
  O2-  O424  1  0.58513216  0.91550497  0.53302853  1
  O2-  O425  1  0.57842740  0.91444960  0.88243933  1
  O2-  O426  1  0.91893630  0.42007846  0.23278434  1
  O2-  O427  1  0.90819525  0.42281492  0.54943429  1
  O2-  O428  1  0.89569292  0.42131674  0.88389511  1
  O2-  O429  1  0.92367418  0.92162533  0.21386475  1
  O2-  O430  1  0.91472501  0.92725253  0.55281200  1
  O2-  O431  1  0.92118026  0.91440913  0.90396995  1
  O2-  O432  1  0.00050867  0.01395608  -0.01604472  1
  O2-  O433  1  0.00907684  -0.00656688  0.31666308  1
  O2-  O434  1  0.00439065  -0.01082206  0.65247058  1
  O2-  O435  1  -0.02503854  0.51057958  0.02740577  1
  O2-  O436  1  -0.00589386  0.49060239  0.33841153  1
  O2-  O437  1  -0.00880639  0.50539456  0.68126456  1
  O2-  O438  1  0.32253238  0.00087705  0.02311393  1
  O2-  O439  1  0.32518882  -0.00077029  0.35057121  1
  O2-  O440  1  0.33035251  0.01081462  0.67147131  1
  O2-  O441  1  0.35391198  0.49529787  -0.03163713  1
  O2-  O442  1  0.33509925  0.50267608  0.32505833  1
  O2-  O443  1  0.33783432  0.48401282  0.65465068  1
  O2-  O444  1  0.68370714  -0.00435736  -0.02862488  1
  O2-  O445  1  0.66739463  -0.00203610  0.34830310  1
  O2-  O446  1  0.65964385  0.00596493  0.68544951  1
  O2-  O447  1  0.66303128  0.49949492  0.00493062  1
  O2-  O448  1  0.64739347  0.50219840  0.35850217  1
  O2-  O449  1  0.66574720  0.49381757  0.67477212  1
  O2-  O450  1  0.15627067  0.00792917  -0.02652776  1
  O2-  O451  1  0.16276032  -0.00060134  0.31560189  1
  O2-  O452  1  0.16942786  0.00314295  0.65745117  1
  O2-  O453  1  0.16843807  0.50544422  0.01079304  1
  O2-  O454  1  0.17541182  0.49737579  0.34066467  1
  O2-  O455  1  0.17838488  0.51373731  0.68345500  1
  O2-  O456  1  0.50613152  -0.01683936  0.00707802  1
  O2-  O457  1  0.51459017  0.01775823  0.37415242  1
  O2-  O458  1  0.49737352  0.01138344  0.66102194  1
  O2-  O459  1  0.50173690  0.49503522  -0.01281805  1
  O2-  O460  1  0.48638399  0.49458103  0.31220546  1
  O2-  O461  1  0.49670496  0.49186651  0.66104029  1
  O2-  O462  1  0.84221798  0.00945886  0.01447125  1
  O2-  O463  1  0.83364440  -0.01686835  0.33130121  1
  O2-  O464  1  0.84102934  -0.00512820  0.67887996  1
  O2-  O465  1  0.82281369  0.52131437  -0.01305614  1
  O2-  O466  1  0.82208671  0.49919999  0.31923804  1
  O2-  O467  1  0.82965416  0.49128958  0.65998373  1
  O2-  O468  1  0.41524679  0.75009005  0.06042266  1
  O2-  O469  1  0.73877664  0.75194984  0.06690097  1
  O2-  O470  1  0.08268739  0.75282681  0.38907334  1
  O2-  O471  1  0.58565399  0.25461942  0.60049997  1
  O2-  O472  1  0.41932873  0.25095569  0.72469987  1
  O2-  O473  1  0.40780785  0.74681316  0.38711178  1
  O2-  O474  1  0.59172044  0.24690027  0.94005921  1
  O2-  O475  1  0.58133963  0.75504835  0.26153970  1
  O2-  O476  1  0.92021284  0.25177605  0.26778254  1
  O2-  O477  1  0.08660665  0.24905108  0.06207996  1
  O2-  O478  1  0.76163651  0.75098707  0.38206785  1
  O2-  O479  1  0.58609533  0.25447639  0.26935203  1
  O2-  O480  1  0.73933112  0.75056279  0.74935292  1
  O2-  O481  1  0.92648717  0.25411502  0.94265714  1
  O2-  O482  1  0.08377906  0.24871034  0.73914147  1
  O2-  O483  1  0.91750952  0.74813924  0.28407029  1
  O2-  O484  1  0.23603917  0.25041061  0.27156632  1
  O2-  O485  1  0.74401241  0.25776428  0.39988665  1
  O2-  O486  1  0.74952821  0.24738074  0.05843876  1
  O2-  O487  1  0.08861345  0.75386079  0.73012443  1
  O2-  O488  1  0.26024426  0.75196932  0.93993902  1
  O2-  O489  1  0.25283253  0.74939944  0.27457315  1
  O2-  O490  1  0.59405701  0.74972760  0.94679828  1
  O2-  O491  1  0.24755096  0.74934861  0.60958874  1
  O2-  O492  1  0.23609123  0.25287836  0.93194994  1
