# generated using pymatgen
data_Ca108Mn108O277
_symmetry_space_group_name_H-M   'P 1'
_cell_length_a   16.01817563
_cell_length_b   22.29403155
_cell_length_c   16.38249870
_cell_angle_alpha   90.00096157
_cell_angle_beta   90.00030328
_cell_angle_gamma   89.99950744
_symmetry_Int_Tables_number   1
_chemical_formula_structural   Ca108Mn108O277
_chemical_formula_sum   'Ca108 Mn108 O277'
_cell_volume   5850.34940756
_cell_formula_units_Z   1
loop_
 _symmetry_equiv_pos_site_id
 _symmetry_equiv_pos_as_xyz
  1  'x, y, z'
loop_
 _atom_type_symbol
 _atom_type_oxidation_number
  Ca2+  2.0
  Mn3.34+  3.34
  O2-  -2.0
loop_
 _atom_site_type_symbol
 _atom_site_label
 _atom_site_symmetry_multiplicity
 _atom_site_fract_x
 _atom_site_fract_y
 _atom_site_fract_z
 _atom_site_occupancy
  Ca2+  Ca0  1  0.09055938  0.23958749  0.25175537  1
  Ca2+  Ca1  1  0.05670651  0.24318209  0.58494086  1
  Ca2+  Ca2  1  0.07844704  0.24816952  0.91768267  1
  Ca2+  Ca3  1  0.09460561  0.76752340  0.24311177  1
  Ca2+  Ca4  1  0.09956882  0.76786346  0.58139382  1
  Ca2+  Ca5  1  0.10742980  0.74864692  0.92878856  1
  Ca2+  Ca6  1  0.42356071  0.23988653  0.26476383  1
  Ca2+  Ca7  1  0.42265627  0.24840936  0.58224271  1
  Ca2+  Ca8  1  0.43142832  0.24150577  0.89434243  1
  Ca2+  Ca9  1  0.40033317  0.75243511  0.26203230  1
  Ca2+  Ca10  1  0.40959671  0.73970476  0.59530743  1
  Ca2+  Ca11  1  0.39595900  0.74683028  0.88923129  1
  Ca2+  Ca12  1  0.73963429  0.24273189  0.24572013  1
  Ca2+  Ca13  1  0.77029553  0.24258488  0.57908900  1
  Ca2+  Ca14  1  0.73959513  0.24689316  0.92977536  1
  Ca2+  Ca15  1  0.75719902  0.76399223  0.24546595  1
  Ca2+  Ca16  1  0.71915605  0.75284368  0.59168167  1
  Ca2+  Ca17  1  0.75113790  0.75363588  0.91644250  1
  Ca2+  Ca18  1  0.24058560  0.24208432  0.09324263  1
  Ca2+  Ca19  1  0.27215968  0.24121302  0.39631052  1
  Ca2+  Ca20  1  0.27291750  0.24047567  0.76340554  1
  Ca2+  Ca21  1  0.24136090  0.74467983  0.07242662  1
  Ca2+  Ca22  1  0.26111009  0.75645861  0.43753896  1
  Ca2+  Ca23  1  0.27255431  0.74579916  0.73662586  1
  Ca2+  Ca24  1  0.60142565  0.24001471  0.08535855  1
  Ca2+  Ca25  1  0.57213930  0.23517834  0.39510220  1
  Ca2+  Ca26  1  0.57569777  0.24256388  0.77243007  1
  Ca2+  Ca27  1  0.57209090  0.76162027  0.08071938  1
  Ca2+  Ca28  1  0.56359871  0.75204424  0.44337883  1
  Ca2+  Ca29  1  0.55535705  0.74779644  0.72449543  1
  Ca2+  Ca30  1  0.90041625  0.24477432  0.08248137  1
  Ca2+  Ca31  1  0.90589239  0.23274531  0.41752805  1
  Ca2+  Ca32  1  0.90873844  0.24167846  0.74794301  1
  Ca2+  Ca33  1  0.93255442  0.75765795  0.08245859  1
  Ca2+  Ca34  1  0.92684065  0.78137951  0.41486145  1
  Ca2+  Ca35  1  0.91327499  0.76595014  0.74417342  1
  Ca2+  Ca36  1  0.92385853  0.58657991  0.75742031  1
  Ca2+  Ca37  1  0.26718125  0.59912751  0.42563844  1
  Ca2+  Ca38  1  0.10696989  0.59443429  0.23723307  1
  Ca2+  Ca39  1  0.75699708  0.58782970  0.93170805  1
  Ca2+  Ca40  1  0.40540040  0.58852872  0.26909113  1
  Ca2+  Ca41  1  0.26131833  0.10152240  0.40028796  1
  Ca2+  Ca42  1  0.60354228  0.57884562  0.07771462  1
  Ca2+  Ca43  1  0.07743035  0.08903080  0.93117916  1
  Ca2+  Ca44  1  0.07278128  0.08897430  0.24986529  1
  Ca2+  Ca45  1  0.42207067  0.10451717  0.88556592  1
  Ca2+  Ca46  1  0.91334337  0.59251312  0.05912313  1
  Ca2+  Ca47  1  0.91955553  0.09733026  0.74484024  1
  Ca2+  Ca48  1  0.74846832  0.59332463  0.24329673  1
  Ca2+  Ca49  1  0.12056137  0.59451845  0.59305423  1
  Ca2+  Ca50  1  0.73613584  0.09075837  0.25375061  1
  Ca2+  Ca51  1  0.57210704  0.09768574  0.75460740  1
  Ca2+  Ca52  1  0.29121462  0.59983936  0.74299076  1
  Ca2+  Ca53  1  0.56654584  0.60323027  0.44181816  1
  Ca2+  Ca54  1  0.39740947  0.60138045  0.89260111  1
  Ca2+  Ca55  1  0.42188976  0.08060747  0.60361965  1
  Ca2+  Ca56  1  0.40662999  0.60481730  0.58294779  1
  Ca2+  Ca57  1  0.08825909  0.08940678  0.93099654  1
  Ca2+  Ca58  1  0.42803205  0.10210554  0.26314733  1
  Ca2+  Ca59  1  0.59066074  0.57900717  0.07707063  1
  Ca2+  Ca60  1  0.73769826  0.10627033  0.91916579  1
  Ca2+  Ca61  1  0.73578205  0.59309031  0.24467235  1
  Ca2+  Ca62  1  0.58437034  0.08702615  0.39150091  1
  Ca2+  Ca63  1  0.90166066  0.58284006  0.41952977  1
  Ca2+  Ca64  1  0.55234055  0.59607157  0.72230580  1
  Ca2+  Ca65  1  0.77779155  0.09295845  0.57392732  1
  Ca2+  Ca66  1  0.91489847  0.58465257  0.41974112  1
  Ca2+  Ca67  1  0.91465696  0.07721654  0.39529278  1
  Ca2+  Ca68  1  0.91145519  0.58920845  0.75761218  1
  Ca2+  Ca69  1  0.04844475  0.09538117  0.57528647  1
  Ca2+  Ca70  1  0.54245932  0.59380519  0.72410429  1
  Ca2+  Ca71  1  0.77038495  0.08846891  0.56962480  1
  Ca2+  Ca72  1  0.42772494  0.90843701  0.25852405  1
  Ca2+  Ca73  1  0.75400389  0.90534001  0.91583699  1
  Ca2+  Ca74  1  0.25283532  0.91020868  0.74304027  1
  Ca2+  Ca75  1  0.92378470  0.39756223  0.75549931  1
  Ca2+  Ca76  1  0.07642142  0.39385824  0.91062954  1
  Ca2+  Ca77  1  0.74631054  0.91046694  0.57942908  1
  Ca2+  Ca78  1  0.57394041  0.39661273  0.41676091  1
  Ca2+  Ca79  1  0.42168193  0.40342228  0.90578784  1
  Ca2+  Ca80  1  0.93623939  0.91974976  0.09160679  1
  Ca2+  Ca81  1  0.58646203  0.92644435  0.41818136  1
  Ca2+  Ca82  1  0.90863967  0.39415122  0.41846188  1
  Ca2+  Ca83  1  0.09401055  0.39734475  0.59100524  1
  Ca2+  Ca84  1  0.73949394  0.40306481  0.57922945  1
  Ca2+  Ca85  1  0.75231246  0.40327365  0.58007574  1
  Ca2+  Ca86  1  0.57111901  0.40588564  0.75040096  1
  Ca2+  Ca87  1  0.56692029  0.92490776  0.72427385  1
  Ca2+  Ca88  1  0.41198013  0.91439269  0.59308165  1
  Ca2+  Ca89  1  0.41134962  0.40970699  0.59244998  1
  Ca2+  Ca90  1  0.42543500  0.40088298  0.91476573  1
  Ca2+  Ca91  1  0.59747235  0.90917634  0.09221898  1
  Ca2+  Ca92  1  0.75401439  0.41092475  0.94661240  1
  Ca2+  Ca93  1  0.40622262  0.90560898  0.90231674  1
  Ca2+  Ca94  1  0.59684001  0.92726206  0.41889395  1
  Ca2+  Ca95  1  0.44001486  0.91038631  0.25877842  1
  Ca2+  Ca96  1  0.25866582  0.40263266  0.74526113  1
  Ca2+  Ca97  1  0.41410804  0.39484875  0.24471337  1
  Ca2+  Ca98  1  0.08077288  0.91214219  0.92127876  1
  Ca2+  Ca99  1  0.26034094  0.39918419  0.41677542  1
  Ca2+  Ca100  1  0.76886149  0.93396723  0.27343326  1
  Ca2+  Ca101  1  0.05407693  0.92954374  0.27560566  1
  Ca2+  Ca102  1  0.08838379  0.38892475  0.24603629  1
  Ca2+  Ca103  1  0.92144001  0.39396664  0.41851348  1
  Ca2+  Ca104  1  0.22401685  0.91462311  0.07485949  1
  Ca2+  Ca105  1  0.76644202  0.90667713  0.91391308  1
  Ca2+  Ca106  1  0.25116572  0.39445452  0.08886872  1
  Ca2+  Ca107  1  0.23270033  0.90981900  0.07618726  1
  Mn3.34+  Mn108  1  0.07783722  0.32810579  0.08430752  1
  Mn3.34+  Mn109  1  0.08800099  0.32024308  0.41830018  1
  Mn3.34+  Mn110  1  0.08633806  0.32716652  0.75069420  1
  Mn3.34+  Mn111  1  0.08003795  0.83702447  0.08665150  1
  Mn3.34+  Mn112  1  0.08810862  0.84844597  0.42050673  1
  Mn3.34+  Mn113  1  0.08341272  0.83856921  0.75171514  1
  Mn3.34+  Mn114  1  0.42021468  0.33043221  0.08467234  1
  Mn3.34+  Mn115  1  0.41741374  0.32973037  0.41853230  1
  Mn3.34+  Mn116  1  0.41711863  0.33220482  0.74820629  1
  Mn3.34+  Mn117  1  0.41614329  0.83587146  0.08289575  1
  Mn3.34+  Mn118  1  0.41396284  0.83662784  0.42439889  1
  Mn3.34+  Mn119  1  0.41680340  0.83866808  0.74862929  1
  Mn3.34+  Mn120  1  0.75000495  0.34052887  0.09278492  1
  Mn3.34+  Mn121  1  0.74399600  0.32771437  0.40955307  1
  Mn3.34+  Mn122  1  0.74782725  0.32896127  0.75523441  1
  Mn3.34+  Mn123  1  0.75496272  0.83551887  0.08700770  1
  Mn3.34+  Mn124  1  0.75062870  0.83672264  0.41971142  1
  Mn3.34+  Mn125  1  0.74826412  0.83619335  0.74854386  1
  Mn3.34+  Mn126  1  0.25132628  0.32675851  0.24821901  1
  Mn3.34+  Mn127  1  0.24962593  0.32582196  0.58118248  1
  Mn3.34+  Mn128  1  0.24756234  0.32860929  0.91740190  1
  Mn3.34+  Mn129  1  0.24859474  0.83649508  0.25405706  1
  Mn3.34+  Mn130  1  0.24939527  0.83612186  0.58328694  1
  Mn3.34+  Mn131  1  0.24829190  0.83332996  0.91030809  1
  Mn3.34+  Mn132  1  0.58450622  0.32667462  0.24406718  1
  Mn3.34+  Mn133  1  0.58137729  0.33270184  0.58327821  1
  Mn3.34+  Mn134  1  0.58866230  0.32967061  0.92055957  1
  Mn3.34+  Mn135  1  0.59047690  0.83135951  0.25001408  1
  Mn3.34+  Mn136  1  0.58106502  0.83735049  0.58101851  1
  Mn3.34+  Mn137  1  0.57988800  0.83468504  0.91205144  1
  Mn3.34+  Mn138  1  0.91434294  0.32353706  0.24475481  1
  Mn3.34+  Mn139  1  0.91742411  0.32782292  0.58606408  1
  Mn3.34+  Mn140  1  0.91242687  0.32989741  0.91908195  1
  Mn3.34+  Mn141  1  0.91616461  0.84180610  0.25053390  1
  Mn3.34+  Mn142  1  0.91973380  0.83662778  0.58329141  1
  Mn3.34+  Mn143  1  0.92337319  0.82833982  0.91154022  1
  Mn3.34+  Mn144  1  0.57806474  0.66338218  0.90950963  1
  Mn3.34+  Mn145  1  0.74811095  0.16448546  0.08688074  1
  Mn3.34+  Mn146  1  0.23981847  0.16082818  0.58514062  1
  Mn3.34+  Mn147  1  0.74923940  0.67263641  0.75457575  1
  Mn3.34+  Mn148  1  0.08916423  0.66875743  0.07742357  1
  Mn3.34+  Mn149  1  0.91742292  0.66522987  0.58452015  1
  Mn3.34+  Mn150  1  0.90736455  0.67081548  0.58517683  1
  Mn3.34+  Mn151  1  0.41563610  0.66506213  0.08262710  1
  Mn3.34+  Mn152  1  0.74454424  0.68121177  0.41930938  1
  Mn3.34+  Mn153  1  0.08699452  0.16212090  0.75318696  1
  Mn3.34+  Mn154  1  0.58830261  0.66869539  0.91090789  1
  Mn3.34+  Mn155  1  0.91472473  0.16164394  0.24418885  1
  Mn3.34+  Mn156  1  0.57657934  0.68162552  0.25005119  1
  Mn3.34+  Mn157  1  0.41370024  0.67060692  0.41984354  1
  Mn3.34+  Mn158  1  0.09543495  0.66791119  0.41892297  1
  Mn3.34+  Mn159  1  0.92912250  0.66725070  0.24630030  1
  Mn3.34+  Mn160  1  0.09620513  0.67738851  0.75799760  1
  Mn3.34+  Mn161  1  0.91434191  0.16670018  0.91725025  1
  Mn3.34+  Mn162  1  0.40554819  0.65981263  0.08341749  1
  Mn3.34+  Mn163  1  0.91830161  0.67414480  0.91596593  1
  Mn3.34+  Mn164  1  0.08191934  0.67395312  0.41686954  1
  Mn3.34+  Mn165  1  0.25195618  0.16606672  0.58162779  1
  Mn3.34+  Mn166  1  0.24921080  0.66752593  0.24760826  1
  Mn3.34+  Mn167  1  0.75166846  0.16093860  0.41255377  1
  Mn3.34+  Mn168  1  0.57791699  0.15866669  0.57803156  1
  Mn3.34+  Mn169  1  0.58776374  0.16623427  0.57985288  1
  Mn3.34+  Mn170  1  0.08752053  0.66730605  0.76071294  1
  Mn3.34+  Mn171  1  0.75000758  0.16494511  0.75309691  1
  Mn3.34+  Mn172  1  0.41033682  0.17323252  0.08424364  1
  Mn3.34+  Mn173  1  0.42353950  0.16997631  0.08012685  1
  Mn3.34+  Mn174  1  0.74769366  0.67588786  0.08336339  1
  Mn3.34+  Mn175  1  0.24858443  0.16708892  0.91509038  1
  Mn3.34+  Mn176  1  0.07947819  0.15735099  0.08952624  1
  Mn3.34+  Mn177  1  0.08133544  0.15687801  0.41718463  1
  Mn3.34+  Mn178  1  0.92013613  0.67343022  0.24822570  1
  Mn3.34+  Mn179  1  0.74340266  0.67074743  0.41252974  1
  Mn3.34+  Mn180  1  0.42411060  0.00080878  0.08622609  1
  Mn3.34+  Mn181  1  0.73943740  0.49837705  0.75603002  1
  Mn3.34+  Mn182  1  0.25361900  0.49860553  0.24600435  1
  Mn3.34+  Mn183  1  0.41237470  0.00159855  0.41630454  1
  Mn3.34+  Mn184  1  0.57613492  0.49993621  0.58412138  1
  Mn3.34+  Mn185  1  0.08563784  0.50193007  0.08542984  1
  Mn3.34+  Mn186  1  0.90480864  0.49370525  0.23583654  1
  Mn3.34+  Mn187  1  0.91144853  0.49718834  0.92401532  1
  Mn3.34+  Mn188  1  0.57600818  0.00001705  0.91082525  1
  Mn3.34+  Mn189  1  0.91785643  0.00137771  0.92005964  1
  Mn3.34+  Mn190  1  0.40941668  0.00608128  0.08433794  1
  Mn3.34+  Mn191  1  0.92601282  -0.00838293  0.58567400  1
  Mn3.34+  Mn192  1  0.23738004  0.50609460  0.91173296  1
  Mn3.34+  Mn193  1  0.24842808  0.00106366  0.91495014  1
  Mn3.34+  Mn194  1  0.24862045  -0.00104428  0.59175081  1
  Mn3.34+  Mn195  1  0.57644481  0.49673089  0.24545242  1
  Mn3.34+  Mn196  1  0.58966361  0.49855278  0.92095968  1
  Mn3.34+  Mn197  1  0.25338521  0.49694084  0.59259114  1
  Mn3.34+  Mn198  1  0.41443177  0.49923205  0.41817621  1
  Mn3.34+  Mn199  1  0.07545430  0.49652566  0.08470991  1
  Mn3.34+  Mn200  1  0.07987659  -0.00107599  0.73936374  1
  Mn3.34+  Mn201  1  0.91701140  0.49056327  0.23687292  1
  Mn3.34+  Mn202  1  0.09878986  0.49967840  0.42191993  1
  Mn3.34+  Mn203  1  0.59007356  0.00598176  0.91383675  1
  Mn3.34+  Mn204  1  0.25054793  0.49946181  0.91182000  1
  Mn3.34+  Mn205  1  0.75462153  0.00293392  0.08160152  1
  Mn3.34+  Mn206  1  0.08679125  0.49531673  0.42208458  1
  Mn3.34+  Mn207  1  0.58919526  0.48989338  0.24677468  1
  Mn3.34+  Mn208  1  0.09027342  0.50119198  0.75490966  1
  Mn3.34+  Mn209  1  0.25291597  0.00525089  0.24412258  1
  Mn3.34+  Mn210  1  0.41498813  0.49887972  0.08065797  1
  Mn3.34+  Mn211  1  0.75080215  0.50251019  0.75413370  1
  Mn3.34+  Mn212  1  0.23873566  0.00961818  0.24953999  1
  Mn3.34+  Mn213  1  0.73513508  0.50086077  0.42393661  1
  Mn3.34+  Mn214  1  0.74815938  0.00197402  0.73846029  1
  Mn3.34+  Mn215  1  0.92773781  0.49755555  0.59005895  1
  O2-  O216  1  0.00422868  0.16539372  -0.00520135  1
  O2-  O217  1  0.00591708  0.16401270  0.33259149  1
  O2-  O218  1  0.00617821  0.16567973  0.67372040  1
  O2-  O219  1  -0.00652271  0.67164691  0.00295434  1
  O2-  O220  1  0.00012414  0.63911887  0.33877890  1
  O2-  O221  1  0.00659449  0.65798023  0.67454947  1
  O2-  O222  1  0.32932860  0.16512286  0.00297355  1
  O2-  O223  1  0.34315741  0.16310801  0.33292435  1
  O2-  O224  1  0.33241784  0.17220599  0.65913196  1
  O2-  O225  1  0.33797469  0.65921828  -0.00500243  1
  O2-  O226  1  0.33053453  0.65892366  0.33231858  1
  O2-  O227  1  0.33747112  0.66757968  0.66292894  1
  O2-  O228  1  0.67407487  0.16675828  0.00498145  1
  O2-  O229  1  0.66893011  0.15976328  0.33821838  1
  O2-  O230  1  0.66843399  0.15044145  0.66347534  1
  O2-  O231  1  0.66022350  0.65421315  0.00312255  1
  O2-  O232  1  0.66992489  0.66385493  0.32475348  1
  O2-  O233  1  0.65801690  0.67006855  0.68865265  1
  O2-  O234  1  0.15505743  0.16887804  -0.00140993  1
  O2-  O235  1  0.16292624  0.17499531  0.34905744  1
  O2-  O236  1  0.16783463  0.18527225  0.66758305  1
  O2-  O237  1  0.16657267  0.67024093  0.00504473  1
  O2-  O238  1  0.16558910  0.65540356  0.32989280  1
  O2-  O239  1  0.17138615  0.66483610  0.67458631  1
  O2-  O240  1  0.49091874  0.17584901  -0.00496796  1
  O2-  O241  1  0.50108699  0.16070648  0.33442528  1
  O2-  O242  1  0.49942474  0.15743268  0.65908234  1
  O2-  O243  1  0.50365488  0.64506468  0.00497507  1
  O2-  O244  1  0.49742759  0.66027949  0.33232348  1
  O2-  O245  1  0.48957447  0.66508111  0.66002825  1
  O2-  O246  1  0.83221392  0.16102470  -0.00580656  1
  O2-  O247  1  0.83587038  0.15629646  0.33475193  1
  O2-  O248  1  0.82830231  0.15131516  0.66667969  1
  O2-  O249  1  0.82989359  0.67294562  -0.00379531  1
  O2-  O250  1  0.83291098  0.65444741  0.33229799  1
  O2-  O251  1  0.83436605  0.65934745  0.67739875  1
  O2-  O252  1  0.00487291  0.32840331  -0.00633329  1
  O2-  O253  1  0.00265428  0.33303360  0.33940587  1
  O2-  O254  1  0.00281035  0.33739910  0.66525718  1
  O2-  O255  1  -0.00253779  0.83763241  0.00202373  1
  O2-  O256  1  0.00123335  0.84276396  0.32907465  1
  O2-  O257  1  0.00477659  0.82328062  0.67035881  1
  O2-  O258  1  0.33600011  0.34543400  -0.00426518  1
  O2-  O259  1  0.33339255  0.34148608  0.33286519  1
  O2-  O260  1  0.33260934  0.33741694  0.66587779  1
  O2-  O261  1  0.32565174  0.85487789  0.00226526  1
  O2-  O262  1  0.34414168  0.84674735  0.32916694  1
  O2-  O263  1  0.33263075  0.84500936  0.66879581  1
  O2-  O264  1  0.67060299  0.33584968  -0.00349758  1
  O2-  O265  1  0.65956447  0.34120970  0.33706424  1
  O2-  O266  1  0.66693792  0.34812148  0.66617692  1
  O2-  O267  1  0.67475453  0.84313805  -0.00185906  1
  O2-  O268  1  0.66837841  0.81395549  0.33528747  1
  O2-  O269  1  0.66386460  0.84006264  0.66646932  1
  O2-  O270  1  0.16547855  0.33458734  0.00168091  1
  O2-  O271  1  0.16948367  0.33756826  0.33520306  1
  O2-  O272  1  0.16801229  0.32622182  0.66621714  1
  O2-  O273  1  0.16245149  0.84392354  -0.00324349  1
  O2-  O274  1  0.16261560  0.83601529  0.32787973  1
  O2-  O275  1  0.17072623  0.83053870  0.67383808  1
  O2-  O276  1  0.49293706  0.33641978  -0.00796560  1
  O2-  O277  1  0.49592627  0.34076245  0.33378286  1
  O2-  O278  1  0.49668418  0.34711097  0.66493496  1
  O2-  O279  1  0.50531892  0.84950128  0.00533968  1
  O2-  O280  1  0.50846812  0.84193600  0.33625341  1
  O2-  O281  1  0.49864028  0.84768091  0.66309109  1
  O2-  O282  1  0.83130288  0.33550227  -0.00432600  1
  O2-  O283  1  0.83761514  0.33832808  0.33780306  1
  O2-  O284  1  0.83127993  0.34854249  0.66406166  1
  O2-  O285  1  0.83349001  0.82174447  -0.00400138  1
  O2-  O286  1  0.82677502  0.83579785  0.33089039  1
  O2-  O287  1  0.82469438  0.82348009  0.66387509  1
  O2-  O288  1  -0.00130988  0.17882749  0.16418887  1
  O2-  O289  1  0.00649378  0.18365431  0.48875875  1
  O2-  O290  1  0.00246802  0.17865320  0.83432162  1
  O2-  O291  1  0.00134676  0.67301550  0.15828863  1
  O2-  O292  1  -0.00446354  0.66659468  0.49454876  1
  O2-  O293  1  0.00008474  0.68443392  0.83079186  1
  O2-  O294  1  0.33865682  0.18795786  0.16288815  1
  O2-  O295  1  0.32518368  0.18325949  0.50478078  1
  O2-  O296  1  0.33157656  0.17100406  0.84203950  1
  O2-  O297  1  0.33766993  0.67528477  0.17428665  1
  O2-  O298  1  0.33260925  0.67428777  0.49371424  1
  O2-  O299  1  0.33507747  0.67568163  0.82249320  1
  O2-  O300  1  0.67511565  0.17247389  0.16697293  1
  O2-  O301  1  0.67274812  0.17279638  0.50313447  1
  O2-  O302  1  0.67132604  0.17572688  0.82779240  1
  O2-  O303  1  0.66326955  0.68648530  0.16683849  1
  O2-  O304  1  0.65964304  0.68312914  0.49581479  1
  O2-  O305  1  0.68618398  0.68135010  0.84776626  1
  O2-  O306  1  0.15275943  0.18331678  0.15829711  1
  O2-  O307  1  0.15910090  0.17923542  0.50548483  1
  O2-  O308  1  0.16290457  0.18099976  0.83787591  1
  O2-  O309  1  0.16256321  0.67786818  0.17238711  1
  O2-  O310  1  0.16549811  0.67569022  0.50552966  1
  O2-  O311  1  0.17394369  0.68939959  0.83246296  1
  O2-  O312  1  0.49897270  0.18162248  0.16177600  1
  O2-  O313  1  0.50092334  0.17418116  0.50057205  1
  O2-  O314  1  0.49713257  0.17073941  0.82291708  1
  O2-  O315  1  0.49997977  0.67609459  0.15822272  1
  O2-  O316  1  0.49146186  0.67510632  0.49622491  1
  O2-  O317  1  0.50188660  0.67558094  0.82610482  1
  O2-  O318  1  0.83227673  0.17504259  0.17163603  1
  O2-  O319  1  0.82894324  0.16859664  0.49943987  1
  O2-  O320  1  0.83735129  0.17104969  0.82912154  1
  O2-  O321  1  0.82401564  0.67716278  0.17310844  1
  O2-  O322  1  0.84014333  0.68361477  0.48497540  1
  O2-  O323  1  0.84293810  0.68880970  0.82783085  1
  O2-  O324  1  0.00572275  0.31311749  0.17297535  1
  O2-  O325  1  -0.00385328  0.32167351  0.49768341  1
  O2-  O326  1  0.00105680  0.32053330  0.82923719  1
  O2-  O327  1  -0.00120783  0.82884167  0.16663551  1
  O2-  O328  1  0.00676608  0.83043706  0.50351506  1
  O2-  O329  1  0.00564824  0.80743080  0.83596716  1
  O2-  O330  1  0.33019578  0.32095280  0.16119864  1
  O2-  O331  1  0.33232296  0.32001016  0.50074015  1
  O2-  O332  1  0.33602093  0.33014646  0.83668344  1
  O2-  O333  1  0.33655512  0.83805174  0.17030409  1
  O2-  O334  1  0.34174811  0.82808843  0.50836163  1
  O2-  O335  1  0.33244782  0.82927658  0.83146324  1
  O2-  O336  1  0.66655752  0.31963219  0.16582287  1
  O2-  O337  1  0.67315702  0.33143506  0.50371445  1
  O2-  O338  1  0.66191624  0.32922046  0.83034669  1
  O2-  O339  1  0.66468962  0.81328352  0.16129243  1
  O2-  O340  1  0.66671276  0.81991870  0.49806470  1
  O2-  O341  1  0.67447882  0.82054395  0.83916582  1
  O2-  O342  1  0.16623136  0.31861927  0.16572335  1
  O2-  O343  1  0.16418560  0.31089955  0.50339591  1
  O2-  O344  1  0.16770003  0.31960125  0.83302124  1
  O2-  O345  1  0.17509401  0.82925460  0.15521909  1
  O2-  O346  1  0.17177511  0.82632658  0.49568652  1
  O2-  O347  1  0.16460100  0.81880907  0.83389712  1
  O2-  O348  1  0.49276209  0.31280071  0.16944836  1
  O2-  O349  1  0.49944898  0.32821245  0.50196408  1
  O2-  O350  1  0.49828885  0.32999959  0.83331115  1
  O2-  O351  1  0.49745833  0.81511384  0.17855494  1
  O2-  O352  1  0.50561349  0.83442869  0.49404086  1
  O2-  O353  1  0.49684906  0.82607797  0.83507346  1
  O2-  O354  1  0.83428008  0.32064226  0.16780387  1
  O2-  O355  1  0.83281486  0.32825767  0.50260781  1
  O2-  O356  1  0.83725027  0.32686660  0.82780003  1
  O2-  O357  1  0.83825299  0.81687916  0.16179646  1
  O2-  O358  1  0.82704148  0.81753821  0.49989667  1
  O2-  O359  1  0.83103836  0.81756312  0.83558181  1
  O2-  O360  1  0.08447285  0.08048866  0.09588424  1
  O2-  O361  1  0.08184135  0.08178944  0.43912949  1
  O2-  O362  1  0.07658762  0.07444828  0.79202930  1
  O2-  O363  1  0.07302802  0.58404410  0.10491334  1
  O2-  O364  1  0.07921878  0.58080368  0.45186989  1
  O2-  O365  1  0.06572826  0.58541300  0.78086592  1
  O2-  O366  1  0.41347051  0.08566034  0.11296316  1
  O2-  O367  1  0.40614820  0.07408615  0.45118397  1
  O2-  O368  1  0.43894475  0.06389150  0.76363195  1
  O2-  O369  1  0.43184146  0.57727723  0.12530351  1
  O2-  O370  1  0.41545244  0.58249484  0.43803984  1
  O2-  O371  1  0.42823838  0.57006270  0.77355811  1
  O2-  O372  1  0.75309036  0.08022305  0.10821793  1
  O2-  O373  1  0.74738309  0.07913650  0.43849528  1
  O2-  O374  1  0.75063834  0.07822202  0.78017604  1
  O2-  O375  1  0.73582330  0.57986041  0.11542795  1
  O2-  O376  1  0.76503418  0.58465916  0.44360092  1
  O2-  O377  1  0.76959554  0.58216275  0.78785814  1
  O2-  O378  1  0.24662779  0.08961984  0.24474321  1
  O2-  O379  1  0.24318371  0.07750963  0.54766784  1
  O2-  O380  1  0.22812513  0.08310355  0.90549037  1
  O2-  O381  1  0.24969472  0.58180999  0.22761332  1
  O2-  O382  1  0.25234284  0.57180261  0.55480388  1
  O2-  O383  1  0.25643044  0.58136507  0.87581951  1
  O2-  O384  1  0.57843265  0.07452456  0.25290215  1
  O2-  O385  1  0.58660759  0.07907355  0.55490740  1
  O2-  O386  1  0.58146255  0.08509809  0.89477983  1
  O2-  O387  1  0.59636799  0.57968429  0.21337665  1
  O2-  O388  1  0.56669502  0.57875344  0.57323076  1
  O2-  O389  1  0.59233313  0.57981934  0.87205153  1
  O2-  O390  1  0.92667587  0.08145020  0.24165947  1
  O2-  O391  1  0.91435506  0.06787678  0.54080033  1
  O2-  O392  1  0.93026637  0.08198398  0.89235860  1
  O2-  O393  1  0.89678879  0.57727946  0.21192919  1
  O2-  O394  1  0.91300068  0.57932595  0.55206919  1
  O2-  O395  1  0.90985376  0.58046476  0.89016837  1
  O2-  O396  1  0.09105771  0.41612905  0.11095848  1
  O2-  O397  1  0.07591808  0.41361128  0.44238017  1
  O2-  O398  1  0.08796972  0.41831917  0.76971958  1
  O2-  O399  1  0.08365356  0.91956724  0.10409631  1
  O2-  O400  1  0.08092415  0.92391858  0.41527750  1
  O2-  O401  1  0.09587820  0.92412148  0.78425163  1
  O2-  O402  1  0.40554429  0.41912136  0.10698956  1
  O2-  O403  1  0.41184226  0.41822534  0.44626321  1
  O2-  O404  1  0.41020380  0.41856702  0.77898722  1
  O2-  O405  1  0.43128147  0.92171547  0.12063440  1
  O2-  O406  1  0.43301561  0.92086646  0.43721903  1
  O2-  O407  1  0.41732594  0.92038051  0.76752792  1
  O2-  O408  1  0.75221079  0.41858185  0.08732661  1
  O2-  O409  1  0.76919129  0.41905768  0.44363431  1
  O2-  O410  1  0.74767821  0.41617825  0.77274132  1
  O2-  O411  1  0.74971977  0.92320169  0.11794316  1
  O2-  O412  1  0.73019996  0.91836044  0.43475783  1
  O2-  O413  1  0.74701258  0.92522576  0.78395040  1
  O2-  O414  1  0.24674655  0.41613461  0.22593217  1
  O2-  O415  1  0.24161132  0.41843961  0.55745579  1
  O2-  O416  1  0.24003175  0.41708000  0.89330629  1
  O2-  O417  1  0.24511317  0.92542546  0.21877577  1
  O2-  O418  1  0.25757688  0.92099502  0.57286293  1
  O2-  O419  1  0.25057433  0.92045506  0.88433847  1
  O2-  O420  1  0.56629499  0.41120650  0.23161833  1
  O2-  O421  1  0.59976855  0.42147547  0.55324581  1
  O2-  O422  1  0.56681149  0.41876441  0.89447633  1
  O2-  O423  1  0.57058671  0.91752965  0.22386549  1
  O2-  O424  1  0.59149227  0.92229332  0.55586610  1
  O2-  O425  1  0.59651467  0.91965069  0.88414965  1
  O2-  O426  1  0.93507967  0.40975341  0.24890115  1
  O2-  O427  1  0.91429742  0.41670918  0.55403037  1
  O2-  O428  1  0.92318869  0.41709695  0.89474002  1
  O2-  O429  1  0.90984125  0.92069307  0.22613603  1
  O2-  O430  1  0.89175012  0.91599188  0.56784198  1
  O2-  O431  1  0.90510541  0.91779657  0.90189894  1
  O2-  O432  1  0.01827828  -0.00073777  -0.03117518  1
  O2-  O433  1  -0.00447160  0.01498410  0.32051365  1
  O2-  O434  1  -0.00265297  0.02228249  0.66575168  1
  O2-  O435  1  -0.00363264  0.50859177  0.00091664  1
  O2-  O436  1  -0.00481373  0.51369978  0.33734038  1
  O2-  O437  1  -0.00987629  0.51002956  0.69061997  1
  O2-  O438  1  0.33633720  -0.01324503  -0.00245506  1
  O2-  O439  1  0.33533992  -0.00275366  0.32615849  1
  O2-  O440  1  0.34540810  0.00175871  0.63981732  1
  O2-  O441  1  0.34193928  0.49784640  -0.01440635  1
  O2-  O442  1  0.33405351  0.50176626  0.33231071  1
  O2-  O443  1  0.33365662  0.49486106  0.66042723  1
  O2-  O444  1  0.66607219  -0.01119146  0.00129513  1
  O2-  O445  1  0.66063168  -0.00502148  0.33789594  1
  O2-  O446  1  0.66221496  -0.00136852  0.67689032  1
  O2-  O447  1  0.66869578  0.52113543  -0.00414909  1
  O2-  O448  1  0.67734058  0.51779623  0.32034637  1
  O2-  O449  1  0.67006234  0.49628713  0.66084511  1
  O2-  O450  1  0.17090427  -0.01482380  -0.00575447  1
  O2-  O451  1  0.15377427  0.00695483  0.31768406  1
  O2-  O452  1  0.17121445  0.00246074  0.66995232  1
  O2-  O453  1  0.16919073  0.49685588  0.00487735  1
  O2-  O454  1  0.16168918  0.50208298  0.32549210  1
  O2-  O455  1  0.15770915  0.50173845  0.65504619  1
  O2-  O456  1  0.49900149  -0.00123081  -0.00189708  1
  O2-  O457  1  0.49918299  -0.00711216  0.34272988  1
  O2-  O458  1  0.49977652  0.00966861  0.67797659  1
  O2-  O459  1  0.50631836  0.51317126  0.00628229  1
  O2-  O460  1  0.50553894  0.50576530  0.34025224  1
  O2-  O461  1  0.50817858  0.49512427  0.66900941  1
  O2-  O462  1  0.82218341  -0.00686879  -0.01469537  1
  O2-  O463  1  0.82238661  0.01626124  0.32123234  1
  O2-  O464  1  0.82226580  0.00940496  0.64941044  1
  O2-  O465  1  0.82847777  0.51161658  -0.01046351  1
  O2-  O466  1  0.83871530  0.51019606  0.33610488  1
  O2-  O467  1  0.83631471  0.50179290  0.67340312  1
  O2-  O468  1  0.57433099  0.75767793  0.59075439  1
  O2-  O469  1  0.91184970  0.24836744  0.92569876  1
  O2-  O470  1  0.58656994  0.24704672  0.60163033  1
  O2-  O471  1  0.41399078  0.74979603  0.06365869  1
  O2-  O472  1  0.25572586  0.24966774  0.93128890  1
  O2-  O473  1  0.75504904  0.24982587  0.07318778  1
  O2-  O474  1  0.58715764  0.25027343  0.26277166  1
  O2-  O475  1  0.92387918  0.75586333  0.26943878  1
  O2-  O476  1  0.91087421  0.25029639  0.60063529  1
  O2-  O477  1  0.91235138  0.24623338  0.27086291  1
  O2-  O478  1  0.42105911  0.25327930  0.74236709  1
  O2-  O479  1  0.25151336  0.25012106  0.26170726  1
  O2-  O480  1  0.41289173  0.75378907  0.40045153  1
  O2-  O481  1  0.57876966  0.75036378  0.94218491  1
  O2-  O482  1  0.41617445  0.75803626  0.73829611  1
  O2-  O483  1  0.07660458  0.75595105  0.40275805  1
  O2-  O484  1  0.25387858  0.74957039  0.26325975  1
  O2-  O485  1  0.92725870  0.75271287  0.58841665  1
  O2-  O486  1  0.75247861  0.24738124  0.40917258  1
  O2-  O487  1  0.42068165  0.25243542  0.40422067  1
  O2-  O488  1  0.08391510  0.75348470  0.07813197  1
  O2-  O489  1  0.25311842  0.75686320  0.58907805  1
  O2-  O490  1  0.25808594  0.75719770  0.93688735  1
  O2-  O491  1  0.58477455  0.25195932  0.91953301  1
  O2-  O492  1  0.75530051  0.24880488  0.72615055  1
