# generated using pymatgen
data_Ca108Mn108O277
_symmetry_space_group_name_H-M   'P 1'
_cell_length_a   16.02546195
_cell_length_b   22.30321763
_cell_length_c   16.38749223
_cell_angle_alpha   90.00369498
_cell_angle_beta   89.99658147
_cell_angle_gamma   89.99867183
_symmetry_Int_Tables_number   1
_chemical_formula_structural   Ca108Mn108O277
_chemical_formula_sum   'Ca108 Mn108 O277'
_cell_volume   5857.20705266
_cell_formula_units_Z   1
loop_
 _symmetry_equiv_pos_site_id
 _symmetry_equiv_pos_as_xyz
  1  'x, y, z'
loop_
 _atom_type_symbol
 _atom_type_oxidation_number
  Ca2+  2.0
  Mn3.34+  3.34
  O2-  -2.0
loop_
 _atom_site_type_symbol
 _atom_site_label
 _atom_site_symmetry_multiplicity
 _atom_site_fract_x
 _atom_site_fract_y
 _atom_site_fract_z
 _atom_site_occupancy
  Ca2+  Ca0  1  0.07797274  0.24984898  0.23873679  1
  Ca2+  Ca1  1  0.06877406  0.24444491  0.59488116  1
  Ca2+  Ca2  1  0.07608439  0.25015631  0.92226336  1
  Ca2+  Ca3  1  0.08102993  0.75770037  0.23895804  1
  Ca2+  Ca4  1  0.06951033  0.75553223  0.58411072  1
  Ca2+  Ca5  1  0.06628940  0.75172314  0.92828775  1
  Ca2+  Ca6  1  0.41532784  0.22839929  0.25489929  1
  Ca2+  Ca7  1  0.40195564  0.25029842  0.56397361  1
  Ca2+  Ca8  1  0.42140123  0.24833410  0.92412325  1
  Ca2+  Ca9  1  0.42097092  0.75861311  0.25661813  1
  Ca2+  Ca10  1  0.41467099  0.75767403  0.58420933  1
  Ca2+  Ca11  1  0.42035470  0.75418277  0.91031727  1
  Ca2+  Ca12  1  0.76517564  0.24614453  0.23802149  1
  Ca2+  Ca13  1  0.77765307  0.24823604  0.59993414  1
  Ca2+  Ca14  1  0.75682022  0.24862395  0.90951078  1
  Ca2+  Ca15  1  0.74892283  0.74627690  0.25049048  1
  Ca2+  Ca16  1  0.76307522  0.75658161  0.57311771  1
  Ca2+  Ca17  1  0.76880937  0.75118803  0.92276097  1
  Ca2+  Ca18  1  0.25338239  0.23754938  0.09047949  1
  Ca2+  Ca19  1  0.27359241  0.23310013  0.41112095  1
  Ca2+  Ca20  1  0.24680797  0.25105275  0.74324533  1
  Ca2+  Ca21  1  0.24094073  0.76248026  0.08744093  1
  Ca2+  Ca22  1  0.25975798  0.75981852  0.42173110  1
  Ca2+  Ca23  1  0.26298217  0.75910995  0.74214124  1
  Ca2+  Ca24  1  0.57490867  0.24298796  0.07981007  1
  Ca2+  Ca25  1  0.55072470  0.24583732  0.40716733  1
  Ca2+  Ca26  1  0.59437733  0.24201223  0.76703440  1
  Ca2+  Ca27  1  0.59212895  0.75926197  0.08731347  1
  Ca2+  Ca28  1  0.58314779  0.74805534  0.41749547  1
  Ca2+  Ca29  1  0.57196825  0.76644351  0.74770505  1
  Ca2+  Ca30  1  0.92614781  0.24587770  0.09747945  1
  Ca2+  Ca31  1  0.91927409  0.25368171  0.40813456  1
  Ca2+  Ca32  1  0.91601416  0.24112320  0.74710281  1
  Ca2+  Ca33  1  0.92141913  0.75228340  0.07447419  1
  Ca2+  Ca34  1  0.90590903  0.75488080  0.42638750  1
  Ca2+  Ca35  1  0.91419430  0.74527403  0.74927235  1
  Ca2+  Ca36  1  0.89987563  0.59495942  0.41116618  1
  Ca2+  Ca37  1  0.23800480  0.08444437  0.73945515  1
  Ca2+  Ca38  1  0.06681159  0.09800718  0.24413369  1
  Ca2+  Ca39  1  0.40927429  0.60024134  0.57752677  1
  Ca2+  Ca40  1  0.04478035  0.58748284  0.91514433  1
  Ca2+  Ca41  1  0.08327704  0.59285210  0.23743617  1
  Ca2+  Ca42  1  0.55114368  0.09664498  0.40746671  1
  Ca2+  Ca43  1  0.95069289  0.07877312  0.71199689  1
  Ca2+  Ca44  1  0.74187558  0.09186782  0.91796235  1
  Ca2+  Ca45  1  0.42290417  0.58661029  0.25807515  1
  Ca2+  Ca46  1  0.79135270  0.10477325  0.24046141  1
  Ca2+  Ca47  1  0.55834793  0.10103231  0.07873671  1
  Ca2+  Ca48  1  0.39505172  0.09432076  0.58138276  1
  Ca2+  Ca49  1  0.07970374  0.09015604  0.91376902  1
  Ca2+  Ca50  1  0.07731913  0.09748234  0.24374473  1
  Ca2+  Ca51  1  0.26455960  0.58981630  0.42150500  1
  Ca2+  Ca52  1  0.09101872  0.08998551  0.91417767  1
  Ca2+  Ca53  1  0.77430461  0.60953469  0.58362589  1
  Ca2+  Ca54  1  0.24544544  0.57025159  0.04184592  1
  Ca2+  Ca55  1  0.76283989  0.60803802  0.58342872  1
  Ca2+  Ca56  1  0.91999591  0.59208608  0.06469150  1
  Ca2+  Ca57  1  0.57943082  0.60060831  0.75183462  1
  Ca2+  Ca58  1  0.08343444  0.58605932  0.60233602  1
  Ca2+  Ca59  1  0.78440195  0.08688119  0.59459742  1
  Ca2+  Ca60  1  0.43566944  0.58591693  0.25803452  1
  Ca2+  Ca61  1  0.79460377  0.08655887  0.59581531  1
  Ca2+  Ca62  1  0.78765055  0.60005644  0.91136522  1
  Ca2+  Ca63  1  0.79784312  0.59938358  0.90947599  1
  Ca2+  Ca64  1  0.41135552  0.09622272  0.94517686  1
  Ca2+  Ca65  1  0.59220135  0.60123070  0.75203203  1
  Ca2+  Ca66  1  0.90860442  0.59046040  0.41501875  1
  Ca2+  Ca67  1  0.07154599  0.59293003  0.23696874  1
  Ca2+  Ca68  1  0.91616046  0.09884136  0.08356254  1
  Ca2+  Ca69  1  0.39343324  0.57649651  0.92792296  1
  Ca2+  Ca70  1  0.60090322  0.59330946  0.08518158  1
  Ca2+  Ca71  1  0.40482382  0.09243987  0.57857695  1
  Ca2+  Ca72  1  0.91914953  0.91447889  0.74341632  1
  Ca2+  Ca73  1  0.40343087  0.91411734  0.93023975  1
  Ca2+  Ca74  1  0.74400835  0.90988776  0.91667511  1
  Ca2+  Ca75  1  0.57334372  0.41057396  0.08222289  1
  Ca2+  Ca76  1  0.25499026  0.41483207  0.06312971  1
  Ca2+  Ca77  1  0.42026534  0.40355516  0.24917449  1
  Ca2+  Ca78  1  0.07351384  0.92288540  0.60537074  1
  Ca2+  Ca79  1  0.76185831  0.40479551  0.25471230  1
  Ca2+  Ca80  1  0.78009235  0.41284367  0.91849858  1
  Ca2+  Ca81  1  0.58519080  0.40034385  0.41656886  1
  Ca2+  Ca82  1  0.57645776  0.90133187  0.42208576  1
  Ca2+  Ca83  1  0.24389029  0.39604999  0.42387096  1
  Ca2+  Ca84  1  0.09282838  0.40525706  0.59233768  1
  Ca2+  Ca85  1  0.75560869  0.39750225  0.58282676  1
  Ca2+  Ca86  1  0.41431921  0.90961388  0.58822286  1
  Ca2+  Ca87  1  0.41370101  0.91330237  0.92820569  1
  Ca2+  Ca88  1  0.75864424  0.90635463  0.59074953  1
  Ca2+  Ca89  1  0.09452257  0.42405456  0.91564472  1
  Ca2+  Ca90  1  0.40202145  0.90812741  0.23687063  1
  Ca2+  Ca91  1  0.07953412  0.39710514  0.24999715  1
  Ca2+  Ca92  1  0.38962816  0.41927000  0.93525570  1
  Ca2+  Ca93  1  0.58108117  0.39721607  0.74930207  1
  Ca2+  Ca94  1  0.40482780  0.39770299  0.57965893  1
  Ca2+  Ca95  1  0.75652584  0.91042080  0.91668140  1
  Ca2+  Ca96  1  0.56101380  0.40842840  0.08446034  1
  Ca2+  Ca97  1  0.59384488  0.39709133  0.74951898  1
  Ca2+  Ca98  1  0.93515349  0.40680064  0.75479868  1
  Ca2+  Ca99  1  0.92364848  0.90443596  0.42376000  1
  Ca2+  Ca100  1  0.08483978  0.42126518  0.91857880  1
  Ca2+  Ca101  1  0.57534328  0.91208177  0.07596231  1
  Ca2+  Ca102  1  0.08562974  0.90759447  0.24705762  1
  Ca2+  Ca103  1  0.92239710  0.41219475  0.07108428  1
  Ca2+  Ca104  1  0.25215608  0.91178234  0.41081620  1
  Ca2+  Ca105  1  0.06309282  0.92226962  0.60639580  1
  Ca2+  Ca106  1  0.75911226  0.89809687  0.24414811  1
  Ca2+  Ca107  1  0.74941032  0.40646217  0.25628236  1
  Mn3.34+  Mn108  1  0.08733907  0.33224528  0.08320821  1
  Mn3.34+  Mn109  1  0.08339982  0.33368462  0.42030967  1
  Mn3.34+  Mn110  1  0.08776192  0.33674083  0.75370747  1
  Mn3.34+  Mn111  1  0.08151328  0.83952845  0.07801870  1
  Mn3.34+  Mn112  1  0.08552408  0.83633696  0.41732142  1
  Mn3.34+  Mn113  1  0.09055962  0.84223023  0.76421710  1
  Mn3.34+  Mn114  1  0.40940720  0.33166798  0.08747517  1
  Mn3.34+  Mn115  1  0.41476047  0.33412339  0.41368746  1
  Mn3.34+  Mn116  1  0.41145883  0.32723435  0.75243114  1
  Mn3.34+  Mn117  1  0.41370821  0.83584584  0.08551329  1
  Mn3.34+  Mn118  1  0.41640118  0.83659886  0.41729113  1
  Mn3.34+  Mn119  1  0.41406798  0.83993128  0.75157401  1
  Mn3.34+  Mn120  1  0.75181347  0.33480405  0.08102430  1
  Mn3.34+  Mn121  1  0.75019883  0.32987685  0.42184118  1
  Mn3.34+  Mn122  1  0.75719985  0.33239009  0.75320799  1
  Mn3.34+  Mn123  1  0.75425084  0.83404488  0.08651267  1
  Mn3.34+  Mn124  1  0.74878124  0.83450171  0.41672424  1
  Mn3.34+  Mn125  1  0.74977893  0.83337956  0.75127999  1
  Mn3.34+  Mn126  1  0.25087391  0.32693997  0.24886497  1
  Mn3.34+  Mn127  1  0.24620122  0.32979101  0.58382854  1
  Mn3.34+  Mn128  1  0.24852933  0.33248733  0.90929902  1
  Mn3.34+  Mn129  1  0.24814214  0.83636702  0.24800725  1
  Mn3.34+  Mn130  1  0.24660308  0.83582863  0.58462756  1
  Mn3.34+  Mn131  1  0.24043517  0.83695257  0.91093395  1
  Mn3.34+  Mn132  1  0.58365850  0.32913211  0.24779652  1
  Mn3.34+  Mn133  1  0.58382318  0.32330974  0.57923635  1
  Mn3.34+  Mn134  1  0.58270764  0.33046292  0.91688957  1
  Mn3.34+  Mn135  1  0.58271745  0.83398921  0.24884344  1
  Mn3.34+  Mn136  1  0.58406566  0.83545790  0.58555285  1
  Mn3.34+  Mn137  1  0.58411730  0.83354158  0.91407171  1
  Mn3.34+  Mn138  1  0.91914460  0.32907403  0.24880579  1
  Mn3.34+  Mn139  1  0.92185667  0.32803276  0.58142416  1
  Mn3.34+  Mn140  1  0.92372108  0.33141680  0.91401027  1
  Mn3.34+  Mn141  1  0.91920052  0.83182170  0.24889841  1
  Mn3.34+  Mn142  1  0.91839381  0.83178505  0.58303741  1
  Mn3.34+  Mn143  1  0.92191299  0.83358367  0.91440230  1
  Mn3.34+  Mn144  1  0.08784837  0.16509490  0.08244154  1
  Mn3.34+  Mn145  1  0.08952478  0.16240580  0.42360765  1
  Mn3.34+  Mn146  1  0.24503010  0.16868424  0.58484495  1
  Mn3.34+  Mn147  1  0.25331613  0.16938120  0.91238711  1
  Mn3.34+  Mn148  1  0.09185875  0.66262767  0.42274769  1
  Mn3.34+  Mn149  1  0.24746988  0.66218646  0.90945954  1
  Mn3.34+  Mn150  1  0.08611984  0.16277754  0.75378805  1
  Mn3.34+  Mn151  1  0.41024623  0.66215985  0.08341340  1
  Mn3.34+  Mn152  1  0.26033517  0.16125918  0.24540292  1
  Mn3.34+  Mn153  1  0.07665192  0.16678767  0.42569150  1
  Mn3.34+  Mn154  1  0.74238121  0.16878587  0.41712721  1
  Mn3.34+  Mn155  1  0.41023742  0.67111192  0.75399248  1
  Mn3.34+  Mn156  1  0.75194179  0.17573540  0.41645324  1
  Mn3.34+  Mn157  1  0.58944470  0.17176664  0.58740665  1
  Mn3.34+  Mn158  1  0.58931359  0.66813250  0.25028977  1
  Mn3.34+  Mn159  1  0.41539258  0.16335230  0.76011067  1
  Mn3.34+  Mn160  1  0.75431340  0.16368290  0.75795808  1
  Mn3.34+  Mn161  1  0.58246751  0.17071608  0.24157434  1
  Mn3.34+  Mn162  1  0.74769146  0.16398873  0.08005635  1
  Mn3.34+  Mn163  1  0.24979933  0.67071084  0.24982273  1
  Mn3.34+  Mn164  1  0.42428822  0.66812110  0.08121528  1
  Mn3.34+  Mn165  1  0.09207478  0.65915545  0.75661643  1
  Mn3.34+  Mn166  1  0.41873040  0.66847884  0.41770241  1
  Mn3.34+  Mn167  1  0.58000033  0.67191035  0.57888134  1
  Mn3.34+  Mn168  1  0.08275032  0.66428762  0.75482729  1
  Mn3.34+  Mn169  1  0.58416010  0.67188868  0.91747478  1
  Mn3.34+  Mn170  1  0.75163662  0.66935028  0.08403161  1
  Mn3.34+  Mn171  1  0.74363725  0.66672501  0.41155120  1
  Mn3.34+  Mn172  1  0.25338660  0.66825906  0.58612933  1
  Mn3.34+  Mn173  1  0.57963756  0.16634056  0.58749573  1
  Mn3.34+  Mn174  1  0.91742484  0.16585901  0.91430150  1
  Mn3.34+  Mn175  1  0.74862194  0.67747041  0.75050935  1
  Mn3.34+  Mn176  1  0.08702695  0.67016559  0.07898885  1
  Mn3.34+  Mn177  1  0.07887367  0.66912342  0.41995878  1
  Mn3.34+  Mn178  1  0.58108869  0.16673782  0.91601796  1
  Mn3.34+  Mn179  1  0.91105415  0.66907199  0.24113190  1
  Mn3.34+  Mn180  1  0.25047259  0.00149210  0.92260425  1
  Mn3.34+  Mn181  1  0.08387340  0.49774514  0.07957090  1
  Mn3.34+  Mn182  1  0.40562030  -0.00056598  0.40567115  1
  Mn3.34+  Mn183  1  0.76220228  0.50067257  0.74937083  1
  Mn3.34+  Mn184  1  0.59316054  0.50161999  0.25246183  1
  Mn3.34+  Mn185  1  0.59088686  0.49776561  0.91989395  1
  Mn3.34+  Mn186  1  0.58735376  0.00161313  0.59314019  1
  Mn3.34+  Mn187  1  0.41958097  0.00192738  0.74433277  1
  Mn3.34+  Mn188  1  0.08405977  -0.00109278  0.40933517  1
  Mn3.34+  Mn189  1  0.24483752  0.49968240  0.24478292  1
  Mn3.34+  Mn190  1  0.76307445  0.00610354  0.41344628  1
  Mn3.34+  Mn191  1  0.24033335  0.00101181  0.58869060  1
  Mn3.34+  Mn192  1  0.24892962  -0.00006219  0.24762433  1
  Mn3.34+  Mn193  1  0.07588978  0.49740268  0.41522800  1
  Mn3.34+  Mn194  1  0.24495028  0.49856949  0.58931365  1
  Mn3.34+  Mn195  1  0.42930778  0.49996858  0.41609531  1
  Mn3.34+  Mn196  1  0.39410580  0.50163951  0.74942135  1
  Mn3.34+  Mn197  1  0.91945107  0.49793100  0.58936551  1
  Mn3.34+  Mn198  1  0.91902593  -0.00581389  0.24410791  1
  Mn3.34+  Mn199  1  0.57590723  0.50362157  0.92003356  1
  Mn3.34+  Mn200  1  0.92242604  -0.00068240  0.91816865  1
  Mn3.34+  Mn201  1  0.58295949  0.00647554  0.24474276  1
  Mn3.34+  Mn202  1  0.74934986  0.00012658  0.41211567  1
  Mn3.34+  Mn203  1  0.25608948  0.49527298  0.24468377  1
  Mn3.34+  Mn204  1  0.75784638  0.50352822  0.08593564  1
  Mn3.34+  Mn205  1  0.40665730  0.49824875  0.75144538  1
  Mn3.34+  Mn206  1  0.75561226  -0.00138453  0.07693570  1
  Mn3.34+  Mn207  1  0.58178434  0.00150829  0.91794910  1
  Mn3.34+  Mn208  1  0.58088052  0.50290747  0.56969683  1
  Mn3.34+  Mn209  1  0.91195660  0.50318652  0.24929646  1
  Mn3.34+  Mn210  1  0.57192269  0.00219393  0.24491222  1
  Mn3.34+  Mn211  1  0.08620607  -0.00307253  0.07089855  1
  Mn3.34+  Mn212  1  0.74555450  0.00086944  0.74192652  1
  Mn3.34+  Mn213  1  0.92153536  0.49082909  0.57771062  1
  Mn3.34+  Mn214  1  0.58556987  0.49984266  0.57989344  1
  Mn3.34+  Mn215  1  0.74611799  0.49661956  0.41685238  1
  O2-  O216  1  0.00285445  0.15008170  -0.00208191  1
  O2-  O217  1  0.00891615  0.16771274  0.33204420  1
  O2-  O218  1  0.00668536  0.17515913  0.68258798  1
  O2-  O219  1  0.00522871  0.65988731  0.00661183  1
  O2-  O220  1  0.00029903  0.64378887  0.33266884  1
  O2-  O221  1  0.01146341  0.67075356  0.66848056  1
  O2-  O222  1  0.32954065  0.18819330  -0.01034270  1
  O2-  O223  1  0.32985032  0.15978002  0.32633645  1
  O2-  O224  1  0.33412551  0.15660269  0.67129853  1
  O2-  O225  1  0.33269019  0.65998995  -0.00422714  1
  O2-  O226  1  0.33551572  0.64792025  0.32754351  1
  O2-  O227  1  0.33934579  0.65985502  0.66271679  1
  O2-  O228  1  0.66163820  0.15757329  0.00140716  1
  O2-  O229  1  0.67452433  0.15314109  0.32695661  1
  O2-  O230  1  0.67512303  0.16077513  0.66439080  1
  O2-  O231  1  0.67845782  0.64784560  -0.01179709  1
  O2-  O232  1  0.66372914  0.66679110  0.33309587  1
  O2-  O233  1  0.66699921  0.65558645  0.66482501  1
  O2-  O234  1  0.16274524  0.16178298  -0.00898920  1
  O2-  O235  1  0.16194603  0.16351870  0.33485523  1
  O2-  O236  1  0.16877583  0.17093736  0.67504819  1
  O2-  O237  1  0.17112022  0.66347311  -0.00151218  1
  O2-  O238  1  0.16311722  0.64072505  0.33801095  1
  O2-  O239  1  0.16838699  0.66355728  0.67242839  1
  O2-  O240  1  0.49928055  0.16955688  -0.00559906  1
  O2-  O241  1  0.50742466  0.16363887  0.32484103  1
  O2-  O242  1  0.49598063  0.18018878  0.67036586  1
  O2-  O243  1  0.49871401  0.63874766  0.00023662  1
  O2-  O244  1  0.49722185  0.65577511  0.32931940  1
  O2-  O245  1  0.49988692  0.65015314  0.66717785  1
  O2-  O246  1  0.82896840  0.15499094  -0.00848362  1
  O2-  O247  1  0.83227837  0.17430691  0.33606368  1
  O2-  O248  1  0.83534382  0.15615373  0.67852808  1
  O2-  O249  1  0.83523775  0.66208286  0.00756223  1
  O2-  O250  1  0.83491446  0.65344306  0.32840979  1
  O2-  O251  1  0.82381254  0.67610096  0.66516505  1
  O2-  O252  1  0.01088314  0.35177563  -0.00726734  1
  O2-  O253  1  0.00407847  0.33153298  0.33048063  1
  O2-  O254  1  0.00522870  0.34248986  0.66771407  1
  O2-  O255  1  -0.00130470  0.83966588  -0.00027381  1
  O2-  O256  1  0.00244710  0.84947385  0.33343773  1
  O2-  O257  1  0.00362803  0.83392215  0.66218504  1
  O2-  O258  1  0.32817568  0.33252089  0.00038094  1
  O2-  O259  1  0.33231503  0.35131097  0.33266079  1
  O2-  O260  1  0.33757871  0.33327670  0.66358294  1
  O2-  O261  1  0.33542069  0.83471010  -0.00518281  1
  O2-  O262  1  0.33280408  0.84613585  0.33358626  1
  O2-  O263  1  0.33414547  0.84402799  0.66341308  1
  O2-  O264  1  0.66550197  0.35472127  0.00335181  1
  O2-  O265  1  0.67003940  0.34459588  0.33196636  1
  O2-  O266  1  0.66880752  0.33814452  0.66498402  1
  O2-  O267  1  0.66500772  0.84895473  0.00146718  1
  O2-  O268  1  0.66656254  0.84971693  0.33382141  1
  O2-  O269  1  0.67632135  0.82802821  0.66185019  1
  O2-  O270  1  0.16582513  0.34111610  -0.00506741  1
  O2-  O271  1  0.16532937  0.34208471  0.33050874  1
  O2-  O272  1  0.16224811  0.32742541  0.66497183  1
  O2-  O273  1  0.16763052  0.82157942  -0.00393381  1
  O2-  O274  1  0.16827159  0.85168415  0.33459543  1
  O2-  O275  1  0.15922603  0.83621011  0.66338122  1
  O2-  O276  1  0.49307866  0.34061792  -0.00048744  1
  O2-  O277  1  0.50234273  0.34603547  0.33259079  1
  O2-  O278  1  0.50217379  0.33342989  0.66817593  1
  O2-  O279  1  0.49879320  0.84946193  -0.00461912  1
  O2-  O280  1  0.49585462  0.84977851  0.32867518  1
  O2-  O281  1  0.49774198  0.84596880  0.66423251  1
  O2-  O282  1  0.83780039  0.34372802  0.00149765  1
  O2-  O283  1  0.82833126  0.33201789  0.33003159  1
  O2-  O284  1  0.83742387  0.34793072  0.67072274  1
  O2-  O285  1  0.82633357  0.84636717  -0.00782659  1
  O2-  O286  1  0.83596270  0.84513441  0.33908645  1
  O2-  O287  1  0.83653802  0.84082240  0.66897845  1
  O2-  O288  1  0.00727782  0.16873892  0.16140638  1
  O2-  O289  1  -0.00124441  0.19184833  0.49113499  1
  O2-  O290  1  0.00923950  0.17921660  0.84174422  1
  O2-  O291  1  0.00766897  0.67378983  0.17289077  1
  O2-  O292  1  -0.00867029  0.67584131  0.48803316  1
  O2-  O293  1  0.00614472  0.68315789  0.83178548  1
  O2-  O294  1  0.33056258  0.17736394  0.16722569  1
  O2-  O295  1  0.33312806  0.17004602  0.51242768  1
  O2-  O296  1  0.33138355  0.19041570  0.82934384  1
  O2-  O297  1  0.33837137  0.68468970  0.16736879  1
  O2-  O298  1  0.32727583  0.67635798  0.49121923  1
  O2-  O299  1  0.33230529  0.68822651  0.83804216  1
  O2-  O300  1  0.67111739  0.18948780  0.16116032  1
  O2-  O301  1  0.65345662  0.18913480  0.48832881  1
  O2-  O302  1  0.67375154  0.17728653  0.84068492  1
  O2-  O303  1  0.66015823  0.67936362  0.15780871  1
  O2-  O304  1  0.67525210  0.67938968  0.51137557  1
  O2-  O305  1  0.65636411  0.68758225  0.81931358  1
  O2-  O306  1  0.16017339  0.17738958  0.17005955  1
  O2-  O307  1  0.16619045  0.18769389  0.50135304  1
  O2-  O308  1  0.16492893  0.18634702  0.83479651  1
  O2-  O309  1  0.16001471  0.67632744  0.17709303  1
  O2-  O310  1  0.16087876  0.67930335  0.51156902  1
  O2-  O311  1  0.16742003  0.68731206  0.83276396  1
  O2-  O312  1  0.50674781  0.18215364  0.16288574  1
  O2-  O313  1  0.49510109  0.17780902  0.50886959  1
  O2-  O314  1  0.49906968  0.18550693  0.83548628  1
  O2-  O315  1  0.49856269  0.67725034  0.16981620  1
  O2-  O316  1  0.49364457  0.68161002  0.50461946  1
  O2-  O317  1  0.50243154  0.67691524  0.82777862  1
  O2-  O318  1  0.83153390  0.18060632  0.15160055  1
  O2-  O319  1  0.82168698  0.18058616  0.50610904  1
  O2-  O320  1  0.83608174  0.18047766  0.83629669  1
  O2-  O321  1  0.83420819  0.68682764  0.16222528  1
  O2-  O322  1  0.83174217  0.66857724  0.48823435  1
  O2-  O323  1  0.82406096  0.68145658  0.83377573  1
  O2-  O324  1  -0.00199065  0.33221301  0.16062511  1
  O2-  O325  1  0.00388712  0.31292485  0.50082405  1
  O2-  O326  1  -0.00000656  0.31130534  0.82710859  1
  O2-  O327  1  0.00140985  0.82473443  0.17062126  1
  O2-  O328  1  -0.00135665  0.82080673  0.49438480  1
  O2-  O329  1  -0.00272776  0.81953934  0.82697392  1
  O2-  O330  1  0.33578321  0.31150623  0.17046580  1
  O2-  O331  1  0.33149451  0.32801682  0.49710233  1
  O2-  O332  1  0.33544952  0.31097486  0.83808098  1
  O2-  O333  1  0.33622422  0.81832232  0.17120778  1
  O2-  O334  1  0.33432038  0.82807281  0.49961630  1
  O2-  O335  1  0.33363957  0.81996020  0.83717585  1
  O2-  O336  1  0.67065938  0.32157596  0.16564155  1
  O2-  O337  1  0.66449768  0.30705169  0.49756686  1
  O2-  O338  1  0.66589081  0.32352970  0.82809782  1
  O2-  O339  1  0.67050232  0.82151281  0.17191096  1
  O2-  O340  1  0.66411093  0.82230891  0.49621858  1
  O2-  O341  1  0.67184561  0.81653090  0.83971164  1
  O2-  O342  1  0.16427167  0.31942149  0.16728412  1
  O2-  O343  1  0.16924796  0.31519523  0.49714463  1
  O2-  O344  1  0.16463651  0.30941762  0.83496531  1
  O2-  O345  1  0.16458233  0.82360458  0.17133273  1
  O2-  O346  1  0.16687473  0.82096690  0.49891065  1
  O2-  O347  1  0.16599298  0.80284428  0.83267121  1
  O2-  O348  1  0.50547681  0.31846356  0.15811240  1
  O2-  O349  1  0.49712480  0.31738881  0.50063645  1
  O2-  O350  1  0.50576311  0.31643209  0.82238078  1
  O2-  O351  1  0.50208520  0.82176989  0.16327327  1
  O2-  O352  1  0.50165414  0.82504435  0.49592359  1
  O2-  O353  1  0.49614595  0.82551791  0.83953021  1
  O2-  O354  1  0.82986624  0.32229557  0.16589795  1
  O2-  O355  1  0.83099615  0.31368301  0.50270248  1
  O2-  O356  1  0.83348905  0.32626443  0.83813786  1
  O2-  O357  1  0.83188188  0.81601703  0.17249215  1
  O2-  O358  1  0.83157570  0.83123071  0.50145626  1
  O2-  O359  1  0.83111632  0.81883017  0.83157265  1
  O2-  O360  1  0.08765352  0.07686983  0.11073697  1
  O2-  O361  1  0.08550552  0.07869499  0.43463573  1
  O2-  O362  1  0.08991782  0.08182322  0.77679650  1
  O2-  O363  1  0.09001825  0.58016616  0.10142723  1
  O2-  O364  1  0.07345031  0.57985557  0.46066350  1
  O2-  O365  1  0.08858191  0.57844835  0.77976116  1
  O2-  O366  1  0.42780161  0.07032228  0.08297171  1
  O2-  O367  1  0.42870182  0.06935475  0.45676472  1
  O2-  O368  1  0.39928591  0.07877192  0.78652581  1
  O2-  O369  1  0.41288850  0.58138300  0.12083037  1
  O2-  O370  1  0.41404522  0.58317781  0.44224495  1
  O2-  O371  1  0.41773756  0.58162113  0.78783511  1
  O2-  O372  1  0.75736172  0.07745265  0.11221674  1
  O2-  O373  1  0.74088355  0.08250248  0.46208458  1
  O2-  O374  1  0.74954277  0.08021610  0.77753009  1
  O2-  O375  1  0.75345666  0.58436141  0.10274993  1
  O2-  O376  1  0.75939904  0.57627241  0.45379273  1
  O2-  O377  1  0.72786807  0.58198379  0.78454205  1
  O2-  O378  1  0.21905363  0.07989816  0.23229769  1
  O2-  O379  1  0.25507819  0.08306518  0.57260179  1
  O2-  O380  1  0.23566558  0.08036255  0.88050965  1
  O2-  O381  1  0.24417723  0.58063596  0.20897465  1
  O2-  O382  1  0.25121147  0.58004206  0.55824707  1
  O2-  O383  1  0.25212756  0.58463835  0.89904915  1
  O2-  O384  1  0.59226955  0.08650417  0.21301622  1
  O2-  O385  1  0.58537919  0.08155200  0.55082794  1
  O2-  O386  1  0.57961178  0.08251158  0.90108165  1
  O2-  O387  1  0.57024988  0.58269144  0.21846005  1
  O2-  O388  1  0.58836392  0.58636412  0.55936642  1
  O2-  O389  1  0.58533009  0.58309138  0.88384397  1
  O2-  O390  1  0.93129050  0.07436200  0.21685419  1
  O2-  O391  1  0.91133382  0.06869147  0.57429315  1
  O2-  O392  1  0.93361643  0.07947701  0.87716894  1
  O2-  O393  1  0.92922932  0.58205896  0.20592481  1
  O2-  O394  1  0.91169728  0.57878584  0.55259537  1
  O2-  O395  1  0.91489357  0.57228551  0.90423610  1
  O2-  O396  1  0.09029747  0.41898631  0.11242369  1
  O2-  O397  1  0.09759434  0.41833050  0.44976084  1
  O2-  O398  1  0.07625875  0.41923139  0.78470103  1
  O2-  O399  1  0.08627579  0.92120014  0.10943141  1
  O2-  O400  1  0.07818269  0.92278283  0.45769412  1
  O2-  O401  1  0.06814689  0.92054734  0.75163795  1
  O2-  O402  1  0.42570550  0.41725591  0.11357743  1
  O2-  O403  1  0.42962338  0.41847847  0.44778634  1
  O2-  O404  1  0.43005150  0.41897572  0.78204361  1
  O2-  O405  1  0.42162557  0.91594726  0.09768399  1
  O2-  O406  1  0.41725285  0.92207992  0.44822932  1
  O2-  O407  1  0.41815006  0.92289969  0.78735488  1
  O2-  O408  1  0.74470452  0.42499788  0.12377161  1
  O2-  O409  1  0.73483808  0.41734314  0.45339308  1
  O2-  O410  1  0.73375853  0.41784569  0.77939815  1
  O2-  O411  1  0.74283528  0.91916998  0.11037432  1
  O2-  O412  1  0.75187427  0.92149797  0.44955570  1
  O2-  O413  1  0.74991957  0.92233135  0.78167696  1
  O2-  O414  1  0.25359679  0.41398165  0.21545918  1
  O2-  O415  1  0.24898320  0.41616126  0.56209978  1
  O2-  O416  1  0.23887563  0.41211484  0.89688702  1
  O2-  O417  1  0.25438649  0.91912713  0.21732049  1
  O2-  O418  1  0.24091354  0.92216597  0.55367654  1
  O2-  O419  1  0.26627816  0.92162358  0.89600931  1
  O2-  O420  1  0.58762755  0.41657958  0.21601830  1
  O2-  O421  1  0.58519438  0.41488916  0.56335730  1
  O2-  O422  1  0.57588993  0.41785096  0.88178524  1
  O2-  O423  1  0.58207958  0.91987086  0.21712591  1
  O2-  O424  1  0.58888716  0.92145598  0.56046684  1
  O2-  O425  1  0.60008154  0.91994495  0.89053376  1
  O2-  O426  1  0.89976447  0.41900597  0.22589319  1
  O2-  O427  1  0.91496871  0.41263144  0.55668013  1
  O2-  O428  1  0.93118032  0.41398848  0.89076798  1
  O2-  O429  1  0.90517534  0.91447878  0.22935897  1
  O2-  O430  1  0.93014200  0.91643108  0.56361300  1
  O2-  O431  1  0.89796740  0.92064706  0.88322261  1
  O2-  O432  1  -0.00565778  0.02160219  0.00357711  1
  O2-  O433  1  0.00476135  -0.00303287  0.32073992  1
  O2-  O434  1  -0.00585213  -0.01039990  0.67447975  1
  O2-  O435  1  0.00612813  0.49183120  0.00151124  1
  O2-  O436  1  0.00789338  0.51912311  0.31782597  1
  O2-  O437  1  -0.00301192  0.49636201  0.67015903  1
  O2-  O438  1  0.35619189  0.00529651  -0.04401418  1
  O2-  O439  1  0.33628636  -0.01745918  0.32220020  1
  O2-  O440  1  0.33043966  0.00442398  0.65903641  1
  O2-  O441  1  0.33430650  0.49893525  -0.00922621  1
  O2-  O442  1  0.33114923  0.51036563  0.33388916  1
  O2-  O443  1  0.34940808  0.49686709  0.64177691  1
  O2-  O444  1  0.66861467  -0.00466508  -0.00594781  1
  O2-  O445  1  0.66284949  0.00136380  0.33408976  1
  O2-  O446  1  0.70054727  0.00480740  0.62359138  1
  O2-  O447  1  0.65407984  0.49516477  0.02046075  1
  O2-  O448  1  0.67840669  0.47524745  0.32604795  1
  O2-  O449  1  0.65035711  0.49393670  0.68288418  1
  O2-  O450  1  0.15072049  0.01080958  -0.02257017  1
  O2-  O451  1  0.16464135  -0.01484771  0.32692977  1
  O2-  O452  1  0.15023171  0.00234129  0.64598171  1
  O2-  O453  1  0.16637179  0.48932420  0.00409975  1
  O2-  O454  1  0.16541793  0.50931810  0.33032985  1
  O2-  O455  1  0.13994176  0.49783424  0.61857931  1
  O2-  O456  1  0.50371812  -0.00915135  -0.00964122  1
  O2-  O457  1  0.50615398  0.00176584  0.34276190  1
  O2-  O458  1  0.47924963  0.00920157  0.63257644  1
  O2-  O459  1  0.50113096  0.49004764  0.00532265  1
  O2-  O460  1  0.48448616  0.49842121  0.30507430  1
  O2-  O461  1  0.50133978  0.51081096  0.67404921  1
  O2-  O462  1  0.81961956  0.00322336  -0.02683406  1
  O2-  O463  1  0.82629814  0.00756588  0.31637732  1
  O2-  O464  1  0.84092819  0.00015186  0.69039760  1
  O2-  O465  1  0.82487988  0.49430928  -0.00257022  1
  O2-  O466  1  0.84341063  0.50931955  0.34796194  1
  O2-  O467  1  0.80705663  0.50444542  0.63329089  1
  O2-  O468  1  0.41549593  0.75149413  0.39478590  1
  O2-  O469  1  0.59641051  0.25069379  0.93740285  1
  O2-  O470  1  0.42153962  0.75306700  0.72906179  1
  O2-  O471  1  0.07442349  0.24959677  0.06459090  1
  O2-  O472  1  0.42450640  0.74891561  0.05753657  1
  O2-  O473  1  0.25837338  0.75192765  0.59933509  1
  O2-  O474  1  0.24426230  0.24781664  0.27126498  1
  O2-  O475  1  0.75417940  0.24953014  0.73735126  1
  O2-  O476  1  0.91272633  0.75322904  0.58747889  1
  O2-  O477  1  0.09171127  0.74937403  0.38829119  1
  O2-  O478  1  0.75596284  0.75358214  0.39994684  1
  O2-  O479  1  0.07965947  0.75136522  0.07533079  1
  O2-  O480  1  0.57750188  0.75222576  0.27315132  1
  O2-  O481  1  0.91852810  0.24849233  0.94584291  1
  O2-  O482  1  0.59250072  0.25088189  0.27543079  1
  O2-  O483  1  0.91649627  0.75573284  0.93541473  1
  O2-  O484  1  0.57273287  0.75060091  0.60567653  1
  O2-  O485  1  0.57283006  0.75161567  0.94794485  1
  O2-  O486  1  0.92329508  0.25133928  0.25171713  1
  O2-  O487  1  0.74180353  0.75168155  0.05909378  1
  O2-  O488  1  0.92545246  0.74848507  0.27910425  1
  O2-  O489  1  0.41064321  0.25493681  0.39676614  1
  O2-  O490  1  0.26177711  0.24929815  0.60109699  1
  O2-  O491  1  0.24563819  0.75216509  0.27931418  1
  O2-  O492  1  0.91733965  0.25301120  0.61040361  1
