# generated using pymatgen
data_Ca108Mn108O277
_symmetry_space_group_name_H-M   'P 1'
_cell_length_a   16.02616847
_cell_length_b   22.30591100
_cell_length_c   16.38848140
_cell_angle_alpha   90.00377063
_cell_angle_beta   89.99350274
_cell_angle_gamma   89.99633795
_symmetry_Int_Tables_number   1
_chemical_formula_structural   Ca108Mn108O277
_chemical_formula_sum   'Ca108 Mn108 O277'
_cell_volume   5858.52620506
_cell_formula_units_Z   1
loop_
 _symmetry_equiv_pos_site_id
 _symmetry_equiv_pos_as_xyz
  1  'x, y, z'
loop_
 _atom_type_symbol
 _atom_type_oxidation_number
  Ca2+  2.0
  Mn3.34+  3.34
  O2-  -2.0
loop_
 _atom_site_type_symbol
 _atom_site_label
 _atom_site_symmetry_multiplicity
 _atom_site_fract_x
 _atom_site_fract_y
 _atom_site_fract_z
 _atom_site_occupancy
  Ca2+  Ca0  1  0.09490355  0.24606172  0.24970547  1
  Ca2+  Ca1  1  0.10638890  0.24005930  0.59370767  1
  Ca2+  Ca2  1  0.07703640  0.24114819  0.90002767  1
  Ca2+  Ca3  1  0.09576393  0.75462355  0.25534020  1
  Ca2+  Ca4  1  0.09349343  0.75781026  0.58002462  1
  Ca2+  Ca5  1  0.07601199  0.75579988  0.91192912  1
  Ca2+  Ca6  1  0.40745169  0.24633369  0.26464085  1
  Ca2+  Ca7  1  0.42065731  0.23706661  0.58081295  1
  Ca2+  Ca8  1  0.42729413  0.24898257  0.91628505  1
  Ca2+  Ca9  1  0.40893212  0.75855004  0.26280468  1
  Ca2+  Ca10  1  0.40843163  0.75822582  0.57186062  1
  Ca2+  Ca11  1  0.41743620  0.76348729  0.91654250  1
  Ca2+  Ca12  1  0.74690935  0.25716120  0.23926041  1
  Ca2+  Ca13  1  0.73041239  0.25433770  0.59295565  1
  Ca2+  Ca14  1  0.75045749  0.24848261  0.91532249  1
  Ca2+  Ca15  1  0.74613793  0.74587355  0.25864341  1
  Ca2+  Ca16  1  0.74760685  0.74069220  0.57006540  1
  Ca2+  Ca17  1  0.75773152  0.74506342  0.91451456  1
  Ca2+  Ca18  1  0.25094839  0.24406423  0.07953878  1
  Ca2+  Ca19  1  0.26404122  0.24416261  0.42886802  1
  Ca2+  Ca20  1  0.23808638  0.23834924  0.74208720  1
  Ca2+  Ca21  1  0.25261464  0.75631211  0.09397832  1
  Ca2+  Ca22  1  0.25872783  0.76382383  0.41914842  1
  Ca2+  Ca23  1  0.25315945  0.76248733  0.73782333  1
  Ca2+  Ca24  1  0.58050640  0.23048522  0.06064699  1
  Ca2+  Ca25  1  0.56841291  0.25335192  0.44020660  1
  Ca2+  Ca26  1  0.58853961  0.24157980  0.74613139  1
  Ca2+  Ca27  1  0.58174748  0.75705227  0.08722957  1
  Ca2+  Ca28  1  0.57648414  0.75314519  0.41357082  1
  Ca2+  Ca29  1  0.58097379  0.75741814  0.74259622  1
  Ca2+  Ca30  1  0.91548365  0.24423897  0.06413276  1
  Ca2+  Ca31  1  0.92353269  0.25842585  0.42087161  1
  Ca2+  Ca32  1  0.92078397  0.25219437  0.76988889  1
  Ca2+  Ca33  1  0.91656823  0.74628652  0.07082960  1
  Ca2+  Ca34  1  0.92288555  0.75433385  0.41826516  1
  Ca2+  Ca35  1  0.91871589  0.75077851  0.75556689  1
  Ca2+  Ca36  1  0.94544572  0.10581032  0.77255609  1
  Ca2+  Ca37  1  0.54168013  0.10745622  0.42974778  1
  Ca2+  Ca38  1  0.24945503  0.57783703  0.08805074  1
  Ca2+  Ca39  1  0.72839464  0.58166089  0.25837033  1
  Ca2+  Ca40  1  0.26130830  0.58872517  0.40776786  1
  Ca2+  Ca41  1  0.40820546  0.09361974  0.24252158  1
  Ca2+  Ca42  1  0.09165248  0.59679827  0.59120909  1
  Ca2+  Ca43  1  0.27138735  0.58488791  0.40940322  1
  Ca2+  Ca44  1  0.71816145  0.09874511  0.59628465  1
  Ca2+  Ca45  1  0.95153224  0.10017738  0.76960521  1
  Ca2+  Ca46  1  0.41860740  0.09474833  0.24325495  1
  Ca2+  Ca47  1  0.07874026  0.59707624  0.59223325  1
  Ca2+  Ca48  1  0.08421544  0.11009539  0.22484689  1
  Ca2+  Ca49  1  0.06903583  0.59534548  0.92298849  1
  Ca2+  Ca50  1  0.60195862  0.59404787  0.40158826  1
  Ca2+  Ca51  1  0.75809155  0.11570198  0.91402721  1
  Ca2+  Ca52  1  0.76414477  0.59383766  0.92794915  1
  Ca2+  Ca53  1  0.87439440  0.59968184  0.42244004  1
  Ca2+  Ca54  1  0.21455516  0.08529719  0.72006508  1
  Ca2+  Ca55  1  0.42036735  0.57193925  0.92203974  1
  Ca2+  Ca56  1  0.24512636  0.58634136  0.74160219  1
  Ca2+  Ca57  1  0.93731121  0.08533227  0.40284597  1
  Ca2+  Ca58  1  0.53033035  0.10656790  0.43467808  1
  Ca2+  Ca59  1  0.94324148  0.11071898  0.07178963  1
  Ca2+  Ca60  1  0.59570167  0.58396003  0.73920712  1
  Ca2+  Ca61  1  0.25805344  0.58620420  0.74135264  1
  Ca2+  Ca62  1  0.28051890  0.10400494  0.45340865  1
  Ca2+  Ca63  1  0.43899378  0.58124329  0.26756525  1
  Ca2+  Ca64  1  0.41723004  0.09015253  0.93097226  1
  Ca2+  Ca65  1  0.92437652  0.08453275  0.40278786  1
  Ca2+  Ca66  1  0.23146680  0.10082835  0.07811339  1
  Ca2+  Ca67  1  0.09579006  0.58140981  0.24970769  1
  Ca2+  Ca68  1  0.07876769  0.10973027  0.91932375  1
  Ca2+  Ca69  1  0.88588657  0.60023869  0.41727553  1
  Ca2+  Ca70  1  0.42796529  0.09105879  0.93008364  1
  Ca2+  Ca71  1  0.08369164  0.57875204  0.25019367  1
  Ca2+  Ca72  1  0.26816148  0.92124597  0.07197635  1
  Ca2+  Ca73  1  0.58108102  0.40970424  0.08131619  1
  Ca2+  Ca74  1  0.40589016  0.91720124  0.91654612  1
  Ca2+  Ca75  1  0.42431756  0.40409350  0.91428421  1
  Ca2+  Ca76  1  0.94515183  0.92928419  0.71647796  1
  Ca2+  Ca77  1  0.92739782  0.90552228  0.08351417  1
  Ca2+  Ca78  1  0.56280266  0.91159409  0.73612632  1
  Ca2+  Ca79  1  0.59207616  0.41056036  0.08267646  1
  Ca2+  Ca80  1  0.91459308  0.90497071  0.08443453  1
  Ca2+  Ca81  1  0.38752928  0.92555560  0.59627140  1
  Ca2+  Ca82  1  0.74492555  0.40035422  0.91198023  1
  Ca2+  Ca83  1  0.08383177  0.39448573  0.91337069  1
  Ca2+  Ca84  1  0.24577543  0.40689264  0.08278558  1
  Ca2+  Ca85  1  0.09436713  0.91008249  0.25347023  1
  Ca2+  Ca86  1  0.75826064  0.90380191  0.58397982  1
  Ca2+  Ca87  1  0.07734531  0.40360144  0.24644718  1
  Ca2+  Ca88  1  0.24556410  0.39922410  0.75387014  1
  Ca2+  Ca89  1  0.09635108  0.91303270  0.90740934  1
  Ca2+  Ca90  1  0.74129868  0.40462887  0.58460605  1
  Ca2+  Ca91  1  0.41640307  0.41480104  0.25836265  1
  Ca2+  Ca92  1  0.91811484  0.40241561  0.08785290  1
  Ca2+  Ca93  1  0.54849995  0.92141673  0.08270553  1
  Ca2+  Ca94  1  0.74557385  0.90379085  0.58368334  1
  Ca2+  Ca95  1  0.91022881  0.40263088  0.41036666  1
  Ca2+  Ca96  1  0.73801127  0.89730840  0.25598220  1
  Ca2+  Ca97  1  0.08168730  0.91003823  0.25480920  1
  Ca2+  Ca98  1  0.92002222  0.90654892  0.42449546  1
  Ca2+  Ca99  1  0.76049416  0.89771337  0.91253673  1
  Ca2+  Ca100  1  0.74764727  0.89782058  0.91261739  1
  Ca2+  Ca101  1  0.58296653  0.40669486  0.41454299  1
  Ca2+  Ca102  1  0.75015950  0.41097034  0.25808548  1
  Ca2+  Ca103  1  0.27983629  0.92373613  0.07507307  1
  Ca2+  Ca104  1  0.42711964  0.41494472  0.25986524  1
  Ca2+  Ca105  1  0.25630746  0.40145900  0.42290178  1
  Ca2+  Ca106  1  0.08993453  0.40435937  0.24608515  1
  Ca2+  Ca107  1  0.25606934  0.39974022  0.75398141  1
  Mn3.34+  Mn108  1  0.08255834  0.32441042  0.08177640  1
  Mn3.34+  Mn109  1  0.08588494  0.32772018  0.42385450  1
  Mn3.34+  Mn110  1  0.07944815  0.33049158  0.74569209  1
  Mn3.34+  Mn111  1  0.08853345  0.83069633  0.08392758  1
  Mn3.34+  Mn112  1  0.08706436  0.83386554  0.42398684  1
  Mn3.34+  Mn113  1  0.08734576  0.84177664  0.74598425  1
  Mn3.34+  Mn114  1  0.41585436  0.33025945  0.08510289  1
  Mn3.34+  Mn115  1  0.41675345  0.33190455  0.42381940  1
  Mn3.34+  Mn116  1  0.42176654  0.33276311  0.74718353  1
  Mn3.34+  Mn117  1  0.41867225  0.83539691  0.08696315  1
  Mn3.34+  Mn118  1  0.41784717  0.84041498  0.41908389  1
  Mn3.34+  Mn119  1  0.41143125  0.84458729  0.75109663  1
  Mn3.34+  Mn120  1  0.75250919  0.33355242  0.08271634  1
  Mn3.34+  Mn121  1  0.74862129  0.33428051  0.41859370  1
  Mn3.34+  Mn122  1  0.75236180  0.33473698  0.74892247  1
  Mn3.34+  Mn123  1  0.74650020  0.83000120  0.09021473  1
  Mn3.34+  Mn124  1  0.74716251  0.82557059  0.41810596  1
  Mn3.34+  Mn125  1  0.74892980  0.82520013  0.74771135  1
  Mn3.34+  Mn126  1  0.25040210  0.33345581  0.24862075  1
  Mn3.34+  Mn127  1  0.25282251  0.33102419  0.58267958  1
  Mn3.34+  Mn128  1  0.25312492  0.32965110  0.91856752  1
  Mn3.34+  Mn129  1  0.25745053  0.83754604  0.25454275  1
  Mn3.34+  Mn130  1  0.24676196  0.84262953  0.58161300  1
  Mn3.34+  Mn131  1  0.24949356  0.83388479  0.90994009  1
  Mn3.34+  Mn132  1  0.58242232  0.33259002  0.24656698  1
  Mn3.34+  Mn133  1  0.57851154  0.33560907  0.58798555  1
  Mn3.34+  Mn134  1  0.58464946  0.33018167  0.90803197  1
  Mn3.34+  Mn135  1  0.57797779  0.83721377  0.25106777  1
  Mn3.34+  Mn136  1  0.57758361  0.83509750  0.57721949  1
  Mn3.34+  Mn137  1  0.57871472  0.83314870  0.91270296  1
  Mn3.34+  Mn138  1  0.91682988  0.33449944  0.24498444  1
  Mn3.34+  Mn139  1  0.91835796  0.33376559  0.58647438  1
  Mn3.34+  Mn140  1  0.91517872  0.33085687  0.91450413  1
  Mn3.34+  Mn141  1  0.91621672  0.83090918  0.25102186  1
  Mn3.34+  Mn142  1  0.92252017  0.83337735  0.58286681  1
  Mn3.34+  Mn143  1  0.92283869  0.83309123  0.90566614  1
  Mn3.34+  Mn144  1  0.24909833  0.66651612  0.24665221  1
  Mn3.34+  Mn145  1  0.41217896  0.15994163  0.74879713  1
  Mn3.34+  Mn146  1  0.42256389  0.15613930  0.75064206  1
  Mn3.34+  Mn147  1  0.58507636  0.16293460  0.23461891  1
  Mn3.34+  Mn148  1  0.75249874  0.17027045  0.40876622  1
  Mn3.34+  Mn149  1  0.90967362  0.66159177  0.23604606  1
  Mn3.34+  Mn150  1  0.41508685  0.16677786  0.08537728  1
  Mn3.34+  Mn151  1  0.74591571  0.66326691  0.08781448  1
  Mn3.34+  Mn152  1  0.24813466  0.16795561  0.25016029  1
  Mn3.34+  Mn153  1  0.91653504  0.16967697  0.24228538  1
  Mn3.34+  Mn154  1  0.91387122  0.16291952  0.58190275  1
  Mn3.34+  Mn155  1  0.24561561  0.67167175  0.91477915  1
  Mn3.34+  Mn156  1  0.74059217  0.16277364  0.40948304  1
  Mn3.34+  Mn157  1  0.92702480  0.15597066  0.57917324  1
  Mn3.34+  Mn158  1  0.76594437  0.65228670  0.74323463  1
  Mn3.34+  Mn159  1  0.41923221  0.66359312  0.74744449  1
  Mn3.34+  Mn160  1  0.58666803  0.66737533  0.24713417  1
  Mn3.34+  Mn161  1  0.74826244  0.17143198  0.75148565  1
  Mn3.34+  Mn162  1  0.41672305  0.66564344  0.08846328  1
  Mn3.34+  Mn163  1  0.26042773  0.66562445  0.91534190  1
  Mn3.34+  Mn164  1  0.24838247  0.16813958  0.91390766  1
  Mn3.34+  Mn165  1  0.08270293  0.66912449  0.42020644  1
  Mn3.34+  Mn166  1  0.59007431  0.65938763  0.57780980  1
  Mn3.34+  Mn167  1  0.08475906  0.66667616  0.08385769  1
  Mn3.34+  Mn168  1  0.09396211  0.16820053  0.41756525  1
  Mn3.34+  Mn169  1  0.08061901  0.66789310  0.75405967  1
  Mn3.34+  Mn170  1  0.75042681  0.17015206  0.08694018  1
  Mn3.34+  Mn171  1  0.25683309  0.66941508  0.57695512  1
  Mn3.34+  Mn172  1  0.57938322  0.66407151  0.57888937  1
  Mn3.34+  Mn173  1  0.91965132  0.66656835  0.23894467  1
  Mn3.34+  Mn174  1  0.58977524  0.66920759  0.91277516  1
  Mn3.34+  Mn175  1  0.57703573  0.66194385  0.90956246  1
  Mn3.34+  Mn176  1  0.42786399  0.66084405  0.09073558  1
  Mn3.34+  Mn177  1  0.91251848  0.67570789  0.58517231  1
  Mn3.34+  Mn178  1  0.91602159  0.67095047  0.91447045  1
  Mn3.34+  Mn179  1  0.41907570  0.66897385  0.41395664  1
  Mn3.34+  Mn180  1  0.75126745  0.00983644  0.08838523  1
  Mn3.34+  Mn181  1  0.72849807  -0.00109575  0.41602160  1
  Mn3.34+  Mn182  1  0.91855950  0.49509539  0.59769011  1
  Mn3.34+  Mn183  1  0.91848798  -0.00404152  0.91591133  1
  Mn3.34+  Mn184  1  0.26007189  0.49707398  0.58630478  1
  Mn3.34+  Mn185  1  0.56802627  -0.00187183  0.59090499  1
  Mn3.34+  Mn186  1  0.10500862  -0.00064433  0.44226542  1
  Mn3.34+  Mn187  1  0.75717517  0.00111597  0.75187539  1
  Mn3.34+  Mn188  1  0.24282715  0.49986888  0.92303363  1
  Mn3.34+  Mn189  1  0.75346195  0.50293609  0.08269728  1
  Mn3.34+  Mn190  1  0.90623661  0.50197833  0.59627343  1
  Mn3.34+  Mn191  1  0.07086099  0.49423573  0.42509567  1
  Mn3.34+  Mn192  1  0.74615031  0.00555992  0.75020712  1
  Mn3.34+  Mn193  1  0.73875580  0.00326577  0.09207880  1
  Mn3.34+  Mn194  1  0.42273391  0.49929556  0.41722743  1
  Mn3.34+  Mn195  1  0.90970383  0.49745018  0.89957869  1
  Mn3.34+  Mn196  1  0.58271850  0.00011539  0.90237918  1
  Mn3.34+  Mn197  1  0.59142081  0.49711151  0.91502915  1
  Mn3.34+  Mn198  1  0.08165236  0.00050762  0.08203934  1
  Mn3.34+  Mn199  1  0.91398452  0.00358527  0.25017486  1
  Mn3.34+  Mn200  1  0.74038271  0.49618174  0.75056037  1
  Mn3.34+  Mn201  1  0.11629466  -0.00171683  0.44127253  1
  Mn3.34+  Mn202  1  0.41928471  0.49752146  0.73988116  1
  Mn3.34+  Mn203  1  0.07736222  0.49956475  0.75025925  1
  Mn3.34+  Mn204  1  0.41023247  -0.00817468  0.40568643  1
  Mn3.34+  Mn205  1  0.57603754  -0.00113420  0.25182205  1
  Mn3.34+  Mn206  1  0.07439182  0.49902094  0.07815606  1
  Mn3.34+  Mn207  1  0.08546667  0.49949871  0.42901648  1
  Mn3.34+  Mn208  1  0.92000891  0.50221542  0.90138385  1
  Mn3.34+  Mn209  1  0.42118088  0.50089453  0.07758808  1
  Mn3.34+  Mn210  1  0.57874074  0.49816519  0.59194197  1
  Mn3.34+  Mn211  1  0.59547247  0.00746105  0.90564962  1
  Mn3.34+  Mn212  1  0.74143785  0.00226035  0.41673830  1
  Mn3.34+  Mn213  1  0.74657999  0.49850938  0.41144970  1
  Mn3.34+  Mn214  1  0.24640795  0.00115113  0.90938095  1
  Mn3.34+  Mn215  1  0.25118170  0.00292588  0.25358223  1
  O2-  O216  1  0.01062680  0.18097317  0.00212178  1
  O2-  O217  1  -0.00439308  0.15956511  0.33327598  1
  O2-  O218  1  0.00148799  0.16074014  0.66325724  1
  O2-  O219  1  0.00856364  0.67296401  -0.00244208  1
  O2-  O220  1  -0.00577760  0.64306371  0.33994639  1
  O2-  O221  1  0.00463010  0.67169775  0.66150285  1
  O2-  O222  1  0.33190669  0.15081215  0.00417571  1
  O2-  O223  1  0.33209316  0.15076683  0.32649316  1
  O2-  O224  1  0.32678857  0.15364439  0.68082913  1
  O2-  O225  1  0.33748985  0.63935318  0.00075209  1
  O2-  O226  1  0.33811564  0.64818452  0.32268894  1
  O2-  O227  1  0.32891026  0.65821848  0.67005202  1
  O2-  O228  1  0.67645431  0.16196261  0.00546302  1
  O2-  O229  1  0.66201255  0.16623885  0.32425905  1
  O2-  O230  1  0.67363950  0.17266455  0.66709876  1
  O2-  O231  1  0.66894991  0.65960616  -0.00305060  1
  O2-  O232  1  0.66403067  0.67623778  0.32566615  1
  O2-  O233  1  0.67186419  0.66014861  0.66642443  1
  O2-  O234  1  0.17076627  0.16804369  -0.00646469  1
  O2-  O235  1  0.16215204  0.15197585  0.32692544  1
  O2-  O236  1  0.16638185  0.16995496  0.66750066  1
  O2-  O237  1  0.16953738  0.65120872  0.00357865  1
  O2-  O238  1  0.16766216  0.64603423  0.33699841  1
  O2-  O239  1  0.16727950  0.65708077  0.66792859  1
  O2-  O240  1  0.48940422  0.16046600  0.00305811  1
  O2-  O241  1  0.49960540  0.15783065  0.31837657  1
  O2-  O242  1  0.49694012  0.16177918  0.66925989  1
  O2-  O243  1  0.49908992  0.64571135  -0.00644307  1
  O2-  O244  1  0.50437436  0.66612962  0.33322317  1
  O2-  O245  1  0.50923913  0.65661487  0.66868649  1
  O2-  O246  1  0.83520047  0.15691224  0.01468155  1
  O2-  O247  1  0.83764041  0.15531168  0.33404886  1
  O2-  O248  1  0.83798231  0.13779577  0.66270367  1
  O2-  O249  1  0.82611666  0.67119040  0.00031618  1
  O2-  O250  1  0.82618414  0.65589364  0.31924175  1
  O2-  O251  1  0.83309878  0.69853728  0.66664385  1
  O2-  O252  1  -0.00335083  0.33651871  0.00456077  1
  O2-  O253  1  -0.00106586  0.33525753  0.32939860  1
  O2-  O254  1  -0.00273695  0.33178209  0.66887940  1
  O2-  O255  1  0.00451016  0.84204628  0.00036398  1
  O2-  O256  1  0.00060670  0.84901166  0.33227173  1
  O2-  O257  1  0.00035043  0.81583654  0.66813248  1
  O2-  O258  1  0.33501564  0.35282604  0.00191952  1
  O2-  O259  1  0.33430440  0.35010750  0.32799715  1
  O2-  O260  1  0.33070253  0.34297602  0.67122719  1
  O2-  O261  1  0.33423078  0.84965671  -0.00121432  1
  O2-  O262  1  0.33643528  0.84186595  0.33565899  1
  O2-  O263  1  0.33651609  0.83312745  0.66552290  1
  O2-  O264  1  0.66645808  0.34764615  0.00341806  1
  O2-  O265  1  0.66609493  0.34263872  0.32971620  1
  O2-  O266  1  0.66949667  0.33983930  0.66423999  1
  O2-  O267  1  0.66920338  0.84220365  0.00089865  1
  O2-  O268  1  0.66710402  0.81836265  0.33249129  1
  O2-  O269  1  0.66442404  0.84160825  0.66922741  1
  O2-  O270  1  0.16792865  0.33535468  0.00228488  1
  O2-  O271  1  0.16406216  0.34731148  0.32865200  1
  O2-  O272  1  0.17165058  0.34027118  0.67015749  1
  O2-  O273  1  0.17151798  0.84641233  0.00483063  1
  O2-  O274  1  0.16223360  0.84727700  0.33093688  1
  O2-  O275  1  0.16447694  0.82478282  0.66614777  1
  O2-  O276  1  0.50302484  0.34741719  0.00644846  1
  O2-  O277  1  0.49800566  0.34037847  0.32860685  1
  O2-  O278  1  0.50207501  0.33126165  0.67017065  1
  O2-  O279  1  0.49707236  0.85079042  -0.00418656  1
  O2-  O280  1  0.50126520  0.82377347  0.33232888  1
  O2-  O281  1  0.49586396  0.83705619  0.66608803  1
  O2-  O282  1  0.83294665  0.35184238  0.00143934  1
  O2-  O283  1  0.83302267  0.34025160  0.32842698  1
  O2-  O284  1  0.82762282  0.34676417  0.65883190  1
  O2-  O285  1  0.83319393  0.84364521  0.00308719  1
  O2-  O286  1  0.83017042  0.83756851  0.33585918  1
  O2-  O287  1  0.83181676  0.83218900  0.66292757  1
  O2-  O288  1  -0.00178083  0.18902657  0.17302801  1
  O2-  O289  1  -0.00420669  0.18048199  0.49132451  1
  O2-  O290  1  0.00645068  0.17449608  0.83548001  1
  O2-  O291  1  0.00220890  0.68817489  0.16344435  1
  O2-  O292  1  0.00063804  0.68052022  0.50511650  1
  O2-  O293  1  0.00485792  0.68648082  0.83484567  1
  O2-  O294  1  0.33513356  0.17888645  0.17256372  1
  O2-  O295  1  0.34216957  0.18092218  0.50200503  1
  O2-  O296  1  0.34488818  0.17251306  0.84160370  1
  O2-  O297  1  0.32493674  0.68173303  0.16160953  1
  O2-  O298  1  0.32169810  0.67253163  0.48091090  1
  O2-  O299  1  0.33713681  0.68827326  0.82958190  1
  O2-  O300  1  0.66386695  0.19490629  0.16519402  1
  O2-  O301  1  0.66272936  0.17096241  0.49120128  1
  O2-  O302  1  0.68027523  0.18556828  0.83276775  1
  O2-  O303  1  0.66447438  0.68928233  0.16537811  1
  O2-  O304  1  0.66012283  0.68065029  0.49304715  1
  O2-  O305  1  0.66653040  0.68615523  0.82865026  1
  O2-  O306  1  0.17152645  0.18289343  0.16728293  1
  O2-  O307  1  0.17419036  0.17607577  0.48934595  1
  O2-  O308  1  0.17460169  0.17225389  0.83457474  1
  O2-  O309  1  0.16050692  0.68570152  0.16972786  1
  O2-  O310  1  0.16116080  0.67526971  0.50742337  1
  O2-  O311  1  0.17067002  0.69244607  0.82608989  1
  O2-  O312  1  0.49281121  0.18510106  0.16860379  1
  O2-  O313  1  0.49558674  0.18157737  0.49623518  1
  O2-  O314  1  0.49468230  0.17393152  0.83174329  1
  O2-  O315  1  0.50040230  0.69328947  0.17521908  1
  O2-  O316  1  0.49621998  0.68096813  0.49902588  1
  O2-  O317  1  0.50136777  0.68702049  0.82721805  1
  O2-  O318  1  0.83461962  0.19435256  0.17128486  1
  O2-  O319  1  0.83197574  0.17373612  0.49948052  1
  O2-  O320  1  0.84230464  0.16586878  0.81897449  1
  O2-  O321  1  0.82939893  0.69602567  0.15977913  1
  O2-  O322  1  0.84297105  0.68372030  0.49275098  1
  O2-  O323  1  0.82984023  0.68161067  0.83275659  1
  O2-  O324  1  0.00446846  0.31326335  0.16928369  1
  O2-  O325  1  -0.00393283  0.32304123  0.49475695  1
  O2-  O326  1  0.00694180  0.32342508  0.83944612  1
  O2-  O327  1  0.00216294  0.81787326  0.16165084  1
  O2-  O328  1  -0.00237637  0.81511114  0.49887075  1
  O2-  O329  1  0.00573591  0.81853048  0.82566633  1
  O2-  O330  1  0.33653545  0.32888864  0.17151088  1
  O2-  O331  1  0.32919913  0.32642772  0.49428825  1
  O2-  O332  1  0.32983405  0.33016467  0.83208136  1
  O2-  O333  1  0.32819792  0.82517017  0.15986486  1
  O2-  O334  1  0.33583789  0.82870026  0.50365183  1
  O2-  O335  1  0.33477136  0.81774552  0.83157045  1
  O2-  O336  1  0.66548306  0.32770242  0.16403636  1
  O2-  O337  1  0.66767655  0.32642953  0.49790953  1
  O2-  O338  1  0.67179557  0.31835823  0.83463188  1
  O2-  O339  1  0.66982809  0.81296777  0.17348949  1
  O2-  O340  1  0.67377163  0.81780448  0.50740065  1
  O2-  O341  1  0.67047751  0.81493669  0.83683669  1
  O2-  O342  1  0.16578699  0.31809080  0.16682631  1
  O2-  O343  1  0.17273558  0.32000454  0.49473971  1
  O2-  O344  1  0.17267569  0.32231627  0.83380367  1
  O2-  O345  1  0.16266736  0.82012651  0.17153867  1
  O2-  O346  1  0.16953166  0.81950561  0.49875749  1
  O2-  O347  1  0.16239036  0.81783116  0.83333271  1
  O2-  O348  1  0.49917815  0.31409518  0.16737130  1
  O2-  O349  1  0.50487907  0.33346878  0.49531193  1
  O2-  O350  1  0.49105761  0.32552319  0.84055680  1
  O2-  O351  1  0.50166066  0.81929008  0.16406809  1
  O2-  O352  1  0.50044554  0.81789366  0.49773666  1
  O2-  O353  1  0.49877937  0.81848958  0.82430359  1
  O2-  O354  1  0.83441250  0.32563804  0.16503068  1
  O2-  O355  1  0.83469559  0.32594495  0.49349906  1
  O2-  O356  1  0.82871051  0.32479888  0.83829822  1
  O2-  O357  1  0.84126877  0.82067221  0.16097351  1
  O2-  O358  1  0.83228846  0.81152523  0.49978224  1
  O2-  O359  1  0.82511384  0.81593617  0.83408271  1
  O2-  O360  1  0.08257537  0.08029358  0.09259455  1
  O2-  O361  1  0.07246025  0.08325840  0.44353338  1
  O2-  O362  1  0.07995883  0.05966530  0.79632604  1
  O2-  O363  1  0.08418913  0.57937282  0.11611856  1
  O2-  O364  1  0.07823685  0.57954596  0.46006691  1
  O2-  O365  1  0.10608266  0.58178344  0.79188956  1
  O2-  O366  1  0.40767032  0.08355037  0.10730764  1
  O2-  O367  1  0.41299277  0.06478526  0.45988563  1
  O2-  O368  1  0.41627187  0.07743488  0.78601885  1
  O2-  O369  1  0.41220104  0.57852170  0.13287153  1
  O2-  O370  1  0.41424546  0.58264568  0.43491858  1
  O2-  O371  1  0.39832286  0.57615376  0.78595006  1
  O2-  O372  1  0.75264167  0.08717174  0.12278611  1
  O2-  O373  1  0.76807821  0.08095629  0.44624910  1
  O2-  O374  1  0.73554268  0.08551037  0.77487069  1
  O2-  O375  1  0.75390082  0.57987724  0.12445988  1
  O2-  O376  1  0.74309657  0.57778780  0.43761865  1
  O2-  O377  1  0.73571356  0.57498178  0.79412718  1
  O2-  O378  1  0.24556340  0.08381683  0.21310452  1
  O2-  O379  1  0.23328262  0.06238083  0.57431081  1
  O2-  O380  1  0.26215416  0.08206220  0.89697350  1
  O2-  O381  1  0.23109601  0.58301848  0.22137849  1
  O2-  O382  1  0.24153199  0.58067043  0.54675446  1
  O2-  O383  1  0.24930832  0.58268609  0.87737645  1
  O2-  O384  1  0.55752799  0.07546070  0.21202159  1
  O2-  O385  1  0.61127289  0.05828773  0.52587137  1
  O2-  O386  1  0.56760697  0.08525300  0.89953609  1
  O2-  O387  1  0.58670687  0.58812227  0.24314397  1
  O2-  O388  1  0.58453896  0.57739965  0.54239386  1
  O2-  O389  1  0.57993411  0.57927453  0.87885409  1
  O2-  O390  1  0.93409419  0.08417049  0.21927972  1
  O2-  O391  1  0.91926244  0.07711908  0.53766859  1
  O2-  O392  1  0.92204284  0.07612628  0.90902338  1
  O2-  O393  1  0.92832681  0.58138551  0.21828373  1
  O2-  O394  1  0.92542445  0.57937459  0.54569686  1
  O2-  O395  1  0.91520003  0.58632695  0.88992140  1
  O2-  O396  1  0.07887978  0.41734886  0.11170444  1
  O2-  O397  1  0.07763943  0.41284431  0.42218280  1
  O2-  O398  1  0.10903319  0.41858504  0.77605196  1
  O2-  O399  1  0.06679666  0.92075918  0.12096598  1
  O2-  O400  1  0.07095530  0.91632151  0.45145979  1
  O2-  O401  1  0.07440102  0.91767453  0.77377109  1
  O2-  O402  1  0.42573595  0.41875922  0.11800384  1
  O2-  O403  1  0.41859480  0.41847725  0.42037671  1
  O2-  O404  1  0.40133699  0.41976287  0.77650998  1
  O2-  O405  1  0.41128520  0.91840707  0.10795281  1
  O2-  O406  1  0.42420531  0.92094249  0.45510191  1
  O2-  O407  1  0.42775225  0.92072946  0.78391522  1
  O2-  O408  1  0.74535522  0.42176888  0.11833378  1
  O2-  O409  1  0.75070875  0.41839647  0.43725222  1
  O2-  O410  1  0.74740918  0.41812213  0.77780685  1
  O2-  O411  1  0.77012919  0.92329881  0.12531390  1
  O2-  O412  1  0.75137401  0.91697275  0.44825830  1
  O2-  O413  1  0.74899706  0.91831868  0.78019388  1
  O2-  O414  1  0.23312814  0.41787666  0.22297203  1
  O2-  O415  1  0.24685162  0.41694157  0.56063636  1
  O2-  O416  1  0.24139573  0.41695436  0.89361402  1
  O2-  O417  1  0.22457710  0.92504231  0.20118591  1
  O2-  O418  1  0.24903463  0.92029222  0.57233382  1
  O2-  O419  1  0.24331367  0.91779314  0.89126281  1
  O2-  O420  1  0.56081413  0.42227503  0.21405757  1
  O2-  O421  1  0.59728753  0.42296696  0.55257726  1
  O2-  O422  1  0.58818142  0.41662128  0.89622118  1
  O2-  O423  1  0.60272332  0.92235778  0.21075743  1
  O2-  O424  1  0.60427018  0.91886449  0.55909242  1
  O2-  O425  1  0.61128802  0.92072479  0.87752270  1
  O2-  O426  1  0.94001626  0.41932055  0.22419426  1
  O2-  O427  1  0.91161311  0.42178780  0.54638239  1
  O2-  O428  1  0.92542782  0.41547018  0.89442113  1
  O2-  O429  1  0.93183567  0.92086855  0.21756534  1
  O2-  O430  1  0.89357986  0.91627302  0.55770123  1
  O2-  O431  1  0.90068597  0.91598851  0.87940595  1
  O2-  O432  1  -0.01304437  -0.01801459  0.01113997  1
  O2-  O433  1  -0.00222268  0.00025866  0.35948299  1
  O2-  O434  1  -0.01811707  0.01910599  0.71411098  1
  O2-  O435  1  0.01369293  0.50438595  -0.02512642  1
  O2-  O436  1  0.01291016  0.51074874  0.32545463  1
  O2-  O437  1  0.00905125  0.52454062  0.65751775  1
  O2-  O438  1  0.33179314  -0.00761918  -0.01131195  1
  O2-  O439  1  0.34581697  0.02019053  0.32029672  1
  O2-  O440  1  0.30967483  0.00547323  0.65746837  1
  O2-  O441  1  0.33429297  0.51097043  -0.00137465  1
  O2-  O442  1  0.32770037  0.50454510  0.35089413  1
  O2-  O443  1  0.30511904  0.49626463  0.70520848  1
  O2-  O444  1  0.65691416  -0.00814818  0.00755730  1
  O2-  O445  1  0.67626935  -0.00205050  0.31411470  1
  O2-  O446  1  0.66869647  -0.00485631  0.65862809  1
  O2-  O447  1  0.65830715  0.48941462  0.01427957  1
  O2-  O448  1  0.67096934  0.49744804  0.33267262  1
  O2-  O449  1  0.66732053  0.50687763  0.66257334  1
  O2-  O450  1  0.17067997  -0.01001801  0.00645292  1
  O2-  O451  1  0.15635671  -0.01133025  0.32785932  1
  O2-  O452  1  0.17200195  0.00265191  0.64629761  1
  O2-  O453  1  0.17599833  0.50195740  0.02215977  1
  O2-  O454  1  0.16894847  0.51652484  0.34777008  1
  O2-  O455  1  0.16378044  0.52697153  0.66005339  1
  O2-  O456  1  0.49035555  -0.00806374  -0.02613818  1
  O2-  O457  1  0.50592275  0.01917543  0.34304171  1
  O2-  O458  1  0.49010699  -0.02166368  0.66007432  1
  O2-  O459  1  0.49310561  0.49299118  -0.01709700  1
  O2-  O460  1  0.49108757  0.49550092  0.32734644  1
  O2-  O461  1  0.50856572  0.51803777  0.67850073  1
  O2-  O462  1  0.82215110  -0.01752330  -0.00546086  1
  O2-  O463  1  0.84306296  -0.00021537  0.35069106  1
  O2-  O464  1  0.82941558  -0.01244838  0.66532868  1
  O2-  O465  1  0.82410210  0.50169913  -0.01563681  1
  O2-  O466  1  0.84676661  0.50653025  0.36005410  1
  O2-  O467  1  0.82695167  0.49732823  0.67644410  1
  O2-  O468  1  0.77091068  0.25202046  0.72834791  1
  O2-  O469  1  0.25082398  0.74715625  0.27680719  1
  O2-  O470  1  0.58275798  0.74833816  0.60365458  1
  O2-  O471  1  0.41455339  0.74929322  0.05472639  1
  O2-  O472  1  0.25681889  0.74954157  0.59310966  1
  O2-  O473  1  0.40658343  0.75078376  0.40510008  1
  O2-  O474  1  0.90576206  0.24463656  0.59513208  1
  O2-  O475  1  0.91620569  0.75375454  0.93393238  1
  O2-  O476  1  0.41529622  0.25507094  0.40226765  1
  O2-  O477  1  0.27000275  0.25000720  0.93655526  1
  O2-  O478  1  0.56953094  0.74773994  0.94802908  1
  O2-  O479  1  0.92406066  0.74417591  0.27945032  1
  O2-  O480  1  0.25880836  0.75115192  0.95205998  1
  O2-  O481  1  0.25610211  0.25161672  0.59704613  1
  O2-  O482  1  0.40959608  0.24388854  0.73808258  1
  O2-  O483  1  0.08421056  0.24885267  0.39203988  1
  O2-  O484  1  0.90661836  0.25305113  0.92505747  1
  O2-  O485  1  0.57932217  0.25364461  0.92918394  1
  O2-  O486  1  0.75649408  0.25422349  0.05699069  1
  O2-  O487  1  0.08295123  0.75144566  0.39108647  1
  O2-  O488  1  0.40335676  0.25130316  0.05716044  1
  O2-  O489  1  0.08709744  0.25210364  0.73928396  1
  O2-  O490  1  0.75473318  0.25233500  0.39686499  1
  O2-  O491  1  0.58460221  0.25635721  0.58819715  1
  O2-  O492  1  0.25444896  0.25111225  0.27958914  1
