# generated using pymatgen
data_Ca108Mn108O277
_symmetry_space_group_name_H-M   'P 1'
_cell_length_a   16.03809262
_cell_length_b   22.32079316
_cell_length_c   16.39745164
_cell_angle_alpha   89.99657091
_cell_angle_beta   90.00070629
_cell_angle_gamma   90.00119613
_symmetry_Int_Tables_number   1
_chemical_formula_structural   Ca108Mn108O277
_chemical_formula_sum   'Ca108 Mn108 O277'
_cell_volume   5870.00806897
_cell_formula_units_Z   1
loop_
 _symmetry_equiv_pos_site_id
 _symmetry_equiv_pos_as_xyz
  1  'x, y, z'
loop_
 _atom_type_symbol
 _atom_type_oxidation_number
  Ca2+  2.0
  Mn3.34+  3.34
  O2-  -2.0
loop_
 _atom_site_type_symbol
 _atom_site_label
 _atom_site_symmetry_multiplicity
 _atom_site_fract_x
 _atom_site_fract_y
 _atom_site_fract_z
 _atom_site_occupancy
  Ca2+  Ca0  1  0.09074743  0.25472044  0.26482609  1
  Ca2+  Ca1  1  0.07727560  0.25094983  0.57462904  1
  Ca2+  Ca2  1  0.06585986  0.25799706  0.91389868  1
  Ca2+  Ca3  1  0.08753866  0.74623412  0.25640661  1
  Ca2+  Ca4  1  0.09859282  0.74816566  0.57670109  1
  Ca2+  Ca5  1  0.07277380  0.73791345  0.91438237  1
  Ca2+  Ca6  1  0.42010006  0.25484935  0.25071548  1
  Ca2+  Ca7  1  0.41717403  0.25221850  0.58145392  1
  Ca2+  Ca8  1  0.43066139  0.26025094  0.90214476  1
  Ca2+  Ca9  1  0.40806816  0.76168160  0.24520147  1
  Ca2+  Ca10  1  0.39712753  0.75689783  0.58015921  1
  Ca2+  Ca11  1  0.41160939  0.75022167  0.92632596  1
  Ca2+  Ca12  1  0.74236916  0.25649127  0.24255926  1
  Ca2+  Ca13  1  0.75040836  0.25175682  0.58318870  1
  Ca2+  Ca14  1  0.75201815  0.25153759  0.92330622  1
  Ca2+  Ca15  1  0.75692461  0.75185675  0.24466927  1
  Ca2+  Ca16  1  0.75665874  0.75214210  0.59308318  1
  Ca2+  Ca17  1  0.76576620  0.74006959  0.89001655  1
  Ca2+  Ca18  1  0.25396337  0.25896680  0.09167823  1
  Ca2+  Ca19  1  0.24362429  0.24815675  0.41977998  1
  Ca2+  Ca20  1  0.25460284  0.24809602  0.74021725  1
  Ca2+  Ca21  1  0.25133011  0.74640422  0.08537775  1
  Ca2+  Ca22  1  0.24381834  0.74499552  0.41936558  1
  Ca2+  Ca23  1  0.23621786  0.74217040  0.73789727  1
  Ca2+  Ca24  1  0.60905126  0.24875905  0.08534983  1
  Ca2+  Ca25  1  0.58733359  0.25826859  0.41639426  1
  Ca2+  Ca26  1  0.58972833  0.24799674  0.74594870  1
  Ca2+  Ca27  1  0.57206206  0.75576122  0.08701538  1
  Ca2+  Ca28  1  0.57859612  0.75851541  0.42331837  1
  Ca2+  Ca29  1  0.61408222  0.73423420  0.73926301  1
  Ca2+  Ca30  1  0.88943021  0.25257068  0.07516337  1
  Ca2+  Ca31  1  0.91084629  0.25275861  0.42474988  1
  Ca2+  Ca32  1  0.90729539  0.25807751  0.75264724  1
  Ca2+  Ca33  1  0.92010648  0.74297652  0.08386230  1
  Ca2+  Ca34  1  0.92693207  0.74428044  0.42032050  1
  Ca2+  Ca35  1  0.91264327  0.75074253  0.75190575  1
  Ca2+  Ca36  1  0.40435196  0.09908488  0.90877144  1
  Ca2+  Ca37  1  0.76214826  0.58549771  0.61371132  1
  Ca2+  Ca38  1  0.21833958  0.61034372  0.41411937  1
  Ca2+  Ca39  1  0.08986555  0.60312196  0.24294928  1
  Ca2+  Ca40  1  0.94627637  0.09638279  0.43050887  1
  Ca2+  Ca41  1  0.59757038  0.57193434  0.41267190  1
  Ca2+  Ca42  1  0.92708614  0.60673928  0.77422924  1
  Ca2+  Ca43  1  0.10183337  0.61443223  0.57559776  1
  Ca2+  Ca44  1  0.09944922  0.11606449  0.56297170  1
  Ca2+  Ca45  1  0.89073157  0.09202774  0.07624695  1
  Ca2+  Ca46  1  0.91763094  0.60541843  0.77721114  1
  Ca2+  Ca47  1  0.41612631  0.09960124  0.90892375  1
  Ca2+  Ca48  1  0.23145820  0.11546989  0.43333156  1
  Ca2+  Ca49  1  0.75171779  0.58512498  0.61177122  1
  Ca2+  Ca50  1  0.37590842  0.57494999  0.94861128  1
  Ca2+  Ca51  1  0.43893996  0.08053841  0.25910114  1
  Ca2+  Ca52  1  0.39356535  0.59193846  0.24593545  1
  Ca2+  Ca53  1  0.25563639  0.09194614  0.73040728  1
  Ca2+  Ca54  1  0.08797387  0.08733961  0.27575984  1
  Ca2+  Ca55  1  0.80434259  0.59974739  0.92735922  1
  Ca2+  Ca56  1  0.25598442  0.09446062  0.08587283  1
  Ca2+  Ca57  1  0.75904003  0.09922604  0.91339641  1
  Ca2+  Ca58  1  0.60747426  0.10249092  0.08624646  1
  Ca2+  Ca59  1  0.59691167  0.09301142  0.74213262  1
  Ca2+  Ca60  1  0.96034578  0.60138443  0.42192444  1
  Ca2+  Ca61  1  0.76658878  0.57601690  0.25544242  1
  Ca2+  Ca62  1  0.73101866  0.09574625  0.23738355  1
  Ca2+  Ca63  1  0.58024057  0.58206054  0.08035418  1
  Ca2+  Ca64  1  0.24336454  0.09375791  0.08497750  1
  Ca2+  Ca65  1  0.38295089  0.10592653  0.58059736  1
  Ca2+  Ca66  1  0.57770709  0.09861713  0.41575840  1
  Ca2+  Ca67  1  0.89234993  0.07638491  0.73878878  1
  Ca2+  Ca68  1  0.39416291  0.60927956  0.56815987  1
  Ca2+  Ca69  1  0.40543178  0.60798295  0.56993057  1
  Ca2+  Ca70  1  0.43008375  0.07762557  0.26287279  1
  Ca2+  Ca71  1  0.76680608  0.07806160  0.60481223  1
  Ca2+  Ca72  1  0.09101429  0.88981625  0.91437592  1
  Ca2+  Ca73  1  0.74121791  0.41645417  0.26926971  1
  Ca2+  Ca74  1  0.08007792  0.42335147  0.92503203  1
  Ca2+  Ca75  1  0.23665913  0.40034275  0.41099360  1
  Ca2+  Ca76  1  0.38684072  0.40529442  0.92508603  1
  Ca2+  Ca77  1  0.77335325  0.90853810  0.91735766  1
  Ca2+  Ca78  1  0.23929025  0.39626285  0.76228239  1
  Ca2+  Ca79  1  0.93086891  0.90575517  0.08700811  1
  Ca2+  Ca80  1  0.75156284  0.91430031  0.24922281  1
  Ca2+  Ca81  1  0.92550619  0.92526446  0.72980275  1
  Ca2+  Ca82  1  0.59375746  0.40085287  0.73901225  1
  Ca2+  Ca83  1  0.93427552  0.91448475  0.41963549  1
  Ca2+  Ca84  1  0.76177476  0.91747714  0.24847107  1
  Ca2+  Ca85  1  0.40412908  0.90800876  0.57538394  1
  Ca2+  Ca86  1  0.57653625  0.90511972  0.09140274  1
  Ca2+  Ca87  1  0.08830934  0.90256349  0.24616558  1
  Ca2+  Ca88  1  0.56487577  0.92225176  0.37981430  1
  Ca2+  Ca89  1  0.76879319  0.92274362  0.60029584  1
  Ca2+  Ca90  1  0.23050608  0.42962560  0.06805151  1
  Ca2+  Ca91  1  0.90707150  0.40867858  0.41505317  1
  Ca2+  Ca92  1  0.91493710  0.92469914  0.73151526  1
  Ca2+  Ca93  1  0.76123199  0.91041758  0.92030105  1
  Ca2+  Ca94  1  0.07632643  0.40740724  0.58845016  1
  Ca2+  Ca95  1  0.07030472  0.42288059  0.92762383  1
  Ca2+  Ca96  1  0.41055285  0.40441516  0.24357215  1
  Ca2+  Ca97  1  0.58459011  0.40322891  0.73514263  1
  Ca2+  Ca98  1  0.59987404  0.91047063  0.74698899  1
  Ca2+  Ca99  1  0.24287889  0.90095634  0.75367983  1
  Ca2+  Ca100  1  0.38561956  0.90521456  0.92497760  1
  Ca2+  Ca101  1  0.39775460  0.90692563  0.92685420  1
  Ca2+  Ca102  1  0.24778033  0.89836682  0.40747694  1
  Ca2+  Ca103  1  0.75092847  0.40606013  0.57604366  1
  Ca2+  Ca104  1  0.91993169  0.42471978  0.05784079  1
  Ca2+  Ca105  1  0.58716674  0.91003259  0.74741548  1
  Ca2+  Ca106  1  0.92578878  0.91383254  0.41358388  1
  Ca2+  Ca107  1  0.58174541  0.39982537  0.08852503  1
  Mn3.34+  Mn108  1  0.07898118  0.33334317  0.09247653  1
  Mn3.34+  Mn109  1  0.07852455  0.33367481  0.41841880  1
  Mn3.34+  Mn110  1  0.07679708  0.33516085  0.74975434  1
  Mn3.34+  Mn111  1  0.08896010  0.83074010  0.08541067  1
  Mn3.34+  Mn112  1  0.08547370  0.83183914  0.42075466  1
  Mn3.34+  Mn113  1  0.08224587  0.83137380  0.74368700  1
  Mn3.34+  Mn114  1  0.41918572  0.33256561  0.08156091  1
  Mn3.34+  Mn115  1  0.41331329  0.33146774  0.41852701  1
  Mn3.34+  Mn116  1  0.41239106  0.33228333  0.74437554  1
  Mn3.34+  Mn117  1  0.41176105  0.83214225  0.08753252  1
  Mn3.34+  Mn118  1  0.41476890  0.83669407  0.41665349  1
  Mn3.34+  Mn119  1  0.41556981  0.83571821  0.74761648  1
  Mn3.34+  Mn120  1  0.75222753  0.33918189  0.08404001  1
  Mn3.34+  Mn121  1  0.74914191  0.33740932  0.41644309  1
  Mn3.34+  Mn122  1  0.75518813  0.33187153  0.75134802  1
  Mn3.34+  Mn123  1  0.75171787  0.82666467  0.08073854  1
  Mn3.34+  Mn124  1  0.74966968  0.83411864  0.42372507  1
  Mn3.34+  Mn125  1  0.75089970  0.83248477  0.74930456  1
  Mn3.34+  Mn126  1  0.24821090  0.33501104  0.24702019  1
  Mn3.34+  Mn127  1  0.24818109  0.33169513  0.57850115  1
  Mn3.34+  Mn128  1  0.24359877  0.32422702  0.91598470  1
  Mn3.34+  Mn129  1  0.25041670  0.83062990  0.24733418  1
  Mn3.34+  Mn130  1  0.24481503  0.83493224  0.58199090  1
  Mn3.34+  Mn131  1  0.24363493  0.82164160  0.91375723  1
  Mn3.34+  Mn132  1  0.58136924  0.33449282  0.25364234  1
  Mn3.34+  Mn133  1  0.57896782  0.33305141  0.57409725  1
  Mn3.34+  Mn134  1  0.58773196  0.33574754  0.91611924  1
  Mn3.34+  Mn135  1  0.58547279  0.83504116  0.24942066  1
  Mn3.34+  Mn136  1  0.58104076  0.83347482  0.57613809  1
  Mn3.34+  Mn137  1  0.58413536  0.82881189  0.91434289  1
  Mn3.34+  Mn138  1  0.91865449  0.33146493  0.24526632  1
  Mn3.34+  Mn139  1  0.91546720  0.33297691  0.58674648  1
  Mn3.34+  Mn140  1  0.91123586  0.33861463  0.91506731  1
  Mn3.34+  Mn141  1  0.91726187  0.83169285  0.24644895  1
  Mn3.34+  Mn142  1  0.92140800  0.83210923  0.57992710  1
  Mn3.34+  Mn143  1  0.92270819  0.82964618  0.91477975  1
  Mn3.34+  Mn144  1  0.41667284  0.67024848  0.40979988  1
  Mn3.34+  Mn145  1  0.74688321  0.16888039  0.42077323  1
  Mn3.34+  Mn146  1  0.58210720  0.16898288  0.58035112  1
  Mn3.34+  Mn147  1  0.91964792  0.15930327  0.25075986  1
  Mn3.34+  Mn148  1  0.08893064  0.66777800  0.75177721  1
  Mn3.34+  Mn149  1  0.75943863  0.65731330  0.42077876  1
  Mn3.34+  Mn150  1  0.91096047  0.16697603  0.91328325  1
  Mn3.34+  Mn151  1  0.07227668  0.17369101  0.08276058  1
  Mn3.34+  Mn152  1  0.57930502  0.66795013  0.57897803  1
  Mn3.34+  Mn153  1  0.92298201  0.66932661  0.24575468  1
  Mn3.34+  Mn154  1  0.90470180  0.16329758  0.25521845  1
  Mn3.34+  Mn155  1  0.40616409  0.67040484  0.75728667  1
  Mn3.34+  Mn156  1  0.40975259  0.66513218  0.08236590  1
  Mn3.34+  Mn157  1  0.07134971  0.16546652  0.75279067  1
  Mn3.34+  Mn158  1  0.58574160  0.17111085  0.91473067  1
  Mn3.34+  Mn159  1  0.59286080  0.66741505  0.24821405  1
  Mn3.34+  Mn160  1  0.75776903  0.65855097  0.08637405  1
  Mn3.34+  Mn161  1  0.57864938  0.66182675  0.24590207  1
  Mn3.34+  Mn162  1  0.41868652  0.16999116  0.74542899  1
  Mn3.34+  Mn163  1  0.08157543  0.16811018  0.08458001  1
  Mn3.34+  Mn164  1  0.59175503  0.66307670  0.91644305  1
  Mn3.34+  Mn165  1  0.57879944  0.65666817  0.91326872  1
  Mn3.34+  Mn166  1  0.74987376  0.16694248  0.75013312  1
  Mn3.34+  Mn167  1  0.41864235  0.66338042  0.76049412  1
  Mn3.34+  Mn168  1  0.23567920  0.65429440  0.91581914  1
  Mn3.34+  Mn169  1  0.24741951  0.66861208  0.24345375  1
  Mn3.34+  Mn170  1  0.24694552  0.17334015  0.91003972  1
  Mn3.34+  Mn171  1  0.41343156  0.16966325  0.41937388  1
  Mn3.34+  Mn172  1  0.08386992  0.65930923  0.08028360  1
  Mn3.34+  Mn173  1  0.25203965  0.17023073  0.25199470  1
  Mn3.34+  Mn174  1  0.91248757  0.16509821  0.58154457  1
  Mn3.34+  Mn175  1  0.92220788  0.66846151  0.58531076  1
  Mn3.34+  Mn176  1  0.42119387  0.16941988  0.08676456  1
  Mn3.34+  Mn177  1  0.58299548  0.16994725  0.24925560  1
  Mn3.34+  Mn178  1  0.08676915  0.16196842  0.75541254  1
  Mn3.34+  Mn179  1  0.74706160  0.66406354  0.41662380  1
  Mn3.34+  Mn180  1  0.74129578  0.00385927  0.41315005  1
  Mn3.34+  Mn181  1  0.40920585  0.49848507  0.08146894  1
  Mn3.34+  Mn182  1  0.93023559  0.50111926  0.23814224  1
  Mn3.34+  Mn183  1  0.24762881  -0.00332466  0.25230952  1
  Mn3.34+  Mn184  1  0.24473160  -0.00448436  0.58756766  1
  Mn3.34+  Mn185  1  0.41631638  0.50770297  0.75400257  1
  Mn3.34+  Mn186  1  0.59306336  0.00305740  0.92403320  1
  Mn3.34+  Mn187  1  0.08579896  0.50513967  0.74756725  1
  Mn3.34+  Mn188  1  0.09670839  0.00072109  0.74705020  1
  Mn3.34+  Mn189  1  0.58171589  0.00699990  0.92614010  1
  Mn3.34+  Mn190  1  0.08401331  0.00143088  0.07642206  1
  Mn3.34+  Mn191  1  0.94064039  0.49669938  0.24089013  1
  Mn3.34+  Mn192  1  0.09040473  -0.00035113  0.41931216  1
  Mn3.34+  Mn193  1  0.75613459  0.49937993  0.07872096  1
  Mn3.34+  Mn194  1  0.76310839  0.49379578  0.75203361  1
  Mn3.34+  Mn195  1  0.41995305  0.49392889  0.41290510  1
  Mn3.34+  Mn196  1  0.40978338  -0.00044880  0.08064044  1
  Mn3.34+  Mn197  1  0.75812988  -0.00324293  0.07991633  1
  Mn3.34+  Mn198  1  0.59678020  0.50353368  0.91875017  1
  Mn3.34+  Mn199  1  0.58718078  0.49827614  0.25270546  1
  Mn3.34+  Mn200  1  0.23472533  0.00518269  0.91378374  1
  Mn3.34+  Mn201  1  0.75550126  0.00984414  0.41345458  1
  Mn3.34+  Mn202  1  0.58184448  0.00088784  0.57835191  1
  Mn3.34+  Mn203  1  0.08942691  0.49615925  0.41202697  1
  Mn3.34+  Mn204  1  0.25550558  0.49578490  0.58428043  1
  Mn3.34+  Mn205  1  0.57936569  0.50064031  0.58979055  1
  Mn3.34+  Mn206  1  0.41140822  0.00454721  0.41803627  1
  Mn3.34+  Mn207  1  0.92333566  0.49802743  0.58807862  1
  Mn3.34+  Mn208  1  0.24118811  0.49902826  0.25061636  1
  Mn3.34+  Mn209  1  0.40360481  0.00070341  0.73551100  1
  Mn3.34+  Mn210  1  0.57036242  -0.00351007  0.57953133  1
  Mn3.34+  Mn211  1  0.40219040  0.50303265  0.75067838  1
  Mn3.34+  Mn212  1  0.40958771  0.48895195  0.40963656  1
  Mn3.34+  Mn213  1  0.24289079  0.50249521  0.58488574  1
  Mn3.34+  Mn214  1  0.58411759  0.49725966  0.91766892  1
  Mn3.34+  Mn215  1  0.93503566  0.00679828  0.92451714  1
  O2-  O216  1  -0.00458861  0.15433796  0.00034607  1
  O2-  O217  1  0.00024259  0.16183946  0.33056032  1
  O2-  O218  1  0.00281422  0.13989383  0.66895562  1
  O2-  O219  1  0.00694846  0.68521587  0.01185524  1
  O2-  O220  1  0.00275051  0.66454290  0.32478840  1
  O2-  O221  1  0.00296890  0.64997567  0.66609213  1
  O2-  O222  1  0.33695586  0.15768668  0.00142515  1
  O2-  O223  1  0.33746284  0.14377268  0.32658919  1
  O2-  O224  1  0.33212004  0.17095438  0.67390800  1
  O2-  O225  1  0.32790130  0.66715063  -0.00764765  1
  O2-  O226  1  0.33126170  0.65680052  0.33221228  1
  O2-  O227  1  0.33418754  0.65330654  0.67291105  1
  O2-  O228  1  0.66630217  0.15739866  -0.01250127  1
  O2-  O229  1  0.66450110  0.14947608  0.33395721  1
  O2-  O230  1  0.67000760  0.15396239  0.65985782  1
  O2-  O231  1  0.66821014  0.64096540  0.00380108  1
  O2-  O232  1  0.67454060  0.63658098  0.32646421  1
  O2-  O233  1  0.66865573  0.65798260  0.64773629  1
  O2-  O234  1  0.17219564  0.17091804  0.00656573  1
  O2-  O235  1  0.16882976  0.16463206  0.32477398  1
  O2-  O236  1  0.16713642  0.16345817  0.67589435  1
  O2-  O237  1  0.16594410  0.67944962  0.00084074  1
  O2-  O238  1  0.16380445  0.66859528  0.31919603  1
  O2-  O239  1  0.16877200  0.65967696  0.67643560  1
  O2-  O240  1  0.49976171  0.15078604  0.00128459  1
  O2-  O241  1  0.49610247  0.15293572  0.33152528  1
  O2-  O242  1  0.49828292  0.14381043  0.66444254  1
  O2-  O243  1  0.49766593  0.64067119  -0.00947195  1
  O2-  O244  1  0.50609014  0.65009070  0.33578720  1
  O2-  O245  1  0.49179893  0.64129672  0.67508827  1
  O2-  O246  1  0.83495293  0.16004096  -0.00707606  1
  O2-  O247  1  0.83489494  0.13152059  0.33739108  1
  O2-  O248  1  0.83370829  0.15325375  0.67203958  1
  O2-  O249  1  0.81676621  0.69706599  0.00673996  1
  O2-  O250  1  0.84096601  0.63939884  0.34210944  1
  O2-  O251  1  0.84275917  0.65276546  0.66590417  1
  O2-  O252  1  0.00672225  0.33635979  -0.00052327  1
  O2-  O253  1  -0.00385904  0.32477685  0.33816187  1
  O2-  O254  1  -0.00139301  0.34841501  0.66501083  1
  O2-  O255  1  0.00164356  0.83397658  0.00091920  1
  O2-  O256  1  -0.00074873  0.84605655  0.33408023  1
  O2-  O257  1  -0.00518393  0.85006879  0.67061452  1
  O2-  O258  1  0.33393042  0.31515571  -0.00371734  1
  O2-  O259  1  0.32938963  0.35277190  0.33277648  1
  O2-  O260  1  0.32393715  0.32444124  0.66807072  1
  O2-  O261  1  0.33033410  0.82828532  -0.00535063  1
  O2-  O262  1  0.33217790  0.83309524  0.33487981  1
  O2-  O263  1  0.33150689  0.85187748  0.66567597  1
  O2-  O264  1  0.66359451  0.34849289  0.00318423  1
  O2-  O265  1  0.66488849  0.34491781  0.33351742  1
  O2-  O266  1  0.66523859  0.33557738  0.66631047  1
  O2-  O267  1  0.67277831  0.84929238  -0.00470858  1
  O2-  O268  1  0.67371874  0.85360330  0.33386517  1
  O2-  O269  1  0.66893810  0.85253931  0.66072541  1
  O2-  O270  1  0.16456673  0.30977901  0.00142329  1
  O2-  O271  1  0.16503434  0.32855197  0.33900565  1
  O2-  O272  1  0.16473658  0.33984320  0.66547059  1
  O2-  O273  1  0.16076382  0.81201115  -0.00571467  1
  O2-  O274  1  0.16118840  0.82754994  0.33365758  1
  O2-  O275  1  0.16413312  0.84905163  0.66469783  1
  O2-  O276  1  0.49325477  0.35152503  -0.00996569  1
  O2-  O277  1  0.48971686  0.34565781  0.32657972  1
  O2-  O278  1  0.49424815  0.35189259  0.66197675  1
  O2-  O279  1  0.49972785  0.84762023  -0.00858149  1
  O2-  O280  1  0.50249125  0.83343689  0.34130071  1
  O2-  O281  1  0.50302521  0.86242116  0.66137530  1
  O2-  O282  1  0.83965691  0.34834351  0.00745649  1
  O2-  O283  1  0.83390098  0.35101450  0.32920079  1
  O2-  O284  1  0.82963760  0.34779252  0.66321481  1
  O2-  O285  1  0.83906089  0.84077114  -0.00035976  1
  O2-  O286  1  0.83418653  0.85595107  0.33877238  1
  O2-  O287  1  0.83693337  0.85110727  0.67155974  1
  O2-  O288  1  -0.00413736  0.18815040  0.17047496  1
  O2-  O289  1  -0.00609237  0.17923938  0.50584805  1
  O2-  O290  1  -0.00329858  0.18070785  0.83299082  1
  O2-  O291  1  0.00858550  0.68697694  0.16826851  1
  O2-  O292  1  -0.00009549  0.67981089  0.50509279  1
  O2-  O293  1  0.00015678  0.68538143  0.82243501  1
  O2-  O294  1  0.32760240  0.18219925  0.15631940  1
  O2-  O295  1  0.33185769  0.18012354  0.49356955  1
  O2-  O296  1  0.34181660  0.18924885  0.83819550  1
  O2-  O297  1  0.34064348  0.68037053  0.17198809  1
  O2-  O298  1  0.33870079  0.68329675  0.49031525  1
  O2-  O299  1  0.32995578  0.69117627  0.83751723  1
  O2-  O300  1  0.66342818  0.17721622  0.17350745  1
  O2-  O301  1  0.66029792  0.18910729  0.49644201  1
  O2-  O302  1  0.66131390  0.18252008  0.82764388  1
  O2-  O303  1  0.66598561  0.68510191  0.16195835  1
  O2-  O304  1  0.65487201  0.68026994  0.48012101  1
  O2-  O305  1  0.66997829  0.67717476  0.84005870  1
  O2-  O306  1  0.16636496  0.18803065  0.16412089  1
  O2-  O307  1  0.16333503  0.19077081  0.50022848  1
  O2-  O308  1  0.15943743  0.19415388  0.83209920  1
  O2-  O309  1  0.16666712  0.68413797  0.16176032  1
  O2-  O310  1  0.16013973  0.68370225  0.49062393  1
  O2-  O311  1  0.16576098  0.68666769  0.83671773  1
  O2-  O312  1  0.49755722  0.18770168  0.16810528  1
  O2-  O313  1  0.49836957  0.18098522  0.49741649  1
  O2-  O314  1  0.49422272  0.17484423  0.83879399  1
  O2-  O315  1  0.50452226  0.68041603  0.16042500  1
  O2-  O316  1  0.48872643  0.68487604  0.50473693  1
  O2-  O317  1  0.50086474  0.69044948  0.83236675  1
  O2-  O318  1  0.83233545  0.16937253  0.17028848  1
  O2-  O319  1  0.82963300  0.18502654  0.50152901  1
  O2-  O320  1  0.82676824  0.18454218  0.83482460  1
  O2-  O321  1  0.83117382  0.68233745  0.17045054  1
  O2-  O322  1  0.83119905  0.68503873  0.50596918  1
  O2-  O323  1  0.85013295  0.67614056  0.84123860  1
  O2-  O324  1  -0.00065884  0.30246861  0.16225163  1
  O2-  O325  1  -0.00210184  0.31701999  0.50078231  1
  O2-  O326  1  -0.00006759  0.32540189  0.83614546  1
  O2-  O327  1  0.00004367  0.81781733  0.16688378  1
  O2-  O328  1  0.00016192  0.81332772  0.49548739  1
  O2-  O329  1  0.00317893  0.81662778  0.83511420  1
  O2-  O330  1  0.34190840  0.31849203  0.16722015  1
  O2-  O331  1  0.32767254  0.30970727  0.49747098  1
  O2-  O332  1  0.33006122  0.31727104  0.83448242  1
  O2-  O333  1  0.32890991  0.82134151  0.16326085  1
  O2-  O334  1  0.33039892  0.82307257  0.49629367  1
  O2-  O335  1  0.33611278  0.81908862  0.84022871  1
  O2-  O336  1  0.66548074  0.32750191  0.16775036  1
  O2-  O337  1  0.67026165  0.32029049  0.50239097  1
  O2-  O338  1  0.66065070  0.31809988  0.82521562  1
  O2-  O339  1  0.66830392  0.81201975  0.15793220  1
  O2-  O340  1  0.66702493  0.81265855  0.50176393  1
  O2-  O341  1  0.66115581  0.81597300  0.82641050  1
  O2-  O342  1  0.16470274  0.31461268  0.16845729  1
  O2-  O343  1  0.16291745  0.31576612  0.49986218  1
  O2-  O344  1  0.16696809  0.31266073  0.83055437  1
  O2-  O345  1  0.16322403  0.81451307  0.17056408  1
  O2-  O346  1  0.17076143  0.81704321  0.49415187  1
  O2-  O347  1  0.16734123  0.81982453  0.82602461  1
  O2-  O348  1  0.50702715  0.31618111  0.15643341  1
  O2-  O349  1  0.49798904  0.31567054  0.49499791  1
  O2-  O350  1  0.50234241  0.33412004  0.82264466  1
  O2-  O351  1  0.50126381  0.82520449  0.16460609  1
  O2-  O352  1  0.49102405  0.81498350  0.50431867  1
  O2-  O353  1  0.50072008  0.83413272  0.82957843  1
  O2-  O354  1  0.83152094  0.32160017  0.16878780  1
  O2-  O355  1  0.83377481  0.32087355  0.50010673  1
  O2-  O356  1  0.82914312  0.32123346  0.83729637  1
  O2-  O357  1  0.83057705  0.81545363  0.16682604  1
  O2-  O358  1  0.83834737  0.81721510  0.49784806  1
  O2-  O359  1  0.82945383  0.82384088  0.84028775  1
  O2-  O360  1  0.10067219  0.08184485  0.12045099  1
  O2-  O361  1  0.09448781  0.07832357  0.43736896  1
  O2-  O362  1  0.10788069  0.08238860  0.78278879  1
  O2-  O363  1  0.08039724  0.58611779  0.10648860  1
  O2-  O364  1  0.09093919  0.56935751  0.45561391  1
  O2-  O365  1  0.06690511  0.58445612  0.77695749  1
  O2-  O366  1  0.38949685  0.07792574  0.12782574  1
  O2-  O367  1  0.41528081  0.08456340  0.45000414  1
  O2-  O368  1  0.40345548  0.08421896  0.77469149  1
  O2-  O369  1  0.41755101  0.57960538  0.10990430  1
  O2-  O370  1  0.41589350  0.57690886  0.44149840  1
  O2-  O371  1  0.41226084  0.58122254  0.81163236  1
  O2-  O372  1  0.74770496  0.07497448  0.10294773  1
  O2-  O373  1  0.73837351  0.08443792  0.46343154  1
  O2-  O374  1  0.74042636  0.08533176  0.77469441  1
  O2-  O375  1  0.73666893  0.57414427  0.12257928  1
  O2-  O376  1  0.73785704  0.58086067  0.46708329  1
  O2-  O377  1  0.78327145  0.57316643  0.76597673  1
  O2-  O378  1  0.24040880  0.08025981  0.21804764  1
  O2-  O379  1  0.23476739  0.07454479  0.56427125  1
  O2-  O380  1  0.26687243  0.08563619  0.87680506  1
  O2-  O381  1  0.24106222  0.58260390  0.22809652  1
  O2-  O382  1  0.26368573  0.57660912  0.53456544  1
  O2-  O383  1  0.25326685  0.58137393  0.88563863  1
  O2-  O384  1  0.56511598  0.08619583  0.21604183  1
  O2-  O385  1  0.58653552  0.08254477  0.55170978  1
  O2-  O386  1  0.57158000  0.08336363  0.87745497  1
  O2-  O387  1  0.57798251  0.57896152  0.21394112  1
  O2-  O388  1  0.55395742  0.57886240  0.54749105  1
  O2-  O389  1  0.58878997  0.57841120  0.86626683  1
  O2-  O390  1  0.93564371  0.08117928  0.21703180  1
  O2-  O391  1  0.90317688  0.08414146  0.55816511  1
  O2-  O392  1  0.90251350  0.08428952  0.88049795  1
  O2-  O393  1  0.93001843  0.58411224  0.21598739  1
  O2-  O394  1  0.90590256  0.58029394  0.55387533  1
  O2-  O395  1  0.90865781  0.55223767  0.87899234  1
  O2-  O396  1  0.09041041  0.41231251  0.08578640  1
  O2-  O397  1  0.08513512  0.41859817  0.44704927  1
  O2-  O398  1  0.09984059  0.42554167  0.78944652  1
  O2-  O399  1  0.07855136  0.92098245  0.10606555  1
  O2-  O400  1  0.07778244  0.91803920  0.44024839  1
  O2-  O401  1  0.07613085  0.92032183  0.78229209  1
  O2-  O402  1  0.42519004  0.42014962  0.10915503  1
  O2-  O403  1  0.39739466  0.41352979  0.45580889  1
  O2-  O404  1  0.38369217  0.42346123  0.78509367  1
  O2-  O405  1  0.42075463  0.91616064  0.07594923  1
  O2-  O406  1  0.41390641  0.92330261  0.43792739  1
  O2-  O407  1  0.40533497  0.92475230  0.79379910  1
  O2-  O408  1  0.75171179  0.42552227  0.12313669  1
  O2-  O409  1  0.76238274  0.41676077  0.43918491  1
  O2-  O410  1  0.72769816  0.41545111  0.76737309  1
  O2-  O411  1  0.76089700  0.91679639  0.11078050  1
  O2-  O412  1  0.74347388  0.92932689  0.46796488  1
  O2-  O413  1  0.73279447  0.91768164  0.78917117  1
  O2-  O414  1  0.25279238  0.41978354  0.21053259  1
  O2-  O415  1  0.23807739  0.41901425  0.54703259  1
  O2-  O416  1  0.23407519  0.40559113  0.90918388  1
  O2-  O417  1  0.23338967  0.91397574  0.25009890  1
  O2-  O418  1  0.25372667  0.91948958  0.54433609  1
  O2-  O419  1  0.24858654  0.91776395  0.89605568  1
  O2-  O420  1  0.57341206  0.41931224  0.22388519  1
  O2-  O421  1  0.60347566  0.41902071  0.58213021  1
  O2-  O422  1  0.58773527  0.42166277  0.87322052  1
  O2-  O423  1  0.60968554  0.91651043  0.22262583  1
  O2-  O424  1  0.56906346  0.91956844  0.52882923  1
  O2-  O425  1  0.59490460  0.92457054  0.88161680  1
  O2-  O426  1  0.94032958  0.41648617  0.20557819  1
  O2-  O427  1  0.92587117  0.41898734  0.55141915  1
  O2-  O428  1  0.93681750  0.41763065  0.91257108  1
  O2-  O429  1  0.90461965  0.91422598  0.21914411  1
  O2-  O430  1  0.91499046  0.91548537  0.55311192  1
  O2-  O431  1  0.90680955  0.92451495  0.87400381  1
  O2-  O432  1  -0.02739574  0.00364749  0.04250867  1
  O2-  O433  1  -0.01590784  0.00271113  0.37679733  1
  O2-  O434  1  -0.00845811  0.00884561  0.71036185  1
  O2-  O435  1  0.01675521  0.49264205  0.00712758  1
  O2-  O436  1  -0.01097897  0.50790566  0.35173145  1
  O2-  O437  1  0.02238518  0.49965713  0.64604482  1
  O2-  O438  1  0.35912881  0.00621281  -0.03815689  1
  O2-  O439  1  0.34817569  0.01040509  0.31302981  1
  O2-  O440  1  0.36031241  0.00466645  0.62087671  1
  O2-  O441  1  0.33237075  0.48497673  0.00127288  1
  O2-  O442  1  0.35490334  0.49859239  0.30296636  1
  O2-  O443  1  0.35028880  0.52390212  0.64932440  1
  O2-  O444  1  0.65816984  -0.01807530  0.01575655  1
  O2-  O445  1  0.68397188  0.00534736  0.31103257  1
  O2-  O446  1  0.66910030  -0.01607437  0.65292106  1
  O2-  O447  1  0.65678389  0.49730587  0.01941387  1
  O2-  O448  1  0.67436323  0.50990414  0.31499014  1
  O2-  O449  1  0.66898814  0.51435459  0.66843793  1
  O2-  O450  1  0.19320992  0.01128222  0.03070803  1
  O2-  O451  1  0.14892769  -0.00001477  0.31699243  1
  O2-  O452  1  0.20687800  -0.00613760  0.70524047  1
  O2-  O453  1  0.15652904  0.49016118  -0.01422174  1
  O2-  O454  1  0.19240313  0.49916732  0.36061042  1
  O2-  O455  1  0.18428181  0.49077995  0.68319529  1
  O2-  O456  1  0.50988419  0.02515626  0.01295826  1
  O2-  O457  1  0.51036383  0.01466175  0.35631039  1
  O2-  O458  1  0.52064106  -0.00550278  0.69244501  1
  O2-  O459  1  0.49712583  0.50929846  -0.00431829  1
  O2-  O460  1  0.51213639  0.50687329  0.34267719  1
  O2-  O461  1  0.50716540  0.48635669  0.68741654  1
  O2-  O462  1  0.81441308  -0.00468575  -0.02543250  1
  O2-  O463  1  0.83686067  -0.02456715  0.34246534  1
  O2-  O464  1  0.83632281  -0.00873224  0.67889060  1
  O2-  O465  1  0.84153498  0.51083897  0.01992631  1
  O2-  O466  1  0.83156061  0.49237120  0.29845544  1
  O2-  O467  1  0.81921136  0.49297906  0.64083649  1
  O2-  O468  1  0.26126076  0.74934442  0.26815958  1
  O2-  O469  1  0.58214123  0.75341098  0.60999542  1
  O2-  O470  1  0.75375623  0.24801357  0.38468287  1
  O2-  O471  1  0.42804045  0.75092898  0.71654005  1
  O2-  O472  1  0.91636676  0.25051931  0.93662781  1
  O2-  O473  1  0.57428196  0.74278399  0.95149868  1
  O2-  O474  1  0.89235006  0.24288133  0.27982001  1
  O2-  O475  1  0.75558224  0.25048837  0.72327341  1
  O2-  O476  1  0.58498687  0.25142577  0.27800966  1
  O2-  O477  1  0.26647999  0.25031137  0.27571262  1
  O2-  O478  1  0.57374259  0.25219560  0.94314652  1
  O2-  O479  1  0.57207645  0.24893826  0.60850070  1
  O2-  O480  1  0.91422164  0.75061804  0.61273839  1
  O2-  O481  1  0.08286692  0.75125612  0.71699062  1
  O2-  O482  1  0.91474619  0.25080378  0.61318852  1
  O2-  O483  1  0.42516310  0.74903182  0.06347604  1
  O2-  O484  1  0.44100246  0.24972854  0.72785668  1
  O2-  O485  1  0.25214336  0.75745734  0.60498165  1
  O2-  O486  1  0.75515475  0.74260713  0.38128274  1
  O2-  O487  1  0.75597711  0.75417610  0.72921027  1
  O2-  O488  1  0.06196283  0.24495556  0.72049320  1
  O2-  O489  1  0.90682857  0.75076115  0.28080244  1
  O2-  O490  1  0.74880149  0.25938961  0.06399386  1
  O2-  O491  1  0.59006679  0.74829714  0.28122250  1
  O2-  O492  1  0.41516575  0.24969785  0.38676860  1
