# generated using pymatgen
data_Ca108Mn108O277
_symmetry_space_group_name_H-M   'P 1'
_cell_length_a   16.02409354
_cell_length_b   22.30524602
_cell_length_c   16.38823104
_cell_angle_alpha   90.00068209
_cell_angle_beta   89.99742533
_cell_angle_gamma   89.99800846
_symmetry_Int_Tables_number   1
_chemical_formula_structural   Ca108Mn108O277
_chemical_formula_sum   'Ca108 Mn108 O277'
_cell_volume   5857.50363142
_cell_formula_units_Z   1
loop_
 _symmetry_equiv_pos_site_id
 _symmetry_equiv_pos_as_xyz
  1  'x, y, z'
loop_
 _atom_type_symbol
 _atom_type_oxidation_number
  Ca2+  2.0
  Mn3.34+  3.34
  O2-  -2.0
loop_
 _atom_site_type_symbol
 _atom_site_label
 _atom_site_symmetry_multiplicity
 _atom_site_fract_x
 _atom_site_fract_y
 _atom_site_fract_z
 _atom_site_occupancy
  Ca2+  Ca0  1  0.06872964  0.26484577  0.25594072  1
  Ca2+  Ca1  1  0.06243269  0.24070029  0.60326582  1
  Ca2+  Ca2  1  0.06477439  0.24681599  0.88143894  1
  Ca2+  Ca3  1  0.09383480  0.74098026  0.25421771  1
  Ca2+  Ca4  1  0.08730385  0.74028036  0.57154575  1
  Ca2+  Ca5  1  0.07330626  0.74076913  0.92231257  1
  Ca2+  Ca6  1  0.42202176  0.25688835  0.24010877  1
  Ca2+  Ca7  1  0.41519671  0.26442013  0.58857373  1
  Ca2+  Ca8  1  0.41351948  0.25072159  0.92503246  1
  Ca2+  Ca9  1  0.40867605  0.74752411  0.25713203  1
  Ca2+  Ca10  1  0.43205830  0.74531310  0.58871586  1
  Ca2+  Ca11  1  0.45202225  0.73330815  0.90628450  1
  Ca2+  Ca12  1  0.75176892  0.24799395  0.25182974  1
  Ca2+  Ca13  1  0.76777085  0.23953742  0.59822710  1
  Ca2+  Ca14  1  0.76396619  0.23739213  0.90691373  1
  Ca2+  Ca15  1  0.74766327  0.75761387  0.25374307  1
  Ca2+  Ca16  1  0.72897072  0.75110193  0.59207659  1
  Ca2+  Ca17  1  0.73961744  0.75199841  0.90613086  1
  Ca2+  Ca18  1  0.26979510  0.25640747  0.07070665  1
  Ca2+  Ca19  1  0.25617761  0.26105186  0.42719712  1
  Ca2+  Ca20  1  0.23242079  0.25545903  0.75819780  1
  Ca2+  Ca21  1  0.23216810  0.75030843  0.09049937  1
  Ca2+  Ca22  1  0.24626320  0.74659979  0.41687358  1
  Ca2+  Ca23  1  0.25632550  0.74751228  0.74091281  1
  Ca2+  Ca24  1  0.60255012  0.24666937  0.07295954  1
  Ca2+  Ca25  1  0.60536319  0.25725928  0.41667603  1
  Ca2+  Ca26  1  0.61220052  0.25374688  0.75805019  1
  Ca2+  Ca27  1  0.59237788  0.74379445  0.06772491  1
  Ca2+  Ca28  1  0.57600448  0.74057696  0.44104984  1
  Ca2+  Ca29  1  0.58967273  0.75150280  0.74654050  1
  Ca2+  Ca30  1  0.88482296  0.24726624  0.05684056  1
  Ca2+  Ca31  1  0.89498279  0.24547651  0.43237822  1
  Ca2+  Ca32  1  0.91089873  0.23172328  0.75580086  1
  Ca2+  Ca33  1  0.93006552  0.75207167  0.07905114  1
  Ca2+  Ca34  1  0.92518943  0.74768317  0.41750728  1
  Ca2+  Ca35  1  0.91056764  0.75876199  0.75551450  1
  Ca2+  Ca36  1  0.41989849  0.07298474  0.59156303  1
  Ca2+  Ca37  1  0.69962080  0.58988667  0.57513148  1
  Ca2+  Ca38  1  0.73716914  0.59239221  0.91336538  1
  Ca2+  Ca39  1  0.58568254  0.59040034  0.74099114  1
  Ca2+  Ca40  1  0.25535516  0.59643140  0.09353349  1
  Ca2+  Ca41  1  0.08944600  0.09198501  0.26228207  1
  Ca2+  Ca42  1  0.08515955  0.60506700  0.26272194  1
  Ca2+  Ca43  1  0.72900298  0.59663728  0.91720294  1
  Ca2+  Ca44  1  0.06907745  0.10987143  0.89566868  1
  Ca2+  Ca45  1  0.74586561  0.10540026  0.91753719  1
  Ca2+  Ca46  1  0.07568427  0.09102062  0.26176741  1
  Ca2+  Ca47  1  0.93481698  0.60179128  0.08815235  1
  Ca2+  Ca48  1  0.61373388  0.08556498  0.07523622  1
  Ca2+  Ca49  1  0.86557810  0.09554455  0.44548211  1
  Ca2+  Ca50  1  0.29650089  0.07830474  0.06367500  1
  Ca2+  Ca51  1  0.66146279  0.09475423  0.75913265  1
  Ca2+  Ca52  1  0.94546130  0.60365085  0.09095528  1
  Ca2+  Ca53  1  0.40655375  0.58543542  0.27423775  1
  Ca2+  Ca54  1  0.61976166  0.09640098  0.41510526  1
  Ca2+  Ca55  1  0.91067886  0.60011891  0.75660856  1
  Ca2+  Ca56  1  0.43446564  0.58839547  0.57044656  1
  Ca2+  Ca57  1  0.42442873  0.58738301  0.56859624  1
  Ca2+  Ca58  1  0.27212028  0.08619995  0.41426560  1
  Ca2+  Ca59  1  0.24387128  0.59659677  0.09391254  1
  Ca2+  Ca60  1  0.05718752  0.10850740  0.89379703  1
  Ca2+  Ca61  1  0.28402257  0.08292852  0.41653215  1
  Ca2+  Ca62  1  0.76111114  0.59609932  0.24976697  1
  Ca2+  Ca63  1  0.23703402  0.59747172  0.42206516  1
  Ca2+  Ca64  1  0.94066993  0.60242458  0.40783941  1
  Ca2+  Ca65  1  0.85686480  0.09541105  0.07211241  1
  Ca2+  Ca66  1  0.90336153  0.09506088  0.74611636  1
  Ca2+  Ca67  1  0.74977214  0.59662468  0.24998900  1
  Ca2+  Ca68  1  0.57675191  0.59318889  0.73698901  1
  Ca2+  Ca69  1  0.22643667  0.08992249  0.75397602  1
  Ca2+  Ca70  1  0.56546292  0.59134870  0.06686191  1
  Ca2+  Ca71  1  0.86678054  0.09477786  0.06906784  1
  Ca2+  Ca72  1  0.59284352  0.91869075  0.07680931  1
  Ca2+  Ca73  1  0.58660440  0.41995603  0.73378311  1
  Ca2+  Ca74  1  0.60223022  0.91607082  0.07985602  1
  Ca2+  Ca75  1  0.42412907  0.40775217  0.92423325  1
  Ca2+  Ca76  1  0.42606852  0.91016147  0.27105624  1
  Ca2+  Ca77  1  0.40348289  0.41371651  0.25979140  1
  Ca2+  Ca78  1  0.24544830  0.90514881  0.74631293  1
  Ca2+  Ca79  1  0.09322625  0.39323374  0.92416945  1
  Ca2+  Ca80  1  0.11117196  0.40522066  0.57575511  1
  Ca2+  Ca81  1  0.57146830  0.41016648  0.08118438  1
  Ca2+  Ca82  1  0.91147350  0.40681276  0.41624407  1
  Ca2+  Ca83  1  0.89527918  0.91811201  0.72856437  1
  Ca2+  Ca84  1  0.43022917  0.91554698  0.27704230  1
  Ca2+  Ca85  1  0.89862214  0.89757767  0.43087020  1
  Ca2+  Ca86  1  0.27164494  0.42426026  0.41340575  1
  Ca2+  Ca87  1  0.07943127  0.89122013  0.24663671  1
  Ca2+  Ca88  1  0.08204872  0.89894248  0.91217824  1
  Ca2+  Ca89  1  0.42482533  0.41889568  0.57668079  1
  Ca2+  Ca90  1  0.74965214  0.40585254  0.24620574  1
  Ca2+  Ca91  1  0.08376796  0.39538312  0.92067904  1
  Ca2+  Ca92  1  0.91800085  0.40475607  0.08028975  1
  Ca2+  Ca93  1  0.42053669  0.90254681  0.56473248  1
  Ca2+  Ca94  1  0.73758132  0.90879970  0.91179247  1
  Ca2+  Ca95  1  0.27250788  0.41275951  0.08526241  1
  Ca2+  Ca96  1  0.26884365  0.90376054  0.07917771  1
  Ca2+  Ca97  1  0.90934540  0.89695518  0.42820874  1
  Ca2+  Ca98  1  0.07756717  0.89779665  0.58448272  1
  Ca2+  Ca99  1  0.74340455  0.41205970  0.90971814  1
  Ca2+  Ca100  1  0.10029475  0.40729941  0.57838277  1
  Ca2+  Ca101  1  0.73246871  0.41040895  0.91085681  1
  Ca2+  Ca102  1  0.89240643  0.90499948  0.08160740  1
  Ca2+  Ca103  1  0.42363004  0.90780041  0.92370231  1
  Ca2+  Ca104  1  0.92402804  0.40652233  0.41441656  1
  Ca2+  Ca105  1  0.75225750  0.41284992  0.24071908  1
  Ca2+  Ca106  1  0.25702822  0.90500616  0.74641631  1
  Ca2+  Ca107  1  0.72548800  0.42119277  0.60054518  1
  Mn3.34+  Mn108  1  0.08670403  0.32685568  0.08748862  1
  Mn3.34+  Mn109  1  0.08813525  0.33122957  0.41695682  1
  Mn3.34+  Mn110  1  0.08345739  0.33756545  0.74756706  1
  Mn3.34+  Mn111  1  0.08252572  0.83101535  0.08200157  1
  Mn3.34+  Mn112  1  0.08775340  0.82831999  0.41683753  1
  Mn3.34+  Mn113  1  0.07861438  0.83055581  0.75228233  1
  Mn3.34+  Mn114  1  0.42173913  0.33422460  0.08938662  1
  Mn3.34+  Mn115  1  0.42591479  0.33663172  0.41836264  1
  Mn3.34+  Mn116  1  0.41680830  0.33681231  0.75109242  1
  Mn3.34+  Mn117  1  0.42034912  0.83535091  0.09114234  1
  Mn3.34+  Mn118  1  0.41631652  0.83099242  0.42025169  1
  Mn3.34+  Mn119  1  0.42201558  0.83266046  0.75090204  1
  Mn3.34+  Mn120  1  0.74530038  0.33619080  0.08237170  1
  Mn3.34+  Mn121  1  0.74780489  0.33582434  0.42381956  1
  Mn3.34+  Mn122  1  0.75477199  0.33708212  0.74753172  1
  Mn3.34+  Mn123  1  0.74887774  0.82926027  0.08480819  1
  Mn3.34+  Mn124  1  0.73796015  0.82776975  0.41858721  1
  Mn3.34+  Mn125  1  0.74480546  0.84173711  0.74778201  1
  Mn3.34+  Mn126  1  0.24579678  0.33111680  0.24939737  1
  Mn3.34+  Mn127  1  0.26049080  0.33806904  0.58513118  1
  Mn3.34+  Mn128  1  0.25624125  0.33041661  0.91499914  1
  Mn3.34+  Mn129  1  0.25086947  0.83088609  0.24963941  1
  Mn3.34+  Mn130  1  0.25143871  0.83207220  0.57698903  1
  Mn3.34+  Mn131  1  0.25326269  0.83437658  0.91782134  1
  Mn3.34+  Mn132  1  0.58263010  0.33177709  0.25138866  1
  Mn3.34+  Mn133  1  0.58372776  0.33769088  0.58109860  1
  Mn3.34+  Mn134  1  0.57997470  0.33198071  0.91308375  1
  Mn3.34+  Mn135  1  0.58570689  0.82995294  0.24858907  1
  Mn3.34+  Mn136  1  0.58305259  0.83316003  0.58457581  1
  Mn3.34+  Mn137  1  0.58293401  0.83345776  0.91191876  1
  Mn3.34+  Mn138  1  0.92074401  0.33508340  0.24265986  1
  Mn3.34+  Mn139  1  0.91479454  0.33634701  0.58874409  1
  Mn3.34+  Mn140  1  0.91440503  0.33172752  0.91208178  1
  Mn3.34+  Mn141  1  0.91421680  0.82926287  0.24663869  1
  Mn3.34+  Mn142  1  0.91225377  0.83518352  0.58794317  1
  Mn3.34+  Mn143  1  0.91147520  0.83137426  0.91558554  1
  Mn3.34+  Mn144  1  0.58737717  0.17182091  0.58142799  1
  Mn3.34+  Mn145  1  0.90935664  0.66721845  0.58305938  1
  Mn3.34+  Mn146  1  0.74408714  0.66764474  0.42062417  1
  Mn3.34+  Mn147  1  0.58550351  0.15982518  0.58160385  1
  Mn3.34+  Mn148  1  0.74872290  0.66610822  0.08516793  1
  Mn3.34+  Mn149  1  0.25779570  0.67029351  0.91295982  1
  Mn3.34+  Mn150  1  0.41971542  0.66304207  0.09172800  1
  Mn3.34+  Mn151  1  0.91225525  0.16919251  0.25523955  1
  Mn3.34+  Mn152  1  0.07723120  0.18143511  0.08370808  1
  Mn3.34+  Mn153  1  0.91879398  0.66937283  0.91421616  1
  Mn3.34+  Mn154  1  0.57855041  0.67031189  0.24965553  1
  Mn3.34+  Mn155  1  0.25121893  0.17885074  0.24903714  1
  Mn3.34+  Mn156  1  0.91591698  0.67693090  0.24865856  1
  Mn3.34+  Mn157  1  0.91589198  0.15192138  0.58850099  1
  Mn3.34+  Mn158  1  0.08514666  0.66940129  0.74813866  1
  Mn3.34+  Mn159  1  0.42633743  0.16811689  0.75506878  1
  Mn3.34+  Mn160  1  0.25497123  0.17087841  0.58728896  1
  Mn3.34+  Mn161  1  0.41579556  0.66452952  0.74940610  1
  Mn3.34+  Mn162  1  0.25848378  0.18587506  0.25066918  1
  Mn3.34+  Mn163  1  0.24263102  0.16585524  0.58510998  1
  Mn3.34+  Mn164  1  0.25044035  0.65598993  0.58396433  1
  Mn3.34+  Mn165  1  0.57977906  0.16098708  0.91608391  1
  Mn3.34+  Mn166  1  0.92140986  0.66176829  0.58216438  1
  Mn3.34+  Mn167  1  0.07862744  0.17395213  0.42417975  1
  Mn3.34+  Mn168  1  0.25169035  0.16507018  0.91694519  1
  Mn3.34+  Mn169  1  0.74757759  0.66627006  0.75219618  1
  Mn3.34+  Mn170  1  0.57515962  0.15994736  0.24628270  1
  Mn3.34+  Mn171  1  0.41513814  0.16044312  0.75801268  1
  Mn3.34+  Mn172  1  0.24777693  0.66519110  0.91073075  1
  Mn3.34+  Mn173  1  0.42339567  0.16629939  0.07896689  1
  Mn3.34+  Mn174  1  0.08732020  0.17650315  0.08429846  1
  Mn3.34+  Mn175  1  0.25166419  0.66791337  0.25298667  1
  Mn3.34+  Mn176  1  0.41562979  0.66644113  0.41938998  1
  Mn3.34+  Mn177  1  0.58770184  0.16512595  0.24353958  1
  Mn3.34+  Mn178  1  0.90153689  0.16497508  0.25367676  1
  Mn3.34+  Mn179  1  0.43152596  0.16144785  0.42250257  1
  Mn3.34+  Mn180  1  0.24503013  0.49810949  0.25803124  1
  Mn3.34+  Mn181  1  0.58607027  -0.00039460  0.26177879  1
  Mn3.34+  Mn182  1  0.08594395  0.49665742  0.09007576  1
  Mn3.34+  Mn183  1  0.73999728  -0.00703897  0.42170291  1
  Mn3.34+  Mn184  1  0.57812881  -0.00010522  0.92632654  1
  Mn3.34+  Mn185  1  0.08226745  0.50524526  0.41528547  1
  Mn3.34+  Mn186  1  0.89911189  -0.00182137  0.25159227  1
  Mn3.34+  Mn187  1  0.92170731  0.50374275  0.91081313  1
  Mn3.34+  Mn188  1  0.10425960  0.51026104  0.74112208  1
  Mn3.34+  Mn189  1  0.93309546  0.50050567  0.91269110  1
  Mn3.34+  Mn190  1  0.56743139  0.49987983  0.24819460  1
  Mn3.34+  Mn191  1  0.57933326  0.50614715  0.25332491  1
  Mn3.34+  Mn192  1  0.93298428  0.49859759  0.25548195  1
  Mn3.34+  Mn193  1  0.91682714  0.50543827  0.60088675  1
  Mn3.34+  Mn194  1  0.26593692  0.00449735  0.23857488  1
  Mn3.34+  Mn195  1  0.42918458  -0.00108283  0.74785024  1
  Mn3.34+  Mn196  1  0.90583691  -0.00206790  0.90021669  1
  Mn3.34+  Mn197  1  0.61062838  -0.00974133  0.59420121  1
  Mn3.34+  Mn198  1  0.40841337  0.50016354  0.73759690  1
  Mn3.34+  Mn199  1  0.74713676  0.50083802  0.41449278  1
  Mn3.34+  Mn200  1  0.26331141  0.50375142  0.91289102  1
  Mn3.34+  Mn201  1  0.25471573  -0.00072434  0.23926572  1
  Mn3.34+  Mn202  1  0.25173743  0.49961119  0.91179784  1
  Mn3.34+  Mn203  1  0.07512709  -0.00456072  0.73026021  1
  Mn3.34+  Mn204  1  0.60186014  -0.00444072  0.59018362  1
  Mn3.34+  Mn205  1  0.26268270  0.00067157  0.92443797  1
  Mn3.34+  Mn206  1  0.89507741  0.00177115  0.90213694  1
  Mn3.34+  Mn207  1  0.07494538  -0.00202761  0.07799812  1
  Mn3.34+  Mn208  1  0.90521709  0.49739199  0.59966376  1
  Mn3.34+  Mn209  1  0.09028841  0.00286338  0.08011452  1
  Mn3.34+  Mn210  1  0.08789806  -0.00231762  0.42548335  1
  Mn3.34+  Mn211  1  0.57201184  0.50009739  0.92821808  1
  Mn3.34+  Mn212  1  0.07491715  0.00504466  0.42584966  1
  Mn3.34+  Mn213  1  0.88586858  -0.00020296  0.25399262  1
  Mn3.34+  Mn214  1  0.09344033  0.50283125  0.74601220  1
  Mn3.34+  Mn215  1  0.25036306  0.00009429  0.58841072  1
  O2-  O216  1  -0.00799937  0.15336461  0.01344571  1
  O2-  O217  1  -0.00169258  0.15120810  0.33428308  1
  O2-  O218  1  -0.00793031  0.16466136  0.66192602  1
  O2-  O219  1  -0.00353825  0.66046055  -0.00516057  1
  O2-  O220  1  -0.00441416  0.67470803  0.32557764  1
  O2-  O221  1  -0.00226796  0.64973031  0.66646520  1
  O2-  O222  1  0.33524381  0.15999273  -0.00076887  1
  O2-  O223  1  0.32504055  0.16972042  0.34804870  1
  O2-  O224  1  0.33784152  0.14070398  0.66677578  1
  O2-  O225  1  0.33183080  0.65942080  0.00687285  1
  O2-  O226  1  0.33124631  0.65676835  0.33470894  1
  O2-  O227  1  0.33398705  0.67043297  0.66235662  1
  O2-  O228  1  0.65644654  0.16341353  -0.00385570  1
  O2-  O229  1  0.65852209  0.17070072  0.33058250  1
  O2-  O230  1  0.66197506  0.17465758  0.66839895  1
  O2-  O231  1  0.66600155  0.64776441  0.01010803  1
  O2-  O232  1  0.67054980  0.66033019  0.32600446  1
  O2-  O233  1  0.66605482  0.65893323  0.67510286  1
  O2-  O234  1  0.16625539  0.15212410  0.00262101  1
  O2-  O235  1  0.15715956  0.16965199  0.32639937  1
  O2-  O236  1  0.16902761  0.15889861  0.66798414  1
  O2-  O237  1  0.17676373  0.64914931  -0.00170221  1
  O2-  O238  1  0.17307911  0.66009391  0.32955524  1
  O2-  O239  1  0.17238162  0.67778294  0.66483606  1
  O2-  O240  1  0.50450769  0.17689871  0.00046915  1
  O2-  O241  1  0.49898253  0.18340669  0.32582274  1
  O2-  O242  1  0.49861514  0.15404605  0.65830956  1
  O2-  O243  1  0.49587947  0.67129665  0.01249011  1
  O2-  O244  1  0.49528447  0.66394970  0.32855375  1
  O2-  O245  1  0.48947172  0.65028591  0.66616933  1
  O2-  O246  1  0.82478980  0.16432477  -0.00720425  1
  O2-  O247  1  0.82961901  0.15340722  0.33838265  1
  O2-  O248  1  0.83699094  0.15871915  0.66226415  1
  O2-  O249  1  0.83441358  0.64337344  0.00226555  1
  O2-  O250  1  0.83278489  0.65750636  0.32969493  1
  O2-  O251  1  0.83070217  0.64769861  0.66294537  1
  O2-  O252  1  0.00391507  0.33176924  -0.00302905  1
  O2-  O253  1  0.00298198  0.34217084  0.33509723  1
  O2-  O254  1  0.01038773  0.35500123  0.65813601  1
  O2-  O255  1  -0.00724031  0.84785034  0.00606991  1
  O2-  O256  1  -0.00697884  0.84369274  0.33811586  1
  O2-  O257  1  -0.00425440  0.84909592  0.67240853  1
  O2-  O258  1  0.33592496  0.34728458  0.00119257  1
  O2-  O259  1  0.33592352  0.32837053  0.33406899  1
  O2-  O260  1  0.34612276  0.35328085  0.65608835  1
  O2-  O261  1  0.34233444  0.84225771  -0.00262026  1
  O2-  O262  1  0.33852159  0.84176960  0.32306821  1
  O2-  O263  1  0.32864466  0.83761990  0.66767350  1
  O2-  O264  1  0.66044006  0.35291741  0.00051284  1
  O2-  O265  1  0.66969794  0.34645973  0.33030988  1
  O2-  O266  1  0.66139260  0.33516383  0.67202854  1
  O2-  O267  1  0.66409611  0.84731341  0.00046505  1
  O2-  O268  1  0.66189788  0.81766727  0.33145449  1
  O2-  O269  1  0.66308877  0.83658287  0.66866642  1
  O2-  O270  1  0.17192261  0.33583875  0.00445026  1
  O2-  O271  1  0.16868181  0.30633331  0.33566280  1
  O2-  O272  1  0.17248544  0.34814321  0.67001476  1
  O2-  O273  1  0.16892737  0.85388056  0.00230911  1
  O2-  O274  1  0.16499437  0.84339205  0.33058924  1
  O2-  O275  1  0.16828886  0.83949504  0.66879758  1
  O2-  O276  1  0.50063724  0.33918440  -0.00143720  1
  O2-  O277  1  0.50078853  0.31297896  0.33237817  1
  O2-  O278  1  0.50238164  0.33212325  0.66424659  1
  O2-  O279  1  0.50803095  0.84701868  0.01115855  1
  O2-  O280  1  0.49782183  0.83435584  0.32562190  1
  O2-  O281  1  0.49206112  0.84571419  0.66095302  1
  O2-  O282  1  0.83142156  0.35332291  -0.00162492  1
  O2-  O283  1  0.83041570  0.35640104  0.33299248  1
  O2-  O284  1  0.82483455  0.35547614  0.65636868  1
  O2-  O285  1  0.82613726  0.84685633  -0.00483991  1
  O2-  O286  1  0.83788555  0.83332548  0.33397849  1
  O2-  O287  1  0.83340031  0.83961681  0.66932188  1
  O2-  O288  1  0.00866411  0.17914847  0.18405325  1
  O2-  O289  1  -0.00262448  0.18622321  0.49868474  1
  O2-  O290  1  -0.00234590  0.17261916  0.82795241  1
  O2-  O291  1  -0.00579229  0.67987755  0.16599425  1
  O2-  O292  1  -0.00416869  0.67912193  0.50056894  1
  O2-  O293  1  -0.01012155  0.68245849  0.82583706  1
  O2-  O294  1  0.33571254  0.18216560  0.16335904  1
  O2-  O295  1  0.33342554  0.18380373  0.50603929  1
  O2-  O296  1  0.32308852  0.17627221  0.82761721  1
  O2-  O297  1  0.32935688  0.68288317  0.16151220  1
  O2-  O298  1  0.33358994  0.68332057  0.50594697  1
  O2-  O299  1  0.33652157  0.68606936  0.83485571  1
  O2-  O300  1  0.66291788  0.18760830  0.17207910  1
  O2-  O301  1  0.66515820  0.18455986  0.50154156  1
  O2-  O302  1  0.66092348  0.17970654  0.84186809  1
  O2-  O303  1  0.67285749  0.68188046  0.17334933  1
  O2-  O304  1  0.67231997  0.67707094  0.50111308  1
  O2-  O305  1  0.67183290  0.67183338  0.83559748  1
  O2-  O306  1  0.16351954  0.19071226  0.17035659  1
  O2-  O307  1  0.17423545  0.18887538  0.49121346  1
  O2-  O308  1  0.16428746  0.17321076  0.84442668  1
  O2-  O309  1  0.17474933  0.66899762  0.16821958  1
  O2-  O310  1  0.18146766  0.68082654  0.50705417  1
  O2-  O311  1  0.16535693  0.68575380  0.83332554  1
  O2-  O312  1  0.50242816  0.18694207  0.16545648  1
  O2-  O313  1  0.50456273  0.19713139  0.50734319  1
  O2-  O314  1  0.49933634  0.19135284  0.83865544  1
  O2-  O315  1  0.49918437  0.68911903  0.16789686  1
  O2-  O316  1  0.48986016  0.67103644  0.50195342  1
  O2-  O317  1  0.50837214  0.67039045  0.81380613  1
  O2-  O318  1  0.83997454  0.17772741  0.15859990  1
  O2-  O319  1  0.84008814  0.17900754  0.51199546  1
  O2-  O320  1  0.82231734  0.16452903  0.82337902  1
  O2-  O321  1  0.83309770  0.68146374  0.16548788  1
  O2-  O322  1  0.83803507  0.67699594  0.49450152  1
  O2-  O323  1  0.82848729  0.67419802  0.84020354  1
  O2-  O324  1  -0.00494016  0.30541082  0.15208137  1
  O2-  O325  1  0.00127857  0.32534150  0.49713370  1
  O2-  O326  1  0.00424559  0.33120181  0.83620217  1
  O2-  O327  1  0.00477543  0.81270951  0.17547149  1
  O2-  O328  1  -0.00448138  0.82278185  0.49870916  1
  O2-  O329  1  0.00477099  0.82058016  0.84299691  1
  O2-  O330  1  0.33200465  0.31918472  0.16908055  1
  O2-  O331  1  0.33965157  0.31836310  0.49829193  1
  O2-  O332  1  0.33670230  0.32248379  0.83768948  1
  O2-  O333  1  0.32857391  0.81427519  0.15973112  1
  O2-  O334  1  0.33474762  0.81461362  0.50266697  1
  O2-  O335  1  0.32457410  0.82465610  0.82499102  1
  O2-  O336  1  0.67083754  0.31988292  0.17319971  1
  O2-  O337  1  0.67412370  0.31927651  0.51052293  1
  O2-  O338  1  0.67344671  0.31878980  0.84666590  1
  O2-  O339  1  0.66146777  0.81297299  0.16100601  1
  O2-  O340  1  0.66396165  0.81571366  0.50111845  1
  O2-  O341  1  0.66808239  0.82639813  0.83584254  1
  O2-  O342  1  0.16816705  0.30317100  0.16611738  1
  O2-  O343  1  0.16394582  0.31927636  0.50691630  1
  O2-  O344  1  0.15971989  0.32403674  0.84370325  1
  O2-  O345  1  0.16551202  0.82446043  0.16791944  1
  O2-  O346  1  0.16004331  0.81919596  0.50761605  1
  O2-  O347  1  0.16951217  0.82906782  0.82989733  1
  O2-  O348  1  0.50927105  0.31408294  0.16417992  1
  O2-  O349  1  0.50513826  0.31582289  0.49912129  1
  O2-  O350  1  0.50077878  0.31393959  0.83393661  1
  O2-  O351  1  0.49847131  0.80903672  0.16944943  1
  O2-  O352  1  0.49470063  0.81848349  0.50228606  1
  O2-  O353  1  0.49136781  0.82500426  0.84249419  1
  O2-  O354  1  0.82644385  0.32554005  0.16757442  1
  O2-  O355  1  0.84454101  0.32867810  0.49244392  1
  O2-  O356  1  0.82705825  0.34193950  0.84193974  1
  O2-  O357  1  0.83770616  0.81241007  0.16010138  1
  O2-  O358  1  0.83821668  0.82251434  0.49826311  1
  O2-  O359  1  0.83162521  0.81899917  0.83612273  1
  O2-  O360  1  0.08823875  0.08192498  0.12567588  1
  O2-  O361  1  0.10737547  0.08531544  0.42889616  1
  O2-  O362  1  0.08907622  0.06660951  0.78013862  1
  O2-  O363  1  0.07746155  0.57398808  0.12865938  1
  O2-  O364  1  0.08352970  0.58281875  0.42217480  1
  O2-  O365  1  0.08025831  0.58604623  0.77823654  1
  O2-  O366  1  0.42708628  0.08873901  0.10014053  1
  O2-  O367  1  0.40408928  0.07747113  0.45973163  1
  O2-  O368  1  0.43712276  0.08183326  0.77976226  1
  O2-  O369  1  0.40204647  0.58484813  0.12070435  1
  O2-  O370  1  0.40031710  0.58385928  0.43604623  1
  O2-  O371  1  0.41583311  0.57793151  0.77248674  1
  O2-  O372  1  0.74464269  0.07185815  0.10910864  1
  O2-  O373  1  0.73670155  0.06549618  0.46843645  1
  O2-  O374  1  0.78801459  0.05520351  0.81088501  1
  O2-  O375  1  0.75897896  0.58257327  0.11784024  1
  O2-  O376  1  0.75383682  0.58308424  0.43465178  1
  O2-  O377  1  0.74865305  0.58186301  0.78073100  1
  O2-  O378  1  0.22680039  0.08744064  0.22153765  1
  O2-  O379  1  0.24703381  0.08140879  0.54799754  1
  O2-  O380  1  0.24314109  0.07962631  0.89423120  1
  O2-  O381  1  0.25479137  0.57978759  0.22710047  1
  O2-  O382  1  0.27565806  0.58178852  0.55778383  1
  O2-  O383  1  0.26263077  0.58391053  0.87921126  1
  O2-  O384  1  0.58672142  0.07692609  0.21425595  1
  O2-  O385  1  0.57083492  0.07677199  0.54298874  1
  O2-  O386  1  0.59263678  0.07615946  0.88701503  1
  O2-  O387  1  0.58600501  0.58259111  0.20577185  1
  O2-  O388  1  0.56242798  0.57131028  0.58148291  1
  O2-  O389  1  0.59261387  0.56903911  0.87638419  1
  O2-  O390  1  0.93631805  0.07583385  0.20464679  1
  O2-  O391  1  0.92608869  0.07878065  0.56485442  1
  O2-  O392  1  0.92650686  0.08309529  0.89818336  1
  O2-  O393  1  0.90612287  0.58129392  0.22215256  1
  O2-  O394  1  0.91792603  0.57629385  0.53924391  1
  O2-  O395  1  0.91526913  0.58471498  0.88767106  1
  O2-  O396  1  0.08392394  0.41489669  0.08213256  1
  O2-  O397  1  0.07955860  0.42243403  0.44491379  1
  O2-  O398  1  0.09019201  0.42637043  0.79114955  1
  O2-  O399  1  0.07254952  0.91906638  0.11547291  1
  O2-  O400  1  0.06709645  0.91740681  0.44208129  1
  O2-  O401  1  0.09361278  0.91897949  0.77359781  1
  O2-  O402  1  0.42413057  0.41341400  0.12023236  1
  O2-  O403  1  0.41025721  0.41552721  0.43551762  1
  O2-  O404  1  0.42150654  0.42594425  0.78639324  1
  O2-  O405  1  0.41761176  0.91731806  0.13575606  1
  O2-  O406  1  0.41643502  0.91270647  0.42265239  1
  O2-  O407  1  0.39573270  0.91971274  0.77797712  1
  O2-  O408  1  0.74188887  0.42156828  0.11194441  1
  O2-  O409  1  0.76991635  0.42317375  0.45754535  1
  O2-  O410  1  0.72589028  0.42004060  0.77653628  1
  O2-  O411  1  0.73930948  0.91042301  0.10747650  1
  O2-  O412  1  0.76217722  0.91207545  0.42923229  1
  O2-  O413  1  0.76226530  0.91762475  0.77791034  1
  O2-  O414  1  0.25333605  0.41899798  0.22356469  1
  O2-  O415  1  0.24507141  0.41564661  0.54480613  1
  O2-  O416  1  0.23422224  0.41595841  0.90071920  1
  O2-  O417  1  0.25610765  0.91674677  0.22068837  1
  O2-  O418  1  0.25274984  0.91924049  0.57282786  1
  O2-  O419  1  0.25277264  0.92275426  0.88432635  1
  O2-  O420  1  0.59152417  0.41953855  0.21896629  1
  O2-  O421  1  0.57818726  0.41702751  0.57641682  1
  O2-  O422  1  0.58014635  0.42438262  0.88348741  1
  O2-  O423  1  0.57160208  0.92181542  0.21530627  1
  O2-  O424  1  0.57525685  0.91702233  0.54953494  1
  O2-  O425  1  0.58053687  0.92201031  0.89358319  1
  O2-  O426  1  0.91443899  0.41782023  0.21376895  1
  O2-  O427  1  0.93446508  0.42477639  0.54709355  1
  O2-  O428  1  0.94662018  0.41781325  0.90837414  1
  O2-  O429  1  0.92504309  0.91972321  0.21667733  1
  O2-  O430  1  0.92653120  0.91775056  0.55845662  1
  O2-  O431  1  0.91599911  0.91506598  0.88391906  1
  O2-  O432  1  0.00869901  0.00238450  -0.02130194  1
  O2-  O433  1  0.00783657  0.01065023  0.31792534  1
  O2-  O434  1  -0.02453178  -0.00312389  0.69149389  1
  O2-  O435  1  -0.01781147  0.50881237  0.02369002  1
  O2-  O436  1  -0.02768354  0.49821322  0.37413183  1
  O2-  O437  1  -0.01344034  0.50140831  0.69184169  1
  O2-  O438  1  0.32641197  -0.01392406  0.01251480  1
  O2-  O439  1  0.32713555  0.01460659  0.33626050  1
  O2-  O440  1  0.33449969  0.00999627  0.67195442  1
  O2-  O441  1  0.32741423  0.49151723  0.00773879  1
  O2-  O442  1  0.32848877  0.49484853  0.32343078  1
  O2-  O443  1  0.36659911  0.50234823  0.63551722  1
  O2-  O444  1  0.66544416  -0.00612746  -0.00595190  1
  O2-  O445  1  0.65408202  0.01091273  0.34946997  1
  O2-  O446  1  0.67363547  0.01983651  0.67692619  1
  O2-  O447  1  0.67447797  0.50070183  -0.02882916  1
  O2-  O448  1  0.67476766  0.49815266  0.31535018  1
  O2-  O449  1  0.65417822  0.51211894  0.67057586  1
  O2-  O450  1  0.16549529  -0.00299112  -0.00546275  1
  O2-  O451  1  0.16326937  0.00445402  0.32510119  1
  O2-  O452  1  0.17973258  -0.00615599  0.68510567  1
  O2-  O453  1  0.16420508  0.50843016  -0.00090341  1
  O2-  O454  1  0.17324000  0.50064715  0.34745685  1
  O2-  O455  1  0.15223171  0.48840920  0.64168307  1
  O2-  O456  1  0.50911272  -0.01619899  0.00974238  1
  O2-  O457  1  0.48937788  -0.00006583  0.30620522  1
  O2-  O458  1  0.49656676  -0.00231447  0.64745838  1
  O2-  O459  1  0.51319725  0.49557197  0.01604152  1
  O2-  O460  1  0.47374476  0.49903127  0.30910774  1
  O2-  O461  1  0.51297194  0.50155353  0.70381160  1
  O2-  O462  1  0.84864297  -0.00138018  0.01007815  1
  O2-  O463  1  0.85094828  0.00169951  0.36660993  1
  O2-  O464  1  0.83814329  0.00938566  0.69559434  1
  O2-  O465  1  0.82061899  0.49345612  -0.03376822  1
  O2-  O466  1  0.82248354  0.48892115  0.31429128  1
  O2-  O467  1  0.80317736  0.50656683  0.64364738  1
  O2-  O468  1  0.08394913  0.25875582  0.73645934  1
  O2-  O469  1  0.08560013  0.75223214  0.39984904  1
  O2-  O470  1  0.76672709  0.25723340  0.74139100  1
  O2-  O471  1  0.42145927  0.75015172  0.73366180  1
  O2-  O472  1  0.75314896  0.74896448  0.73384421  1
  O2-  O473  1  0.74725757  0.74641178  0.04912353  1
  O2-  O474  1  0.24769227  0.75043587  0.27210589  1
  O2-  O475  1  0.58834154  0.75487669  0.92901750  1
  O2-  O476  1  0.25820054  0.25307359  0.61584752  1
  O2-  O477  1  0.39822079  0.24508377  0.72385757  1
  O2-  O478  1  0.57910896  0.75322574  0.60170740  1
  O2-  O479  1  0.91010644  0.25387359  0.91832629  1
  O2-  O480  1  0.76168402  0.74774161  0.39972350  1
  O2-  O481  1  0.91077793  0.25431150  0.28093282  1
  O2-  O482  1  0.74596466  0.25958079  0.05356429  1
  O2-  O483  1  0.07186511  0.75102783  0.72580960  1
  O2-  O484  1  0.91566036  0.25885803  0.61046301  1
  O2-  O485  1  0.75413354  0.25963772  0.39327468  1
  O2-  O486  1  0.91867719  0.75054445  0.61024346  1
  O2-  O487  1  0.91304808  0.74998766  0.94084140  1
  O2-  O488  1  0.25594175  0.24876016  0.93500851  1
  O2-  O489  1  0.41177936  0.74907661  0.39558141  1
  O2-  O490  1  0.08865173  0.75476978  0.05782608  1
  O2-  O491  1  0.41011354  0.25278781  0.06336726  1
  O2-  O492  1  0.23988555  0.75179035  0.94437569  1
