# generated using pymatgen
data_Ca108Mn108O277
_symmetry_space_group_name_H-M   'P 1'
_cell_length_a   16.02087398
_cell_length_b   22.29815706
_cell_length_c   16.38311545
_cell_angle_alpha   90.00348612
_cell_angle_beta   90.00211469
_cell_angle_gamma   90.00063994
_symmetry_Int_Tables_number   1
_chemical_formula_structural   Ca108Mn108O277
_chemical_formula_sum   'Ca108 Mn108 O277'
_cell_volume   5852.63802977
_cell_formula_units_Z   1
loop_
 _symmetry_equiv_pos_site_id
 _symmetry_equiv_pos_as_xyz
  1  'x, y, z'
loop_
 _atom_type_symbol
 _atom_type_oxidation_number
  Ca2+  2.0
  Mn3.34+  3.34
  O2-  -2.0
loop_
 _atom_site_type_symbol
 _atom_site_label
 _atom_site_symmetry_multiplicity
 _atom_site_fract_x
 _atom_site_fract_y
 _atom_site_fract_z
 _atom_site_occupancy
  Ca2+  Ca0  1  0.06752152  0.24860596  0.24677882  1
  Ca2+  Ca1  1  0.09076876  0.24902535  0.58753626  1
  Ca2+  Ca2  1  0.09860451  0.22498030  0.92129362  1
  Ca2+  Ca3  1  0.09706529  0.73824447  0.23477572  1
  Ca2+  Ca4  1  0.09660251  0.76555079  0.58678888  1
  Ca2+  Ca5  1  0.10404969  0.74596322  0.93153470  1
  Ca2+  Ca6  1  0.40483543  0.25523755  0.24027606  1
  Ca2+  Ca7  1  0.40006005  0.25464704  0.57753063  1
  Ca2+  Ca8  1  0.39868840  0.24369580  0.93206237  1
  Ca2+  Ca9  1  0.39087382  0.74248677  0.23629637  1
  Ca2+  Ca10  1  0.41175555  0.75507455  0.58683634  1
  Ca2+  Ca11  1  0.39771558  0.74950189  0.92362252  1
  Ca2+  Ca12  1  0.77637257  0.24480521  0.22863147  1
  Ca2+  Ca13  1  0.76289329  0.24986367  0.59377626  1
  Ca2+  Ca14  1  0.75227141  0.22507971  0.93433380  1
  Ca2+  Ca15  1  0.75893009  0.75416506  0.24394340  1
  Ca2+  Ca16  1  0.74415092  0.75885927  0.58685901  1
  Ca2+  Ca17  1  0.73981898  0.75734810  0.92341596  1
  Ca2+  Ca18  1  0.25536818  0.24093864  0.07325906  1
  Ca2+  Ca19  1  0.24005588  0.24256004  0.42315750  1
  Ca2+  Ca20  1  0.23823685  0.24630348  0.75286262  1
  Ca2+  Ca21  1  0.25230442  0.75424541  0.07382588  1
  Ca2+  Ca22  1  0.24799870  0.75718083  0.40731363  1
  Ca2+  Ca23  1  0.24830222  0.75309606  0.76818519  1
  Ca2+  Ca24  1  0.58343782  0.24182444  0.07331242  1
  Ca2+  Ca25  1  0.57452086  0.25654356  0.41433351  1
  Ca2+  Ca26  1  0.59232814  0.24591138  0.76154035  1
  Ca2+  Ca27  1  0.57261554  0.75765346  0.07606724  1
  Ca2+  Ca28  1  0.58636444  0.76261576  0.41268760  1
  Ca2+  Ca29  1  0.58217911  0.75165601  0.76358545  1
  Ca2+  Ca30  1  0.91766740  0.24489589  0.09757987  1
  Ca2+  Ca31  1  0.92663301  0.23985176  0.39909155  1
  Ca2+  Ca32  1  0.92597031  0.23425293  0.74850731  1
  Ca2+  Ca33  1  0.92429274  0.74854879  0.08565152  1
  Ca2+  Ca34  1  0.91840536  0.76038005  0.40419426  1
  Ca2+  Ca35  1  0.92214621  0.76821845  0.75857733  1
  Ca2+  Ca36  1  0.57295826  0.58522255  0.74656272  1
  Ca2+  Ca37  1  0.75655581  0.58260755  0.93727844  1
  Ca2+  Ca38  1  0.26062470  0.10701281  0.07608656  1
  Ca2+  Ca39  1  0.95348852  0.59762996  0.09946738  1
  Ca2+  Ca40  1  0.40808951  0.10173163  0.93889535  1
  Ca2+  Ca41  1  0.59462832  0.57922716  0.06975234  1
  Ca2+  Ca42  1  0.55521980  0.57271454  0.42311730  1
  Ca2+  Ca43  1  0.25772761  0.60163778  0.75088057  1
  Ca2+  Ca44  1  0.09347523  0.09095926  0.59247515  1
  Ca2+  Ca45  1  0.75784539  0.09577094  0.60005112  1
  Ca2+  Ca46  1  0.41184039  0.10206352  0.21705331  1
  Ca2+  Ca47  1  0.05537756  0.10867876  0.25101146  1
  Ca2+  Ca48  1  0.56784112  0.57515539  0.42069625  1
  Ca2+  Ca49  1  0.58714120  0.10249008  0.42728750  1
  Ca2+  Ca50  1  0.58240102  0.58208308  0.06973463  1
  Ca2+  Ca51  1  0.89115379  0.10308639  0.06370652  1
  Ca2+  Ca52  1  0.91658261  0.57941484  0.36621576  1
  Ca2+  Ca53  1  0.39792391  0.60450818  0.91432365  1
  Ca2+  Ca54  1  0.78296447  0.10451175  0.24099900  1
  Ca2+  Ca55  1  0.40801615  0.10513540  0.22566786  1
  Ca2+  Ca56  1  0.91238843  0.57634817  0.75992523  1
  Ca2+  Ca57  1  0.10703089  0.57516034  0.58900893  1
  Ca2+  Ca58  1  0.39287091  0.10003204  0.58616328  1
  Ca2+  Ca59  1  0.26134280  0.58145533  0.40475771  1
  Ca2+  Ca60  1  0.22274676  0.62120180  0.09888290  1
  Ca2+  Ca61  1  0.88410933  0.09966634  0.06910071  1
  Ca2+  Ca62  1  0.59834691  0.09982798  0.75187825  1
  Ca2+  Ca63  1  0.23019160  0.61629265  0.09603020  1
  Ca2+  Ca64  1  0.23365797  0.09724420  0.74251692  1
  Ca2+  Ca65  1  0.60397022  0.08961061  0.07216114  1
  Ca2+  Ca66  1  0.41496326  0.09643120  0.93606450  1
  Ca2+  Ca67  1  0.92476083  0.57293948  0.37053417  1
  Ca2+  Ca68  1  0.08699659  0.60172784  0.94523037  1
  Ca2+  Ca69  1  0.27173265  0.57797960  0.40791596  1
  Ca2+  Ca70  1  0.58587794  0.58410101  0.74704781  1
  Ca2+  Ca71  1  0.76773738  0.09810090  0.59640855  1
  Ca2+  Ca72  1  0.55991042  0.40788831  0.42115127  1
  Ca2+  Ca73  1  0.07743921  0.89928522  0.24898560  1
  Ca2+  Ca74  1  0.58755632  0.90911810  0.41117162  1
  Ca2+  Ca75  1  0.91903654  0.40574061  0.09884401  1
  Ca2+  Ca76  1  0.59803415  0.90629586  0.75891802  1
  Ca2+  Ca77  1  0.75512360  0.41253274  0.93606563  1
  Ca2+  Ca78  1  0.41666621  0.90464631  0.24020715  1
  Ca2+  Ca79  1  0.07885492  0.39412848  0.91903938  1
  Ca2+  Ca80  1  0.92503881  0.40232445  0.39897772  1
  Ca2+  Ca81  1  0.76134377  0.40685308  0.23446821  1
  Ca2+  Ca82  1  0.89726725  0.92334974  0.06550299  1
  Ca2+  Ca83  1  0.75165731  0.91210568  0.59943489  1
  Ca2+  Ca84  1  0.10979648  0.92735582  0.61950554  1
  Ca2+  Ca85  1  0.59846510  0.40631510  0.74866514  1
  Ca2+  Ca86  1  0.42932941  0.90387534  0.23975508  1
  Ca2+  Ca87  1  0.58712811  0.40452451  0.08851832  1
  Ca2+  Ca88  1  0.41957286  0.40330004  0.25372540  1
  Ca2+  Ca89  1  0.41388030  0.39587200  0.91769122  1
  Ca2+  Ca90  1  0.26445320  0.40393148  0.43566944  1
  Ca2+  Ca91  1  0.74833913  0.41527743  0.92851436  1
  Ca2+  Ca92  1  0.25039338  0.39474759  0.08573221  1
  Ca2+  Ca93  1  0.76942431  0.94030527  0.92431479  1
  Ca2+  Ca94  1  0.92009841  0.40261305  0.75628623  1
  Ca2+  Ca95  1  0.76419074  0.91356788  0.59940900  1
  Ca2+  Ca96  1  0.75492220  0.91221432  0.24312237  1
  Ca2+  Ca97  1  0.90733704  0.40309250  0.75603598  1
  Ca2+  Ca98  1  0.26060213  0.90180860  0.07402338  1
  Ca2+  Ca99  1  0.25534023  0.40231724  0.43117941  1
  Ca2+  Ca100  1  0.05947093  0.91319386  0.89306692  1
  Ca2+  Ca101  1  0.59006607  0.91690613  0.07158733  1
  Ca2+  Ca102  1  0.74820001  0.39537483  0.58228707  1
  Ca2+  Ca103  1  0.24338520  0.90587340  0.42659274  1
  Ca2+  Ca104  1  0.91437150  0.91661820  0.41612129  1
  Ca2+  Ca105  1  0.92703080  0.91609923  0.41758340  1
  Ca2+  Ca106  1  0.58556354  0.90420773  0.76010152  1
  Ca2+  Ca107  1  0.58575218  0.40584850  0.74864215  1
  Mn3.34+  Mn108  1  0.08334897  0.33159316  0.08620235  1
  Mn3.34+  Mn109  1  0.08571891  0.33150456  0.41745597  1
  Mn3.34+  Mn110  1  0.08414031  0.33041567  0.74942235  1
  Mn3.34+  Mn111  1  0.08238847  0.83185598  0.08313524  1
  Mn3.34+  Mn112  1  0.08593035  0.83675863  0.42187498  1
  Mn3.34+  Mn113  1  0.08668899  0.83689032  0.75194953  1
  Mn3.34+  Mn114  1  0.41798221  0.33127991  0.08565117  1
  Mn3.34+  Mn115  1  0.41543706  0.33235997  0.41773964  1
  Mn3.34+  Mn116  1  0.41394302  0.32945236  0.75076229  1
  Mn3.34+  Mn117  1  0.41781502  0.83567653  0.07893934  1
  Mn3.34+  Mn118  1  0.41440839  0.83424974  0.42214389  1
  Mn3.34+  Mn119  1  0.41172877  0.83145330  0.75090106  1
  Mn3.34+  Mn120  1  0.74976281  0.33186312  0.08480901  1
  Mn3.34+  Mn121  1  0.74926625  0.32597370  0.41723314  1
  Mn3.34+  Mn122  1  0.75172048  0.32953113  0.75637324  1
  Mn3.34+  Mn123  1  0.75076343  0.83712272  0.08324768  1
  Mn3.34+  Mn124  1  0.75015832  0.83781895  0.41818386  1
  Mn3.34+  Mn125  1  0.75722315  0.83625804  0.76027229  1
  Mn3.34+  Mn126  1  0.24434000  0.33099826  0.25004016  1
  Mn3.34+  Mn127  1  0.24783792  0.33758220  0.59405585  1
  Mn3.34+  Mn128  1  0.24735377  0.32710582  0.91335581  1
  Mn3.34+  Mn129  1  0.24619492  0.83082918  0.24890344  1
  Mn3.34+  Mn130  1  0.25993040  0.84673128  0.59078280  1
  Mn3.34+  Mn131  1  0.25014418  0.83041488  0.91361288  1
  Mn3.34+  Mn132  1  0.58659069  0.33545235  0.25031595  1
  Mn3.34+  Mn133  1  0.58091179  0.32902974  0.58088314  1
  Mn3.34+  Mn134  1  0.58133698  0.32937995  0.91755362  1
  Mn3.34+  Mn135  1  0.58675684  0.83314533  0.24590435  1
  Mn3.34+  Mn136  1  0.57712371  0.82960267  0.58227196  1
  Mn3.34+  Mn137  1  0.57906304  0.83549877  0.91986366  1
  Mn3.34+  Mn138  1  0.92040451  0.33513473  0.24973233  1
  Mn3.34+  Mn139  1  0.92220285  0.33015948  0.57620330  1
  Mn3.34+  Mn140  1  0.91779382  0.32159461  0.92073418  1
  Mn3.34+  Mn141  1  0.91830511  0.83341810  0.24211335  1
  Mn3.34+  Mn142  1  0.92236793  0.83650978  0.58428305  1
  Mn3.34+  Mn143  1  0.91702917  0.83354901  0.92071599  1
  Mn3.34+  Mn144  1  0.58849958  0.16458585  0.91614780  1
  Mn3.34+  Mn145  1  0.09418903  0.67050443  0.41751161  1
  Mn3.34+  Mn146  1  0.58076536  0.66830162  0.58379766  1
  Mn3.34+  Mn147  1  0.25775356  0.65538665  0.58555074  1
  Mn3.34+  Mn148  1  0.41172777  0.16965601  0.41806366  1
  Mn3.34+  Mn149  1  0.41345537  0.66562180  0.08443548  1
  Mn3.34+  Mn150  1  0.41726921  0.16891730  0.75204144  1
  Mn3.34+  Mn151  1  0.74167639  0.66555862  0.42233197  1
  Mn3.34+  Mn152  1  0.07740753  0.66468286  0.75643377  1
  Mn3.34+  Mn153  1  0.08430981  0.66502710  0.41923572  1
  Mn3.34+  Mn154  1  0.74787194  0.66720153  0.75348252  1
  Mn3.34+  Mn155  1  0.75232787  0.67034319  0.41905818  1
  Mn3.34+  Mn156  1  0.57988867  0.66639159  0.24447508  1
  Mn3.34+  Mn157  1  0.58092575  0.17715790  0.58107386  1
  Mn3.34+  Mn158  1  0.58342338  0.17020152  0.24990541  1
  Mn3.34+  Mn159  1  0.07537509  0.15784383  0.76175438  1
  Mn3.34+  Mn160  1  0.41046433  0.66748395  0.42186212  1
  Mn3.34+  Mn161  1  0.08170429  0.16818904  0.08284995  1
  Mn3.34+  Mn162  1  0.75321226  0.16791874  0.42258778  1
  Mn3.34+  Mn163  1  0.08714392  0.65913953  0.75745739  1
  Mn3.34+  Mn164  1  0.92626833  0.16771505  0.58156819  1
  Mn3.34+  Mn165  1  0.42037892  0.67278793  0.41974134  1
  Mn3.34+  Mn166  1  0.76144463  0.16485199  0.76097444  1
  Mn3.34+  Mn167  1  0.24445604  0.16667047  0.58080780  1
  Mn3.34+  Mn168  1  0.92489505  0.66738445  0.58153724  1
  Mn3.34+  Mn169  1  0.75390898  0.66072161  0.08598186  1
  Mn3.34+  Mn170  1  0.75829816  0.66232640  0.75596217  1
  Mn3.34+  Mn171  1  0.59108800  0.66167343  0.24270466  1
  Mn3.34+  Mn172  1  0.91798490  0.66958769  0.24047708  1
  Mn3.34+  Mn173  1  0.24292680  0.17026254  0.25269765  1
  Mn3.34+  Mn174  1  0.08250637  0.16436988  0.41799832  1
  Mn3.34+  Mn175  1  0.41512775  0.67179646  0.74902842  1
  Mn3.34+  Mn176  1  0.91743637  0.67366420  0.58417579  1
  Mn3.34+  Mn177  1  0.91521400  0.66996894  0.92307052  1
  Mn3.34+  Mn178  1  0.59315139  0.16460329  0.24913611  1
  Mn3.34+  Mn179  1  0.57977629  0.66858143  0.91681727  1
  Mn3.34+  Mn180  1  0.25642545  0.49926001  0.91018051  1
  Mn3.34+  Mn181  1  0.75287431  0.00478877  0.41293098  1
  Mn3.34+  Mn182  1  0.92004781  -0.00348594  0.24965435  1
  Mn3.34+  Mn183  1  0.08705623  0.49690571  0.08627498  1
  Mn3.34+  Mn184  1  0.40209502  0.49157400  0.73302383  1
  Mn3.34+  Mn185  1  0.07554708  0.00081176  0.07801432  1
  Mn3.34+  Mn186  1  0.57538568  0.49871679  0.91604752  1
  Mn3.34+  Mn187  1  0.09027996  0.00570254  0.08002444  1
  Mn3.34+  Mn188  1  0.24129168  -0.00424653  0.90517051  1
  Mn3.34+  Mn189  1  0.56929174  -0.00145037  0.57890242  1
  Mn3.34+  Mn190  1  0.08298293  0.00284493  0.41962028  1
  Mn3.34+  Mn191  1  0.40389795  -0.00054438  0.42464476  1
  Mn3.34+  Mn192  1  0.39323019  -0.00457019  0.74110613  1
  Mn3.34+  Mn193  1  0.56858533  0.50003625  0.25865476  1
  Mn3.34+  Mn194  1  0.74213003  0.49417699  0.42177653  1
  Mn3.34+  Mn195  1  0.58347761  0.00441432  0.92983091  1
  Mn3.34+  Mn196  1  0.24209923  0.49325182  0.90889806  1
  Mn3.34+  Mn197  1  0.25300542  0.50124953  0.24670804  1
  Mn3.34+  Mn198  1  0.23180878  0.00548602  0.25058332  1
  Mn3.34+  Mn199  1  0.08434244  0.49470639  0.42381811  1
  Mn3.34+  Mn200  1  0.75285373  0.49913727  0.42327861  1
  Mn3.34+  Mn201  1  0.92047862  0.49686113  0.58444549  1
  Mn3.34+  Mn202  1  0.90631013  0.50309815  0.58610366  1
  Mn3.34+  Mn203  1  0.40740018  -0.00180361  0.74732802  1
  Mn3.34+  Mn204  1  0.92079404  0.00503649  0.60832314  1
  Mn3.34+  Mn205  1  0.24177227  0.49595047  0.24726677  1
  Mn3.34+  Mn206  1  0.25576462  -0.00047454  0.91018299  1
  Mn3.34+  Mn207  1  0.41270704  0.50141435  0.08574014  1
  Mn3.34+  Mn208  1  0.39188925  0.49472705  0.72822390  1
  Mn3.34+  Mn209  1  0.59034561  -0.00070256  0.25077041  1
  Mn3.34+  Mn210  1  0.24447934  -0.00147817  0.24794343  1
  Mn3.34+  Mn211  1  0.41868546  0.00438336  0.42291817  1
  Mn3.34+  Mn212  1  0.92089867  0.50176571  0.92741784  1
  Mn3.34+  Mn213  1  0.59646202  0.49859394  0.59172708  1
  Mn3.34+  Mn214  1  0.58431988  0.00391416  0.58139513  1
  Mn3.34+  Mn215  1  0.09662165  0.49470344  0.74280786  1
  O2-  O216  1  -0.00192708  0.16086409  0.00893358  1
  O2-  O217  1  0.00355811  0.16755274  0.34034445  1
  O2-  O218  1  0.00472444  0.16068010  0.66121180  1
  O2-  O219  1  -0.00469928  0.67363629  -0.00046630  1
  O2-  O220  1  -0.00076918  0.65888736  0.33727295  1
  O2-  O221  1  0.00386549  0.64771078  0.66897127  1
  O2-  O222  1  0.33872397  0.16181320  -0.00155585  1
  O2-  O223  1  0.34068601  0.15302798  0.32611054  1
  O2-  O224  1  0.33314134  0.16797728  0.66823215  1
  O2-  O225  1  0.33165130  0.65482146  0.00867827  1
  O2-  O226  1  0.33318303  0.65546759  0.33972047  1
  O2-  O227  1  0.32880559  0.68349619  0.67005718  1
  O2-  O228  1  0.66349189  0.15832953  -0.00397110  1
  O2-  O229  1  0.66366584  0.16049716  0.34020292  1
  O2-  O230  1  0.66776985  0.16760947  0.65703844  1
  O2-  O231  1  0.66502739  0.65919392  -0.00016840  1
  O2-  O232  1  0.65677807  0.64293899  0.34027850  1
  O2-  O233  1  0.66418382  0.66030543  0.66842366  1
  O2-  O234  1  0.16819292  0.16335505  0.01146933  1
  O2-  O235  1  0.16434753  0.15595205  0.33371746  1
  O2-  O236  1  0.16674970  0.16622469  0.66321008  1
  O2-  O237  1  0.16235823  0.66909510  0.00090204  1
  O2-  O238  1  0.17734969  0.64975085  0.34467986  1
  O2-  O239  1  0.16697671  0.65551331  0.66525494  1
  O2-  O240  1  0.50796448  0.15584619  -0.00474674  1
  O2-  O241  1  0.50168379  0.15043469  0.33064198  1
  O2-  O242  1  0.50154337  0.17797756  0.66700627  1
  O2-  O243  1  0.50107064  0.64960561  -0.00195218  1
  O2-  O244  1  0.50456812  0.64477557  0.33979830  1
  O2-  O245  1  0.50625550  0.67384739  0.67233730  1
  O2-  O246  1  0.85104124  0.18226146  -0.00036951  1
  O2-  O247  1  0.82112222  0.17861672  0.33738356  1
  O2-  O248  1  0.83621362  0.16521266  0.66796617  1
  O2-  O249  1  0.82708271  0.68076924  0.00032114  1
  O2-  O250  1  0.83659077  0.65604595  0.33455153  1
  O2-  O251  1  0.84000811  0.65917435  0.67084841  1
  O2-  O252  1  -0.00295522  0.33762809  0.00162094  1
  O2-  O253  1  0.00221397  0.33511167  0.33275405  1
  O2-  O254  1  -0.00659915  0.34724951  0.66946656  1
  O2-  O255  1  0.00034798  0.81665366  0.00113327  1
  O2-  O256  1  -0.00437015  0.85011582  0.33876747  1
  O2-  O257  1  0.00182237  0.82487582  0.66435905  1
  O2-  O258  1  0.33393137  0.33989197  0.00200452  1
  O2-  O259  1  0.33367038  0.34543185  0.33180833  1
  O2-  O260  1  0.33493132  0.32003578  0.67039625  1
  O2-  O261  1  0.33316835  0.83739249  0.00127235  1
  O2-  O262  1  0.33364975  0.85158282  0.33028290  1
  O2-  O263  1  0.33139317  0.81037659  0.66992438  1
  O2-  O264  1  0.66604887  0.34752481  -0.00262464  1
  O2-  O265  1  0.66174764  0.33734115  0.34020507  1
  O2-  O266  1  0.66671673  0.34016924  0.67022863  1
  O2-  O267  1  0.67007065  0.83667258  0.00092630  1
  O2-  O268  1  0.66776577  0.85115184  0.33030711  1
  O2-  O269  1  0.66377797  0.84136217  0.66474673  1
  O2-  O270  1  0.16763065  0.34345025  0.00049959  1
  O2-  O271  1  0.17742007  0.34750854  0.34198711  1
  O2-  O272  1  0.16422048  0.33456189  0.66885713  1
  O2-  O273  1  0.16769458  0.83222002  0.00480544  1
  O2-  O274  1  0.16724641  0.84999174  0.33499014  1
  O2-  O275  1  0.16910727  0.83292907  0.66432635  1
  O2-  O276  1  0.50215060  0.34608988  0.00131016  1
  O2-  O277  1  0.50012618  0.34332340  0.33371589  1
  O2-  O278  1  0.50778034  0.32522094  0.67393168  1
  O2-  O279  1  0.50753376  0.84545267  0.00934354  1
  O2-  O280  1  0.50096092  0.85117359  0.33472581  1
  O2-  O281  1  0.50262955  0.81630241  0.67146506  1
  O2-  O282  1  0.83156818  0.34133391  -0.00307098  1
  O2-  O283  1  0.83104112  0.33431741  0.33232935  1
  O2-  O284  1  0.83188445  0.34620987  0.67083209  1
  O2-  O285  1  0.83499497  0.81987078  0.00413730  1
  O2-  O286  1  0.83810327  0.85287981  0.33410866  1
  O2-  O287  1  0.83162848  0.83603969  0.66236686  1
  O2-  O288  1  -0.00084393  0.17180911  0.16165132  1
  O2-  O289  1  0.00212236  0.18167829  0.50187283  1
  O2-  O290  1  0.00228399  0.17647091  0.83291100  1
  O2-  O291  1  -0.00369182  0.68198973  0.16679527  1
  O2-  O292  1  0.00543207  0.68868366  0.49942359  1
  O2-  O293  1  -0.00799461  0.68536338  0.83439656  1
  O2-  O294  1  0.32727149  0.17719184  0.17238495  1
  O2-  O295  1  0.33556101  0.17841907  0.50183743  1
  O2-  O296  1  0.34393987  0.18066673  0.83058734  1
  O2-  O297  1  0.33231084  0.67584298  0.15808820  1
  O2-  O298  1  0.32837388  0.68870919  0.50289812  1
  O2-  O299  1  0.34014543  0.67894895  0.82920606  1
  O2-  O300  1  0.66923836  0.17140148  0.16749498  1
  O2-  O301  1  0.66397125  0.18751860  0.49833213  1
  O2-  O302  1  0.66710264  0.17291286  0.82836077  1
  O2-  O303  1  0.67089193  0.69042372  0.15917664  1
  O2-  O304  1  0.66025305  0.69340619  0.50513010  1
  O2-  O305  1  0.66283718  0.67783756  0.83462818  1
  O2-  O306  1  0.16165321  0.17701469  0.17495716  1
  O2-  O307  1  0.16292469  0.17687919  0.50307350  1
  O2-  O308  1  0.16505894  0.17333711  0.82007323  1
  O2-  O309  1  0.16950616  0.69429775  0.14804376  1
  O2-  O310  1  0.16579856  0.68890777  0.50702647  1
  O2-  O311  1  0.16587956  0.67246342  0.83498332  1
  O2-  O312  1  0.49946449  0.17582891  0.16993413  1
  O2-  O313  1  0.50130368  0.18536343  0.49541667  1
  O2-  O314  1  0.50381640  0.17784592  0.83157006  1
  O2-  O315  1  0.50664969  0.68053211  0.15601150  1
  O2-  O316  1  0.49976276  0.68478398  0.50051555  1
  O2-  O317  1  0.50308327  0.67726491  0.83012741  1
  O2-  O318  1  0.83631852  0.17071869  0.15868812  1
  O2-  O319  1  0.82696557  0.17692358  0.51101402  1
  O2-  O320  1  0.83527054  0.17939282  0.83328590  1
  O2-  O321  1  0.83337508  0.68326649  0.16236080  1
  O2-  O322  1  0.83456011  0.69402397  0.50461199  1
  O2-  O323  1  0.83319052  0.68557088  0.84005392  1
  O2-  O324  1  -0.00372514  0.32689311  0.16151455  1
  O2-  O325  1  -0.00338733  0.32236061  0.49160572  1
  O2-  O326  1  -0.00855005  0.32270918  0.83144086  1
  O2-  O327  1  0.00751849  0.81466682  0.17056491  1
  O2-  O328  1  -0.00441063  0.81858350  0.49665420  1
  O2-  O329  1  0.00176256  0.82347913  0.84056501  1
  O2-  O330  1  0.33388550  0.32578726  0.16852033  1
  O2-  O331  1  0.32943882  0.32200520  0.49232562  1
  O2-  O332  1  0.34133223  0.31833345  0.83991398  1
  O2-  O333  1  0.33470208  0.82543898  0.16809182  1
  O2-  O334  1  0.32907244  0.81733646  0.49903883  1
  O2-  O335  1  0.33611015  0.81868753  0.83406470  1
  O2-  O336  1  0.66735164  0.32696122  0.16799361  1
  O2-  O337  1  0.66714256  0.30917347  0.50583566  1
  O2-  O338  1  0.66280471  0.32727990  0.83145240  1
  O2-  O339  1  0.66803211  0.81813679  0.16301739  1
  O2-  O340  1  0.66649172  0.82121615  0.50516684  1
  O2-  O341  1  0.66135986  0.82573365  0.83053897  1
  O2-  O342  1  0.17109326  0.32117356  0.16262753  1
  O2-  O343  1  0.17372063  0.32812986  0.49448028  1
  O2-  O344  1  0.15800307  0.32427876  0.83889483  1
  O2-  O345  1  0.16722395  0.82398471  0.16528930  1
  O2-  O346  1  0.17093297  0.82055896  0.49686043  1
  O2-  O347  1  0.16202607  0.82211620  0.83758520  1
  O2-  O348  1  0.50129766  0.32815245  0.16938339  1
  O2-  O349  1  0.49963313  0.31878004  0.49831026  1
  O2-  O350  1  0.50455226  0.32129588  0.83115209  1
  O2-  O351  1  0.49292337  0.82069844  0.17349770  1
  O2-  O352  1  0.50174733  0.81281442  0.49851626  1
  O2-  O353  1  0.50497846  0.82315646  0.82691381  1
  O2-  O354  1  0.83438850  0.32689497  0.16337687  1
  O2-  O355  1  0.82902206  0.31622987  0.50327643  1
  O2-  O356  1  0.83395956  0.32510763  0.83633462  1
  O2-  O357  1  0.83113002  0.81936284  0.16444487  1
  O2-  O358  1  0.83568435  0.82096024  0.50344739  1
  O2-  O359  1  0.83436325  0.81566056  0.84505199  1
  O2-  O360  1  0.09235196  0.08286761  0.11283509  1
  O2-  O361  1  0.08078611  0.08204163  0.44307094  1
  O2-  O362  1  0.09006135  0.08133787  0.75728313  1
  O2-  O363  1  0.09373995  0.57696347  0.10483826  1
  O2-  O364  1  0.07171037  0.57871269  0.44884820  1
  O2-  O365  1  0.06823185  0.57756666  0.79276840  1
  O2-  O366  1  0.41097756  0.06789690  0.10598272  1
  O2-  O367  1  0.42868940  0.08483860  0.45029599  1
  O2-  O368  1  0.42127868  0.07648458  0.78517147  1
  O2-  O369  1  0.43187276  0.58232972  0.10642353  1
  O2-  O370  1  0.41597415  0.58364912  0.45072449  1
  O2-  O371  1  0.43248894  0.57511605  0.77838797  1
  O2-  O372  1  0.76686256  0.06561034  0.11656601  1
  O2-  O373  1  0.72995917  0.08086675  0.46086595  1
  O2-  O374  1  0.73995763  0.08556707  0.73932414  1
  O2-  O375  1  0.73218173  0.58127397  0.09271746  1
  O2-  O376  1  0.74988313  0.58014622  0.45870707  1
  O2-  O377  1  0.74602193  0.58145748  0.78465500  1
  O2-  O378  1  0.25795892  0.08402290  0.22164415  1
  O2-  O379  1  0.24962013  0.08711467  0.57072250  1
  O2-  O380  1  0.26822819  0.07778774  0.87942200  1
  O2-  O381  1  0.24789037  0.58192026  0.22507526  1
  O2-  O382  1  0.23365258  0.57893644  0.53288448  1
  O2-  O383  1  0.25347892  0.57741329  0.88272386  1
  O2-  O384  1  0.57043258  0.08108192  0.21888909  1
  O2-  O385  1  0.57975114  0.08588425  0.56361299  1
  O2-  O386  1  0.57589276  0.07833448  0.88530631  1
  O2-  O387  1  0.58541965  0.57801137  0.20454349  1
  O2-  O388  1  0.58252848  0.58031133  0.55505520  1
  O2-  O389  1  0.58301198  0.58091174  0.88431672  1
  O2-  O390  1  0.92038526  0.07217066  0.21353170  1
  O2-  O391  1  0.90445928  0.08294468  0.56573056  1
  O2-  O392  1  0.89963980  0.07982528  0.92843832  1
  O2-  O393  1  0.92372478  0.58564264  0.23569377  1
  O2-  O394  1  0.92198287  0.58206924  0.53842562  1
  O2-  O395  1  0.91087560  0.58144189  0.89609038  1
  O2-  O396  1  0.08023585  0.41622952  0.09555998  1
  O2-  O397  1  0.09678174  0.41598117  0.43712293  1
  O2-  O398  1  0.05656581  0.42163860  0.78356369  1
  O2-  O399  1  0.07962767  0.92081407  0.10817005  1
  O2-  O400  1  0.06841854  0.92188950  0.45866742  1
  O2-  O401  1  0.08106499  0.91614193  0.76018807  1
  O2-  O402  1  0.41296243  0.42083258  0.11106837  1
  O2-  O403  1  0.40604970  0.41261151  0.43250135  1
  O2-  O404  1  0.44509143  0.42141682  0.78055243  1
  O2-  O405  1  0.41317057  0.91681978  0.10847792  1
  O2-  O406  1  0.41223316  0.91810656  0.44900418  1
  O2-  O407  1  0.44505943  0.91830804  0.76363338  1
  O2-  O408  1  0.75242574  0.41752865  0.09194591  1
  O2-  O409  1  0.74242907  0.41330026  0.44621168  1
  O2-  O410  1  0.74615982  0.41584793  0.78684539  1
  O2-  O411  1  0.75201169  0.91662043  0.10066650  1
  O2-  O412  1  0.75613807  0.92231714  0.46207574  1
  O2-  O413  1  0.74080256  0.91838179  0.76936654  1
  O2-  O414  1  0.25397253  0.41521547  0.22439026  1
  O2-  O415  1  0.25646976  0.41740381  0.56678883  1
  O2-  O416  1  0.25797456  0.41356738  0.89645256  1
  O2-  O417  1  0.25630954  0.91967752  0.21444975  1
  O2-  O418  1  0.23937555  0.92264740  0.55787369  1
  O2-  O419  1  0.23332300  0.91514561  0.91130802  1
  O2-  O420  1  0.58756788  0.41873753  0.22836969  1
  O2-  O421  1  0.59859466  0.41721015  0.56160363  1
  O2-  O422  1  0.58507132  0.41758013  0.88675392  1
  O2-  O423  1  0.57129769  0.91835434  0.21114434  1
  O2-  O424  1  0.58464380  0.91790409  0.55241443  1
  O2-  O425  1  0.59074437  0.92692847  0.89033069  1
  O2-  O426  1  0.90247001  0.41722111  0.23491391  1
  O2-  O427  1  0.90386155  0.41743089  0.54992123  1
  O2-  O428  1  0.91167194  0.42172243  0.89093091  1
  O2-  O429  1  0.91906237  0.91793004  0.20909728  1
  O2-  O430  1  0.90305697  0.92649821  0.55324271  1
  O2-  O431  1  0.91131662  0.91392403  0.92023363  1
  O2-  O432  1  -0.00418635  -0.00290127  0.00226288  1
  O2-  O433  1  -0.00108408  -0.01587822  0.33607930  1
  O2-  O434  1  0.02748764  0.00420618  0.62829938  1
  O2-  O435  1  -0.00344812  0.51067596  0.01150960  1
  O2-  O436  1  -0.01463438  0.49088587  0.37237697  1
  O2-  O437  1  0.00774220  0.51155216  0.66357080  1
  O2-  O438  1  0.33134932  0.00662457  -0.01113608  1
  O2-  O439  1  0.33242316  0.00067194  0.32908470  1
  O2-  O440  1  0.32968927  0.01857724  0.65919753  1
  O2-  O441  1  0.34197548  0.49997104  -0.01196697  1
  O2-  O442  1  0.32620077  0.50083324  0.34522820  1
  O2-  O443  1  0.31628681  0.53022429  0.67006947  1
  O2-  O444  1  0.66257977  -0.00429456  0.00084646  1
  O2-  O445  1  0.66272427  -0.00963993  0.34113734  1
  O2-  O446  1  0.65328998  -0.01725942  0.67224860  1
  O2-  O447  1  0.66759610  0.50275123  -0.01741929  1
  O2-  O448  1  0.66225083  0.51502463  0.33990549  1
  O2-  O449  1  0.64513819  0.49894932  0.70546449  1
  O2-  O450  1  0.16311370  0.00263661  -0.00896117  1
  O2-  O451  1  0.16726025  -0.01709948  0.34131960  1
  O2-  O452  1  0.16864293  0.01668022  0.66352393  1
  O2-  O453  1  0.16599479  0.50195027  -0.00489313  1
  O2-  O454  1  0.17148997  0.51072372  0.34682972  1
  O2-  O455  1  0.17356480  0.52698485  0.68336858  1
  O2-  O456  1  0.50117825  0.01173465  -0.00614031  1
  O2-  O457  1  0.49213358  -0.00931720  0.32947130  1
  O2-  O458  1  0.49501057  0.00844724  0.66885272  1
  O2-  O459  1  0.51349474  0.50182383  0.02031565  1
  O2-  O460  1  0.51053248  0.49613621  0.36317187  1
  O2-  O461  1  0.50051208  0.50281009  0.66983251  1
  O2-  O462  1  0.83781949  0.00757402  0.01506658  1
  O2-  O463  1  0.83535492  -0.01748923  0.33015643  1
  O2-  O464  1  0.80374945  0.00259229  0.62328870  1
  O2-  O465  1  0.81954252  0.49724467  -0.03092623  1
  O2-  O466  1  0.83280741  0.50295481  0.34000007  1
  O2-  O467  1  0.84845068  0.49283659  0.68792815  1
  O2-  O468  1  0.74924309  0.74955958  0.73201056  1
  O2-  O469  1  0.41909874  0.75186508  0.38149054  1
  O2-  O470  1  0.92060155  0.25342804  0.25254979  1
  O2-  O471  1  0.24626605  0.25073496  0.93115807  1
  O2-  O472  1  0.07837073  0.25082857  0.73240868  1
  O2-  O473  1  0.08246385  0.75349497  0.38701586  1
  O2-  O474  1  0.74669278  0.24968473  0.73460615  1
  O2-  O475  1  0.58299296  0.74895981  0.93466236  1
  O2-  O476  1  0.41671578  0.24859675  0.38781910  1
  O2-  O477  1  0.25235610  0.75253584  0.92732614  1
  O2-  O478  1  0.74388533  0.25338654  0.07303211  1
  O2-  O479  1  0.90957552  0.75220065  0.27141864  1
  O2-  O480  1  0.57691704  0.25184326  0.27009847  1
  O2-  O481  1  0.58420900  0.74890380  0.27785749  1
  O2-  O482  1  0.74828268  0.75436376  0.38552124  1
  O2-  O483  1  0.91792609  0.25112548  0.60654393  1
  O2-  O484  1  0.09293653  0.25063727  0.40027786  1
  O2-  O485  1  0.24962624  0.75398379  0.27172417  1
  O2-  O486  1  0.24588495  0.25191446  0.58685935  1
  O2-  O487  1  0.08330465  0.25104056  0.07122912  1
  O2-  O488  1  0.25244875  0.25113713  0.27652253  1
  O2-  O489  1  0.08738640  0.74662948  0.73224295  1
  O2-  O490  1  0.42000925  0.74967637  0.06259038  1
  O2-  O491  1  0.42129999  0.25402692  0.07254528  1
  O2-  O492  1  0.58996943  0.24915831  0.93362579  1
