# generated using pymatgen
data_Ca108Mn108O277
_symmetry_space_group_name_H-M   'P 1'
_cell_length_a   16.02314620
_cell_length_b   22.30251102
_cell_length_c   16.38663972
_cell_angle_alpha   89.99597074
_cell_angle_beta   90.00153349
_cell_angle_gamma   89.99592155
_symmetry_Int_Tables_number   1
_chemical_formula_structural   Ca108Mn108O277
_chemical_formula_sum   'Ca108 Mn108 O277'
_cell_volume   5855.87045726
_cell_formula_units_Z   1
loop_
 _symmetry_equiv_pos_site_id
 _symmetry_equiv_pos_as_xyz
  1  'x, y, z'
loop_
 _atom_type_symbol
 _atom_type_oxidation_number
  Ca2+  2.0
  Mn3.34+  3.34
  O2-  -2.0
loop_
 _atom_site_type_symbol
 _atom_site_label
 _atom_site_symmetry_multiplicity
 _atom_site_fract_x
 _atom_site_fract_y
 _atom_site_fract_z
 _atom_site_occupancy
  Ca2+  Ca0  1  0.07750148  0.25497440  0.25736005  1
  Ca2+  Ca1  1  0.06958340  0.24979396  0.58269040  1
  Ca2+  Ca2  1  0.06359276  0.23383115  0.91576075  1
  Ca2+  Ca3  1  0.05925188  0.74872636  0.25658684  1
  Ca2+  Ca4  1  0.08371673  0.76213309  0.58791093  1
  Ca2+  Ca5  1  0.09263403  0.75422509  0.90311834  1
  Ca2+  Ca6  1  0.40011820  0.25906130  0.24776861  1
  Ca2+  Ca7  1  0.40544536  0.25156777  0.60090245  1
  Ca2+  Ca8  1  0.40589588  0.24872446  0.90074167  1
  Ca2+  Ca9  1  0.40963099  0.76324251  0.24125498  1
  Ca2+  Ca10  1  0.40757781  0.76818118  0.59229290  1
  Ca2+  Ca11  1  0.40855996  0.74890775  0.90981854  1
  Ca2+  Ca12  1  0.76970502  0.26115395  0.24983440  1
  Ca2+  Ca13  1  0.77252435  0.25042908  0.59648298  1
  Ca2+  Ca14  1  0.76858501  0.23124514  0.91236058  1
  Ca2+  Ca15  1  0.77416982  0.73922847  0.23687868  1
  Ca2+  Ca16  1  0.75908441  0.74786420  0.60203925  1
  Ca2+  Ca17  1  0.75250839  0.74686785  0.92048901  1
  Ca2+  Ca18  1  0.23241324  0.24974486  0.07984712  1
  Ca2+  Ca19  1  0.21972012  0.24856003  0.42221217  1
  Ca2+  Ca20  1  0.24646781  0.23797103  0.74856873  1
  Ca2+  Ca21  1  0.26519047  0.74480360  0.05397324  1
  Ca2+  Ca22  1  0.23918711  0.75499064  0.41505338  1
  Ca2+  Ca23  1  0.25299479  0.75192089  0.76889639  1
  Ca2+  Ca24  1  0.58773953  0.24668612  0.06666793  1
  Ca2+  Ca25  1  0.59053029  0.25963686  0.42245116  1
  Ca2+  Ca26  1  0.58403392  0.24187576  0.75691094  1
  Ca2+  Ca27  1  0.60001097  0.75517194  0.07257358  1
  Ca2+  Ca28  1  0.60059370  0.75582686  0.41498788  1
  Ca2+  Ca29  1  0.59913819  0.75064497  0.76883093  1
  Ca2+  Ca30  1  0.92851595  0.24035193  0.06978523  1
  Ca2+  Ca31  1  0.94095856  0.24566286  0.43203004  1
  Ca2+  Ca32  1  0.91714867  0.24015323  0.74560199  1
  Ca2+  Ca33  1  0.89421294  0.74577263  0.08213509  1
  Ca2+  Ca34  1  0.91044520  0.74435807  0.40110546  1
  Ca2+  Ca35  1  0.90321840  0.74904448  0.76450348  1
  Ca2+  Ca36  1  0.03574822  0.58239148  0.24732270  1
  Ca2+  Ca37  1  0.24403762  0.09868800  0.07273612  1
  Ca2+  Ca38  1  0.23538675  0.10142362  0.42727989  1
  Ca2+  Ca39  1  0.88883992  0.57684590  0.39845255  1
  Ca2+  Ca40  1  0.61335676  0.59441260  0.08186597  1
  Ca2+  Ca41  1  0.38503904  0.07643230  0.60322694  1
  Ca2+  Ca42  1  0.25060574  0.60237607  0.76585070  1
  Ca2+  Ca43  1  0.08417020  0.10512284  0.58142392  1
  Ca2+  Ca44  1  0.61514649  0.08989110  0.05029111  1
  Ca2+  Ca45  1  0.07700890  0.10120752  0.24748499  1
  Ca2+  Ca46  1  0.40405814  0.57768923  0.58389056  1
  Ca2+  Ca47  1  0.76736402  0.61028364  0.91777491  1
  Ca2+  Ca48  1  0.92094141  0.10009742  0.77530766  1
  Ca2+  Ca49  1  0.88934033  0.60443708  0.07802684  1
  Ca2+  Ca50  1  0.41876569  0.08398576  0.25705952  1
  Ca2+  Ca51  1  0.76520960  0.09429191  0.60575845  1
  Ca2+  Ca52  1  0.89488891  0.61180504  0.77586585  1
  Ca2+  Ca53  1  0.77671852  0.09355278  0.60634095  1
  Ca2+  Ca54  1  0.08123356  0.60864347  0.91139974  1
  Ca2+  Ca55  1  0.60586811  0.09238088  0.04694548  1
  Ca2+  Ca56  1  0.43923682  0.10891447  0.90718293  1
  Ca2+  Ca57  1  0.04758707  0.58084656  0.25042802  1
  Ca2+  Ca58  1  0.43155103  0.08278733  0.25598753  1
  Ca2+  Ca59  1  0.39539925  0.60107696  0.91466091  1
  Ca2+  Ca60  1  0.78904336  0.58830192  0.24797475  1
  Ca2+  Ca61  1  0.07780799  0.58573761  0.59314430  1
  Ca2+  Ca62  1  0.60484133  0.56869198  0.38687453  1
  Ca2+  Ca63  1  0.06718828  0.10337556  0.24350137  1
  Ca2+  Ca64  1  0.57689913  0.08172308  0.41544928  1
  Ca2+  Ca65  1  0.61915696  0.60130351  0.76149010  1
  Ca2+  Ca66  1  0.43609102  0.57505602  0.27606374  1
  Ca2+  Ca67  1  0.60244448  0.59206803  0.07973745  1
  Ca2+  Ca68  1  0.93783457  0.11331895  0.42828347  1
  Ca2+  Ca69  1  0.27720776  0.56400467  0.38836709  1
  Ca2+  Ca70  1  0.41625491  0.58040946  0.58533379  1
  Ca2+  Ca71  1  0.07540743  0.10879449  0.57863306  1
  Ca2+  Ca72  1  0.08439005  0.39771652  0.58120675  1
  Ca2+  Ca73  1  0.26173332  0.89927042  0.42549683  1
  Ca2+  Ca74  1  0.07952125  0.90067454  0.23996698  1
  Ca2+  Ca75  1  0.25354495  0.91547472  0.73109720  1
  Ca2+  Ca76  1  0.57587307  0.91606137  0.39416763  1
  Ca2+  Ca77  1  0.57911296  0.90444451  0.74953351  1
  Ca2+  Ca78  1  0.06765001  0.90058269  0.23855875  1
  Ca2+  Ca79  1  0.76164562  0.40029636  0.90868892  1
  Ca2+  Ca80  1  0.40241324  0.42868681  0.28163062  1
  Ca2+  Ca81  1  0.92665760  0.91086257  0.76026845  1
  Ca2+  Ca82  1  0.92204345  0.40637819  0.08890677  1
  Ca2+  Ca83  1  0.56384149  0.91319751  0.39713165  1
  Ca2+  Ca84  1  0.58713028  0.42423306  0.39444566  1
  Ca2+  Ca85  1  0.76039417  0.90697325  0.59075216  1
  Ca2+  Ca86  1  0.24023983  0.40422752  0.08760529  1
  Ca2+  Ca87  1  0.89476543  0.92031755  0.06950546  1
  Ca2+  Ca88  1  0.75897164  0.40341304  0.58148039  1
  Ca2+  Ca89  1  0.41676453  0.39870769  0.91121238  1
  Ca2+  Ca90  1  0.09517961  0.91361011  0.59194147  1
  Ca2+  Ca91  1  0.59220773  0.40477532  0.08832473  1
  Ca2+  Ca92  1  0.74706635  0.90427039  0.23737225  1
  Ca2+  Ca93  1  0.74922708  0.90881412  0.59023282  1
  Ca2+  Ca94  1  0.07957860  0.40159476  0.92151048  1
  Ca2+  Ca95  1  0.24179798  0.89398834  0.08109632  1
  Ca2+  Ca96  1  0.74899110  0.40040056  0.90933429  1
  Ca2+  Ca97  1  0.90749794  0.41320517  0.40564365  1
  Ca2+  Ca98  1  0.41304734  0.42875854  0.28187369  1
  Ca2+  Ca99  1  0.26283615  0.39957937  0.74562638  1
  Ca2+  Ca100  1  0.75707627  0.91566945  0.92640629  1
  Ca2+  Ca101  1  0.60493385  0.91571498  0.08529235  1
  Ca2+  Ca102  1  0.07807244  0.40550959  0.24823127  1
  Ca2+  Ca103  1  0.42172531  0.90191748  0.91274370  1
  Ca2+  Ca104  1  0.59754730  0.42343687  0.39501365  1
  Ca2+  Ca105  1  0.25171631  0.39909643  0.74472346  1
  Ca2+  Ca106  1  0.76387895  0.43296982  0.26908220  1
  Ca2+  Ca107  1  0.57950866  0.40595020  0.08730248  1
  Mn3.34+  Mn108  1  0.08123756  0.33245350  0.08521692  1
  Mn3.34+  Mn109  1  0.08316421  0.33363747  0.41545161  1
  Mn3.34+  Mn110  1  0.07941800  0.32774894  0.75108634  1
  Mn3.34+  Mn111  1  0.07592614  0.83264528  0.07496415  1
  Mn3.34+  Mn112  1  0.07935835  0.83026356  0.41952085  1
  Mn3.34+  Mn113  1  0.08367904  0.83704035  0.75278226  1
  Mn3.34+  Mn114  1  0.41326332  0.32802965  0.08454844  1
  Mn3.34+  Mn115  1  0.41171874  0.33470752  0.42982366  1
  Mn3.34+  Mn116  1  0.42540047  0.33079890  0.74552248  1
  Mn3.34+  Mn117  1  0.42078815  0.83224431  0.08323229  1
  Mn3.34+  Mn118  1  0.41725131  0.82699446  0.41809001  1
  Mn3.34+  Mn119  1  0.41773130  0.83465470  0.74886241  1
  Mn3.34+  Mn120  1  0.75409569  0.32696097  0.08759558  1
  Mn3.34+  Mn121  1  0.75004961  0.33609530  0.41979655  1
  Mn3.34+  Mn122  1  0.74985141  0.33174339  0.74616664  1
  Mn3.34+  Mn123  1  0.75135203  0.83333893  0.08240689  1
  Mn3.34+  Mn124  1  0.75559607  0.83081165  0.41827657  1
  Mn3.34+  Mn125  1  0.75371831  0.83319812  0.75969032  1
  Mn3.34+  Mn126  1  0.25020148  0.33721543  0.25116957  1
  Mn3.34+  Mn127  1  0.25045798  0.32911137  0.57766158  1
  Mn3.34+  Mn128  1  0.24842032  0.33208282  0.91699572  1
  Mn3.34+  Mn129  1  0.24973548  0.82893708  0.24732665  1
  Mn3.34+  Mn130  1  0.25099840  0.83932861  0.58354106  1
  Mn3.34+  Mn131  1  0.24921211  0.83417449  0.91219444  1
  Mn3.34+  Mn132  1  0.57906708  0.32568636  0.24605245  1
  Mn3.34+  Mn133  1  0.58163691  0.33258437  0.58323103  1
  Mn3.34+  Mn134  1  0.58430439  0.32690035  0.91151493  1
  Mn3.34+  Mn135  1  0.58304772  0.83702498  0.24378211  1
  Mn3.34+  Mn136  1  0.58092451  0.83603428  0.57988030  1
  Mn3.34+  Mn137  1  0.58418137  0.83568503  0.91788352  1
  Mn3.34+  Mn138  1  0.91559123  0.33726156  0.24933411  1
  Mn3.34+  Mn139  1  0.91779977  0.33394056  0.58490458  1
  Mn3.34+  Mn140  1  0.91939808  0.33021754  0.91337838  1
  Mn3.34+  Mn141  1  0.91053843  0.83374469  0.24893766  1
  Mn3.34+  Mn142  1  0.92074071  0.83390628  0.58292302  1
  Mn3.34+  Mn143  1  0.92292644  0.83998200  0.91810484  1
  Mn3.34+  Mn144  1  0.58887431  0.17182947  0.24260698  1
  Mn3.34+  Mn145  1  0.41809464  0.16590250  0.75129476  1
  Mn3.34+  Mn146  1  0.25081253  0.17092810  0.24692592  1
  Mn3.34+  Mn147  1  0.24713902  0.16931275  0.91283126  1
  Mn3.34+  Mn148  1  0.74308550  0.17102223  0.41609684  1
  Mn3.34+  Mn149  1  0.59007495  0.66767364  0.57943928  1
  Mn3.34+  Mn150  1  0.24554720  0.66326746  0.24399813  1
  Mn3.34+  Mn151  1  0.57776764  0.67506023  0.58101619  1
  Mn3.34+  Mn152  1  0.74841439  0.16823501  0.76063731  1
  Mn3.34+  Mn153  1  0.24846414  0.16581296  0.58831875  1
  Mn3.34+  Mn154  1  0.58609916  0.66896895  0.24709116  1
  Mn3.34+  Mn155  1  0.24256681  0.66395054  0.57902935  1
  Mn3.34+  Mn156  1  0.76347217  0.16230530  0.08774648  1
  Mn3.34+  Mn157  1  0.07834597  0.67516917  0.08112607  1
  Mn3.34+  Mn158  1  0.57631532  0.67813062  0.24832229  1
  Mn3.34+  Mn159  1  0.58198594  0.16446716  0.58749206  1
  Mn3.34+  Mn160  1  0.07904625  0.67218042  0.75356618  1
  Mn3.34+  Mn161  1  0.91283205  0.17149274  0.24586735  1
  Mn3.34+  Mn162  1  0.59607530  0.16520759  0.23997586  1
  Mn3.34+  Mn163  1  0.08355228  0.16225537  0.75882824  1
  Mn3.34+  Mn164  1  0.08694758  0.66922140  0.08127453  1
  Mn3.34+  Mn165  1  0.42060382  0.17982883  0.42425173  1
  Mn3.34+  Mn166  1  0.41983125  0.66469124  0.42182334  1
  Mn3.34+  Mn167  1  0.41727844  0.66890931  0.08147608  1
  Mn3.34+  Mn168  1  0.91868776  0.66550704  0.58348891  1
  Mn3.34+  Mn169  1  0.41936046  0.66715417  0.75422747  1
  Mn3.34+  Mn170  1  0.75617935  0.16433960  0.41748373  1
  Mn3.34+  Mn171  1  0.07829175  0.16393769  0.07529884  1
  Mn3.34+  Mn172  1  0.90863131  0.66043790  0.58247141  1
  Mn3.34+  Mn173  1  0.75089193  0.66442546  0.41656838  1
  Mn3.34+  Mn174  1  0.25786476  0.65800060  0.24209817  1
  Mn3.34+  Mn175  1  0.41266197  0.17323201  0.42588902  1
  Mn3.34+  Mn176  1  0.08173858  0.66348118  0.41754558  1
  Mn3.34+  Mn177  1  0.58409036  0.66735451  0.91572749  1
  Mn3.34+  Mn178  1  0.41600218  0.17200502  0.08486174  1
  Mn3.34+  Mn179  1  0.25222593  0.66992840  0.58163373  1
  Mn3.34+  Mn180  1  0.09862212  0.49536658  0.41564022  1
  Mn3.34+  Mn181  1  0.07832309  0.50278455  0.75015367  1
  Mn3.34+  Mn182  1  0.41144650  0.50650887  0.08827789  1
  Mn3.34+  Mn183  1  0.58970993  0.00016680  0.91525259  1
  Mn3.34+  Mn184  1  0.25834240  -0.00367037  0.24443390  1
  Mn3.34+  Mn185  1  0.76651639  -0.00307311  0.40931511  1
  Mn3.34+  Mn186  1  0.74739830  0.00034765  0.75333012  1
  Mn3.34+  Mn187  1  0.08574866  0.50232695  0.41806620  1
  Mn3.34+  Mn188  1  0.06859636  0.49708127  0.74810337  1
  Mn3.34+  Mn189  1  0.24449765  0.49898507  0.91846925  1
  Mn3.34+  Mn190  1  0.07089800  -0.00684290  0.41672800  1
  Mn3.34+  Mn191  1  0.58521174  0.50079726  0.91773754  1
  Mn3.34+  Mn192  1  0.91807372  0.49846963  0.92282925  1
  Mn3.34+  Mn193  1  0.42021848  0.50098579  0.74948337  1
  Mn3.34+  Mn194  1  0.58791378  0.49747025  0.58786405  1
  Mn3.34+  Mn195  1  0.40766342  -0.00701996  0.08174866  1
  Mn3.34+  Mn196  1  0.75607075  0.49630671  0.08642696  1
  Mn3.34+  Mn197  1  0.24498714  0.00358134  0.24339290  1
  Mn3.34+  Mn198  1  0.08198772  -0.00129508  0.41906385  1
  Mn3.34+  Mn199  1  0.41133649  0.00245216  0.42526848  1
  Mn3.34+  Mn200  1  0.06944158  0.00345596  0.05821830  1
  Mn3.34+  Mn201  1  0.08479871  0.50062397  0.07790873  1
  Mn3.34+  Mn202  1  0.57793365  -0.00048101  0.58654427  1
  Mn3.34+  Mn203  1  0.92231287  -0.00455462  0.58191588  1
  Mn3.34+  Mn204  1  0.23234117  -0.00009788  0.91177498  1
  Mn3.34+  Mn205  1  0.24909094  0.49642464  0.57957450  1
  Mn3.34+  Mn206  1  0.90985076  0.49957988  0.58166010  1
  Mn3.34+  Mn207  1  0.75818759  0.49834273  0.74775544  1
  Mn3.34+  Mn208  1  0.75483523  0.00205426  0.40806255  1
  Mn3.34+  Mn209  1  0.41500782  0.00136777  0.74322068  1
  Mn3.34+  Mn210  1  0.24227505  0.00578947  0.90993697  1
  Mn3.34+  Mn211  1  0.91046461  0.00499168  0.23015490  1
  Mn3.34+  Mn212  1  0.59797729  0.50354527  0.58751988  1
  Mn3.34+  Mn213  1  0.08769876  0.00180857  0.73998434  1
  Mn3.34+  Mn214  1  0.42137451  -0.00048297  0.08203334  1
  Mn3.34+  Mn215  1  0.39937761  0.50181216  0.08886878  1
  O2-  O216  1  0.00140295  0.16202631  0.00241759  1
  O2-  O217  1  -0.00242523  0.16133706  0.32516690  1
  O2-  O218  1  0.00528694  0.15149943  0.67619631  1
  O2-  O219  1  -0.00361674  0.66688610  0.00487906  1
  O2-  O220  1  -0.00006956  0.64744898  0.34098297  1
  O2-  O221  1  -0.00296140  0.64874605  0.66774684  1
  O2-  O222  1  0.33879939  0.16146667  -0.00049944  1
  O2-  O223  1  0.33981230  0.15463516  0.33052286  1
  O2-  O224  1  0.33844139  0.15806575  0.66233998  1
  O2-  O225  1  0.34119592  0.66244202  0.00404682  1
  O2-  O226  1  0.33556325  0.65514656  0.33701973  1
  O2-  O227  1  0.33641135  0.64699999  0.66240471  1
  O2-  O228  1  0.67534788  0.17714771  0.01372071  1
  O2-  O229  1  0.66183118  0.14987338  0.34041989  1
  O2-  O230  1  0.67387638  0.16581198  0.65803699  1
  O2-  O231  1  0.66382809  0.65631632  -0.00367568  1
  O2-  O232  1  0.66153444  0.66585824  0.33417845  1
  O2-  O233  1  0.65954105  0.67233339  0.66810498  1
  O2-  O234  1  0.17028698  0.16290682  0.00309410  1
  O2-  O235  1  0.17200076  0.14745936  0.32381191  1
  O2-  O236  1  0.16672616  0.15441641  0.66838730  1
  O2-  O237  1  0.15818528  0.67544284  -0.00524557  1
  O2-  O238  1  0.16570524  0.64413708  0.32669129  1
  O2-  O239  1  0.16437259  0.64581777  0.66450113  1
  O2-  O240  1  0.50824491  0.16501527  0.01599973  1
  O2-  O241  1  0.50243719  0.16562783  0.33345279  1
  O2-  O242  1  0.49874433  0.17297859  0.66466589  1
  O2-  O243  1  0.50403065  0.64594656  0.00713301  1
  O2-  O244  1  0.50010769  0.67359165  0.33262361  1
  O2-  O245  1  0.49698608  0.64909909  0.65955132  1
  O2-  O246  1  0.83249187  0.17521856  0.01200304  1
  O2-  O247  1  0.83145830  0.15359455  0.33308389  1
  O2-  O248  1  0.83527294  0.16071911  0.67357234  1
  O2-  O249  1  0.83595277  0.67681028  -0.00593864  1
  O2-  O250  1  0.83046528  0.65986979  0.33820313  1
  O2-  O251  1  0.83356013  0.65872841  0.66568630  1
  O2-  O252  1  -0.00385205  0.34535176  0.00489714  1
  O2-  O253  1  -0.00351954  0.34973462  0.33479883  1
  O2-  O254  1  0.00533215  0.34180287  0.66278908  1
  O2-  O255  1  -0.00271429  0.80321630  -0.00184046  1
  O2-  O256  1  0.00193694  0.84503325  0.32818505  1
  O2-  O257  1  0.00378547  0.85090775  0.66410290  1
  O2-  O258  1  0.33496280  0.34667276  -0.00041772  1
  O2-  O259  1  0.34325673  0.34125591  0.32932031  1
  O2-  O260  1  0.33767732  0.34223896  0.66437455  1
  O2-  O261  1  0.33443389  0.84768533  -0.00299706  1
  O2-  O262  1  0.33200123  0.82656731  0.33804876  1
  O2-  O263  1  0.33322889  0.84457112  0.66752062  1
  O2-  O264  1  0.66741522  0.32885954  0.00379236  1
  O2-  O265  1  0.65786996  0.34256941  0.33371746  1
  O2-  O266  1  0.67294982  0.33195761  0.65797204  1
  O2-  O267  1  0.66780385  0.84730424  0.00055570  1
  O2-  O268  1  0.65781200  0.84331291  0.34144790  1
  O2-  O269  1  0.66949909  0.84686686  0.66385845  1
  O2-  O270  1  0.16600339  0.34569979  0.00055665  1
  O2-  O271  1  0.16164976  0.34659246  0.32819242  1
  O2-  O272  1  0.16788156  0.34235671  0.67139313  1
  O2-  O273  1  0.16771760  0.82899951  0.00252504  1
  O2-  O274  1  0.16477705  0.85017532  0.33364402  1
  O2-  O275  1  0.16614703  0.84816524  0.66581683  1
  O2-  O276  1  0.50357366  0.33128766  0.00365757  1
  O2-  O277  1  0.50044095  0.30714386  0.33067802  1
  O2-  O278  1  0.50741961  0.31541115  0.66831898  1
  O2-  O279  1  0.50648457  0.85255832  0.00387158  1
  O2-  O280  1  0.50410537  0.81804147  0.33295115  1
  O2-  O281  1  0.50780744  0.83129652  0.66979895  1
  O2-  O282  1  0.82948352  0.34622147  0.00018794  1
  O2-  O283  1  0.82529885  0.35025531  0.32862463  1
  O2-  O284  1  0.83219642  0.34409407  0.66399202  1
  O2-  O285  1  0.83712090  0.83846429  0.00040270  1
  O2-  O286  1  0.82685553  0.84835224  0.32698801  1
  O2-  O287  1  0.83657069  0.84948598  0.67407335  1
  O2-  O288  1  0.00670243  0.18004791  0.17086337  1
  O2-  O289  1  0.00528639  0.17171270  0.51108197  1
  O2-  O290  1  -0.00103804  0.17466641  0.82692404  1
  O2-  O291  1  0.00720681  0.67853606  0.16929132  1
  O2-  O292  1  0.00100168  0.68115360  0.50842344  1
  O2-  O293  1  0.00108835  0.68474408  0.82920627  1
  O2-  O294  1  0.33328873  0.18577056  0.16568397  1
  O2-  O295  1  0.32426582  0.18437514  0.49916036  1
  O2-  O296  1  0.33402503  0.17513197  0.83617253  1
  O2-  O297  1  0.33786067  0.68667016  0.16675870  1
  O2-  O298  1  0.33697155  0.68956282  0.50437375  1
  O2-  O299  1  0.33692275  0.67376486  0.82711185  1
  O2-  O300  1  0.67818249  0.19444410  0.16568110  1
  O2-  O301  1  0.66648232  0.18485415  0.50077903  1
  O2-  O302  1  0.66907917  0.18547455  0.83242573  1
  O2-  O303  1  0.66290922  0.68014650  0.16525834  1
  O2-  O304  1  0.66850741  0.68811992  0.50182606  1
  O2-  O305  1  0.66594561  0.67598446  0.84161709  1
  O2-  O306  1  0.16627857  0.17046957  0.16881294  1
  O2-  O307  1  0.16626161  0.17448170  0.50996994  1
  O2-  O308  1  0.16638121  0.18452491  0.83721347  1
  O2-  O309  1  0.16854629  0.69089529  0.15656994  1
  O2-  O310  1  0.16491815  0.68297031  0.49708379  1
  O2-  O311  1  0.16280255  0.67613217  0.82481614  1
  O2-  O312  1  0.49400282  0.19187882  0.17250989  1
  O2-  O313  1  0.50677803  0.19127695  0.50132648  1
  O2-  O314  1  0.49284398  0.18380400  0.83225554  1
  O2-  O315  1  0.50195656  0.69006180  0.16378542  1
  O2-  O316  1  0.50267974  0.69375376  0.50071517  1
  O2-  O317  1  0.50157119  0.68138190  0.83226106  1
  O2-  O318  1  0.83567314  0.19151650  0.16609825  1
  O2-  O319  1  0.82854933  0.17359943  0.50347028  1
  O2-  O320  1  0.83397695  0.16895120  0.82896140  1
  O2-  O321  1  0.83715497  0.67181753  0.16279910  1
  O2-  O322  1  0.83339039  0.67993264  0.49941849  1
  O2-  O323  1  0.83599931  0.68379122  0.84997324  1
  O2-  O324  1  0.00385961  0.32377636  0.17223676  1
  O2-  O325  1  -0.00005787  0.32517482  0.49929092  1
  O2-  O326  1  0.00952631  0.32341543  0.84210549  1
  O2-  O327  1  0.00168673  0.82187325  0.16702244  1
  O2-  O328  1  -0.00051873  0.81706866  0.50129780  1
  O2-  O329  1  -0.00367517  0.82064314  0.82976382  1
  O2-  O330  1  0.32729465  0.31378424  0.15825903  1
  O2-  O331  1  0.32671627  0.30450187  0.49378906  1
  O2-  O332  1  0.33174745  0.32894671  0.83252789  1
  O2-  O333  1  0.32490000  0.81847011  0.15712497  1
  O2-  O334  1  0.32934924  0.81894893  0.49691252  1
  O2-  O335  1  0.33871756  0.82887112  0.83335299  1
  O2-  O336  1  0.66291953  0.31279750  0.16314702  1
  O2-  O337  1  0.66824878  0.31561246  0.50158364  1
  O2-  O338  1  0.67181698  0.31841173  0.83824511  1
  O2-  O339  1  0.67093763  0.82132515  0.17222394  1
  O2-  O340  1  0.66886663  0.81695765  0.50585567  1
  O2-  O341  1  0.66560565  0.82520563  0.83517904  1
  O2-  O342  1  0.16706377  0.32705134  0.16635123  1
  O2-  O343  1  0.15866060  0.32013114  0.50668500  1
  O2-  O344  1  0.17497847  0.32689320  0.82602947  1
  O2-  O345  1  0.15487934  0.82454763  0.16919719  1
  O2-  O346  1  0.16728244  0.81950688  0.49835296  1
  O2-  O347  1  0.16936444  0.82382436  0.82744620  1
  O2-  O348  1  0.50023668  0.30744782  0.16011727  1
  O2-  O349  1  0.49678069  0.31037041  0.50284068  1
  O2-  O350  1  0.49551408  0.31880270  0.83912095  1
  O2-  O351  1  0.50711122  0.81340847  0.16399259  1
  O2-  O352  1  0.50317204  0.81202218  0.49699875  1
  O2-  O353  1  0.50078659  0.82445165  0.83517810  1
  O2-  O354  1  0.84146862  0.31929435  0.16021130  1
  O2-  O355  1  0.83371145  0.32627371  0.49697562  1
  O2-  O356  1  0.82690711  0.32595409  0.84061852  1
  O2-  O357  1  0.83322850  0.82502035  0.16539203  1
  O2-  O358  1  0.82391447  0.82273614  0.51610325  1
  O2-  O359  1  0.83458684  0.81973563  0.84185650  1
  O2-  O360  1  0.09265753  0.07779515  0.11241434  1
  O2-  O361  1  0.07812885  0.07972527  0.44186318  1
  O2-  O362  1  0.08151998  0.07639469  0.77810077  1
  O2-  O363  1  0.08440537  0.58265047  0.11422387  1
  O2-  O364  1  0.09417719  0.57815815  0.46136162  1
  O2-  O365  1  0.07058202  0.58371698  0.78025878  1
  O2-  O366  1  0.40911369  0.07929461  0.12090349  1
  O2-  O367  1  0.41691991  0.08534135  0.45944821  1
  O2-  O368  1  0.42215459  0.08002546  0.77341856  1
  O2-  O369  1  0.42297445  0.58511635  0.12472640  1
  O2-  O370  1  0.41698935  0.57809747  0.45187261  1
  O2-  O371  1  0.41850705  0.58209606  0.77934055  1
  O2-  O372  1  0.73486823  0.08692270  0.10631103  1
  O2-  O373  1  0.74030720  0.07972817  0.45661000  1
  O2-  O374  1  0.75027079  0.08226430  0.74775179  1
  O2-  O375  1  0.74634934  0.57595754  0.11492372  1
  O2-  O376  1  0.74159018  0.58523474  0.42742935  1
  O2-  O377  1  0.75691978  0.57143073  0.79189939  1
  O2-  O378  1  0.27560215  0.08275065  0.21439521  1
  O2-  O379  1  0.24563163  0.08407203  0.55869604  1
  O2-  O380  1  0.25176540  0.08618824  0.90057027  1
  O2-  O381  1  0.25348489  0.58054414  0.21549660  1
  O2-  O382  1  0.26753818  0.58041034  0.53995023  1
  O2-  O383  1  0.24219482  0.57522143  0.89369090  1
  O2-  O384  1  0.56146026  0.08271907  0.20159798  1
  O2-  O385  1  0.58969811  0.07954216  0.55032894  1
  O2-  O386  1  0.57688324  0.07999864  0.91750313  1
  O2-  O387  1  0.57401633  0.58322379  0.21612604  1
  O2-  O388  1  0.56988128  0.58142834  0.53855631  1
  O2-  O389  1  0.57760334  0.58162577  0.89136124  1
  O2-  O390  1  0.93127524  0.08784639  0.22121536  1
  O2-  O391  1  0.90444710  0.07300031  0.55021273  1
  O2-  O392  1  0.91251838  0.06714805  0.91175367  1
  O2-  O393  1  0.92027920  0.56682660  0.20093244  1
  O2-  O394  1  0.92490500  0.57880166  0.53979898  1
  O2-  O395  1  0.92608071  0.57445377  0.89887900  1
  O2-  O396  1  0.08418119  0.42016531  0.11183223  1
  O2-  O397  1  0.07726316  0.41772303  0.44550603  1
  O2-  O398  1  0.09355699  0.41709356  0.77691226  1
  O2-  O399  1  0.08464016  0.92548059  0.10763681  1
  O2-  O400  1  0.08508990  0.91394024  0.44724839  1
  O2-  O401  1  0.08151078  0.92320877  0.77415009  1
  O2-  O402  1  0.43222803  0.41957814  0.11577336  1
  O2-  O403  1  0.45221010  0.41196322  0.41378122  1
  O2-  O404  1  0.40386546  0.41886896  0.77418638  1
  O2-  O405  1  0.41562810  0.91502049  0.11699184  1
  O2-  O406  1  0.42997629  0.91810953  0.42750943  1
  O2-  O407  1  0.42395540  0.92283428  0.77700908  1
  O2-  O408  1  0.72811542  0.41742258  0.11772293  1
  O2-  O409  1  0.73223180  0.41548956  0.44267564  1
  O2-  O410  1  0.74376698  0.41801026  0.77663524  1
  O2-  O411  1  0.75263616  0.91757888  0.10373031  1
  O2-  O412  1  0.74783840  0.91749529  0.45093963  1
  O2-  O413  1  0.75261437  0.92007814  0.78117456  1
  O2-  O414  1  0.27475382  0.41624566  0.22113549  1
  O2-  O415  1  0.23841539  0.41357677  0.58051152  1
  O2-  O416  1  0.25271047  0.41991331  0.88281138  1
  O2-  O417  1  0.23212683  0.91750804  0.22016675  1
  O2-  O418  1  0.24179000  0.91709488  0.55608711  1
  O2-  O419  1  0.25223275  0.92000298  0.88492774  1
  O2-  O420  1  0.55953491  0.41358586  0.22040326  1
  O2-  O421  1  0.58972215  0.42109168  0.53967287  1
  O2-  O422  1  0.60322553  0.41729184  0.91773521  1
  O2-  O423  1  0.59178330  0.91845420  0.23736105  1
  O2-  O424  1  0.59374643  0.92282041  0.53043668  1
  O2-  O425  1  0.58545909  0.92007401  0.88520842  1
  O2-  O426  1  0.91495516  0.41705521  0.22506001  1
  O2-  O427  1  0.91285985  0.42095248  0.54892146  1
  O2-  O428  1  0.90377531  0.41877356  0.89479257  1
  O2-  O429  1  0.93097028  0.92018780  0.21164907  1
  O2-  O430  1  0.90365052  0.91633999  0.55661654  1
  O2-  O431  1  0.90646434  0.91796050  0.89734495  1
  O2-  O432  1  -0.03249726  -0.00157768  0.02522932  1
  O2-  O433  1  0.02077549  0.00152366  0.30511586  1
  O2-  O434  1  -0.00720087  -0.00043454  0.67591619  1
  O2-  O435  1  -0.00845979  0.49241708  0.00876009  1
  O2-  O436  1  -0.00610250  0.50833406  0.34320662  1
  O2-  O437  1  0.00983971  0.50169606  0.64599332  1
  O2-  O438  1  0.33734606  0.00135124  -0.01194006  1
  O2-  O439  1  0.33372436  0.01230637  0.33375974  1
  O2-  O440  1  0.32894509  -0.00140205  0.68095756  1
  O2-  O441  1  0.33684899  0.49476638  -0.00899270  1
  O2-  O442  1  0.34538531  0.50819166  0.30989776  1
  O2-  O443  1  0.33475134  0.51226823  0.66541030  1
  O2-  O444  1  0.65824529  -0.00213079  0.00720689  1
  O2-  O445  1  0.64465590  -0.00304062  0.36808781  1
  O2-  O446  1  0.67420958  -0.01408734  0.65370440  1
  O2-  O447  1  0.65338742  0.50474060  0.02393906  1
  O2-  O448  1  0.66644027  0.49107753  0.33424941  1
  O2-  O449  1  0.66090644  0.51093492  0.68337069  1
  O2-  O450  1  0.17952451  0.00109051  0.01812644  1
  O2-  O451  1  0.17510434  0.00433127  0.34234281  1
  O2-  O452  1  0.15516727  -0.00395265  0.65826986  1
  O2-  O453  1  0.16086357  0.48773624  -0.00742323  1
  O2-  O454  1  0.15907562  0.51130895  0.32029722  1
  O2-  O455  1  0.16890351  0.51133777  0.67297247  1
  O2-  O456  1  0.49893854  -0.00767775  -0.00326260  1
  O2-  O457  1  0.49291001  0.02172851  0.34071250  1
  O2-  O458  1  0.49884929  -0.00167076  0.67000059  1
  O2-  O459  1  0.50037150  0.49866507  0.00641655  1
  O2-  O460  1  0.50739706  0.49621442  0.33545234  1
  O2-  O461  1  0.49437385  0.51323414  0.65505476  1
  O2-  O462  1  0.83163752  -0.00554589  -0.01186104  1
  O2-  O463  1  0.83528434  -0.00353258  0.31865936  1
  O2-  O464  1  0.82500562  -0.00314115  0.65307199  1
  O2-  O465  1  0.81835777  0.49671833  -0.01298792  1
  O2-  O466  1  0.82777910  0.50475887  0.33124487  1
  O2-  O467  1  0.82734596  0.49681553  0.65975264  1
  O2-  O468  1  0.91714503  0.25273281  0.92985640  1
  O2-  O469  1  0.08538211  0.25057098  0.06508596  1
  O2-  O470  1  0.75143935  0.25235507  0.38748717  1
  O2-  O471  1  0.57957309  0.75161414  0.93667516  1
  O2-  O472  1  0.24773647  0.24967532  0.61137397  1
  O2-  O473  1  0.25697652  0.25168066  0.93872580  1
  O2-  O474  1  0.24437196  0.25035490  0.27730602  1
  O2-  O475  1  0.08370089  0.24747127  0.72879586  1
  O2-  O476  1  0.08111504  0.25539819  0.39617184  1
  O2-  O477  1  0.91571986  0.25263132  0.27977161  1
  O2-  O478  1  0.24478491  0.75122372  0.61448081  1
  O2-  O479  1  0.75138382  0.75622198  0.73745897  1
  O2-  O480  1  0.74672172  0.75432506  0.06739137  1
  O2-  O481  1  0.41971750  0.75150819  0.05225706  1
  O2-  O482  1  0.76352571  0.25102613  0.73478913  1
  O2-  O483  1  0.08866608  0.75249375  0.72367279  1
  O2-  O484  1  0.24207884  0.74259978  0.27547347  1
  O2-  O485  1  0.91782313  0.25555347  0.59719602  1
  O2-  O486  1  0.40870698  0.74833647  0.72834279  1
  O2-  O487  1  0.08360519  0.74968186  0.39070221  1
  O2-  O488  1  0.75672869  0.75168534  0.39225024  1
  O2-  O489  1  0.25841905  0.75536447  0.91830405  1
  O2-  O490  1  0.91461537  0.75499203  0.26669638  1
  O2-  O491  1  0.91674232  0.75025062  0.61277754  1
  O2-  O492  1  0.39706170  0.24936554  0.74076523  1
