# generated using pymatgen
data_Ca108Mn108O277
_symmetry_space_group_name_H-M   'P 1'
_cell_length_a   16.02992002
_cell_length_b   22.30969049
_cell_length_c   16.39133706
_cell_angle_alpha   89.99502832
_cell_angle_beta   90.00066864
_cell_angle_gamma   90.00063318
_symmetry_Int_Tables_number   1
_chemical_formula_structural   Ca108Mn108O277
_chemical_formula_sum   'Ca108 Mn108 O277'
_cell_volume   5861.91180587
_cell_formula_units_Z   1
loop_
 _symmetry_equiv_pos_site_id
 _symmetry_equiv_pos_as_xyz
  1  'x, y, z'
loop_
 _atom_type_symbol
 _atom_type_oxidation_number
  Ca2+  2.0
  Mn3.34+  3.34
  O2-  -2.0
loop_
 _atom_site_type_symbol
 _atom_site_label
 _atom_site_symmetry_multiplicity
 _atom_site_fract_x
 _atom_site_fract_y
 _atom_site_fract_z
 _atom_site_occupancy
  Ca2+  Ca0  1  0.07725162  0.23438333  0.25951448  1
  Ca2+  Ca1  1  0.06915032  0.24219158  0.56642219  1
  Ca2+  Ca2  1  0.08369079  0.25265184  0.91421399  1
  Ca2+  Ca3  1  0.06936512  0.75854508  0.23591768  1
  Ca2+  Ca4  1  0.08542372  0.75969408  0.59787973  1
  Ca2+  Ca5  1  0.09132394  0.75719951  0.90758999  1
  Ca2+  Ca6  1  0.42903383  0.23994123  0.25348647  1
  Ca2+  Ca7  1  0.44614259  0.24454778  0.56596473  1
  Ca2+  Ca8  1  0.42577750  0.26065345  0.93418959  1
  Ca2+  Ca9  1  0.43011808  0.75309190  0.23182735  1
  Ca2+  Ca10  1  0.42426421  0.75355449  0.59322986  1
  Ca2+  Ca11  1  0.41172621  0.73954563  0.91863979  1
  Ca2+  Ca12  1  0.72359874  0.24759979  0.25795596  1
  Ca2+  Ca13  1  0.72875419  0.24448256  0.57568270  1
  Ca2+  Ca14  1  0.74151045  0.26121190  0.91604261  1
  Ca2+  Ca15  1  0.75228950  0.74520169  0.24321982  1
  Ca2+  Ca16  1  0.74160571  0.74971295  0.58177149  1
  Ca2+  Ca17  1  0.74621746  0.74463894  0.93385894  1
  Ca2+  Ca18  1  0.26682159  0.25206003  0.08348765  1
  Ca2+  Ca19  1  0.24267223  0.25156171  0.41024394  1
  Ca2+  Ca20  1  0.24112949  0.25409396  0.76305565  1
  Ca2+  Ca21  1  0.27428947  0.74341689  0.07519714  1
  Ca2+  Ca22  1  0.26028692  0.75730277  0.42346644  1
  Ca2+  Ca23  1  0.26679647  0.75114678  0.75092794  1
  Ca2+  Ca24  1  0.56656395  0.24598290  0.09393496  1
  Ca2+  Ca25  1  0.57873966  0.26128155  0.40615475  1
  Ca2+  Ca26  1  0.58350662  0.25128642  0.73899273  1
  Ca2+  Ca27  1  0.58057275  0.73872593  0.08208776  1
  Ca2+  Ca28  1  0.59352729  0.74819016  0.42048070  1
  Ca2+  Ca29  1  0.55982752  0.73609280  0.74323070  1
  Ca2+  Ca30  1  0.91923486  0.24808588  0.08745330  1
  Ca2+  Ca31  1  0.92123545  0.24975054  0.41338300  1
  Ca2+  Ca32  1  0.92796915  0.24709780  0.75758603  1
  Ca2+  Ca33  1  0.90737607  0.74941384  0.09677174  1
  Ca2+  Ca34  1  0.89751354  0.75000479  0.41438514  1
  Ca2+  Ca35  1  0.92617389  0.76410617  0.74830867  1
  Ca2+  Ca36  1  0.07372025  0.08581360  0.92511733  1
  Ca2+  Ca37  1  0.72196622  0.58809050  0.91956982  1
  Ca2+  Ca38  1  0.74695061  0.59476103  0.59003350  1
  Ca2+  Ca39  1  0.90568863  0.58537106  0.72820705  1
  Ca2+  Ca40  1  0.93770029  0.09881936  0.41114222  1
  Ca2+  Ca41  1  0.23914842  0.10199389  0.10329315  1
  Ca2+  Ca42  1  0.23185479  0.07978609  0.74499707  1
  Ca2+  Ca43  1  0.10543321  0.59207066  0.91343203  1
  Ca2+  Ca44  1  0.58579932  0.59262785  0.06575712  1
  Ca2+  Ca45  1  0.07346730  0.08380982  0.59288381  1
  Ca2+  Ca46  1  0.94564971  0.09643545  0.41758528  1
  Ca2+  Ca47  1  0.40989272  0.59489157  0.60515966  1
  Ca2+  Ca48  1  0.06046691  0.58654669  0.24881915  1
  Ca2+  Ca49  1  0.87226859  0.60308524  0.41908936  1
  Ca2+  Ca50  1  0.60374005  0.59276792  0.41826776  1
  Ca2+  Ca51  1  0.28159931  0.59493984  0.07563014  1
  Ca2+  Ca52  1  0.24833953  0.10391106  0.09921603  1
  Ca2+  Ca53  1  0.26517305  0.60320175  0.74840821  1
  Ca2+  Ca54  1  0.42670026  0.59036931  0.25163548  1
  Ca2+  Ca55  1  0.86773376  0.59934798  0.09858027  1
  Ca2+  Ca56  1  0.07279747  0.58351858  0.25149488  1
  Ca2+  Ca57  1  0.24100151  0.07657002  0.74184143  1
  Ca2+  Ca58  1  0.42057783  0.59299133  0.60657747  1
  Ca2+  Ca59  1  0.08501684  0.58653693  0.60238219  1
  Ca2+  Ca60  1  0.43112878  0.10321128  0.93733775  1
  Ca2+  Ca61  1  0.73608062  0.59453773  0.59020769  1
  Ca2+  Ca62  1  0.47266463  0.06881845  0.58648643  1
  Ca2+  Ca63  1  0.74556691  0.10058765  0.25389269  1
  Ca2+  Ca64  1  0.43186238  0.60059387  0.90399679  1
  Ca2+  Ca65  1  0.70742580  0.08146602  0.59250693  1
  Ca2+  Ca66  1  0.09564272  0.58819736  0.91646397  1
  Ca2+  Ca67  1  0.93555304  0.08218284  0.08298164  1
  Ca2+  Ca68  1  0.41857293  0.10377660  0.93912114  1
  Ca2+  Ca69  1  0.58249009  0.10868365  0.42239940  1
  Ca2+  Ca70  1  0.06412960  0.08897446  0.92150572  1
  Ca2+  Ca71  1  0.57438962  0.10730695  0.41577823  1
  Ca2+  Ca72  1  0.59543213  0.89377797  0.09110293  1
  Ca2+  Ca73  1  0.91183622  0.90957441  0.08832608  1
  Ca2+  Ca74  1  0.41471511  0.90142295  0.90319830  1
  Ca2+  Ca75  1  0.74947483  0.90223878  0.91589598  1
  Ca2+  Ca76  1  0.89920442  0.41142842  0.72937732  1
  Ca2+  Ca77  1  0.08261246  0.92067265  0.26155544  1
  Ca2+  Ca78  1  0.24602352  0.41046732  0.74003391  1
  Ca2+  Ca79  1  0.74760150  0.90461708  0.58829629  1
  Ca2+  Ca80  1  0.92305325  0.91069697  0.08835995  1
  Ca2+  Ca81  1  0.60792359  0.41839394  0.73514750  1
  Ca2+  Ca82  1  0.08455532  0.39924271  0.57666088  1
  Ca2+  Ca83  1  0.43767088  0.41660887  0.92215546  1
  Ca2+  Ca84  1  0.09491930  0.91913396  0.26188535  1
  Ca2+  Ca85  1  0.24119905  0.91168156  0.72929636  1
  Ca2+  Ca86  1  0.25368742  0.91591913  0.40839054  1
  Ca2+  Ca87  1  0.56488497  0.93107364  0.70313739  1
  Ca2+  Ca88  1  0.91591958  0.40467860  0.09031246  1
  Ca2+  Ca89  1  0.07067274  0.91311511  0.90508443  1
  Ca2+  Ca90  1  0.23265756  0.91010692  0.09405270  1
  Ca2+  Ca91  1  0.24493170  0.90746473  0.09470307  1
  Ca2+  Ca92  1  0.09136283  0.40593860  0.91330242  1
  Ca2+  Ca93  1  0.73487865  0.40349690  0.25695894  1
  Ca2+  Ca94  1  0.08767778  0.40414012  0.25465051  1
  Ca2+  Ca95  1  0.91098450  0.40422663  0.42414313  1
  Ca2+  Ca96  1  0.25868782  0.41176029  0.73996644  1
  Ca2+  Ca97  1  0.42760133  0.90108453  0.90358160  1
  Ca2+  Ca98  1  0.40950201  0.90364391  0.26867974  1
  Ca2+  Ca99  1  0.90435257  0.40454472  0.09192733  1
  Ca2+  Ca100  1  0.26315936  0.40402934  0.08163493  1
  Ca2+  Ca101  1  0.76199189  0.90118823  0.91410108  1
  Ca2+  Ca102  1  0.55543295  0.92912544  0.70655674  1
  Ca2+  Ca103  1  0.88770677  0.41482456  0.73269719  1
  Ca2+  Ca104  1  0.07490231  0.40442159  0.25446262  1
  Ca2+  Ca105  1  0.72443604  0.41779430  0.91729093  1
  Ca2+  Ca106  1  0.60520071  0.42174014  0.74394689  1
  Ca2+  Ca107  1  0.42167490  0.40137922  0.57586976  1
  Mn3.34+  Mn108  1  0.08779725  0.33002326  0.08446262  1
  Mn3.34+  Mn109  1  0.08413906  0.32956989  0.41914478  1
  Mn3.34+  Mn110  1  0.08280157  0.33090914  0.75075780  1
  Mn3.34+  Mn111  1  0.08300688  0.83175095  0.08013490  1
  Mn3.34+  Mn112  1  0.07877310  0.83527559  0.42902569  1
  Mn3.34+  Mn113  1  0.08419193  0.84109483  0.74519155  1
  Mn3.34+  Mn114  1  0.42224942  0.33550084  0.08989859  1
  Mn3.34+  Mn115  1  0.41385189  0.33441019  0.41103970  1
  Mn3.34+  Mn116  1  0.41971927  0.33315575  0.75205686  1
  Mn3.34+  Mn117  1  0.41935431  0.83368960  0.08592387  1
  Mn3.34+  Mn118  1  0.42244044  0.83739020  0.42628769  1
  Mn3.34+  Mn119  1  0.41713643  0.83049868  0.74469210  1
  Mn3.34+  Mn120  1  0.73990923  0.33562658  0.08447363  1
  Mn3.34+  Mn121  1  0.74675599  0.33161223  0.41841998  1
  Mn3.34+  Mn122  1  0.74877762  0.33072900  0.75018029  1
  Mn3.34+  Mn123  1  0.75036583  0.83085480  0.09275095  1
  Mn3.34+  Mn124  1  0.74941070  0.83396418  0.41816120  1
  Mn3.34+  Mn125  1  0.74971886  0.82903872  0.75014898  1
  Mn3.34+  Mn126  1  0.25476520  0.33039659  0.24998743  1
  Mn3.34+  Mn127  1  0.25295448  0.33118436  0.57645731  1
  Mn3.34+  Mn128  1  0.25481861  0.33655638  0.91635802  1
  Mn3.34+  Mn129  1  0.24887322  0.82566625  0.25147786  1
  Mn3.34+  Mn130  1  0.25159253  0.83835302  0.57849313  1
  Mn3.34+  Mn131  1  0.24749538  0.83257414  0.91198118  1
  Mn3.34+  Mn132  1  0.57584726  0.33576809  0.25046907  1
  Mn3.34+  Mn133  1  0.58753865  0.33561388  0.57632596  1
  Mn3.34+  Mn134  1  0.58120774  0.33822045  0.91723994  1
  Mn3.34+  Mn135  1  0.58820049  0.83320529  0.25938828  1
  Mn3.34+  Mn136  1  0.58423582  0.83261885  0.57511872  1
  Mn3.34+  Mn137  1  0.58454430  0.82552892  0.91374583  1
  Mn3.34+  Mn138  1  0.91118781  0.32966265  0.25228017  1
  Mn3.34+  Mn139  1  0.90947869  0.33070341  0.57841248  1
  Mn3.34+  Mn140  1  0.91456865  0.33346688  0.91528494  1
  Mn3.34+  Mn141  1  0.91240731  0.83729936  0.26029826  1
  Mn3.34+  Mn142  1  0.91721033  0.83676907  0.57703200  1
  Mn3.34+  Mn143  1  0.92050356  0.83441252  0.91252237  1
  Mn3.34+  Mn144  1  0.90530969  0.66519541  0.91165652  1
  Mn3.34+  Mn145  1  0.58594206  0.17490413  0.91956024  1
  Mn3.34+  Mn146  1  0.41603692  0.16668036  0.41628016  1
  Mn3.34+  Mn147  1  0.58355665  0.66974799  0.58065123  1
  Mn3.34+  Mn148  1  0.91758837  0.16532735  0.24732871  1
  Mn3.34+  Mn149  1  0.91122719  0.16748888  0.92007104  1
  Mn3.34+  Mn150  1  0.90906785  0.66994965  0.25142417  1
  Mn3.34+  Mn151  1  0.41614561  0.16472273  0.74879256  1
  Mn3.34+  Mn152  1  0.74488068  0.66385729  0.75851909  1
  Mn3.34+  Mn153  1  0.25800828  0.15497148  0.26457092  1
  Mn3.34+  Mn154  1  0.91087411  0.15870145  0.58479211  1
  Mn3.34+  Mn155  1  0.25996540  0.66950394  0.25284641  1
  Mn3.34+  Mn156  1  0.41707986  0.65945505  0.42367137  1
  Mn3.34+  Mn157  1  0.74212259  0.15950847  0.75604567  1
  Mn3.34+  Mn158  1  0.75335294  0.16837972  0.42301013  1
  Mn3.34+  Mn159  1  0.08340906  0.67032751  0.74832904  1
  Mn3.34+  Mn160  1  0.07999678  0.16780442  0.08656594  1
  Mn3.34+  Mn161  1  0.24601797  0.17125821  0.91407331  1
  Mn3.34+  Mn162  1  0.91898081  0.67068770  0.91539765  1
  Mn3.34+  Mn163  1  0.59517201  0.65664530  0.24666459  1
  Mn3.34+  Mn164  1  0.75576331  0.16571926  0.75471643  1
  Mn3.34+  Mn165  1  0.42623242  0.15939605  0.75115718  1
  Mn3.34+  Mn166  1  0.75241573  0.16695067  0.08150942  1
  Mn3.34+  Mn167  1  0.08345363  0.66702541  0.08364121  1
  Mn3.34+  Mn168  1  0.91199965  0.67335724  0.58511735  1
  Mn3.34+  Mn169  1  0.25164206  0.66954744  0.57825178  1
  Mn3.34+  Mn170  1  0.58226513  0.66227233  0.90939075  1
  Mn3.34+  Mn171  1  0.24816971  0.67726409  0.25303368  1
  Mn3.34+  Mn172  1  0.08706943  0.67333945  0.42497892  1
  Mn3.34+  Mn173  1  0.24591156  0.16084134  0.57301570  1
  Mn3.34+  Mn174  1  0.58452336  0.66080248  0.24736357  1
  Mn3.34+  Mn175  1  0.25480083  0.16647062  0.57557566  1
  Mn3.34+  Mn176  1  0.07882081  0.66691267  0.42710497  1
  Mn3.34+  Mn177  1  0.25579710  0.66869937  0.91418424  1
  Mn3.34+  Mn178  1  0.07646700  0.16341000  0.75222907  1
  Mn3.34+  Mn179  1  0.74231079  0.16198759  0.08225231  1
  Mn3.34+  Mn180  1  0.08327183  0.50107784  0.74347331  1
  Mn3.34+  Mn181  1  0.74181966  0.00229203  0.42210503  1
  Mn3.34+  Mn182  1  0.91441563  0.00496287  0.25590330  1
  Mn3.34+  Mn183  1  0.75439890  -0.00445721  0.42082646  1
  Mn3.34+  Mn184  1  0.89458505  0.50081224  0.26386677  1
  Mn3.34+  Mn185  1  0.24093018  -0.00287797  0.91780962  1
  Mn3.34+  Mn186  1  0.73109812  0.49612672  0.07898268  1
  Mn3.34+  Mn187  1  0.91838654  -0.00480786  0.59782201  1
  Mn3.34+  Mn188  1  0.42842614  0.00213602  0.09282202  1
  Mn3.34+  Mn189  1  0.25215104  -0.00533722  0.91199031  1
  Mn3.34+  Mn190  1  0.58627360  0.50126088  0.58469030  1
  Mn3.34+  Mn191  1  0.42241829  0.49551159  0.07038477  1
  Mn3.34+  Mn192  1  0.25215763  -0.00153810  0.59221160  1
  Mn3.34+  Mn193  1  0.42057830  0.50038444  0.75000383  1
  Mn3.34+  Mn194  1  0.26588063  0.50127965  0.91519847  1
  Mn3.34+  Mn195  1  0.40500222  0.00198524  0.40026030  1
  Mn3.34+  Mn196  1  0.57994092  0.49454903  0.26206771  1
  Mn3.34+  Mn197  1  0.09727608  0.49867603  0.07394782  1
  Mn3.34+  Mn198  1  0.90897160  0.00145666  0.91191524  1
  Mn3.34+  Mn199  1  0.91186829  0.49944292  0.91607234  1
  Mn3.34+  Mn200  1  0.58946412  -0.00045755  0.24619238  1
  Mn3.34+  Mn201  1  0.75813795  -0.00103300  0.74221406  1
  Mn3.34+  Mn202  1  0.08349412  0.50044483  0.41484252  1
  Mn3.34+  Mn203  1  0.89991533  0.50395639  0.91821508  1
  Mn3.34+  Mn204  1  0.26054991  0.50115026  0.25172162  1
  Mn3.34+  Mn205  1  0.25110875  0.50075629  0.57767266  1
  Mn3.34+  Mn206  1  0.27260977  0.49668007  0.25305839  1
  Mn3.34+  Mn207  1  0.74882652  0.49197057  0.41267699  1
  Mn3.34+  Mn208  1  0.59937928  0.00872639  0.90584091  1
  Mn3.34+  Mn209  1  0.91113343  0.50087019  0.57971479  1
  Mn3.34+  Mn210  1  0.58742532  0.00392985  0.90433688  1
  Mn3.34+  Mn211  1  0.42583035  0.49712113  0.41460219  1
  Mn3.34+  Mn212  1  0.57805925  0.00727767  0.24644167  1
  Mn3.34+  Mn213  1  0.43377101  0.00668163  0.10199742  1
  Mn3.34+  Mn214  1  0.74569210  -0.00113354  0.08487148  1
  Mn3.34+  Mn215  1  0.09650873  0.00144326  0.40893444  1
  O2-  O216  1  -0.00274118  0.15211300  0.00328507  1
  O2-  O217  1  0.00002240  0.15528234  0.32226333  1
  O2-  O218  1  -0.00128947  0.16904662  0.66221669  1
  O2-  O219  1  -0.00729199  0.63223892  -0.00366561  1
  O2-  O220  1  0.00119456  0.65276750  0.33536743  1
  O2-  O221  1  -0.00398867  0.65838768  0.66730794  1
  O2-  O222  1  0.31950329  0.15258038  -0.00231995  1
  O2-  O223  1  0.33364539  0.17538811  0.33491486  1
  O2-  O224  1  0.32282665  0.14924105  0.67008725  1
  O2-  O225  1  0.33766255  0.65692154  -0.01108909  1
  O2-  O226  1  0.34009441  0.68270693  0.33425823  1
  O2-  O227  1  0.32954791  0.66767029  0.65880627  1
  O2-  O228  1  0.67128194  0.15741356  -0.00647540  1
  O2-  O229  1  0.67512263  0.15514622  0.34116967  1
  O2-  O230  1  0.66585949  0.15656137  0.67320476  1
  O2-  O231  1  0.65958643  0.67451242  -0.01205359  1
  O2-  O232  1  0.66538528  0.66391841  0.33411634  1
  O2-  O233  1  0.66683317  0.65959391  0.66991417  1
  O2-  O234  1  0.15898332  0.15242884  -0.00547910  1
  O2-  O235  1  0.17910754  0.18354737  0.32099462  1
  O2-  O236  1  0.16771473  0.15002489  0.66313456  1
  O2-  O237  1  0.17018588  0.64989484  0.00339544  1
  O2-  O238  1  0.16559633  0.66649384  0.33227040  1
  O2-  O239  1  0.16823737  0.66048609  0.66442138  1
  O2-  O240  1  0.50114323  0.16868670  -0.00438737  1
  O2-  O241  1  0.49278543  0.15889959  0.33629143  1
  O2-  O242  1  0.49666467  0.15231651  0.66425437  1
  O2-  O243  1  0.50878153  0.66392072  -0.00583149  1
  O2-  O244  1  0.50309012  0.65202036  0.33302958  1
  O2-  O245  1  0.49775407  0.66104708  0.65458523  1
  O2-  O246  1  0.84022651  0.14740321  0.01343287  1
  O2-  O247  1  0.84240508  0.14816563  0.34065435  1
  O2-  O248  1  0.82942380  0.16428138  0.66698731  1
  O2-  O249  1  0.82502286  0.65124014  -0.01214440  1
  O2-  O250  1  0.83481803  0.67489216  0.33326095  1
  O2-  O251  1  0.82503474  0.66481348  0.66875789  1
  O2-  O252  1  -0.00217745  0.35625984  0.00109244  1
  O2-  O253  1  -0.00418250  0.34842045  0.33426675  1
  O2-  O254  1  -0.00589745  0.34495779  0.67278274  1
  O2-  O255  1  -0.00050428  0.85996140  0.00008549  1
  O2-  O256  1  0.00889715  0.84409801  0.32998144  1
  O2-  O257  1  -0.00308822  0.83116072  0.66174856  1
  O2-  O258  1  0.34079396  0.34911502  -0.00825421  1
  O2-  O259  1  0.33046622  0.31539241  0.33183373  1
  O2-  O260  1  0.33421177  0.34613108  0.66733167  1
  O2-  O261  1  0.33029017  0.85538363  0.00289400  1
  O2-  O262  1  0.33247274  0.82452703  0.33499468  1
  O2-  O263  1  0.32635620  0.83820673  0.67245753  1
  O2-  O264  1  0.66880919  0.34737119  -0.00754925  1
  O2-  O265  1  0.66717651  0.33656583  0.33345115  1
  O2-  O266  1  0.66781038  0.34718170  0.66923026  1
  O2-  O267  1  0.67095674  0.84099915  -0.00428793  1
  O2-  O268  1  0.67060517  0.81390206  0.33843820  1
  O2-  O269  1  0.66612987  0.84147283  0.67051481  1
  O2-  O270  1  0.17130811  0.35164271  0.00167027  1
  O2-  O271  1  0.16353165  0.33912421  0.32979514  1
  O2-  O272  1  0.17193986  0.33614799  0.67091659  1
  O2-  O273  1  0.16589335  0.85550210  -0.00469051  1
  O2-  O274  1  0.16360359  0.82059236  0.33119377  1
  O2-  O275  1  0.17103125  0.83071094  0.66544457  1
  O2-  O276  1  0.49917000  0.34647560  -0.00285542  1
  O2-  O277  1  0.49882753  0.34192618  0.33629874  1
  O2-  O278  1  0.50676814  0.35410364  0.67966222  1
  O2-  O279  1  0.50179952  0.85309198  -0.00027507  1
  O2-  O280  1  0.49272011  0.83202597  0.33211687  1
  O2-  O281  1  0.49965266  0.84096215  0.66359560  1
  O2-  O282  1  0.83023923  0.35851784  -0.00426083  1
  O2-  O283  1  0.83151673  0.34734770  0.33138569  1
  O2-  O284  1  0.83580852  0.33374015  0.66935751  1
  O2-  O285  1  0.83616281  0.85070685  0.00324490  1
  O2-  O286  1  0.82796573  0.82042806  0.33515175  1
  O2-  O287  1  0.82945347  0.81238462  0.66579147  1
  O2-  O288  1  -0.00724145  0.17895531  0.16035254  1
  O2-  O289  1  -0.01141916  0.17222081  0.50213182  1
  O2-  O290  1  0.00731954  0.17583320  0.84910834  1
  O2-  O291  1  0.00670622  0.67223864  0.17223411  1
  O2-  O292  1  -0.00712746  0.68741115  0.50247420  1
  O2-  O293  1  0.00247996  0.67769230  0.84050668  1
  O2-  O294  1  0.31384464  0.18222292  0.17691913  1
  O2-  O295  1  0.33362785  0.18614308  0.49852478  1
  O2-  O296  1  0.33842613  0.18019238  0.83284524  1
  O2-  O297  1  0.33631539  0.68114869  0.16908696  1
  O2-  O298  1  0.34009867  0.69020497  0.50318647  1
  O2-  O299  1  0.32653857  0.67983314  0.83313665  1
  O2-  O300  1  0.66703793  0.18108307  0.16079564  1
  O2-  O301  1  0.66610809  0.17249674  0.49474375  1
  O2-  O302  1  0.66507885  0.18511785  0.83509820  1
  O2-  O303  1  0.66358420  0.67617669  0.16202730  1
  O2-  O304  1  0.67197320  0.67347431  0.50903723  1
  O2-  O305  1  0.66687645  0.68833554  0.83312490  1
  O2-  O306  1  0.16675829  0.17992991  0.15687477  1
  O2-  O307  1  0.16437436  0.18550180  0.50301442  1
  O2-  O308  1  0.17379447  0.17723279  0.82621528  1
  O2-  O309  1  0.17166620  0.69032761  0.17023744  1
  O2-  O310  1  0.16809478  0.69451233  0.50411128  1
  O2-  O311  1  0.15918596  0.67523473  0.84242718  1
  O2-  O312  1  0.50035818  0.17505562  0.16917256  1
  O2-  O313  1  0.49915262  0.16724192  0.49634393  1
  O2-  O314  1  0.49760691  0.18572006  0.84094169  1
  O2-  O315  1  0.50213168  0.66725403  0.17030759  1
  O2-  O316  1  0.50760691  0.68046501  0.49351365  1
  O2-  O317  1  0.50196444  0.68733293  0.84564862  1
  O2-  O318  1  0.82372743  0.18304065  0.17371416  1
  O2-  O319  1  0.83551022  0.18349330  0.50161116  1
  O2-  O320  1  0.83257359  0.18591161  0.83515599  1
  O2-  O321  1  0.83772344  0.67972495  0.16989794  1
  O2-  O322  1  0.82980037  0.68289671  0.50977042  1
  O2-  O323  1  0.83508690  0.69559420  0.82652515  1
  O2-  O324  1  -0.00200024  0.32667074  0.16723291  1
  O2-  O325  1  -0.00308021  0.31884443  0.50434542  1
  O2-  O326  1  0.00357347  0.32340456  0.83621042  1
  O2-  O327  1  -0.00237271  0.82811585  0.15765535  1
  O2-  O328  1  -0.00301768  0.80376682  0.49776984  1
  O2-  O329  1  0.00699842  0.82726195  0.83776202  1
  O2-  O330  1  0.32547445  0.32570946  0.15825528  1
  O2-  O331  1  0.33728202  0.31204586  0.50625520  1
  O2-  O332  1  0.32770920  0.32009112  0.82535018  1
  O2-  O333  1  0.32936278  0.82147614  0.16388514  1
  O2-  O334  1  0.33732897  0.81483989  0.50379307  1
  O2-  O335  1  0.34127493  0.82209145  0.84244559  1
  O2-  O336  1  0.67014275  0.32043846  0.17147864  1
  O2-  O337  1  0.66546323  0.31739334  0.49659925  1
  O2-  O338  1  0.66281697  0.32775637  0.82813518  1
  O2-  O339  1  0.66266210  0.81914290  0.16436256  1
  O2-  O340  1  0.66983879  0.81357558  0.50140139  1
  O2-  O341  1  0.67303176  0.81386385  0.84098713  1
  O2-  O342  1  0.16257356  0.31315668  0.17304274  1
  O2-  O343  1  0.16201490  0.31375381  0.50670350  1
  O2-  O344  1  0.16591568  0.32554244  0.83571615  1
  O2-  O345  1  0.17015243  0.81329976  0.15896501  1
  O2-  O346  1  0.16791011  0.81339836  0.50018509  1
  O2-  O347  1  0.17295382  0.81941868  0.82975925  1
  O2-  O348  1  0.49909797  0.32145452  0.16798828  1
  O2-  O349  1  0.49728763  0.32982561  0.50601978  1
  O2-  O350  1  0.49642834  0.32114217  0.83664643  1
  O2-  O351  1  0.50149342  0.82757732  0.16328672  1
  O2-  O352  1  0.50388439  0.81072985  0.49756120  1
  O2-  O353  1  0.49532790  0.81703012  0.84133546  1
  O2-  O354  1  0.84065930  0.32488950  0.15830795  1
  O2-  O355  1  0.83430239  0.31326274  0.49593011  1
  O2-  O356  1  0.83590337  0.31891763  0.82784736  1
  O2-  O357  1  0.84383096  0.83188122  0.16313740  1
  O2-  O358  1  0.82977687  0.81282218  0.50337295  1
  O2-  O359  1  0.82901615  0.81733704  0.84083203  1
  O2-  O360  1  0.09608519  0.08431252  0.09308007  1
  O2-  O361  1  0.06706913  0.06841911  0.46022827  1
  O2-  O362  1  0.10316443  0.07728212  0.79120634  1
  O2-  O363  1  0.09945956  0.57972013  0.11970394  1
  O2-  O364  1  0.07921996  0.58117620  0.46310653  1
  O2-  O365  1  0.07945162  0.58191439  0.78024043  1
  O2-  O366  1  0.38921364  0.08521064  0.08915341  1
  O2-  O367  1  0.42593804  0.07742548  0.44198055  1
  O2-  O368  1  0.40475101  0.08221833  0.80315287  1
  O2-  O369  1  0.41110443  0.56085982  0.12702008  1
  O2-  O370  1  0.42938033  0.57207559  0.47123345  1
  O2-  O371  1  0.40551602  0.57965199  0.76662117  1
  O2-  O372  1  0.75349932  0.08025325  0.11783835  1
  O2-  O373  1  0.75954542  0.08175591  0.45756234  1
  O2-  O374  1  0.75579885  0.07834593  0.77972608  1
  O2-  O375  1  0.73105601  0.57365218  0.09803014  1
  O2-  O376  1  0.74197989  0.56730181  0.46019198  1
  O2-  O377  1  0.76432375  0.58721546  0.78298342  1
  O2-  O378  1  0.25302125  0.08033128  0.23266553  1
  O2-  O379  1  0.24516112  0.07503138  0.54961499  1
  O2-  O380  1  0.24871478  0.07974899  0.88337866  1
  O2-  O381  1  0.25061350  0.58357734  0.21450172  1
  O2-  O382  1  0.27149789  0.58182547  0.56181249  1
  O2-  O383  1  0.24443765  0.58392254  0.88381756  1
  O2-  O384  1  0.59645070  0.08412129  0.22971345  1
  O2-  O385  1  0.60039366  0.05043600  0.52254887  1
  O2-  O386  1  0.56596296  0.09003127  0.89609799  1
  O2-  O387  1  0.58130952  0.57393812  0.21101661  1
  O2-  O388  1  0.59382780  0.58286345  0.55718789  1
  O2-  O389  1  0.58291744  0.58596592  0.89411293  1
  O2-  O390  1  0.90621003  0.08337931  0.21464370  1
  O2-  O391  1  0.91613213  0.06851505  0.54620535  1
  O2-  O392  1  0.92658667  0.08333784  0.89691907  1
  O2-  O393  1  0.92280598  0.58276822  0.22603025  1
  O2-  O394  1  0.88959305  0.58240217  0.56266907  1
  O2-  O395  1  0.91306657  0.58021811  0.86777376  1
  O2-  O396  1  0.07915706  0.41884627  0.12020360  1
  O2-  O397  1  0.07502330  0.41689924  0.44085722  1
  O2-  O398  1  0.10167170  0.41868853  0.76834087  1
  O2-  O399  1  0.09546604  0.91857086  0.12539523  1
  O2-  O400  1  0.10248231  0.92072068  0.42754061  1
  O2-  O401  1  0.10558045  0.91842807  0.77357335  1
  O2-  O402  1  0.40879107  0.42289211  0.10862673  1
  O2-  O403  1  0.39966335  0.41852745  0.43949447  1
  O2-  O404  1  0.40246477  0.42035439  0.78218258  1
  O2-  O405  1  0.39998456  0.92219093  0.12411646  1
  O2-  O406  1  0.40239880  0.92267295  0.43399523  1
  O2-  O407  1  0.43349956  0.91704820  0.77374343  1
  O2-  O408  1  0.76672539  0.42345599  0.12325066  1
  O2-  O409  1  0.76020942  0.41392336  0.43851365  1
  O2-  O410  1  0.75371854  0.41695148  0.77566087  1
  O2-  O411  1  0.75171932  0.91683485  0.11162690  1
  O2-  O412  1  0.74760139  0.91712368  0.45187878  1
  O2-  O413  1  0.74176840  0.92138582  0.78455446  1
  O2-  O414  1  0.22715167  0.42022049  0.21740145  1
  O2-  O415  1  0.23721231  0.41897229  0.57471644  1
  O2-  O416  1  0.25118856  0.42014120  0.87607228  1
  O2-  O417  1  0.23133718  0.91440380  0.22751705  1
  O2-  O418  1  0.25012827  0.92571709  0.54989677  1
  O2-  O419  1  0.26739392  0.91661135  0.87260870  1
  O2-  O420  1  0.59707187  0.42000851  0.22497860  1
  O2-  O421  1  0.57392703  0.42173965  0.57987699  1
  O2-  O422  1  0.57944960  0.42131496  0.87407561  1
  O2-  O423  1  0.56973590  0.92141440  0.22347922  1
  O2-  O424  1  0.59713074  0.91273486  0.57107962  1
  O2-  O425  1  0.57478073  0.92107352  0.87726760  1
  O2-  O426  1  0.92425317  0.41903994  0.22326498  1
  O2-  O427  1  0.92716101  0.41968685  0.56586234  1
  O2-  O428  1  0.91916673  0.42275412  0.86639428  1
  O2-  O429  1  0.94064450  0.92379865  0.22260889  1
  O2-  O430  1  0.89927430  0.92385291  0.55691675  1
  O2-  O431  1  0.89769728  0.91925797  0.88396523  1
  O2-  O432  1  0.01701650  -0.00181193  -0.03279185  1
  O2-  O433  1  0.00707042  0.00153139  0.33520154  1
  O2-  O434  1  0.00251476  0.00747807  0.65462095  1
  O2-  O435  1  0.00149369  0.49882389  -0.00777601  1
  O2-  O436  1  0.01742585  0.49867994  0.30085324  1
  O2-  O437  1  0.00216145  0.50990629  0.65841176  1
  O2-  O438  1  0.35139247  -0.01384303  -0.01456643  1
  O2-  O439  1  0.33257947  -0.01688460  0.32657320  1
  O2-  O440  1  0.31893116  0.00892760  0.68007380  1
  O2-  O441  1  0.31677166  0.49918974  0.02531582  1
  O2-  O442  1  0.34404627  0.52297479  0.33371884  1
  O2-  O443  1  0.32524710  0.49467515  0.67695818  1
  O2-  O444  1  0.67665460  -0.02088714  -0.01411872  1
  O2-  O445  1  0.66932906  0.00388093  0.33006246  1
  O2-  O446  1  0.66764444  -0.00541097  0.68275350  1
  O2-  O447  1  0.68077246  0.50185802  -0.01953890  1
  O2-  O448  1  0.67251789  0.50619437  0.33125570  1
  O2-  O449  1  0.66739920  0.50438309  0.66123620  1
  O2-  O450  1  0.18587284  -0.01035778  0.01886046  1
  O2-  O451  1  0.16725043  -0.00928305  0.32990985  1
  O2-  O452  1  0.16814208  0.01110414  0.66226159  1
  O2-  O453  1  0.15307413  0.50360596  -0.03553234  1
  O2-  O454  1  0.16116676  0.51356198  0.31486518  1
  O2-  O455  1  0.16742195  0.50934675  0.66177214  1
  O2-  O456  1  0.50400688  0.00084065  -0.00310834  1
  O2-  O457  1  0.49906983  -0.00140073  0.33012314  1
  O2-  O458  1  0.49889631  0.00798682  0.67728835  1
  O2-  O459  1  0.48290629  0.51151572  -0.01422547  1
  O2-  O460  1  0.50564588  0.52444771  0.33855381  1
  O2-  O461  1  0.48622199  0.50863411  0.64934902  1
  O2-  O462  1  0.85243167  -0.01114216  0.01986380  1
  O2-  O463  1  0.83887318  0.01772308  0.34419320  1
  O2-  O464  1  0.81577875  0.00351997  0.63920240  1
  O2-  O465  1  0.84580798  0.49563412  0.02441317  1
  O2-  O466  1  0.86215877  0.50154655  0.38216933  1
  O2-  O467  1  0.84689691  0.49731083  0.67873263  1
  O2-  O468  1  0.76131167  0.24996343  0.05312514  1
  O2-  O469  1  0.73830866  0.24885880  0.72867716  1
  O2-  O470  1  0.57225230  0.74453416  0.25885419  1
  O2-  O471  1  0.57776208  0.25371718  0.26328576  1
  O2-  O472  1  0.58914098  0.25555458  0.94226991  1
  O2-  O473  1  0.41428582  0.75247683  0.73159891  1
  O2-  O474  1  0.08469376  0.24941255  0.73545963  1
  O2-  O475  1  0.06950331  0.74966261  0.05017305  1
  O2-  O476  1  0.07438717  0.25078239  0.05253825  1
  O2-  O477  1  0.42174017  0.75703649  0.06101978  1
  O2-  O478  1  0.43490051  0.25009329  0.40906138  1
  O2-  O479  1  0.07099365  0.25316398  0.39794547  1
  O2-  O480  1  0.91765850  0.24881192  0.27247584  1
  O2-  O481  1  0.41610511  0.25585054  0.07039980  1
  O2-  O482  1  0.58572114  0.74973903  0.60624780  1
  O2-  O483  1  0.24572184  0.75187740  0.94250554  1
  O2-  O484  1  0.58299183  0.25793666  0.60300514  1
  O2-  O485  1  0.92474829  0.75250310  0.95210749  1
  O2-  O486  1  0.75506827  0.24848350  0.39271802  1
  O2-  O487  1  0.07672958  0.75128486  0.73910030  1
  O2-  O488  1  0.24870350  0.25509079  0.93999352  1
  O2-  O489  1  0.91663230  0.25006519  0.94602532  1
  O2-  O490  1  0.93067298  0.75189937  0.25996892  1
  O2-  O491  1  0.41961301  0.24707749  0.71868021  1
  O2-  O492  1  0.76192888  0.75440606  0.07080197  1
