# generated using pymatgen
data_Ca108Mn108O277
_symmetry_space_group_name_H-M   'P 1'
_cell_length_a   16.02650881
_cell_length_b   22.30593050
_cell_length_c   16.38697775
_cell_angle_alpha   90.00293096
_cell_angle_beta   89.99623991
_cell_angle_gamma   89.99423744
_symmetry_Int_Tables_number   1
_chemical_formula_structural   Ca108Mn108O277
_chemical_formula_sum   'Ca108 Mn108 O277'
_cell_volume   5858.11821763
_cell_formula_units_Z   1
loop_
 _symmetry_equiv_pos_site_id
 _symmetry_equiv_pos_as_xyz
  1  'x, y, z'
loop_
 _atom_type_symbol
 _atom_type_oxidation_number
  Ca2+  2.0
  Mn3.34+  3.34
  O2-  -2.0
loop_
 _atom_site_type_symbol
 _atom_site_label
 _atom_site_symmetry_multiplicity
 _atom_site_fract_x
 _atom_site_fract_y
 _atom_site_fract_z
 _atom_site_occupancy
  Ca2+  Ca0  1  0.08868300  0.25336497  0.22793257  1
  Ca2+  Ca1  1  0.07379694  0.25069387  0.58332037  1
  Ca2+  Ca2  1  0.07814170  0.23082314  0.93667014  1
  Ca2+  Ca3  1  0.09647323  0.73408435  0.25904287  1
  Ca2+  Ca4  1  0.08001073  0.75392701  0.58130826  1
  Ca2+  Ca5  1  0.08086647  0.76139607  0.91421106  1
  Ca2+  Ca6  1  0.42943059  0.25338411  0.23751742  1
  Ca2+  Ca7  1  0.43623426  0.25092200  0.59291783  1
  Ca2+  Ca8  1  0.41518448  0.24605844  0.91367247  1
  Ca2+  Ca9  1  0.40661222  0.74334575  0.23860397  1
  Ca2+  Ca10  1  0.40559717  0.74453402  0.58143704  1
  Ca2+  Ca11  1  0.43164890  0.74674318  0.92473819  1
  Ca2+  Ca12  1  0.72435232  0.25123535  0.23914710  1
  Ca2+  Ca13  1  0.73217683  0.24822045  0.59212301  1
  Ca2+  Ca14  1  0.74704425  0.24813423  0.91805344  1
  Ca2+  Ca15  1  0.75167875  0.75710817  0.25516365  1
  Ca2+  Ca16  1  0.76470401  0.75537069  0.58586273  1
  Ca2+  Ca17  1  0.74490127  0.75813862  0.91378794  1
  Ca2+  Ca18  1  0.24654097  0.23734981  0.08386469  1
  Ca2+  Ca19  1  0.24795981  0.25036570  0.42029683  1
  Ca2+  Ca20  1  0.25991104  0.24653828  0.74913020  1
  Ca2+  Ca21  1  0.26302272  0.74814388  0.09119670  1
  Ca2+  Ca22  1  0.24837307  0.73906549  0.42018398  1
  Ca2+  Ca23  1  0.24332793  0.75384148  0.73448548  1
  Ca2+  Ca24  1  0.57860444  0.24940210  0.09180528  1
  Ca2+  Ca25  1  0.58107180  0.25253747  0.41580348  1
  Ca2+  Ca26  1  0.58480784  0.23831632  0.74124353  1
  Ca2+  Ca27  1  0.56473322  0.75159378  0.07652204  1
  Ca2+  Ca28  1  0.57137460  0.75958326  0.41892843  1
  Ca2+  Ca29  1  0.57883485  0.76337946  0.75516730  1
  Ca2+  Ca30  1  0.92233783  0.24208311  0.07279751  1
  Ca2+  Ca31  1  0.90932170  0.26104549  0.42459488  1
  Ca2+  Ca32  1  0.90355132  0.25134724  0.74967727  1
  Ca2+  Ca33  1  0.92941641  0.75325171  0.08288571  1
  Ca2+  Ca34  1  0.93005614  0.74843515  0.42362866  1
  Ca2+  Ca35  1  0.92498513  0.76112402  0.74128759  1
  Ca2+  Ca36  1  0.27719079  0.60389642  0.09514006  1
  Ca2+  Ca37  1  0.26671592  0.60394888  0.09441245  1
  Ca2+  Ca38  1  0.58606156  0.10277870  0.07942709  1
  Ca2+  Ca39  1  0.41378763  0.11169956  0.60211339  1
  Ca2+  Ca40  1  0.09237629  0.59337671  0.92310171  1
  Ca2+  Ca41  1  0.57596670  0.59469108  0.74710663  1
  Ca2+  Ca42  1  0.08898997  0.10094846  0.23477453  1
  Ca2+  Ca43  1  0.92894164  0.08231178  0.41965906  1
  Ca2+  Ca44  1  0.58054806  0.59975141  0.42782642  1
  Ca2+  Ca45  1  0.08329900  0.59498989  0.57091215  1
  Ca2+  Ca46  1  0.40295153  0.11041126  0.60020709  1
  Ca2+  Ca47  1  0.40173499  0.11377685  0.90402777  1
  Ca2+  Ca48  1  0.42191047  0.57653427  0.94466315  1
  Ca2+  Ca49  1  0.90846000  0.06971953  0.76169670  1
  Ca2+  Ca50  1  0.76485096  0.08189003  0.93180573  1
  Ca2+  Ca51  1  0.72446669  0.10040057  0.22974000  1
  Ca2+  Ca52  1  0.75949485  0.58387476  0.25099315  1
  Ca2+  Ca53  1  0.94100176  0.08446928  0.42260410  1
  Ca2+  Ca54  1  0.27338521  0.11050805  0.75949825  1
  Ca2+  Ca55  1  0.26292818  0.10944367  0.76000608  1
  Ca2+  Ca56  1  0.53883250  0.57607067  0.07871852  1
  Ca2+  Ca57  1  0.44317036  0.10457956  0.23305040  1
  Ca2+  Ca58  1  0.43068570  0.10456770  0.23444610  1
  Ca2+  Ca59  1  0.39424948  0.60693949  0.24383546  1
  Ca2+  Ca60  1  0.91816045  0.08247845  0.05843481  1
  Ca2+  Ca61  1  0.41232497  0.60007784  0.57809552  1
  Ca2+  Ca62  1  0.71001193  0.56665957  0.93968690  1
  Ca2+  Ca63  1  0.93625106  0.59104216  0.42048748  1
  Ca2+  Ca64  1  0.89862370  0.07161149  0.75919360  1
  Ca2+  Ca65  1  0.92553499  0.57610113  0.70974900  1
  Ca2+  Ca66  1  0.10014716  0.10172950  0.23299853  1
  Ca2+  Ca67  1  0.11538158  0.09028744  0.58939925  1
  Ca2+  Ca68  1  0.72206018  0.56817726  0.94287962  1
  Ca2+  Ca69  1  0.56315169  0.10748346  0.74188709  1
  Ca2+  Ca70  1  0.74387198  0.09087072  0.60835735  1
  Ca2+  Ca71  1  0.08003066  0.59182680  0.92477285  1
  Ca2+  Ca72  1  0.89177197  0.91781720  0.06391161  1
  Ca2+  Ca73  1  0.40587176  0.89626145  0.58512983  1
  Ca2+  Ca74  1  0.59475928  0.40282438  0.75324914  1
  Ca2+  Ca75  1  0.76163236  0.91877774  0.62109583  1
  Ca2+  Ca76  1  0.91562856  0.89404108  0.42280316  1
  Ca2+  Ca77  1  0.24656545  0.90374930  0.07624380  1
  Ca2+  Ca78  1  0.41694129  0.89593219  0.58638988  1
  Ca2+  Ca79  1  0.07901715  0.40894394  0.26385383  1
  Ca2+  Ca80  1  0.41959724  0.89123506  0.24805955  1
  Ca2+  Ca81  1  0.25942211  0.90373405  0.07657859  1
  Ca2+  Ca82  1  0.41365355  0.90051851  0.91286653  1
  Ca2+  Ca83  1  0.76419825  0.40456495  0.58640259  1
  Ca2+  Ca84  1  0.10661055  0.41005109  0.91637145  1
  Ca2+  Ca85  1  0.58561227  0.40694888  0.75727621  1
  Ca2+  Ca86  1  0.06771014  0.40862164  0.26391974  1
  Ca2+  Ca87  1  0.23221152  0.91504895  0.74546465  1
  Ca2+  Ca88  1  0.26629571  0.42311735  0.06544340  1
  Ca2+  Ca89  1  0.57873753  0.40636238  0.41707525  1
  Ca2+  Ca90  1  0.06770536  0.89967152  0.25378001  1
  Ca2+  Ca91  1  0.73219762  0.41710637  0.93305737  1
  Ca2+  Ca92  1  0.58849291  0.42660512  0.06420790  1
  Ca2+  Ca93  1  0.42814698  0.41014175  0.23776321  1
  Ca2+  Ca94  1  0.90334579  0.40838278  0.08327615  1
  Ca2+  Ca95  1  0.41875907  0.41331304  0.24106799  1
  Ca2+  Ca96  1  0.40925487  0.40128413  0.58091440  1
  Ca2+  Ca97  1  0.42233383  0.43016201  0.95034396  1
  Ca2+  Ca98  1  0.25137422  0.40700653  0.74213651  1
  Ca2+  Ca99  1  0.90075946  0.91597759  0.05941972  1
  Ca2+  Ca100  1  0.92153909  0.41405428  0.72998709  1
  Ca2+  Ca101  1  0.23862264  0.40679104  0.74233705  1
  Ca2+  Ca102  1  0.08020938  0.90023505  0.25524590  1
  Ca2+  Ca103  1  0.09478522  0.40663552  0.91774529  1
  Ca2+  Ca104  1  0.07123665  0.41949164  0.58183139  1
  Ca2+  Ca105  1  0.92750050  0.41480860  0.42334955  1
  Ca2+  Ca106  1  0.89181993  0.41178715  0.08626520  1
  Ca2+  Ca107  1  0.75406589  0.91633910  0.90324895  1
  Mn3.34+  Mn108  1  0.08473778  0.33589444  0.08713641  1
  Mn3.34+  Mn109  1  0.08637588  0.33764421  0.42452781  1
  Mn3.34+  Mn110  1  0.08131112  0.33067244  0.74996025  1
  Mn3.34+  Mn111  1  0.08124302  0.83088588  0.08214004  1
  Mn3.34+  Mn112  1  0.08576953  0.83066231  0.42155481  1
  Mn3.34+  Mn113  1  0.07946709  0.84119626  0.74939383  1
  Mn3.34+  Mn114  1  0.41739345  0.33537999  0.08081508  1
  Mn3.34+  Mn115  1  0.41206133  0.33749520  0.41715382  1
  Mn3.34+  Mn116  1  0.41704690  0.32785194  0.75388400  1
  Mn3.34+  Mn117  1  0.42174781  0.83094133  0.08259175  1
  Mn3.34+  Mn118  1  0.41606728  0.82837900  0.41544373  1
  Mn3.34+  Mn119  1  0.41523139  0.83084835  0.75576700  1
  Mn3.34+  Mn120  1  0.74365399  0.33356225  0.08371299  1
  Mn3.34+  Mn121  1  0.74986326  0.33495012  0.41515768  1
  Mn3.34+  Mn122  1  0.75327960  0.33137479  0.75367811  1
  Mn3.34+  Mn123  1  0.74213634  0.83538646  0.08848850  1
  Mn3.34+  Mn124  1  0.74708306  0.82911112  0.42136924  1
  Mn3.34+  Mn125  1  0.75148498  0.83803063  0.75274004  1
  Mn3.34+  Mn126  1  0.25238216  0.33555607  0.25013981  1
  Mn3.34+  Mn127  1  0.24915930  0.32943234  0.57570384  1
  Mn3.34+  Mn128  1  0.25628517  0.32998692  0.91499507  1
  Mn3.34+  Mn129  1  0.25005652  0.82625220  0.25187516  1
  Mn3.34+  Mn130  1  0.24080436  0.83355114  0.57986254  1
  Mn3.34+  Mn131  1  0.24668048  0.83439380  0.90771345  1
  Mn3.34+  Mn132  1  0.58670223  0.33590709  0.24861057  1
  Mn3.34+  Mn133  1  0.58506147  0.33388255  0.57909042  1
  Mn3.34+  Mn134  1  0.57980030  0.33231464  0.91832124  1
  Mn3.34+  Mn135  1  0.58589795  0.82798079  0.25156528  1
  Mn3.34+  Mn136  1  0.58926804  0.83099390  0.58340354  1
  Mn3.34+  Mn137  1  0.58542510  0.83277635  0.91801406  1
  Mn3.34+  Mn138  1  0.90532062  0.33517634  0.25378724  1
  Mn3.34+  Mn139  1  0.91709228  0.33360394  0.58215188  1
  Mn3.34+  Mn140  1  0.91583305  0.33212307  0.91279806  1
  Mn3.34+  Mn141  1  0.90769851  0.83009071  0.24650266  1
  Mn3.34+  Mn142  1  0.91973003  0.83606386  0.58659975  1
  Mn3.34+  Mn143  1  0.91742397  0.84082821  0.90783489  1
  Mn3.34+  Mn144  1  0.25952222  0.66582542  0.90297360  1
  Mn3.34+  Mn145  1  0.09046773  0.16588305  0.42473897  1
  Mn3.34+  Mn146  1  0.24585601  0.66337154  0.58402830  1
  Mn3.34+  Mn147  1  0.08228882  0.67053401  0.09117438  1
  Mn3.34+  Mn148  1  0.92055165  0.66670687  0.25126888  1
  Mn3.34+  Mn149  1  0.25340078  0.17317086  0.25021684  1
  Mn3.34+  Mn150  1  0.75266550  0.67400518  0.42100030  1
  Mn3.34+  Mn151  1  0.41023733  0.16635148  0.41835051  1
  Mn3.34+  Mn152  1  0.91680785  0.16467163  0.58475659  1
  Mn3.34+  Mn153  1  0.91827316  0.66420283  0.57682025  1
  Mn3.34+  Mn154  1  0.40984539  0.66588105  0.41634874  1
  Mn3.34+  Mn155  1  0.41347672  0.17007011  0.07502162  1
  Mn3.34+  Mn156  1  0.41856599  0.67097480  0.74585080  1
  Mn3.34+  Mn157  1  0.91509152  0.16400739  0.91858879  1
  Mn3.34+  Mn158  1  0.74736123  0.16563248  0.41855061  1
  Mn3.34+  Mn159  1  0.07551588  0.16556061  0.75492890  1
  Mn3.34+  Mn160  1  0.42019849  0.17141197  0.41673746  1
  Mn3.34+  Mn161  1  0.58012400  0.65986069  0.24547083  1
  Mn3.34+  Mn162  1  0.58219041  0.17075359  0.91312669  1
  Mn3.34+  Mn163  1  0.75591419  0.66355216  0.08645274  1
  Mn3.34+  Mn164  1  0.90511686  0.16407455  0.24650317  1
  Mn3.34+  Mn165  1  0.91607872  0.16887488  0.24755775  1
  Mn3.34+  Mn166  1  0.57891964  0.66520360  0.91146615  1
  Mn3.34+  Mn167  1  0.08474084  0.16014661  0.75742349  1
  Mn3.34+  Mn168  1  0.58633648  0.66779910  0.57977083  1
  Mn3.34+  Mn169  1  0.25113020  0.67231054  0.90461050  1
  Mn3.34+  Mn170  1  0.09144166  0.66168874  0.41422478  1
  Mn3.34+  Mn171  1  0.74845084  0.66759487  0.74930056  1
  Mn3.34+  Mn172  1  0.73602823  0.16230919  0.41955588  1
  Mn3.34+  Mn173  1  0.58923947  0.66594376  0.24630355  1
  Mn3.34+  Mn174  1  0.76046667  0.66214187  0.75140371  1
  Mn3.34+  Mn175  1  0.74503248  0.16675964  0.07809595  1
  Mn3.34+  Mn176  1  0.92050542  0.67289629  0.91434519  1
  Mn3.34+  Mn177  1  0.08075939  0.67009497  0.74502192  1
  Mn3.34+  Mn178  1  0.74998273  0.16339037  0.75902645  1
  Mn3.34+  Mn179  1  0.76590358  0.66870419  0.08471651  1
  Mn3.34+  Mn180  1  0.75201841  0.49885976  0.74252203  1
  Mn3.34+  Mn181  1  0.58160728  0.00481300  0.58396900  1
  Mn3.34+  Mn182  1  0.24979160  0.49915982  0.57302035  1
  Mn3.34+  Mn183  1  0.08958385  0.50310346  0.08484780  1
  Mn3.34+  Mn184  1  0.92105772  0.49902346  0.90464179  1
  Mn3.34+  Mn185  1  0.41829931  -0.00381892  0.75062303  1
  Mn3.34+  Mn186  1  0.24935124  -0.00131743  0.92343534  1
  Mn3.34+  Mn187  1  0.41464458  0.00213858  0.41827022  1
  Mn3.34+  Mn188  1  0.09197450  0.50737244  0.74069385  1
  Mn3.34+  Mn189  1  0.74248595  -0.00713211  0.41717398  1
  Mn3.34+  Mn190  1  0.58970483  0.49840440  0.25390569  1
  Mn3.34+  Mn191  1  0.72925088  -0.00099550  0.41822654  1
  Mn3.34+  Mn192  1  0.91065434  0.50388368  0.90552559  1
  Mn3.34+  Mn193  1  0.25096551  -0.00002706  0.59281780  1
  Mn3.34+  Mn194  1  0.59587096  -0.01130630  0.24018326  1
  Mn3.34+  Mn195  1  0.75570970  0.50163478  0.42849066  1
  Mn3.34+  Mn196  1  0.24569739  0.50163150  0.27483433  1
  Mn3.34+  Mn197  1  0.41903444  0.50099620  0.41583982  1
  Mn3.34+  Mn198  1  0.26214216  0.00010774  0.24062759  1
  Mn3.34+  Mn199  1  0.25123193  0.00451986  0.24262445  1
  Mn3.34+  Mn200  1  0.09464596  -0.00361246  0.41761626  1
  Mn3.34+  Mn201  1  0.08440885  -0.00336069  0.06210665  1
  Mn3.34+  Mn202  1  0.58564538  0.49964761  0.58954639  1
  Mn3.34+  Mn203  1  0.90290449  -0.00139703  0.25376587  1
  Mn3.34+  Mn204  1  0.58891462  0.00317006  0.91329379  1
  Mn3.34+  Mn205  1  0.92746715  -0.00406037  0.60164061  1
  Mn3.34+  Mn206  1  0.41555750  -0.00128273  0.07828800  1
  Mn3.34+  Mn207  1  0.58106817  -0.00103321  0.56983993  1
  Mn3.34+  Mn208  1  0.41283722  0.50546733  0.75936081  1
  Mn3.34+  Mn209  1  0.57902795  -0.00165929  0.91605377  1
  Mn3.34+  Mn210  1  0.42801233  -0.00402979  0.41715775  1
  Mn3.34+  Mn211  1  0.40149200  0.50231497  0.75690693  1
  Mn3.34+  Mn212  1  0.92208487  0.50674659  0.25952237  1
  Mn3.34+  Mn213  1  0.58440407  -0.00449477  0.23667804  1
  Mn3.34+  Mn214  1  0.23628136  0.50708545  0.27369260  1
  Mn3.34+  Mn215  1  0.74520967  0.50621536  0.42716550  1
  O2-  O216  1  -0.00839686  0.16030526  -0.00165459  1
  O2-  O217  1  0.00175597  0.14716713  0.33454839  1
  O2-  O218  1  0.01037946  0.14637906  0.66284076  1
  O2-  O219  1  0.00617663  0.65780749  -0.00457914  1
  O2-  O220  1  -0.00454575  0.66667067  0.33758534  1
  O2-  O221  1  0.00026483  0.65344623  0.66562085  1
  O2-  O222  1  0.33262479  0.17500136  -0.00113546  1
  O2-  O223  1  0.33750131  0.14765873  0.33131879  1
  O2-  O224  1  0.32549252  0.17191823  0.66520140  1
  O2-  O225  1  0.33673983  0.65990610  -0.01070788  1
  O2-  O226  1  0.33768660  0.67235580  0.33489265  1
  O2-  O227  1  0.33688016  0.65905580  0.66326448  1
  O2-  O228  1  0.66875539  0.15098675  -0.00809620  1
  O2-  O229  1  0.67017868  0.15912708  0.32930501  1
  O2-  O230  1  0.67092669  0.15677524  0.67929830  1
  O2-  O231  1  0.67690691  0.65651082  -0.00405342  1
  O2-  O232  1  0.66902769  0.65753952  0.32919073  1
  O2-  O233  1  0.66421703  0.66177529  0.66935987  1
  O2-  O234  1  0.17954500  0.18069785  -0.00365497  1
  O2-  O235  1  0.16193001  0.16547082  0.32928865  1
  O2-  O236  1  0.16953590  0.16036275  0.67723686  1
  O2-  O237  1  0.17451099  0.67116083  -0.00647494  1
  O2-  O238  1  0.16952761  0.67158854  0.34099533  1
  O2-  O239  1  0.16297878  0.65366884  0.66556959  1
  O2-  O240  1  0.49790778  0.15415220  -0.00478586  1
  O2-  O241  1  0.49659848  0.15299938  0.33557553  1
  O2-  O242  1  0.48994498  0.17098821  0.66875986  1
  O2-  O243  1  0.50578619  0.65371962  -0.00889889  1
  O2-  O244  1  0.50035978  0.64654803  0.33392950  1
  O2-  O245  1  0.50029867  0.65783503  0.66467193  1
  O2-  O246  1  0.83232400  0.16062705  -0.00249809  1
  O2-  O247  1  0.83260683  0.13923035  0.34153160  1
  O2-  O248  1  0.84266333  0.14677892  0.67693072  1
  O2-  O249  1  0.83973111  0.69095587  -0.00163896  1
  O2-  O250  1  0.83018534  0.67732823  0.33025589  1
  O2-  O251  1  0.83494635  0.65282593  0.66545862  1
  O2-  O252  1  0.00023806  0.35985163  0.00397551  1
  O2-  O253  1  0.00132621  0.34027415  0.33888363  1
  O2-  O254  1  0.00468768  0.34797216  0.66267320  1
  O2-  O255  1  -0.00941881  0.84456503  0.00767274  1
  O2-  O256  1  -0.00808591  0.83391879  0.32763105  1
  O2-  O257  1  0.00072076  0.83992163  0.66638806  1
  O2-  O258  1  0.33672256  0.34315911  -0.00352149  1
  O2-  O259  1  0.33715884  0.35678907  0.32681893  1
  O2-  O260  1  0.33133876  0.32775922  0.66892374  1
  O2-  O261  1  0.33004200  0.84034830  -0.00110511  1
  O2-  O262  1  0.33589039  0.82736869  0.32846899  1
  O2-  O263  1  0.33052945  0.84313012  0.67140072  1
  O2-  O264  1  0.66353784  0.34775220  -0.00163217  1
  O2-  O265  1  0.66149917  0.34427926  0.33830756  1
  O2-  O266  1  0.66964639  0.35080699  0.66600963  1
  O2-  O267  1  0.67153952  0.82869335  -0.00047166  1
  O2-  O268  1  0.66897619  0.81571282  0.33660521  1
  O2-  O269  1  0.66942290  0.82932533  0.66502326  1
  O2-  O270  1  0.16948825  0.34658241  0.00065070  1
  O2-  O271  1  0.15967111  0.33726382  0.33127250  1
  O2-  O272  1  0.16918486  0.33870160  0.66691062  1
  O2-  O273  1  0.17026151  0.83766282  0.00157902  1
  O2-  O274  1  0.15807070  0.83110108  0.32258972  1
  O2-  O275  1  0.16982447  0.84065533  0.66981531  1
  O2-  O276  1  0.50121787  0.35049598  0.00162424  1
  O2-  O277  1  0.49817448  0.35375788  0.32920389  1
  O2-  O278  1  0.49874276  0.35075535  0.66963842  1
  O2-  O279  1  0.49812703  0.84389119  -0.00246743  1
  O2-  O280  1  0.50115609  0.84420240  0.33803329  1
  O2-  O281  1  0.49745233  0.83961136  0.66669136  1
  O2-  O282  1  0.83439359  0.34575599  -0.00222365  1
  O2-  O283  1  0.84022616  0.35207953  0.34603410  1
  O2-  O284  1  0.83697339  0.34554061  0.67113229  1
  O2-  O285  1  0.83453524  0.82192501  0.00174523  1
  O2-  O286  1  0.83566664  0.81759175  0.33791435  1
  O2-  O287  1  0.83264813  0.83817765  0.66434521  1
  O2-  O288  1  0.00815198  0.17615677  0.17586126  1
  O2-  O289  1  -0.00972367  0.17997596  0.48914529  1
  O2-  O290  1  -0.00909685  0.17448534  0.82898644  1
  O2-  O291  1  0.00184625  0.68710533  0.17174491  1
  O2-  O292  1  0.00170658  0.67755719  0.50251011  1
  O2-  O293  1  0.00659374  0.68618165  0.83961769  1
  O2-  O294  1  0.34296193  0.17724508  0.17370312  1
  O2-  O295  1  0.33780749  0.18330228  0.50252646  1
  O2-  O296  1  0.33055039  0.18188644  0.82841689  1
  O2-  O297  1  0.32787457  0.67964196  0.16416394  1
  O2-  O298  1  0.33369960  0.67700389  0.50247905  1
  O2-  O299  1  0.33998642  0.68876120  0.82913052  1
  O2-  O300  1  0.66513902  0.17698921  0.15525259  1
  O2-  O301  1  0.66648249  0.18237494  0.50198814  1
  O2-  O302  1  0.66794655  0.18232345  0.83633949  1
  O2-  O303  1  0.66973034  0.69084947  0.16219547  1
  O2-  O304  1  0.66139651  0.68970439  0.49289152  1
  O2-  O305  1  0.67176376  0.67791128  0.83438349  1
  O2-  O306  1  0.17065827  0.17945113  0.17533605  1
  O2-  O307  1  0.15805198  0.19216018  0.50297041  1
  O2-  O308  1  0.16545337  0.18276468  0.83173256  1
  O2-  O309  1  0.17050383  0.68217270  0.15550625  1
  O2-  O310  1  0.16168457  0.67736288  0.50686500  1
  O2-  O311  1  0.16474186  0.68333634  0.83113826  1
  O2-  O312  1  0.49719801  0.17345916  0.16015433  1
  O2-  O313  1  0.49373415  0.18172976  0.50147715  1
  O2-  O314  1  0.50367280  0.18338937  0.83679828  1
  O2-  O315  1  0.50193349  0.66790545  0.16472779  1
  O2-  O316  1  0.50003505  0.68047992  0.50406827  1
  O2-  O317  1  0.50686150  0.68308384  0.82430786  1
  O2-  O318  1  0.82719187  0.18512534  0.16361899  1
  O2-  O319  1  0.83087379  0.17399192  0.49614066  1
  O2-  O320  1  0.83562871  0.18274459  0.83381483  1
  O2-  O321  1  0.83665874  0.69154081  0.17116275  1
  O2-  O322  1  0.83718151  0.68691016  0.49683784  1
  O2-  O323  1  0.83704687  0.68571974  0.83463726  1
  O2-  O324  1  -0.00246584  0.32860278  0.17110396  1
  O2-  O325  1  0.00021447  0.31560489  0.49926209  1
  O2-  O326  1  0.00908214  0.33355438  0.84146621  1
  O2-  O327  1  0.00624009  0.81926380  0.17392684  1
  O2-  O328  1  -0.00197857  0.82809979  0.49752903  1
  O2-  O329  1  -0.00118773  0.81814457  0.83496009  1
  O2-  O330  1  0.33641523  0.32753070  0.16841663  1
  O2-  O331  1  0.33720559  0.31164219  0.50426028  1
  O2-  O332  1  0.33484869  0.30817130  0.83234419  1
  O2-  O333  1  0.32956634  0.82094596  0.16454209  1
  O2-  O334  1  0.33948770  0.82288754  0.50912517  1
  O2-  O335  1  0.33551807  0.81179426  0.83848624  1
  O2-  O336  1  0.66085712  0.32214459  0.16137557  1
  O2-  O337  1  0.66777550  0.32003659  0.49903416  1
  O2-  O338  1  0.66308127  0.32405336  0.82890397  1
  O2-  O339  1  0.66424428  0.80811818  0.16301124  1
  O2-  O340  1  0.66800960  0.80780599  0.50309795  1
  O2-  O341  1  0.66841556  0.82178996  0.83554157  1
  O2-  O342  1  0.16365149  0.32819086  0.17222585  1
  O2-  O343  1  0.16403987  0.31136485  0.50070156  1
  O2-  O344  1  0.17093236  0.31801633  0.83092890  1
  O2-  O345  1  0.16880540  0.82139174  0.16435025  1
  O2-  O346  1  0.16927540  0.81918981  0.49573775  1
  O2-  O347  1  0.16889277  0.81170613  0.83055149  1
  O2-  O348  1  0.49344446  0.32849819  0.17208382  1
  O2-  O349  1  0.50085137  0.32233620  0.49757844  1
  O2-  O350  1  0.50644706  0.31721053  0.82532641  1
  O2-  O351  1  0.49329652  0.82031096  0.17156666  1
  O2-  O352  1  0.49416193  0.82124162  0.51184655  1
  O2-  O353  1  0.49542073  0.82139618  0.83896801  1
  O2-  O354  1  0.83550752  0.32260713  0.15866559  1
  O2-  O355  1  0.82857095  0.32155250  0.50737433  1
  O2-  O356  1  0.83427952  0.31912525  0.83298092  1
  O2-  O357  1  0.83297006  0.81217993  0.16146308  1
  O2-  O358  1  0.83706306  0.81844242  0.49696499  1
  O2-  O359  1  0.83269991  0.81932625  0.83693635  1
  O2-  O360  1  0.07521417  0.06762641  0.11413679  1
  O2-  O361  1  0.07400088  0.07713206  0.46053088  1
  O2-  O362  1  0.08839784  0.08223198  0.78354581  1
  O2-  O363  1  0.11744259  0.58537875  0.07482591  1
  O2-  O364  1  0.07408523  0.58372994  0.43572188  1
  O2-  O365  1  0.06870579  0.58164463  0.78803177  1
  O2-  O366  1  0.41850052  0.08188110  0.10385997  1
  O2-  O367  1  0.41802197  0.07995183  0.46144863  1
  O2-  O368  1  0.40748606  0.07840426  0.76433392  1
  O2-  O369  1  0.39677414  0.57204293  0.11616250  1
  O2-  O370  1  0.42551705  0.58201689  0.44361042  1
  O2-  O371  1  0.42376551  0.58702544  0.78522017  1
  O2-  O372  1  0.74780095  0.08509549  0.10035176  1
  O2-  O373  1  0.74657164  0.07588630  0.46744412  1
  O2-  O374  1  0.76268593  0.08139912  0.78524775  1
  O2-  O375  1  0.74914044  0.58080147  0.10633759  1
  O2-  O376  1  0.74601193  0.58810609  0.44220349  1
  O2-  O377  1  0.74961064  0.57857604  0.78897287  1
  O2-  O378  1  0.24644204  0.08717107  0.22537924  1
  O2-  O379  1  0.26438757  0.07412815  0.55723420  1
  O2-  O380  1  0.27073823  0.07111628  0.88287445  1
  O2-  O381  1  0.25303328  0.57993343  0.22415134  1
  O2-  O382  1  0.24902198  0.58060584  0.55800040  1
  O2-  O383  1  0.22392455  0.58286845  0.89754563  1
  O2-  O384  1  0.57696255  0.07611212  0.21100978  1
  O2-  O385  1  0.56754534  0.08380649  0.57058805  1
  O2-  O386  1  0.57529118  0.08284448  0.87896205  1
  O2-  O387  1  0.60441041  0.57949814  0.21077292  1
  O2-  O388  1  0.57401207  0.57888003  0.56066459  1
  O2-  O389  1  0.59034652  0.58243872  0.88366161  1
  O2-  O390  1  0.91106256  0.08218119  0.21117571  1
  O2-  O391  1  0.91248513  0.07357052  0.55136997  1
  O2-  O392  1  0.90688094  0.08139796  0.89577042  1
  O2-  O393  1  0.89898306  0.58193194  0.22724948  1
  O2-  O394  1  0.92805811  0.58286880  0.55941103  1
  O2-  O395  1  0.92507637  0.58543809  0.88676592  1
  O2-  O396  1  0.07717176  0.42509148  0.12578505  1
  O2-  O397  1  0.07543478  0.41472562  0.44483736  1
  O2-  O398  1  0.10149405  0.42514345  0.78143607  1
  O2-  O399  1  0.09465300  0.91838472  0.11686806  1
  O2-  O400  1  0.06821460  0.91417066  0.40067642  1
  O2-  O401  1  0.09569694  0.91522021  0.77502559  1
  O2-  O402  1  0.41053283  0.41765026  0.10362697  1
  O2-  O403  1  0.42242211  0.42093018  0.45073643  1
  O2-  O404  1  0.38850972  0.41861982  0.78256478  1
  O2-  O405  1  0.39475629  0.91886721  0.11557247  1
  O2-  O406  1  0.41508046  0.91542771  0.44498479  1
  O2-  O407  1  0.40565440  0.91544565  0.77374013  1
  O2-  O408  1  0.75859661  0.41676582  0.09513893  1
  O2-  O409  1  0.74537602  0.41988913  0.45138154  1
  O2-  O410  1  0.74022735  0.42009422  0.78317014  1
  O2-  O411  1  0.76375906  0.91375971  0.09972379  1
  O2-  O412  1  0.75030521  0.91564394  0.45027739  1
  O2-  O413  1  0.75073015  0.91674339  0.76469577  1
  O2-  O414  1  0.24915286  0.42633326  0.21567612  1
  O2-  O415  1  0.25823905  0.41656902  0.56428050  1
  O2-  O416  1  0.23863927  0.41890292  0.87530991  1
  O2-  O417  1  0.24977599  0.91762595  0.21731308  1
  O2-  O418  1  0.26613025  0.91990574  0.56461931  1
  O2-  O419  1  0.25774199  0.92128445  0.88468909  1
  O2-  O420  1  0.56746488  0.42231438  0.20856543  1
  O2-  O421  1  0.58568419  0.42030341  0.55497968  1
  O2-  O422  1  0.57534405  0.41550160  0.88560484  1
  O2-  O423  1  0.58114110  0.90936972  0.22676921  1
  O2-  O424  1  0.57597967  0.91840400  0.56165311  1
  O2-  O425  1  0.58445059  0.91667305  0.89427374  1
  O2-  O426  1  0.92703639  0.42809223  0.21469973  1
  O2-  O427  1  0.91830572  0.41521081  0.56037916  1
  O2-  O428  1  0.91105292  0.41748804  0.88353252  1
  O2-  O429  1  0.93685373  0.92071782  0.20990210  1
  O2-  O430  1  0.90239950  0.92259689  0.55575659  1
  O2-  O431  1  0.89412308  0.91873183  0.92006310  1
  O2-  O432  1  -0.02042764  -0.00662011  0.03212135  1
  O2-  O433  1  -0.00390322  0.01765623  0.33596140  1
  O2-  O434  1  -0.00125003  0.02223831  0.67375878  1
  O2-  O435  1  -0.00582764  0.49715458  0.00030291  1
  O2-  O436  1  -0.00837355  0.48065060  0.33483265  1
  O2-  O437  1  0.00822918  0.49489247  0.67663949  1
  O2-  O438  1  0.33927107  -0.01868020  -0.00630009  1
  O2-  O439  1  0.33655437  -0.00296102  0.33073717  1
  O2-  O440  1  0.35384900  -0.00171001  0.64681590  1
  O2-  O441  1  0.33037836  0.50580666  -0.00063962  1
  O2-  O442  1  0.35466677  0.49739309  0.31230155  1
  O2-  O443  1  0.33246636  0.49357826  0.66303541  1
  O2-  O444  1  0.69169056  -0.00014630  -0.03925302  1
  O2-  O445  1  0.67782080  0.01757831  0.31696748  1
  O2-  O446  1  0.68046268  0.00330777  0.63843939  1
  O2-  O447  1  0.65626947  0.49686040  -0.00216460  1
  O2-  O448  1  0.66798993  0.50649853  0.33995303  1
  O2-  O449  1  0.64698935  0.49579599  0.69633775  1
  O2-  O450  1  0.19003106  -0.01365011  0.02320868  1
  O2-  O451  1  0.15197251  0.00578536  0.30587233  1
  O2-  O452  1  0.18919108  0.01671441  0.67939465  1
  O2-  O453  1  0.15379385  0.48136433  -0.00587867  1
  O2-  O454  1  0.13859511  0.48604889  0.32028520  1
  O2-  O455  1  0.16829101  0.48446658  0.66049750  1
  O2-  O456  1  0.50253592  0.00406476  -0.00160465  1
  O2-  O457  1  0.49687042  0.00818431  0.32142993  1
  O2-  O458  1  0.50844820  0.00147281  0.67243674  1
  O2-  O459  1  0.49807998  0.50305550  -0.00125489  1
  O2-  O460  1  0.50568444  0.48825810  0.33385039  1
  O2-  O461  1  0.49759359  0.49204383  0.67718433  1
  O2-  O462  1  0.83563742  0.00368231  0.01937889  1
  O2-  O463  1  0.84291115  0.01076050  0.36149896  1
  O2-  O464  1  0.83753672  0.01048962  0.66470059  1
  O2-  O465  1  0.81864505  0.49977844  -0.02267078  1
  O2-  O466  1  0.83787600  0.50580159  0.34289152  1
  O2-  O467  1  0.84712663  0.49355448  0.68896283  1
  O2-  O468  1  0.76039704  0.24982559  0.38727427  1
  O2-  O469  1  0.91586127  0.24812547  0.60893129  1
  O2-  O470  1  0.42178284  0.75101581  0.72146396  1
  O2-  O471  1  0.42761429  0.25290410  0.06580651  1
  O2-  O472  1  0.75634402  0.75019421  0.73288652  1
  O2-  O473  1  0.92629510  0.25211444  0.93482733  1
  O2-  O474  1  0.58230203  0.74851490  0.93528128  1
  O2-  O475  1  0.56220988  0.74523769  0.27238261  1
  O2-  O476  1  0.41797609  0.25418834  0.38124740  1
  O2-  O477  1  0.42789816  0.74826127  0.40033967  1
  O2-  O478  1  0.07501323  0.75110115  0.05597394  1
  O2-  O479  1  0.58734623  0.25072263  0.94793659  1
  O2-  O480  1  0.07822864  0.75038373  0.40663110  1
  O2-  O481  1  0.57960249  0.25752016  0.26884871  1
  O2-  O482  1  0.92088452  0.75061048  0.60326474  1
  O2-  O483  1  0.24975971  0.74953221  0.59878566  1
  O2-  O484  1  0.26293988  0.25261502  0.27553521  1
  O2-  O485  1  0.07954004  0.25735651  0.07112227  1
  O2-  O486  1  0.58426249  0.25774575  0.60577728  1
  O2-  O487  1  0.91359912  0.24810887  0.28303076  1
  O2-  O488  1  0.08155815  0.74976079  0.72281599  1
  O2-  O489  1  0.74767419  0.25156697  0.05690064  1
  O2-  O490  1  0.41953655  0.75337415  0.06384914  1
  O2-  O491  1  0.06499334  0.24464018  0.72658694  1
  O2-  O492  1  0.75193238  0.24985751  0.72803673  1
