# generated using pymatgen
data_Ca108Mn108O277
_symmetry_space_group_name_H-M   'P 1'
_cell_length_a   16.03160738
_cell_length_b   22.31150317
_cell_length_c   16.39274988
_cell_angle_alpha   90.00138525
_cell_angle_beta   89.99844737
_cell_angle_gamma   89.99967150
_symmetry_Int_Tables_number   1
_chemical_formula_structural   Ca108Mn108O277
_chemical_formula_sum   'Ca108 Mn108 O277'
_cell_volume   5863.51054843
_cell_formula_units_Z   1
loop_
 _symmetry_equiv_pos_site_id
 _symmetry_equiv_pos_as_xyz
  1  'x, y, z'
loop_
 _atom_type_symbol
 _atom_type_oxidation_number
  Ca2+  2.0
  Mn3.34+  3.34
  O2-  -2.0
loop_
 _atom_site_type_symbol
 _atom_site_label
 _atom_site_symmetry_multiplicity
 _atom_site_fract_x
 _atom_site_fract_y
 _atom_site_fract_z
 _atom_site_occupancy
  Ca2+  Ca0  1  0.07256695  0.24968957  0.24473462  1
  Ca2+  Ca1  1  0.08414678  0.23685202  0.59537871  1
  Ca2+  Ca2  1  0.08881385  0.24619906  0.91667472  1
  Ca2+  Ca3  1  0.10601535  0.76071312  0.25155541  1
  Ca2+  Ca4  1  0.09103128  0.78134960  0.58477551  1
  Ca2+  Ca5  1  0.08854328  0.76527257  0.91826449  1
  Ca2+  Ca6  1  0.42566460  0.24122988  0.25233504  1
  Ca2+  Ca7  1  0.41898494  0.24177736  0.58412802  1
  Ca2+  Ca8  1  0.39972282  0.22716699  0.91828139  1
  Ca2+  Ca9  1  0.39961231  0.75355243  0.24410384  1
  Ca2+  Ca10  1  0.43092511  0.76242430  0.59313145  1
  Ca2+  Ca11  1  0.44083935  0.75099551  0.91511670  1
  Ca2+  Ca12  1  0.74530740  0.23598361  0.25316743  1
  Ca2+  Ca13  1  0.74417345  0.24268902  0.57858382  1
  Ca2+  Ca14  1  0.75705425  0.24358792  0.92095477  1
  Ca2+  Ca15  1  0.74062702  0.76554385  0.25024358  1
  Ca2+  Ca16  1  0.73949383  0.76222116  0.58070674  1
  Ca2+  Ca17  1  0.73465589  0.73371595  0.91769291  1
  Ca2+  Ca18  1  0.24601057  0.24094539  0.06763050  1
  Ca2+  Ca19  1  0.25769709  0.24397025  0.42676581  1
  Ca2+  Ca20  1  0.24379213  0.22872773  0.75600512  1
  Ca2+  Ca21  1  0.26064864  0.74888308  0.09428335  1
  Ca2+  Ca22  1  0.24755030  0.76843621  0.40588884  1
  Ca2+  Ca23  1  0.26017464  0.75804104  0.75391136  1
  Ca2+  Ca24  1  0.58237292  0.24502253  0.08234940  1
  Ca2+  Ca25  1  0.59582910  0.23856235  0.41984645  1
  Ca2+  Ca26  1  0.57946936  0.24518965  0.74984030  1
  Ca2+  Ca27  1  0.58938980  0.74566856  0.06737558  1
  Ca2+  Ca28  1  0.59974158  0.75746858  0.42351038  1
  Ca2+  Ca29  1  0.59503131  0.75361502  0.75872797  1
  Ca2+  Ca30  1  0.91739621  0.24184222  0.08130633  1
  Ca2+  Ca31  1  0.89136526  0.21863687  0.41353820  1
  Ca2+  Ca32  1  0.91198245  0.25214510  0.75410333  1
  Ca2+  Ca33  1  0.89723856  0.75865440  0.07085247  1
  Ca2+  Ca34  1  0.90526968  0.77150469  0.42524575  1
  Ca2+  Ca35  1  0.89911133  0.76382465  0.75764109  1
  Ca2+  Ca36  1  0.41903360  0.09047038  0.28255397  1
  Ca2+  Ca37  1  0.94964682  0.09924219  0.76274498  1
  Ca2+  Ca38  1  0.07516752  0.09698472  0.23793316  1
  Ca2+  Ca39  1  0.57961449  0.61186852  0.77164859  1
  Ca2+  Ca40  1  0.55997961  0.57288505  0.38753610  1
  Ca2+  Ca41  1  0.74765916  0.10012564  0.24358081  1
  Ca2+  Ca42  1  0.26983684  0.58899161  0.76062818  1
  Ca2+  Ca43  1  0.08633333  0.09641692  0.23891489  1
  Ca2+  Ca44  1  0.75379032  0.09954099  0.93398204  1
  Ca2+  Ca45  1  0.28132560  0.10184420  0.41896424  1
  Ca2+  Ca46  1  0.08044942  0.57465143  0.92286929  1
  Ca2+  Ca47  1  0.42203540  0.10326542  0.56421890  1
  Ca2+  Ca48  1  0.43010381  0.60155254  0.92356190  1
  Ca2+  Ca49  1  0.91519348  0.58818609  0.76139239  1
  Ca2+  Ca50  1  0.89945789  0.58739674  0.41147326  1
  Ca2+  Ca51  1  0.60507503  0.10769517  0.08706339  1
  Ca2+  Ca52  1  0.87904909  0.57471398  0.05762564  1
  Ca2+  Ca53  1  0.09031894  0.57684236  0.59990711  1
  Ca2+  Ca54  1  0.42404648  0.59143781  0.23641397  1
  Ca2+  Ca55  1  0.59522260  0.58978593  0.07053663  1
  Ca2+  Ca56  1  0.93989087  0.10074173  0.76468454  1
  Ca2+  Ca57  1  0.24764951  0.09351514  0.06439595  1
  Ca2+  Ca58  1  0.10186166  0.09942648  0.90473777  1
  Ca2+  Ca59  1  0.91233538  0.58702165  0.41086235  1
  Ca2+  Ca60  1  0.71717965  0.58966776  0.24247068  1
  Ca2+  Ca61  1  0.72736776  0.59448341  0.58239813  1
  Ca2+  Ca62  1  0.10460812  0.57567062  0.59910405  1
  Ca2+  Ca63  1  0.90970392  0.08520022  0.06467874  1
  Ca2+  Ca64  1  0.26188174  0.59384572  0.07709705  1
  Ca2+  Ca65  1  0.13270713  0.59732960  0.24468140  1
  Ca2+  Ca66  1  0.27467809  0.57379398  0.39226931  1
  Ca2+  Ca67  1  0.41151588  0.59180997  0.23656084  1
  Ca2+  Ca68  1  0.57755143  0.10014126  0.41769456  1
  Ca2+  Ca69  1  0.43488068  0.58395946  0.58848666  1
  Ca2+  Ca70  1  0.75127188  0.10294909  0.56758457  1
  Ca2+  Ca71  1  0.10323410  0.08334281  0.64290754  1
  Ca2+  Ca72  1  0.41694235  0.91604415  0.57971833  1
  Ca2+  Ca73  1  0.75731697  0.91153694  0.57698447  1
  Ca2+  Ca74  1  0.24297709  0.92273719  0.74608897  1
  Ca2+  Ca75  1  0.76729873  0.91083595  0.92584759  1
  Ca2+  Ca76  1  0.90648004  0.40762822  0.06791139  1
  Ca2+  Ca77  1  0.09458075  0.39781433  0.59545906  1
  Ca2+  Ca78  1  0.59287473  0.40702586  0.08245158  1
  Ca2+  Ca79  1  0.57549784  0.90736319  0.74048094  1
  Ca2+  Ca80  1  0.06098350  0.93154253  0.92656837  1
  Ca2+  Ca81  1  0.94695692  0.92059332  0.74527201  1
  Ca2+  Ca82  1  0.72292941  0.40822141  0.24251108  1
  Ca2+  Ca83  1  0.24902163  0.39984552  0.75249670  1
  Ca2+  Ca84  1  0.58206217  0.91221616  0.40784843  1
  Ca2+  Ca85  1  0.22960165  0.91461559  0.07899368  1
  Ca2+  Ca86  1  0.09721037  0.39409079  0.24361382  1
  Ca2+  Ca87  1  0.10269084  0.40326469  0.59482543  1
  Ca2+  Ca88  1  0.93205929  0.92271417  0.07275826  1
  Ca2+  Ca89  1  0.24590897  0.39805994  0.08672100  1
  Ca2+  Ca90  1  0.41876537  0.92109764  0.26826396  1
  Ca2+  Ca91  1  0.92607368  0.39134825  0.42752694  1
  Ca2+  Ca92  1  0.58338424  0.90331676  0.08854025  1
  Ca2+  Ca93  1  0.26567851  0.91914667  0.40838804  1
  Ca2+  Ca94  1  0.43257438  0.42193115  0.27188063  1
  Ca2+  Ca95  1  0.23054902  0.92417903  0.74701022  1
  Ca2+  Ca96  1  0.40148856  0.40035273  0.91031534  1
  Ca2+  Ca97  1  0.75874855  0.39633135  0.92185307  1
  Ca2+  Ca98  1  0.26650569  0.39860936  0.41372534  1
  Ca2+  Ca99  1  0.41238053  0.40042714  0.91106406  1
  Ca2+  Ca100  1  0.73506442  0.40998815  0.24361258  1
  Ca2+  Ca101  1  0.73426010  0.39572050  0.58704888  1
  Ca2+  Ca102  1  0.24011218  0.91438400  0.07849430  1
  Ca2+  Ca103  1  0.43036745  0.40496011  0.57237820  1
  Ca2+  Ca104  1  0.44390403  0.42321080  0.27289064  1
  Ca2+  Ca105  1  0.91641086  0.38942914  0.42358528  1
  Ca2+  Ca106  1  0.77768638  0.91473580  0.92356116  1
  Ca2+  Ca107  1  0.07465887  0.91278976  0.25162398  1
  Mn3.34+  Mn108  1  0.08012999  0.33118718  0.07713562  1
  Mn3.34+  Mn109  1  0.08838746  0.32530861  0.41698999  1
  Mn3.34+  Mn110  1  0.07634993  0.34647330  0.76498461  1
  Mn3.34+  Mn111  1  0.07983525  0.83695354  0.08570962  1
  Mn3.34+  Mn112  1  0.08002162  0.83841878  0.41504186  1
  Mn3.34+  Mn113  1  0.08484551  0.84019265  0.75564265  1
  Mn3.34+  Mn114  1  0.41622401  0.33015668  0.08836365  1
  Mn3.34+  Mn115  1  0.42520576  0.33340890  0.42080728  1
  Mn3.34+  Mn116  1  0.41877765  0.33063880  0.74456638  1
  Mn3.34+  Mn117  1  0.41887420  0.84174868  0.08557914  1
  Mn3.34+  Mn118  1  0.42130778  0.83578755  0.41916712  1
  Mn3.34+  Mn119  1  0.41607673  0.84311901  0.75809457  1
  Mn3.34+  Mn120  1  0.75040943  0.33119828  0.08523064  1
  Mn3.34+  Mn121  1  0.74575705  0.32799925  0.41804281  1
  Mn3.34+  Mn122  1  0.74809028  0.32844749  0.75240462  1
  Mn3.34+  Mn123  1  0.74851609  0.83497710  0.08927987  1
  Mn3.34+  Mn124  1  0.75210542  0.84035859  0.41120007  1
  Mn3.34+  Mn125  1  0.74979755  0.83807257  0.74906829  1
  Mn3.34+  Mn126  1  0.25459220  0.32419602  0.24773421  1
  Mn3.34+  Mn127  1  0.25871309  0.32787550  0.58362541  1
  Mn3.34+  Mn128  1  0.24235410  0.32839489  0.91334051  1
  Mn3.34+  Mn129  1  0.25244258  0.83557793  0.24877948  1
  Mn3.34+  Mn130  1  0.25263463  0.83997232  0.57826743  1
  Mn3.34+  Mn131  1  0.25546340  0.83307291  0.91629958  1
  Mn3.34+  Mn132  1  0.58113673  0.32800674  0.25127981  1
  Mn3.34+  Mn133  1  0.58283860  0.32967018  0.58540302  1
  Mn3.34+  Mn134  1  0.58394410  0.32821935  0.91334513  1
  Mn3.34+  Mn135  1  0.57696618  0.83305936  0.24542753  1
  Mn3.34+  Mn136  1  0.58352273  0.83770245  0.58104791  1
  Mn3.34+  Mn137  1  0.58319750  0.83674986  0.91275981  1
  Mn3.34+  Mn138  1  0.91551556  0.32931688  0.24436034  1
  Mn3.34+  Mn139  1  0.91386269  0.32353148  0.59182349  1
  Mn3.34+  Mn140  1  0.92276711  0.33027679  0.91272009  1
  Mn3.34+  Mn141  1  0.91595494  0.83831295  0.24434705  1
  Mn3.34+  Mn142  1  0.91857694  0.84309765  0.58422196  1
  Mn3.34+  Mn143  1  0.91946916  0.83287066  0.91415192  1
  Mn3.34+  Mn144  1  0.91981890  0.16172983  0.58153535  1
  Mn3.34+  Mn145  1  0.08319286  0.16492311  0.07889070  1
  Mn3.34+  Mn146  1  0.25119039  0.16612060  0.58507730  1
  Mn3.34+  Mn147  1  0.08177909  0.16572596  0.42359515  1
  Mn3.34+  Mn148  1  0.25173127  0.16833785  0.24623954  1
  Mn3.34+  Mn149  1  0.91920040  0.67460014  0.24389614  1
  Mn3.34+  Mn150  1  0.24977245  0.67077844  0.58055213  1
  Mn3.34+  Mn151  1  0.58346097  0.16614751  0.24937225  1
  Mn3.34+  Mn152  1  0.26096684  0.66614921  0.57764570  1
  Mn3.34+  Mn153  1  0.42393961  0.67507410  0.41736354  1
  Mn3.34+  Mn154  1  0.58280044  0.16616488  0.58581273  1
  Mn3.34+  Mn155  1  0.41645848  0.16506270  0.08515431  1
  Mn3.34+  Mn156  1  0.42004174  0.66767107  0.75244192  1
  Mn3.34+  Mn157  1  0.08101566  0.66897436  0.75753996  1
  Mn3.34+  Mn158  1  0.41520483  0.66879591  0.41876308  1
  Mn3.34+  Mn159  1  0.74063535  0.66868252  0.41452672  1
  Mn3.34+  Mn160  1  0.25337966  0.67147264  0.91686993  1
  Mn3.34+  Mn161  1  0.90383888  0.67319446  0.58697944  1
  Mn3.34+  Mn162  1  0.91565931  0.66914592  0.58594684  1
  Mn3.34+  Mn163  1  0.08525088  0.67033049  0.07978003  1
  Mn3.34+  Mn164  1  0.74628256  0.66875542  0.08319148  1
  Mn3.34+  Mn165  1  0.58377751  0.66948649  0.58479202  1
  Mn3.34+  Mn166  1  0.08998872  0.66336321  0.76108194  1
  Mn3.34+  Mn167  1  0.91794525  0.16759974  0.91944860  1
  Mn3.34+  Mn168  1  0.58277204  0.67244927  0.24270817  1
  Mn3.34+  Mn169  1  0.07563593  0.66504519  0.08212701  1
  Mn3.34+  Mn170  1  0.74717661  0.16649716  0.75225674  1
  Mn3.34+  Mn171  1  0.91198757  0.16578583  0.24647973  1
  Mn3.34+  Mn172  1  0.91128842  0.68064057  0.24714777  1
  Mn3.34+  Mn173  1  0.08098186  0.67011970  0.41637596  1
  Mn3.34+  Mn174  1  0.09225302  0.66172142  0.42189466  1
  Mn3.34+  Mn175  1  0.74699582  0.66585735  0.75179326  1
  Mn3.34+  Mn176  1  0.42134392  0.67179298  0.08257385  1
  Mn3.34+  Mn177  1  0.58011382  0.16906061  0.91369836  1
  Mn3.34+  Mn178  1  0.90885884  0.66641067  0.91490219  1
  Mn3.34+  Mn179  1  0.41706907  0.16120731  0.75222787  1
  Mn3.34+  Mn180  1  0.73301152  0.49292031  0.75365074  1
  Mn3.34+  Mn181  1  0.27360945  0.49617977  0.57829691  1
  Mn3.34+  Mn182  1  0.57489727  0.00024185  0.58286757  1
  Mn3.34+  Mn183  1  0.75090774  0.00549652  0.74105903  1
  Mn3.34+  Mn184  1  0.73785588  0.01178121  0.73986777  1
  Mn3.34+  Mn185  1  0.24368773  0.50053131  0.92093104  1
  Mn3.34+  Mn186  1  0.59847862  0.50093627  0.90957255  1
  Mn3.34+  Mn187  1  0.92618761  0.00429691  0.58889151  1
  Mn3.34+  Mn188  1  0.25067876  0.00215471  0.25579284  1
  Mn3.34+  Mn189  1  0.89859670  0.49339036  0.59507129  1
  Mn3.34+  Mn190  1  0.42329944  0.50015185  0.74275257  1
  Mn3.34+  Mn191  1  0.41442092  0.49496891  0.07692367  1
  Mn3.34+  Mn192  1  0.56018044  0.00233420  0.91906660  1
  Mn3.34+  Mn193  1  0.57206068  0.00888241  0.91673684  1
  Mn3.34+  Mn194  1  0.58345728  0.49561560  0.57886263  1
  Mn3.34+  Mn195  1  0.91473791  0.49388163  0.92170753  1
  Mn3.34+  Mn196  1  0.08369166  0.49793767  0.08263656  1
  Mn3.34+  Mn197  1  0.25353468  -0.00108463  0.92905296  1
  Mn3.34+  Mn198  1  0.92678001  0.50571406  0.23775092  1
  Mn3.34+  Mn199  1  0.41774458  0.00511657  0.74462549  1
  Mn3.34+  Mn200  1  0.91521149  0.50036829  0.23750513  1
  Mn3.34+  Mn201  1  0.06827905  0.00823012  0.42092201  1
  Mn3.34+  Mn202  1  0.74818568  -0.00497355  0.07936447  1
  Mn3.34+  Mn203  1  0.24833437  0.00281766  0.58685692  1
  Mn3.34+  Mn204  1  0.41700339  0.00558054  0.08788696  1
  Mn3.34+  Mn205  1  0.59303897  0.49395413  0.92192705  1
  Mn3.34+  Mn206  1  0.91287926  0.00148550  0.25309735  1
  Mn3.34+  Mn207  1  0.25321990  0.49420707  0.24400599  1
  Mn3.34+  Mn208  1  0.71825346  0.49273536  0.41716202  1
  Mn3.34+  Mn209  1  0.91304064  0.49913459  0.59317760  1
  Mn3.34+  Mn210  1  0.74323323  0.50002392  0.75823462  1
  Mn3.34+  Mn211  1  0.09430725  0.49856040  0.41234548  1
  Mn3.34+  Mn212  1  0.73032697  0.49300150  0.42217400  1
  Mn3.34+  Mn213  1  0.58211765  0.00125696  0.25406371  1
  Mn3.34+  Mn214  1  0.07899954  0.00116375  0.42383694  1
  Mn3.34+  Mn215  1  0.75023999  -0.00123333  0.39396338  1
  O2-  O216  1  -0.00087581  0.14990589  0.00162379  1
  O2-  O217  1  0.00491800  0.14927214  0.33246120  1
  O2-  O218  1  0.00298233  0.15738483  0.66304485  1
  O2-  O219  1  -0.00307593  0.65433684  -0.00087764  1
  O2-  O220  1  0.00306089  0.64224946  0.32469728  1
  O2-  O221  1  0.00684910  0.64633702  0.66430007  1
  O2-  O222  1  0.33487093  0.16220203  0.01211741  1
  O2-  O223  1  0.32662860  0.18063935  0.32880713  1
  O2-  O224  1  0.33830245  0.15182013  0.66052174  1
  O2-  O225  1  0.33513696  0.65865234  -0.00100930  1
  O2-  O226  1  0.34721945  0.65065688  0.32745846  1
  O2-  O227  1  0.33855996  0.65755740  0.66804558  1
  O2-  O228  1  0.66524562  0.16866353  -0.00840318  1
  O2-  O229  1  0.66202388  0.15463993  0.32778350  1
  O2-  O230  1  0.67439168  0.15242564  0.66627871  1
  O2-  O231  1  0.66611806  0.66106360  0.01082896  1
  O2-  O232  1  0.65615762  0.65445093  0.33553397  1
  O2-  O233  1  0.66202924  0.64901764  0.67114112  1
  O2-  O234  1  0.16368809  0.16170867  0.00395137  1
  O2-  O235  1  0.16668091  0.14728289  0.33327924  1
  O2-  O236  1  0.16829997  0.16991207  0.66302620  1
  O2-  O237  1  0.16126902  0.65054894  -0.00434790  1
  O2-  O238  1  0.18014653  0.64801422  0.34970081  1
  O2-  O239  1  0.17627897  0.63998948  0.67882066  1
  O2-  O240  1  0.50395927  0.14886946  0.00419287  1
  O2-  O241  1  0.50073980  0.16163041  0.32933166  1
  O2-  O242  1  0.49652033  0.15923473  0.66308843  1
  O2-  O243  1  0.49936013  0.67057401  0.00392680  1
  O2-  O244  1  0.50173679  0.67015031  0.32906657  1
  O2-  O245  1  0.49624674  0.65863763  0.66184712  1
  O2-  O246  1  0.83557308  0.16546489  -0.00221497  1
  O2-  O247  1  0.83244657  0.15658116  0.32051705  1
  O2-  O248  1  0.84077804  0.13934141  0.67505540  1
  O2-  O249  1  0.83216988  0.65820526  0.00309798  1
  O2-  O250  1  0.82974847  0.64529858  0.32606707  1
  O2-  O251  1  0.82879635  0.63660948  0.66731728  1
  O2-  O252  1  -0.00204811  0.34932292  0.00107982  1
  O2-  O253  1  0.00166264  0.35088828  0.32897977  1
  O2-  O254  1  0.00751681  0.33709990  0.66525416  1
  O2-  O255  1  0.00292204  0.84019070  -0.00171291  1
  O2-  O256  1  0.00229327  0.82455838  0.32341338  1
  O2-  O257  1  0.00379618  0.83569803  0.67356166  1
  O2-  O258  1  0.33279044  0.34661426  0.00120517  1
  O2-  O259  1  0.34175171  0.32463666  0.33145438  1
  O2-  O260  1  0.33732233  0.35342539  0.66129703  1
  O2-  O261  1  0.32469343  0.84887173  0.01067812  1
  O2-  O262  1  0.33615756  0.84555225  0.33589780  1
  O2-  O263  1  0.33084617  0.84464335  0.67272586  1
  O2-  O264  1  0.66632298  0.33562466  0.00412680  1
  O2-  O265  1  0.66829264  0.34836251  0.33212002  1
  O2-  O266  1  0.66177808  0.34275322  0.67282181  1
  O2-  O267  1  0.67054351  0.85847082  -0.00805316  1
  O2-  O268  1  0.65623510  0.83389903  0.33157043  1
  O2-  O269  1  0.66824952  0.85484251  0.66159978  1
  O2-  O270  1  0.16963241  0.33904818  0.00383676  1
  O2-  O271  1  0.17485616  0.34117340  0.33816333  1
  O2-  O272  1  0.17165704  0.33164829  0.66388769  1
  O2-  O273  1  0.16088036  0.84930560  -0.00501561  1
  O2-  O274  1  0.16693221  0.85481403  0.32793868  1
  O2-  O275  1  0.16830728  0.84833896  0.67374740  1
  O2-  O276  1  0.49738605  0.35960546  0.00413789  1
  O2-  O277  1  0.50024158  0.34171290  0.33212638  1
  O2-  O278  1  0.49591930  0.34451973  0.65996642  1
  O2-  O279  1  0.50301253  0.83532065  0.00452549  1
  O2-  O280  1  0.49582228  0.81390851  0.33324632  1
  O2-  O281  1  0.49244313  0.84362641  0.66197151  1
  O2-  O282  1  0.83302061  0.33309842  0.00409428  1
  O2-  O283  1  0.83001113  0.35937608  0.32814039  1
  O2-  O284  1  0.82721612  0.34485231  0.66316496  1
  O2-  O285  1  0.84201743  0.85128184  0.00834296  1
  O2-  O286  1  0.83776093  0.82399250  0.32655286  1
  O2-  O287  1  0.83974319  0.85810655  0.67774917  1
  O2-  O288  1  0.00608091  0.17591914  0.17137757  1
  O2-  O289  1  -0.00119116  0.18735203  0.49993487  1
  O2-  O290  1  -0.00011075  0.17832262  0.83706249  1
  O2-  O291  1  0.00441241  0.69614887  0.16529501  1
  O2-  O292  1  -0.01619283  0.68267773  0.48326363  1
  O2-  O293  1  -0.00310458  0.68833277  0.83314609  1
  O2-  O294  1  0.33191458  0.18777752  0.16727790  1
  O2-  O295  1  0.33245662  0.17439872  0.50223753  1
  O2-  O296  1  0.33626218  0.17259850  0.82261379  1
  O2-  O297  1  0.34087987  0.67994520  0.16076147  1
  O2-  O298  1  0.31989797  0.69562055  0.47954331  1
  O2-  O299  1  0.33643406  0.68373484  0.83248345  1
  O2-  O300  1  0.66380174  0.18036205  0.16772779  1
  O2-  O301  1  0.66301466  0.17330434  0.50623262  1
  O2-  O302  1  0.67014247  0.18776218  0.83440646  1
  O2-  O303  1  0.66917659  0.68814521  0.17379390  1
  O2-  O304  1  0.67134159  0.67962695  0.51001899  1
  O2-  O305  1  0.66724204  0.68191555  0.82304459  1
  O2-  O306  1  0.16059638  0.18215065  0.17182076  1
  O2-  O307  1  0.16849267  0.18480669  0.49861557  1
  O2-  O308  1  0.14566837  0.18081993  0.83060568  1
  O2-  O309  1  0.16612110  0.68142924  0.16079505  1
  O2-  O310  1  0.13606794  0.67650158  0.53327555  1
  O2-  O311  1  0.17105305  0.69388122  0.83378343  1
  O2-  O312  1  0.50233019  0.17798477  0.16505646  1
  O2-  O313  1  0.50507595  0.17918357  0.50457508  1
  O2-  O314  1  0.49958763  0.18466681  0.83074871  1
  O2-  O315  1  0.49878280  0.69468506  0.16948550  1
  O2-  O316  1  0.49746066  0.69185829  0.50287473  1
  O2-  O317  1  0.49980914  0.68832402  0.82234614  1
  O2-  O318  1  0.83923509  0.17985067  0.16673817  1
  O2-  O319  1  0.82946162  0.17498248  0.51655224  1
  O2-  O320  1  0.84126732  0.17902792  0.82791156  1
  O2-  O321  1  0.82892661  0.69491169  0.16693926  1
  O2-  O322  1  0.83547713  0.67304089  0.48545809  1
  O2-  O323  1  0.83829832  0.67713454  0.82240173  1
  O2-  O324  1  -0.00119945  0.32287466  0.16558472  1
  O2-  O325  1  0.00065232  0.32471860  0.50333191  1
  O2-  O326  1  0.00071626  0.30952630  0.83349094  1
  O2-  O327  1  0.00166606  0.81096170  0.16283748  1
  O2-  O328  1  -0.00054564  0.81929098  0.49967425  1
  O2-  O329  1  0.00151207  0.81620461  0.83144244  1
  O2-  O330  1  0.32861391  0.31043280  0.16033768  1
  O2-  O331  1  0.33699703  0.31741406  0.49468203  1
  O2-  O332  1  0.33497257  0.32686602  0.83521120  1
  O2-  O333  1  0.33338443  0.82080345  0.16411525  1
  O2-  O334  1  0.34274802  0.81546343  0.49978101  1
  O2-  O335  1  0.33991039  0.81237446  0.83821600  1
  O2-  O336  1  0.66666440  0.32056127  0.16987761  1
  O2-  O337  1  0.67419751  0.31835953  0.50739480  1
  O2-  O338  1  0.67084145  0.31218406  0.84055302  1
  O2-  O339  1  0.65621836  0.81743407  0.15904663  1
  O2-  O340  1  0.66540541  0.82938254  0.50069792  1
  O2-  O341  1  0.66673112  0.82785695  0.82952832  1
  O2-  O342  1  0.16366088  0.31554077  0.17154799  1
  O2-  O343  1  0.16567460  0.32348932  0.50635735  1
  O2-  O344  1  0.16843152  0.32003910  0.82655553  1
  O2-  O345  1  0.17207069  0.81926807  0.15613421  1
  O2-  O346  1  0.17381520  0.82955355  0.49274747  1
  O2-  O347  1  0.17222365  0.81643864  0.82863806  1
  O2-  O348  1  0.49850409  0.32272638  0.17095716  1
  O2-  O349  1  0.50149887  0.31238206  0.50058909  1
  O2-  O350  1  0.49204694  0.32981770  0.84037719  1
  O2-  O351  1  0.49554553  0.81433259  0.16538675  1
  O2-  O352  1  0.50330791  0.81460845  0.49704912  1
  O2-  O353  1  0.50534615  0.82015559  0.82492906  1
  O2-  O354  1  0.82690264  0.31342698  0.17232702  1
  O2-  O355  1  0.84278566  0.31788133  0.48917020  1
  O2-  O356  1  0.83100385  0.31586759  0.83890645  1
  O2-  O357  1  0.83230764  0.81597651  0.16759233  1
  O2-  O358  1  0.82771701  0.83031121  0.50839310  1
  O2-  O359  1  0.82442164  0.82608970  0.84520465  1
  O2-  O360  1  0.09376399  0.08320505  0.10650162  1
  O2-  O361  1  0.08435175  0.08399326  0.46273947  1
  O2-  O362  1  0.06952249  0.07059474  0.77824054  1
  O2-  O363  1  0.07807313  0.57989253  0.12210382  1
  O2-  O364  1  0.05463696  0.57759109  0.46452859  1
  O2-  O365  1  0.08624556  0.57764175  0.78493689  1
  O2-  O366  1  0.40472757  0.08295652  0.12525993  1
  O2-  O367  1  0.41636128  0.07279100  0.43227503  1
  O2-  O368  1  0.43135816  0.07873112  0.77896641  1
  O2-  O369  1  0.42238245  0.58046236  0.10306324  1
  O2-  O370  1  0.42065809  0.58287231  0.44911030  1
  O2-  O371  1  0.42673529  0.57944635  0.78463809  1
  O2-  O372  1  0.74970450  0.07161847  0.10532987  1
  O2-  O373  1  0.72923252  0.06126448  0.44943526  1
  O2-  O374  1  0.74463083  0.08372705  0.79467930  1
  O2-  O375  1  0.74914408  0.58819731  0.11466996  1
  O2-  O376  1  0.76416378  0.57356044  0.45011357  1
  O2-  O377  1  0.73558254  0.57844110  0.79103107  1
  O2-  O378  1  0.23522533  0.07896850  0.21725096  1
  O2-  O379  1  0.24131037  0.08038996  0.55559404  1
  O2-  O380  1  0.24188496  0.07117072  0.90241892  1
  O2-  O381  1  0.27286656  0.57350686  0.21236256  1
  O2-  O382  1  0.24202563  0.58121646  0.53357363  1
  O2-  O383  1  0.24400253  0.58359491  0.89077188  1
  O2-  O384  1  0.59036580  0.07943755  0.22054405  1
  O2-  O385  1  0.57474953  0.08046866  0.55823377  1
  O2-  O386  1  0.59506360  0.08516365  0.89005095  1
  O2-  O387  1  0.56819674  0.59161137  0.21341552  1
  O2-  O388  1  0.58269976  0.57497305  0.53546771  1
  O2-  O389  1  0.56991331  0.57830112  0.89966453  1
  O2-  O390  1  0.93072654  0.08012231  0.21086056  1
  O2-  O391  1  0.92419393  0.07926398  0.55087297  1
  O2-  O392  1  0.90434395  0.08494421  0.89464501  1
  O2-  O393  1  0.91677805  0.58562601  0.20151611  1
  O2-  O394  1  0.90795890  0.57678375  0.54458176  1
  O2-  O395  1  0.92423450  0.57761880  0.89320350  1
  O2-  O396  1  0.09335017  0.41694410  0.11095704  1
  O2-  O397  1  0.06225597  0.41997282  0.45435273  1
  O2-  O398  1  0.10722130  0.42189257  0.73691865  1
  O2-  O399  1  0.09736879  0.92029685  0.11734929  1
  O2-  O400  1  0.06742445  0.92124330  0.43659266  1
  O2-  O401  1  0.09462665  0.92035686  0.78998776  1
  O2-  O402  1  0.40479215  0.41827057  0.13258699  1
  O2-  O403  1  0.41063825  0.41554239  0.42557186  1
  O2-  O404  1  0.40842128  0.42056870  0.77586461  1
  O2-  O405  1  0.41107206  0.92699553  0.12577944  1
  O2-  O406  1  0.42669527  0.91526627  0.43333944  1
  O2-  O407  1  0.39453962  0.92859488  0.78286548  1
  O2-  O408  1  0.75410915  0.41794421  0.11459883  1
  O2-  O409  1  0.77475561  0.41867511  0.45477388  1
  O2-  O410  1  0.74742170  0.41401036  0.78280379  1
  O2-  O411  1  0.73855951  0.91782515  0.11476216  1
  O2-  O412  1  0.74143444  0.92547572  0.43977307  1
  O2-  O413  1  0.74064809  0.93188763  0.79592914  1
  O2-  O414  1  0.24797376  0.41377828  0.22739049  1
  O2-  O415  1  0.24818616  0.41295142  0.55036538  1
  O2-  O416  1  0.25937623  0.41965544  0.88928952  1
  O2-  O417  1  0.25244557  0.92235101  0.21720354  1
  O2-  O418  1  0.27007831  0.92565746  0.54609999  1
  O2-  O419  1  0.25302602  0.92196110  0.88247020  1
  O2-  O420  1  0.58451493  0.41561534  0.22476379  1
  O2-  O421  1  0.58822864  0.41521130  0.55187897  1
  O2-  O422  1  0.59984537  0.41566414  0.89300841  1
  O2-  O423  1  0.56540651  0.92132496  0.22552341  1
  O2-  O424  1  0.56924402  0.92086477  0.54503132  1
  O2-  O425  1  0.57177584  0.92396835  0.87741116  1
  O2-  O426  1  0.91442402  0.41957519  0.21438048  1
  O2-  O427  1  0.91178196  0.41362962  0.56110352  1
  O2-  O428  1  0.90664085  0.41508767  0.89465505  1
  O2-  O429  1  0.93377561  0.92367498  0.21233403  1
  O2-  O430  1  0.91442717  0.92541167  0.56356099  1
  O2-  O431  1  0.91556010  0.91628333  0.88623848  1
  O2-  O432  1  -0.00812071  0.00068082  0.00774972  1
  O2-  O433  1  0.01958438  0.00680010  0.30781793  1
  O2-  O434  1  -0.01600269  0.00927400  0.68243664  1
  O2-  O435  1  -0.00122229  0.50768971  0.00161305  1
  O2-  O436  1  -0.01202320  0.51094037  0.34154317  1
  O2-  O437  1  0.00340000  0.51726353  0.65980812  1
  O2-  O438  1  0.31140869  -0.00357987  0.03097822  1
  O2-  O439  1  0.33338368  -0.00196960  0.32309740  1
  O2-  O440  1  0.33031420  -0.00858381  0.66669967  1
  O2-  O441  1  0.34446165  0.49749861  -0.02189864  1
  O2-  O442  1  0.33132352  0.49336247  0.32578651  1
  O2-  O443  1  0.31847536  0.51469534  0.68728146  1
  O2-  O444  1  0.67989773  -0.00677572  -0.02478868  1
  O2-  O445  1  0.64537620  -0.00469216  0.34882236  1
  O2-  O446  1  0.66347419  -0.01370709  0.65824697  1
  O2-  O447  1  0.66206553  0.49782792  0.01054057  1
  O2-  O448  1  0.66572482  0.50739063  0.31731573  1
  O2-  O449  1  0.68436608  0.50455179  0.64437883  1
  O2-  O450  1  0.16349657  -0.01615517  -0.01120422  1
  O2-  O451  1  0.17499086  -0.00188667  0.34753227  1
  O2-  O452  1  0.16934013  -0.01146867  0.65957565  1
  O2-  O453  1  0.17851446  0.51560259  0.01717349  1
  O2-  O454  1  0.16381865  0.51497706  0.31844904  1
  O2-  O455  1  0.15437790  0.49188619  0.61456206  1
  O2-  O456  1  0.51926411  -0.00269477  0.02988541  1
  O2-  O457  1  0.49163669  0.00405209  0.31053069  1
  O2-  O458  1  0.49560822  -0.01898612  0.66595298  1
  O2-  O459  1  0.50082858  0.49334188  -0.00905200  1
  O2-  O460  1  0.47985989  0.51485696  0.29062157  1
  O2-  O461  1  0.47980781  0.49652615  0.63486414  1
  O2-  O462  1  0.83649904  -0.01251764  0.00965789  1
  O2-  O463  1  0.81068552  0.01524013  0.30437342  1
  O2-  O464  1  0.82345022  0.00539146  0.65070430  1
  O2-  O465  1  0.83732427  0.48904883  -0.00280688  1
  O2-  O466  1  0.83181931  0.50938339  0.33022346  1
  O2-  O467  1  0.84495403  0.50915616  0.69509767  1
  O2-  O468  1  0.92340589  0.25016738  0.27845549  1
  O2-  O469  1  0.24965874  0.75713994  0.27232190  1
  O2-  O470  1  0.10461818  0.75152914  0.39503199  1
  O2-  O471  1  0.75599791  0.74752436  0.71836811  1
  O2-  O472  1  0.43137636  0.25122793  0.05740622  1
  O2-  O473  1  0.56414802  0.25106122  0.94207436  1
  O2-  O474  1  0.23775519  0.75355683  0.61292776  1
  O2-  O475  1  0.90915868  0.75039744  0.93673079  1
  O2-  O476  1  0.26533344  0.24891007  0.60515284  1
  O2-  O477  1  0.58176731  0.24948537  0.27709936  1
  O2-  O478  1  0.07056115  0.24991144  0.05803371  1
  O2-  O479  1  0.74831946  0.25212333  0.39173359  1
  O2-  O480  1  0.74872175  0.75279748  0.40167176  1
  O2-  O481  1  0.74703674  0.75499966  0.05305324  1
  O2-  O482  1  0.24301326  0.75214268  0.95375041  1
  O2-  O483  1  0.41589373  0.25087439  0.72544796  1
  O2-  O484  1  0.24895130  0.25049968  0.92719701  1
  O2-  O485  1  0.59282055  0.75879352  0.93018146  1
  O2-  O486  1  0.58908546  0.24925175  0.61161970  1
  O2-  O487  1  0.75909241  0.24687203  0.72039747  1
  O2-  O488  1  0.08623807  0.24642384  0.38653693  1
  O2-  O489  1  0.92239001  0.25068463  0.94298552  1
  O2-  O490  1  0.90531191  0.75709738  0.60793567  1
  O2-  O491  1  0.59109019  0.75634774  0.61215166  1
  O2-  O492  1  0.91346599  0.24487559  0.61442425  1
