# generated using pymatgen
data_Ca108Mn108O277
_symmetry_space_group_name_H-M   'P 1'
_cell_length_a   16.04066241
_cell_length_b   22.32243407
_cell_length_c   16.39728103
_cell_angle_alpha   90.00501943
_cell_angle_beta   90.00409061
_cell_angle_gamma   90.00075139
_symmetry_Int_Tables_number   1
_chemical_formula_structural   Ca108Mn108O277
_chemical_formula_sum   'Ca108 Mn108 O277'
_cell_volume   5871.31910447
_cell_formula_units_Z   1
loop_
 _symmetry_equiv_pos_site_id
 _symmetry_equiv_pos_as_xyz
  1  'x, y, z'
loop_
 _atom_type_symbol
 _atom_type_oxidation_number
  Ca2+  2.0
  Mn3.34+  3.34
  O2-  -2.0
loop_
 _atom_site_type_symbol
 _atom_site_label
 _atom_site_symmetry_multiplicity
 _atom_site_fract_x
 _atom_site_fract_y
 _atom_site_fract_z
 _atom_site_occupancy
  Ca2+  Ca0  1  0.06398748  0.24486004  0.23641541  1
  Ca2+  Ca1  1  0.07779482  0.26480495  0.58277197  1
  Ca2+  Ca2  1  0.08348940  0.23381755  0.92510906  1
  Ca2+  Ca3  1  0.09268357  0.75264766  0.26267418  1
  Ca2+  Ca4  1  0.10991506  0.74802456  0.56426812  1
  Ca2+  Ca5  1  0.08666257  0.76314844  0.91543257  1
  Ca2+  Ca6  1  0.43171673  0.25397624  0.24476800  1
  Ca2+  Ca7  1  0.41878417  0.26360019  0.59053268  1
  Ca2+  Ca8  1  0.40489583  0.24905223  0.91018590  1
  Ca2+  Ca9  1  0.41873464  0.74138183  0.25721554  1
  Ca2+  Ca10  1  0.40634801  0.72092528  0.56530255  1
  Ca2+  Ca11  1  0.42434902  0.74237482  0.91801782  1
  Ca2+  Ca12  1  0.74721403  0.24957631  0.24908417  1
  Ca2+  Ca13  1  0.75508451  0.25397184  0.58882378  1
  Ca2+  Ca14  1  0.76471403  0.25493845  0.91432105  1
  Ca2+  Ca15  1  0.72903987  0.75398945  0.24629828  1
  Ca2+  Ca16  1  0.73304528  0.75147834  0.59003650  1
  Ca2+  Ca17  1  0.73702419  0.75925386  0.91375889  1
  Ca2+  Ca18  1  0.22715011  0.24925010  0.07731627  1
  Ca2+  Ca19  1  0.24302971  0.25920555  0.42162616  1
  Ca2+  Ca20  1  0.24934893  0.25799505  0.75900824  1
  Ca2+  Ca21  1  0.26563406  0.74811846  0.08889241  1
  Ca2+  Ca22  1  0.25453268  0.73923235  0.41619922  1
  Ca2+  Ca23  1  0.24516307  0.75253687  0.73296867  1
  Ca2+  Ca24  1  0.58814073  0.25460230  0.09202047  1
  Ca2+  Ca25  1  0.59337367  0.25157611  0.41578407  1
  Ca2+  Ca26  1  0.58293705  0.24527918  0.74174141  1
  Ca2+  Ca27  1  0.54726887  0.73219979  0.08977038  1
  Ca2+  Ca28  1  0.55643806  0.74195691  0.40710345  1
  Ca2+  Ca29  1  0.56635005  0.74823625  0.74418255  1
  Ca2+  Ca30  1  0.93334827  0.24294744  0.08643213  1
  Ca2+  Ca31  1  0.91340013  0.23651313  0.41553542  1
  Ca2+  Ca32  1  0.91709781  0.24917802  0.75086879  1
  Ca2+  Ca33  1  0.92235616  0.76701239  0.08283341  1
  Ca2+  Ca34  1  0.93980557  0.74924441  0.41257924  1
  Ca2+  Ca35  1  0.92685978  0.76752000  0.75825388  1
  Ca2+  Ca36  1  0.42491398  0.09339077  0.25498168  1
  Ca2+  Ca37  1  0.92642690  0.08981261  0.74407412  1
  Ca2+  Ca38  1  0.89968836  0.57961955  0.73968469  1
  Ca2+  Ca39  1  0.75605952  0.10072093  0.89695448  1
  Ca2+  Ca40  1  0.23167659  0.08532434  0.76225926  1
  Ca2+  Ca41  1  0.43782170  0.08348659  0.61619510  1
  Ca2+  Ca42  1  0.91766460  0.08670557  0.74027027  1
  Ca2+  Ca43  1  0.42043136  0.59197640  0.25619837  1
  Ca2+  Ca44  1  0.53627088  0.58349687  0.40809527  1
  Ca2+  Ca45  1  0.29058748  0.61299122  0.70086974  1
  Ca2+  Ca46  1  0.74116988  0.10229670  0.60030102  1
  Ca2+  Ca47  1  0.58366049  0.08978768  0.08514568  1
  Ca2+  Ca48  1  0.95653964  0.10393659  0.08181091  1
  Ca2+  Ca49  1  0.74766481  0.58492020  0.90158074  1
  Ca2+  Ca50  1  0.93302795  0.58385236  0.09377294  1
  Ca2+  Ca51  1  0.24612321  0.07755813  0.38776757  1
  Ca2+  Ca52  1  0.39957183  0.08440906  0.91162034  1
  Ca2+  Ca53  1  0.78006664  0.10294744  0.26106802  1
  Ca2+  Ca54  1  0.94561305  0.59031060  0.40590446  1
  Ca2+  Ca55  1  0.73962934  0.57239435  0.62092784  1
  Ca2+  Ca56  1  0.56103618  0.60852156  0.74696393  1
  Ca2+  Ca57  1  0.24411221  0.08545583  0.76129222  1
  Ca2+  Ca58  1  0.28520092  0.59119966  0.09959394  1
  Ca2+  Ca59  1  0.26727582  0.59504423  0.41431727  1
  Ca2+  Ca60  1  0.11882516  0.60763626  0.56667516  1
  Ca2+  Ca61  1  0.59668768  0.09569868  0.41627090  1
  Ca2+  Ca62  1  0.09807549  0.59407551  0.27029492  1
  Ca2+  Ca63  1  0.42861029  0.58022932  0.96974797  1
  Ca2+  Ca64  1  0.08928917  0.57811819  0.93215594  1
  Ca2+  Ca65  1  0.92359445  0.57971964  0.09157190  1
  Ca2+  Ca66  1  0.03613907  0.10658209  0.24775215  1
  Ca2+  Ca67  1  0.78698964  0.09878743  0.25564464  1
  Ca2+  Ca68  1  0.20712840  0.09262373  0.08357321  1
  Ca2+  Ca69  1  0.06908864  0.08875309  0.59100563  1
  Ca2+  Ca70  1  0.93363313  0.58811441  0.40253905  1
  Ca2+  Ca71  1  0.76816446  0.10104333  0.89757326  1
  Ca2+  Ca72  1  0.90730118  0.40036516  0.42189631  1
  Ca2+  Ca73  1  0.07151974  0.91014441  0.90642901  1
  Ca2+  Ca74  1  0.90816844  0.89251589  0.41570159  1
  Ca2+  Ca75  1  0.73542921  0.41325086  0.25690188  1
  Ca2+  Ca76  1  0.72386081  0.41489706  0.25635696  1
  Ca2+  Ca77  1  0.27239365  0.42651903  0.39505424  1
  Ca2+  Ca78  1  0.74441022  0.90500875  0.57454429  1
  Ca2+  Ca79  1  0.06460523  0.91332809  0.61097684  1
  Ca2+  Ca80  1  0.40080755  0.41010643  0.92856783  1
  Ca2+  Ca81  1  0.25139723  0.40465074  0.74804948  1
  Ca2+  Ca82  1  0.58507158  0.90038638  0.74725943  1
  Ca2+  Ca83  1  0.56222738  0.42597036  0.40423173  1
  Ca2+  Ca84  1  0.88058688  0.41414549  0.73758490  1
  Ca2+  Ca85  1  0.42186755  0.89689602  0.59179071  1
  Ca2+  Ca86  1  0.74660008  0.89992651  0.25866715  1
  Ca2+  Ca87  1  0.42209944  0.44104797  0.24809499  1
  Ca2+  Ca88  1  0.56743159  0.41385460  0.08842047  1
  Ca2+  Ca89  1  0.91937521  0.40042177  0.42160481  1
  Ca2+  Ca90  1  0.75888718  0.90579664  0.90763805  1
  Ca2+  Ca91  1  0.43174159  0.89861280  0.58840555  1
  Ca2+  Ca92  1  0.41163962  0.90895346  0.91030125  1
  Ca2+  Ca93  1  0.58294222  0.89572910  0.08923072  1
  Ca2+  Ca94  1  0.41201735  0.40905388  0.92790757  1
  Ca2+  Ca95  1  0.26538040  0.42225555  0.39980567  1
  Ca2+  Ca96  1  0.61771479  0.41243911  0.72516459  1
  Ca2+  Ca97  1  0.23906522  0.90623383  0.09810728  1
  Ca2+  Ca98  1  0.91238267  0.40781583  0.08476956  1
  Ca2+  Ca99  1  0.24092035  0.90785439  0.74812290  1
  Ca2+  Ca100  1  0.89231696  0.41686811  0.73552640  1
  Ca2+  Ca101  1  0.42560194  0.44520842  0.25562079  1
  Ca2+  Ca102  1  0.25799275  0.90745277  0.38973114  1
  Ca2+  Ca103  1  0.24673666  0.90767808  0.39164788  1
  Ca2+  Ca104  1  0.26105039  0.41724029  0.09296601  1
  Ca2+  Ca105  1  0.09167131  0.40609396  0.92292100  1
  Ca2+  Ca106  1  0.74903188  0.40920163  0.91550329  1
  Ca2+  Ca107  1  0.09463550  0.40999260  0.25925459  1
  Mn3.34+  Mn108  1  0.08345335  0.33772881  0.08659647  1
  Mn3.34+  Mn109  1  0.08657974  0.33237647  0.41753675  1
  Mn3.34+  Mn110  1  0.08105076  0.33416160  0.75047645  1
  Mn3.34+  Mn111  1  0.08234466  0.83295431  0.08652154  1
  Mn3.34+  Mn112  1  0.08150440  0.83058893  0.41753203  1
  Mn3.34+  Mn113  1  0.08284628  0.83518720  0.74979795  1
  Mn3.34+  Mn114  1  0.41453494  0.33002033  0.08870246  1
  Mn3.34+  Mn115  1  0.41799635  0.33083948  0.41865900  1
  Mn3.34+  Mn116  1  0.41935097  0.33340372  0.74992345  1
  Mn3.34+  Mn117  1  0.41382483  0.83334617  0.08452786  1
  Mn3.34+  Mn118  1  0.41905606  0.82850574  0.41526515  1
  Mn3.34+  Mn119  1  0.41384738  0.83592612  0.75974034  1
  Mn3.34+  Mn120  1  0.74914175  0.33338503  0.08176838  1
  Mn3.34+  Mn121  1  0.74397661  0.33118561  0.42473848  1
  Mn3.34+  Mn122  1  0.74352350  0.32645737  0.75295031  1
  Mn3.34+  Mn123  1  0.75128524  0.83348971  0.08390716  1
  Mn3.34+  Mn124  1  0.74832596  0.82963755  0.41673717  1
  Mn3.34+  Mn125  1  0.75300554  0.83304253  0.74982083  1
  Mn3.34+  Mn126  1  0.25567654  0.32933312  0.24724139  1
  Mn3.34+  Mn127  1  0.25115559  0.34017810  0.58373159  1
  Mn3.34+  Mn128  1  0.24389001  0.33282266  0.92011189  1
  Mn3.34+  Mn129  1  0.25129412  0.83599168  0.24195415  1
  Mn3.34+  Mn130  1  0.24731224  0.83443050  0.57829128  1
  Mn3.34+  Mn131  1  0.24954791  0.83690873  0.91813334  1
  Mn3.34+  Mn132  1  0.57934654  0.33352067  0.25129715  1
  Mn3.34+  Mn133  1  0.58379140  0.33902080  0.57786672  1
  Mn3.34+  Mn134  1  0.58344741  0.33311293  0.91716030  1
  Mn3.34+  Mn135  1  0.57657318  0.83274930  0.25102536  1
  Mn3.34+  Mn136  1  0.58671168  0.82670084  0.57872361  1
  Mn3.34+  Mn137  1  0.58114373  0.83427903  0.91678069  1
  Mn3.34+  Mn138  1  0.91134426  0.33372801  0.24225920  1
  Mn3.34+  Mn139  1  0.91635969  0.33147442  0.58339534  1
  Mn3.34+  Mn140  1  0.91966583  0.33472337  0.91565073  1
  Mn3.34+  Mn141  1  0.91872248  0.83047356  0.24708106  1
  Mn3.34+  Mn142  1  0.91407013  0.83180446  0.58509092  1
  Mn3.34+  Mn143  1  0.91611189  0.83845153  0.92050270  1
  Mn3.34+  Mn144  1  0.25769690  0.16562800  0.57463973  1
  Mn3.34+  Mn145  1  0.75150289  0.66594091  0.08591156  1
  Mn3.34+  Mn146  1  0.24093618  0.66869808  0.91724388  1
  Mn3.34+  Mn147  1  0.74452598  0.66723253  0.75201559  1
  Mn3.34+  Mn148  1  0.24347553  0.17105455  0.57761423  1
  Mn3.34+  Mn149  1  0.91629065  0.16852117  0.58029084  1
  Mn3.34+  Mn150  1  0.57907391  0.16068453  0.91173178  1
  Mn3.34+  Mn151  1  0.42208760  0.16981372  0.42461220  1
  Mn3.34+  Mn152  1  0.74134846  0.66005878  0.41808533  1
  Mn3.34+  Mn153  1  0.75089125  0.66577062  0.41930412  1
  Mn3.34+  Mn154  1  0.41208350  0.16506567  0.75088498  1
  Mn3.34+  Mn155  1  0.58411161  0.16604812  0.24724605  1
  Mn3.34+  Mn156  1  0.25201449  0.65841436  0.24659371  1
  Mn3.34+  Mn157  1  0.91551223  0.67291062  0.24549372  1
  Mn3.34+  Mn158  1  0.58178776  0.16934307  0.58219190  1
  Mn3.34+  Mn159  1  0.24514120  0.16147637  0.24855878  1
  Mn3.34+  Mn160  1  0.07738047  0.17154208  0.41725579  1
  Mn3.34+  Mn161  1  0.92232915  0.66897110  0.91273027  1
  Mn3.34+  Mn162  1  0.92164981  0.67512934  0.58733199  1
  Mn3.34+  Mn163  1  0.58362868  0.67150836  0.91444913  1
  Mn3.34+  Mn164  1  0.08766609  0.66972493  0.08956048  1
  Mn3.34+  Mn165  1  0.08332502  0.66783499  0.74971244  1
  Mn3.34+  Mn166  1  0.58782917  0.16665242  0.91494334  1
  Mn3.34+  Mn167  1  0.25474270  0.66295957  0.91303031  1
  Mn3.34+  Mn168  1  0.25387826  0.17098466  0.25213455  1
  Mn3.34+  Mn169  1  0.75349877  0.16919941  0.08580102  1
  Mn3.34+  Mn170  1  0.73864351  0.65872037  0.08717617  1
  Mn3.34+  Mn171  1  0.57719985  0.66321665  0.57711119  1
  Mn3.34+  Mn172  1  0.57505400  0.65965532  0.24903799  1
  Mn3.34+  Mn173  1  0.41505012  0.16935981  0.08159303  1
  Mn3.34+  Mn174  1  0.92260303  0.17003435  0.91701165  1
  Mn3.34+  Mn175  1  0.24695131  0.16583502  0.92209446  1
  Mn3.34+  Mn176  1  0.75223297  0.16779625  0.42417507  1
  Mn3.34+  Mn177  1  0.91073398  0.66470005  0.91077850  1
  Mn3.34+  Mn178  1  0.08230164  0.16829640  0.75204132  1
  Mn3.34+  Mn179  1  0.90969965  0.66744020  0.58398279  1
  Mn3.34+  Mn180  1  0.42684818  0.49915512  0.74622890  1
  Mn3.34+  Mn181  1  0.07731035  -0.01171846  0.08709477  1
  Mn3.34+  Mn182  1  0.05553790  -0.00068534  0.41210411  1
  Mn3.34+  Mn183  1  0.23352630  -0.00479273  0.93207017  1
  Mn3.34+  Mn184  1  0.08657326  0.50674933  0.74319338  1
  Mn3.34+  Mn185  1  0.41554076  0.50688705  0.74751667  1
  Mn3.34+  Mn186  1  0.91709253  0.49815696  0.92724935  1
  Mn3.34+  Mn187  1  0.40575044  -0.00217084  0.08610958  1
  Mn3.34+  Mn188  1  0.59023011  0.49969058  0.91164122  1
  Mn3.34+  Mn189  1  0.24098791  0.00770759  0.57980370  1
  Mn3.34+  Mn190  1  0.06844843  0.00521976  0.41536370  1
  Mn3.34+  Mn191  1  0.08579912  0.49552475  0.42399918  1
  Mn3.34+  Mn192  1  0.91442722  -0.00950864  0.24343798  1
  Mn3.34+  Mn193  1  0.75502670  0.00414257  0.41414199  1
  Mn3.34+  Mn194  1  0.58096661  0.50581494  0.91484173  1
  Mn3.34+  Mn195  1  0.09835103  0.50329591  0.08824465  1
  Mn3.34+  Mn196  1  0.58605313  0.50127565  0.58395686  1
  Mn3.34+  Mn197  1  0.74009280  0.50405581  0.08718874  1
  Mn3.34+  Mn198  1  0.58339508  -0.00162385  0.91411120  1
  Mn3.34+  Mn199  1  0.76690977  -0.00360845  0.07559947  1
  Mn3.34+  Mn200  1  0.91073264  0.50049134  0.58209102  1
  Mn3.34+  Mn201  1  0.26002165  0.49986953  0.58080579  1
  Mn3.34+  Mn202  1  0.41654805  0.00226262  0.08710241  1
  Mn3.34+  Mn203  1  0.75440713  0.00302433  0.07870016  1
  Mn3.34+  Mn204  1  0.43818083  -0.00025710  0.42212431  1
  Mn3.34+  Mn205  1  0.42509048  0.00629484  0.42465842  1
  Mn3.34+  Mn206  1  0.09782893  0.50223643  0.74371652  1
  Mn3.34+  Mn207  1  0.74771728  0.49875927  0.42754738  1
  Mn3.34+  Mn208  1  0.58813626  0.00009503  0.25532362  1
  Mn3.34+  Mn209  1  0.25055372  0.50277044  0.91079645  1
  Mn3.34+  Mn210  1  0.91346409  0.00214542  0.57867007  1
  Mn3.34+  Mn211  1  0.92585486  -0.00001304  0.91765606  1
  Mn3.34+  Mn212  1  0.75006102  -0.00219007  0.73469276  1
  Mn3.34+  Mn213  1  0.25164954  0.00254585  0.58144656  1
  Mn3.34+  Mn214  1  0.91211962  0.49936839  0.25715943  1
  Mn3.34+  Mn215  1  0.58810971  -0.00217596  0.58166211  1
  O2-  O216  1  0.00547793  0.16134212  -0.01250374  1
  O2-  O217  1  -0.00105762  0.17414477  0.34072976  1
  O2-  O218  1  -0.00063667  0.15323734  0.66665668  1
  O2-  O219  1  0.00149287  0.64215985  -0.00128669  1
  O2-  O220  1  -0.00309560  0.66391746  0.32593949  1
  O2-  O221  1  -0.00435605  0.64351574  0.66606548  1
  O2-  O222  1  0.33235211  0.14887685  0.00028895  1
  O2-  O223  1  0.33175581  0.16305981  0.33822284  1
  O2-  O224  1  0.32723477  0.14380638  0.66188318  1
  O2-  O225  1  0.33363477  0.65069861  -0.00770165  1
  O2-  O226  1  0.32929686  0.66202413  0.32208407  1
  O2-  O227  1  0.34798293  0.69762654  0.68245645  1
  O2-  O228  1  0.67292663  0.14125388  0.00039265  1
  O2-  O229  1  0.67816117  0.14969830  0.32660290  1
  O2-  O230  1  0.66565527  0.18655543  0.65525478  1
  O2-  O231  1  0.67851546  0.64441987  -0.00960588  1
  O2-  O232  1  0.66830516  0.67614858  0.33209019  1
  O2-  O233  1  0.66602049  0.65731325  0.66764833  1
  O2-  O234  1  0.16907290  0.16324204  -0.00189006  1
  O2-  O235  1  0.16291528  0.14773154  0.32915603  1
  O2-  O236  1  0.16758378  0.14486118  0.66263850  1
  O2-  O237  1  0.17358400  0.63983685  0.00566492  1
  O2-  O238  1  0.17421247  0.67627122  0.31944422  1
  O2-  O239  1  0.16834270  0.65444712  0.67949585  1
  O2-  O240  1  0.50132357  0.13587150  -0.01100228  1
  O2-  O241  1  0.50202302  0.15727125  0.33681349  1
  O2-  O242  1  0.49627533  0.16949214  0.66473006  1
  O2-  O243  1  0.50802526  0.65810949  -0.00797044  1
  O2-  O244  1  0.50031631  0.66303752  0.33218197  1
  O2-  O245  1  0.49680677  0.66001907  0.65444192  1
  O2-  O246  1  0.83761274  0.14735883  0.00378670  1
  O2-  O247  1  0.83525964  0.16409805  0.34560611  1
  O2-  O248  1  0.84344086  0.15529773  0.66693655  1
  O2-  O249  1  0.83848231  0.64013400  0.00608140  1
  O2-  O250  1  0.84103183  0.66574430  0.34219159  1
  O2-  O251  1  0.82927508  0.66801466  0.66690673  1
  O2-  O252  1  0.00028072  0.35777565  0.00104693  1
  O2-  O253  1  -0.00435562  0.34435338  0.32703745  1
  O2-  O254  1  -0.01033352  0.35441094  0.67585448  1
  O2-  O255  1  -0.00081820  0.84891448  0.00202545  1
  O2-  O256  1  -0.00676663  0.82819246  0.33946901  1
  O2-  O257  1  -0.00827892  0.83952292  0.67229392  1
  O2-  O258  1  0.33023002  0.34990421  0.00645473  1
  O2-  O259  1  0.33560796  0.30574780  0.33496182  1
  O2-  O260  1  0.33456119  0.34859400  0.66897959  1
  O2-  O261  1  0.32671033  0.85604260  0.00608189  1
  O2-  O262  1  0.32546220  0.83097880  0.33693529  1
  O2-  O263  1  0.33138633  0.84768106  0.66967876  1
  O2-  O264  1  0.66165209  0.35654193  0.00385754  1
  O2-  O265  1  0.65600205  0.35183547  0.34320519  1
  O2-  O266  1  0.66363974  0.32045362  0.66890917  1
  O2-  O267  1  0.66905625  0.85594232  -0.00791910  1
  O2-  O268  1  0.67160526  0.83049881  0.32868736  1
  O2-  O269  1  0.67334155  0.83785509  0.66217638  1
  O2-  O270  1  0.17267242  0.35445828  0.01165931  1
  O2-  O271  1  0.18016531  0.35276046  0.34009145  1
  O2-  O272  1  0.16658571  0.34943784  0.67133561  1
  O2-  O273  1  0.16052357  0.85607925  -0.00695852  1
  O2-  O274  1  0.16471896  0.83964094  0.32814099  1
  O2-  O275  1  0.16304494  0.84301364  0.65925698  1
  O2-  O276  1  0.49687069  0.35366860  0.00139436  1
  O2-  O277  1  0.48731213  0.34754708  0.32178477  1
  O2-  O278  1  0.50815548  0.33537467  0.67144217  1
  O2-  O279  1  0.49470567  0.85343911  -0.00354303  1
  O2-  O280  1  0.49885046  0.83516216  0.33584890  1
  O2-  O281  1  0.50018887  0.83526751  0.67409993  1
  O2-  O282  1  0.83110490  0.35206306  -0.00436933  1
  O2-  O283  1  0.82405707  0.34553750  0.32672048  1
  O2-  O284  1  0.82794358  0.33518409  0.66808621  1
  O2-  O285  1  0.83002090  0.84381575  -0.00189790  1
  O2-  O286  1  0.83247542  0.80911002  0.33580116  1
  O2-  O287  1  0.83095908  0.80458167  0.66589933  1
  O2-  O288  1  -0.01058468  0.17886304  0.17022807  1
  O2-  O289  1  0.00663555  0.18763941  0.50652222  1
  O2-  O290  1  -0.00746206  0.18196648  0.82440325  1
  O2-  O291  1  -0.01020438  0.68447220  0.15522220  1
  O2-  O292  1  0.00085224  0.67856154  0.50481544  1
  O2-  O293  1  -0.00465240  0.68728976  0.82543661  1
  O2-  O294  1  0.33239201  0.19031227  0.17430807  1
  O2-  O295  1  0.33531905  0.19519391  0.49860345  1
  O2-  O296  1  0.32759718  0.17664797  0.83062502  1
  O2-  O297  1  0.32429799  0.68054316  0.17024688  1
  O2-  O298  1  0.31810143  0.66641496  0.49265410  1
  O2-  O299  1  0.32196435  0.68766130  0.83259040  1
  O2-  O300  1  0.66497401  0.18032267  0.16287184  1
  O2-  O301  1  0.65972880  0.18029844  0.49369840  1
  O2-  O302  1  0.67313477  0.18472724  0.84338003  1
  O2-  O303  1  0.65902964  0.67852429  0.16390772  1
  O2-  O304  1  0.66702900  0.68769208  0.49934540  1
  O2-  O305  1  0.66724795  0.68951973  0.82734133  1
  O2-  O306  1  0.16641521  0.18014011  0.17162473  1
  O2-  O307  1  0.16890483  0.18383765  0.49397414  1
  O2-  O308  1  0.17270080  0.17874194  0.82400253  1
  O2-  O309  1  0.16584233  0.68599598  0.16674413  1
  O2-  O310  1  0.18059201  0.67414532  0.49120659  1
  O2-  O311  1  0.15585506  0.68518721  0.84605256  1
  O2-  O312  1  0.50152848  0.18235158  0.16311849  1
  O2-  O313  1  0.50066056  0.19566892  0.50130977  1
  O2-  O314  1  0.49574099  0.18124135  0.83337526  1
  O2-  O315  1  0.49154406  0.66748042  0.17846288  1
  O2-  O316  1  0.50774466  0.66803794  0.49411225  1
  O2-  O317  1  0.50877853  0.68471512  0.83432964  1
  O2-  O318  1  0.82389279  0.18063152  0.17110824  1
  O2-  O319  1  0.82709878  0.18581102  0.50888204  1
  O2-  O320  1  0.83171940  0.17928491  0.84208228  1
  O2-  O321  1  0.83000633  0.68966574  0.16676219  1
  O2-  O322  1  0.83468260  0.69722902  0.50315745  1
  O2-  O323  1  0.82773157  0.69170346  0.83122510  1
  O2-  O324  1  -0.00484510  0.32220769  0.16399849  1
  O2-  O325  1  -0.00559098  0.31888900  0.48911454  1
  O2-  O326  1  -0.00003182  0.31974913  0.83454898  1
  O2-  O327  1  0.00610904  0.81102594  0.17451967  1
  O2-  O328  1  0.00422845  0.81518616  0.50840938  1
  O2-  O329  1  0.00658735  0.82550786  0.84097187  1
  O2-  O330  1  0.32969757  0.30641974  0.16307539  1
  O2-  O331  1  0.33584641  0.31592853  0.49676964  1
  O2-  O332  1  0.33074582  0.32681796  0.84013054  1
  O2-  O333  1  0.33686017  0.81312293  0.17228519  1
  O2-  O334  1  0.33507341  0.84196326  0.50242079  1
  O2-  O335  1  0.33453992  0.81557490  0.83788035  1
  O2-  O336  1  0.67338311  0.32459386  0.18055747  1
  O2-  O337  1  0.66918837  0.31223017  0.50642801  1
  O2-  O338  1  0.66508411  0.30886853  0.83571280  1
  O2-  O339  1  0.66671940  0.82369781  0.16244684  1
  O2-  O340  1  0.66978465  0.81834366  0.50126182  1
  O2-  O341  1  0.65963735  0.81860017  0.82564263  1
  O2-  O342  1  0.16188702  0.32009946  0.17819863  1
  O2-  O343  1  0.16729864  0.32366025  0.50087440  1
  O2-  O344  1  0.16191284  0.31965691  0.84079874  1
  O2-  O345  1  0.17610857  0.81428719  0.15946289  1
  O2-  O346  1  0.17824813  0.83272626  0.48388557  1
  O2-  O347  1  0.17119941  0.82027481  0.82761499  1
  O2-  O348  1  0.50622872  0.31852998  0.16220373  1
  O2-  O349  1  0.50437178  0.31599345  0.49153716  1
  O2-  O350  1  0.48947201  0.32306550  0.84604922  1
  O2-  O351  1  0.50484806  0.82193923  0.15689549  1
  O2-  O352  1  0.49118316  0.82207456  0.51244842  1
  O2-  O353  1  0.49631558  0.81247295  0.83551807  1
  O2-  O354  1  0.83477979  0.30956940  0.16108619  1
  O2-  O355  1  0.84069810  0.31654874  0.48841445  1
  O2-  O356  1  0.83518288  0.31624930  0.82690435  1
  O2-  O357  1  0.83252202  0.81346635  0.17259250  1
  O2-  O358  1  0.83642577  0.81625251  0.49845249  1
  O2-  O359  1  0.82845915  0.82016382  0.83762774  1
  O2-  O360  1  0.07951336  0.06090431  0.13239305  1
  O2-  O361  1  0.08160230  0.08429240  0.45111086  1
  O2-  O362  1  0.07733221  0.08678165  0.77308435  1
  O2-  O363  1  0.07216623  0.58470590  0.12971561  1
  O2-  O364  1  0.07506849  0.57703012  0.44113443  1
  O2-  O365  1  0.07492567  0.58201679  0.79515926  1
  O2-  O366  1  0.41905983  0.08373160  0.11966303  1
  O2-  O367  1  0.42421548  0.08335438  0.46814812  1
  O2-  O368  1  0.38973019  0.08152592  0.77286783  1
  O2-  O369  1  0.40371226  0.55179513  0.13025176  1
  O2-  O370  1  0.39999835  0.56234347  0.41860295  1
  O2-  O371  1  0.42655599  0.57110593  0.81718231  1
  O2-  O372  1  0.74297324  0.07841916  0.12720121  1
  O2-  O373  1  0.74473288  0.08339311  0.45625787  1
  O2-  O374  1  0.77211422  0.07571830  0.77012071  1
  O2-  O375  1  0.77229013  0.58364333  0.12915200  1
  O2-  O376  1  0.75849422  0.58017456  0.46207306  1
  O2-  O377  1  0.75551776  0.58633517  0.76791278  1
  O2-  O378  1  0.27105197  0.08033783  0.22533724  1
  O2-  O379  1  0.25255431  0.08344424  0.52610581  1
  O2-  O380  1  0.24569549  0.07976180  0.89468479  1
  O2-  O381  1  0.23624024  0.58164061  0.23093056  1
  O2-  O382  1  0.25611031  0.57730902  0.56117678  1
  O2-  O383  1  0.24218704  0.58408606  0.87304452  1
  O2-  O384  1  0.57541373  0.08056689  0.21756837  1
  O2-  O385  1  0.58244568  0.07927225  0.55724606  1
  O2-  O386  1  0.61362520  0.08111614  0.87615348  1
  O2-  O387  1  0.57845446  0.58160274  0.25478008  1
  O2-  O388  1  0.60191255  0.57834787  0.54865404  1
  O2-  O389  1  0.59684590  0.58451741  0.87625315  1
  O2-  O390  1  0.90211217  0.06728362  0.19915157  1
  O2-  O391  1  0.91765186  0.08413527  0.55511509  1
  O2-  O392  1  0.90896123  0.08230177  0.87947938  1
  O2-  O393  1  0.92251140  0.58264149  0.22922059  1
  O2-  O394  1  0.90682458  0.58350095  0.53916525  1
  O2-  O395  1  0.90336589  0.58047262  0.87620422  1
  O2-  O396  1  0.08587280  0.42221196  0.12569292  1
  O2-  O397  1  0.05892825  0.41574566  0.43833339  1
  O2-  O398  1  0.09333384  0.42303331  0.78758724  1
  O2-  O399  1  0.08818290  0.91436823  0.12468116  1
  O2-  O400  1  0.05616947  0.91929463  0.45023545  1
  O2-  O401  1  0.09486151  0.91581851  0.76501505  1
  O2-  O402  1  0.41326849  0.41207769  0.11990974  1
  O2-  O403  1  0.40797128  0.41038782  0.42149630  1
  O2-  O404  1  0.40863246  0.42264614  0.79239664  1
  O2-  O405  1  0.41111709  0.91845772  0.12168396  1
  O2-  O406  1  0.42096954  0.91950032  0.44929970  1
  O2-  O407  1  0.42702109  0.91508995  0.76959898  1
  O2-  O408  1  0.74569872  0.41990884  0.12160428  1
  O2-  O409  1  0.76949344  0.41627323  0.44496078  1
  O2-  O410  1  0.75174998  0.41371482  0.77849155  1
  O2-  O411  1  0.76054131  0.92144443  0.12358657  1
  O2-  O412  1  0.76662841  0.92115091  0.43402951  1
  O2-  O413  1  0.73095223  0.92121318  0.77181113  1
  O2-  O414  1  0.28253592  0.41558136  0.23587899  1
  O2-  O415  1  0.25978755  0.42387302  0.53565140  1
  O2-  O416  1  0.25253821  0.41980875  0.88644993  1
  O2-  O417  1  0.25306473  0.91526396  0.24291780  1
  O2-  O418  1  0.23761324  0.92166982  0.55412239  1
  O2-  O419  1  0.25900053  0.91968213  0.88035711  1
  O2-  O420  1  0.58156545  0.41771596  0.22495382  1
  O2-  O421  1  0.58336255  0.42603934  0.54416096  1
  O2-  O422  1  0.59393742  0.42496377  0.85856572  1
  O2-  O423  1  0.59899284  0.91904543  0.22818521  1
  O2-  O424  1  0.58245179  0.91299345  0.57173235  1
  O2-  O425  1  0.57295820  0.91642717  0.88074726  1
  O2-  O426  1  0.88443447  0.42133774  0.22076407  1
  O2-  O427  1  0.91107115  0.41592253  0.55571591  1
  O2-  O428  1  0.90883047  0.42077000  0.87311120  1
  O2-  O429  1  0.89300756  0.91187458  0.26698984  1
  O2-  O430  1  0.90417355  0.92119617  0.55594815  1
  O2-  O431  1  0.91110984  0.92001238  0.88777955  1
  O2-  O432  1  0.01103786  0.00187928  -0.00134285  1
  O2-  O433  1  0.01029974  0.01171438  0.30784025  1
  O2-  O434  1  0.00903676  0.00469403  0.63470527  1
  O2-  O435  1  0.00326234  0.51649956  0.00953620  1
  O2-  O436  1  0.00910907  0.50701054  0.33169997  1
  O2-  O437  1  -0.00862849  0.50460537  0.67701004  1
  O2-  O438  1  0.34559706  0.00150519  -0.01660493  1
  O2-  O439  1  0.32885596  -0.00175276  0.36005892  1
  O2-  O440  1  0.32980223  -0.00323611  0.66531344  1
  O2-  O441  1  0.34131128  0.49373034  -0.02026633  1
  O2-  O442  1  0.33394754  0.49447108  0.33100419  1
  O2-  O443  1  0.32297031  0.49939580  0.67874436  1
  O2-  O444  1  0.65877054  -0.00284721  0.01364648  1
  O2-  O445  1  0.66667467  0.01936875  0.33649477  1
  O2-  O446  1  0.69432411  -0.00054575  0.62934200  1
  O2-  O447  1  0.69068369  0.50035222  -0.02524610  1
  O2-  O448  1  0.67598495  0.48114889  0.34258083  1
  O2-  O449  1  0.66050300  0.49733268  0.66149763  1
  O2-  O450  1  0.18359521  -0.00568506  0.04281351  1
  O2-  O451  1  0.17643393  -0.00831922  0.37601830  1
  O2-  O452  1  0.17119587  0.02095799  0.67104416  1
  O2-  O453  1  0.16168594  0.49491280  -0.01411054  1
  O2-  O454  1  0.17182752  0.48961100  0.35444590  1
  O2-  O455  1  0.16278078  0.50107981  0.64852592  1
  O2-  O456  1  0.50162090  0.00782044  0.00538694  1
  O2-  O457  1  0.49494742  0.01739919  0.32482374  1
  O2-  O458  1  0.47457801  -0.00860087  0.60225144  1
  O2-  O459  1  0.49958223  0.47838079  -0.01135787  1
  O2-  O460  1  0.50050101  0.49907389  0.33082792  1
  O2-  O461  1  0.50264600  0.50975791  0.66134489  1
  O2-  O462  1  0.81625217  0.01034920  -0.02950728  1
  O2-  O463  1  0.82643136  0.01329498  0.31756552  1
  O2-  O464  1  0.85298969  0.00894469  0.67857223  1
  O2-  O465  1  0.85224235  0.50249311  0.03368081  1
  O2-  O466  1  0.85741084  0.50402522  0.37324611  1
  O2-  O467  1  0.83729788  0.49944216  0.67906799  1
  O2-  O468  1  0.08324065  0.26066950  0.05896340  1
  O2-  O469  1  0.73673311  0.25013977  0.05080535  1
  O2-  O470  1  0.08156388  0.74838104  0.71797556  1
  O2-  O471  1  0.24519438  0.25093544  0.61580552  1
  O2-  O472  1  0.25229907  0.75604981  0.58698920  1
  O2-  O473  1  0.57368490  0.24420902  0.95461868  1
  O2-  O474  1  0.08255498  0.25149563  0.71988328  1
  O2-  O475  1  0.41167827  0.75686195  0.05425283  1
  O2-  O476  1  0.08240539  0.74833445  0.05009085  1
  O2-  O477  1  0.59161939  0.75308136  0.95173238  1
  O2-  O478  1  0.92351236  0.25067421  0.61106292  1
  O2-  O479  1  0.58524521  0.25089226  0.27623502  1
  O2-  O480  1  0.40123917  0.24921898  0.73055016  1
  O2-  O481  1  0.09067045  0.75280175  0.40894564  1
  O2-  O482  1  0.91504450  0.25270866  0.94579661  1
  O2-  O483  1  0.24092643  0.74893145  0.95221406  1
  O2-  O484  1  0.25598256  0.25037054  0.94119580  1
  O2-  O485  1  0.57453255  0.75108584  0.25922815  1
  O2-  O486  1  0.74231716  0.25071782  0.38971176  1
  O2-  O487  1  0.10139909  0.25323331  0.38401828  1
  O2-  O488  1  0.42566923  0.25003564  0.04893706  1
  O2-  O489  1  0.58472004  0.74704616  0.60442769  1
  O2-  O490  1  0.92172506  0.75015706  0.94645846  1
  O2-  O491  1  0.74557388  0.74400683  0.05042494  1
  O2-  O492  1  0.40843166  0.75042931  0.41358091  1
