# generated using pymatgen
data_Ca108Mn108O277
_symmetry_space_group_name_H-M   'P 1'
_cell_length_a   16.02206855
_cell_length_b   22.29948652
_cell_length_c   16.38396557
_cell_angle_alpha   90.00206302
_cell_angle_beta   90.00188983
_cell_angle_gamma   89.99479401
_symmetry_Int_Tables_number   1
_chemical_formula_structural   Ca108Mn108O277
_chemical_formula_sum   'Ca108 Mn108 O277'
_cell_volume   5853.72711212
_cell_formula_units_Z   1
loop_
 _symmetry_equiv_pos_site_id
 _symmetry_equiv_pos_as_xyz
  1  'x, y, z'
loop_
 _atom_type_symbol
 _atom_type_oxidation_number
  Ca2+  2.0
  Mn3.34+  3.34
  O2-  -2.0
loop_
 _atom_site_type_symbol
 _atom_site_label
 _atom_site_symmetry_multiplicity
 _atom_site_fract_x
 _atom_site_fract_y
 _atom_site_fract_z
 _atom_site_occupancy
  Ca2+  Ca0  1  0.06692049  0.25397170  0.25715117  1
  Ca2+  Ca1  1  0.08056144  0.25287238  0.57101178  1
  Ca2+  Ca2  1  0.08059506  0.26317984  0.92361193  1
  Ca2+  Ca3  1  0.07261706  0.74460678  0.27406824  1
  Ca2+  Ca4  1  0.08657118  0.74638543  0.56952959  1
  Ca2+  Ca5  1  0.07624040  0.75152212  0.90720344  1
  Ca2+  Ca6  1  0.41758779  0.24198530  0.24944630  1
  Ca2+  Ca7  1  0.41824412  0.23830127  0.55639145  1
  Ca2+  Ca8  1  0.42329287  0.26324755  0.92923070  1
  Ca2+  Ca9  1  0.42926802  0.75055019  0.23087362  1
  Ca2+  Ca10  1  0.39349272  0.75786576  0.58830052  1
  Ca2+  Ca11  1  0.41729262  0.75218191  0.92231766  1
  Ca2+  Ca12  1  0.75650116  0.25051240  0.24274045  1
  Ca2+  Ca13  1  0.75093224  0.23315175  0.57815917  1
  Ca2+  Ca14  1  0.75202004  0.25421181  0.93633151  1
  Ca2+  Ca15  1  0.75574187  0.76629306  0.25177291  1
  Ca2+  Ca16  1  0.76214728  0.76649737  0.59090432  1
  Ca2+  Ca17  1  0.76238327  0.73960959  0.89298327  1
  Ca2+  Ca18  1  0.27083607  0.24348457  0.11120675  1
  Ca2+  Ca19  1  0.27220534  0.23423317  0.39737993  1
  Ca2+  Ca20  1  0.25848723  0.24912152  0.73440154  1
  Ca2+  Ca21  1  0.26466523  0.75257537  0.07834156  1
  Ca2+  Ca22  1  0.22545516  0.74489441  0.43811198  1
  Ca2+  Ca23  1  0.24474652  0.74198957  0.73122870  1
  Ca2+  Ca24  1  0.59343011  0.24029781  0.09929920  1
  Ca2+  Ca25  1  0.57389046  0.22112013  0.40397135  1
  Ca2+  Ca26  1  0.59235114  0.24820575  0.74088489  1
  Ca2+  Ca27  1  0.59081188  0.74482337  0.09202803  1
  Ca2+  Ca28  1  0.59605435  0.77131423  0.41074758  1
  Ca2+  Ca29  1  0.60555725  0.75760265  0.74787223  1
  Ca2+  Ca30  1  0.89119214  0.24806392  0.10471721  1
  Ca2+  Ca31  1  0.90496154  0.24593363  0.39764869  1
  Ca2+  Ca32  1  0.90359711  0.24989490  0.74255218  1
  Ca2+  Ca33  1  0.89845260  0.74796545  0.08315390  1
  Ca2+  Ca34  1  0.93133917  0.75324165  0.42474346  1
  Ca2+  Ca35  1  0.90303153  0.75453678  0.73993760  1
  Ca2+  Ca36  1  0.91426548  0.60165056  0.75914711  1
  Ca2+  Ca37  1  0.87562055  0.09709639  0.73210474  1
  Ca2+  Ca38  1  0.59425063  0.09324105  0.72501552  1
  Ca2+  Ca39  1  0.26157061  0.59257730  0.06996922  1
  Ca2+  Ca40  1  0.89336986  0.09556720  0.42463649  1
  Ca2+  Ca41  1  0.59604237  0.58554441  0.40531859  1
  Ca2+  Ca42  1  0.89533251  0.10676760  0.10077312  1
  Ca2+  Ca43  1  0.58275659  0.58609577  0.40380671  1
  Ca2+  Ca44  1  0.20232671  0.60413636  0.42443153  1
  Ca2+  Ca45  1  0.60536781  0.09294410  0.72377697  1
  Ca2+  Ca46  1  0.39757480  0.10965955  0.24215143  1
  Ca2+  Ca47  1  0.37856567  0.60656797  0.59951619  1
  Ca2+  Ca48  1  0.07689710  0.58683296  0.27363894  1
  Ca2+  Ca49  1  0.76548570  0.10438745  0.26378359  1
  Ca2+  Ca50  1  0.88627674  0.09526639  0.72958730  1
  Ca2+  Ca51  1  0.59395324  0.59369855  0.75513280  1
  Ca2+  Ca52  1  0.58191890  0.58393555  0.07375871  1
  Ca2+  Ca53  1  0.09237963  0.61036886  0.57246142  1
  Ca2+  Ca54  1  0.95588646  0.58722853  0.41026537  1
  Ca2+  Ca55  1  0.78477111  0.58483638  0.23976353  1
  Ca2+  Ca56  1  0.27625307  0.07121203  0.70935347  1
  Ca2+  Ca57  1  0.26290240  0.10093079  0.10862517  1
  Ca2+  Ca58  1  0.26966449  0.09305216  0.40813230  1
  Ca2+  Ca59  1  0.40565615  0.08167534  0.92510292  1
  Ca2+  Ca60  1  0.41426832  0.08571003  0.93215207  1
  Ca2+  Ca61  1  0.76413323  0.59697637  0.60657475  1
  Ca2+  Ca62  1  0.92282593  0.59867657  0.76342526  1
  Ca2+  Ca63  1  0.07643879  0.58464666  0.91227731  1
  Ca2+  Ca64  1  0.42059914  0.09548671  0.56937202  1
  Ca2+  Ca65  1  0.41535533  0.58545090  0.92164771  1
  Ca2+  Ca66  1  0.76733440  0.10269514  0.92068136  1
  Ca2+  Ca67  1  0.08972384  0.09218336  0.25684623  1
  Ca2+  Ca68  1  0.40550866  0.10559161  0.24569596  1
  Ca2+  Ca69  1  0.77029755  0.10780068  0.25637395  1
  Ca2+  Ca70  1  0.77236077  0.58489269  0.23872375  1
  Ca2+  Ca71  1  0.91339501  0.57602152  0.06004800  1
  Ca2+  Ca72  1  0.40951018  0.39656653  0.58886688  1
  Ca2+  Ca73  1  0.22881891  0.40420854  0.41455088  1
  Ca2+  Ca74  1  0.40420323  0.90630412  0.91143791  1
  Ca2+  Ca75  1  0.08786535  0.91764510  0.26393602  1
  Ca2+  Ca76  1  0.75348942  0.38679479  0.58228730  1
  Ca2+  Ca77  1  0.92103776  0.40170056  0.74585499  1
  Ca2+  Ca78  1  0.24769575  0.91200986  0.43033602  1
  Ca2+  Ca79  1  0.57267400  0.91231570  0.72968810  1
  Ca2+  Ca80  1  0.05300675  0.42218979  0.27328603  1
  Ca2+  Ca81  1  0.89832948  0.92349826  0.41967878  1
  Ca2+  Ca82  1  0.06630714  0.42167334  0.92448071  1
  Ca2+  Ca83  1  0.26012453  0.91636832  0.72700330  1
  Ca2+  Ca84  1  0.25564538  0.40718180  0.07895391  1
  Ca2+  Ca85  1  0.59225387  0.90461467  0.08673589  1
  Ca2+  Ca86  1  0.24839362  0.90149689  0.08205106  1
  Ca2+  Ca87  1  0.42086636  0.39769791  0.58748942  1
  Ca2+  Ca88  1  0.07726089  0.91776737  0.26432812  1
  Ca2+  Ca89  1  0.26862539  0.91851389  0.73233537  1
  Ca2+  Ca90  1  0.77002258  0.90574683  0.90984562  1
  Ca2+  Ca91  1  0.58653902  0.39457584  0.76142520  1
  Ca2+  Ca92  1  0.24276767  0.40688847  0.07947232  1
  Ca2+  Ca93  1  0.42630625  0.39797701  0.24353105  1
  Ca2+  Ca94  1  0.41390216  0.39749288  0.24454765  1
  Ca2+  Ca95  1  0.07694169  0.40259136  0.57847795  1
  Ca2+  Ca96  1  0.23316982  0.41011911  0.75199769  1
  Ca2+  Ca97  1  0.59350585  0.39071038  0.41861375  1
  Ca2+  Ca98  1  0.58074488  0.90455424  0.08610596  1
  Ca2+  Ca99  1  0.38579636  0.91280488  0.25601778  1
  Ca2+  Ca100  1  0.39790544  0.91025835  0.25719029  1
  Ca2+  Ca101  1  0.24555466  0.40770954  0.75148827  1
  Ca2+  Ca102  1  0.07565092  0.90584323  0.57943509  1
  Ca2+  Ca103  1  0.91196039  0.90679240  0.09299607  1
  Ca2+  Ca104  1  0.41012207  0.92402018  0.59290209  1
  Ca2+  Ca105  1  0.91185757  0.90743167  0.08076562  1
  Ca2+  Ca106  1  0.76043558  0.90198372  0.91225509  1
  Ca2+  Ca107  1  0.05685607  0.42425175  0.92118990  1
  Mn3.34+  Mn108  1  0.07434142  0.33877369  0.08955219  1
  Mn3.34+  Mn109  1  0.07420808  0.33909718  0.41584604  1
  Mn3.34+  Mn110  1  0.07916764  0.33265539  0.75409928  1
  Mn3.34+  Mn111  1  0.08462844  0.82365965  0.08438539  1
  Mn3.34+  Mn112  1  0.08094401  0.83462256  0.42105290  1
  Mn3.34+  Mn113  1  0.08142431  0.83235547  0.74959154  1
  Mn3.34+  Mn114  1  0.42452935  0.33174998  0.07849161  1
  Mn3.34+  Mn115  1  0.41613764  0.32938752  0.41608084  1
  Mn3.34+  Mn116  1  0.41843134  0.33000828  0.75699022  1
  Mn3.34+  Mn117  1  0.41490934  0.83211877  0.08164235  1
  Mn3.34+  Mn118  1  0.41542505  0.83385609  0.42203326  1
  Mn3.34+  Mn119  1  0.41812806  0.83237973  0.75361856  1
  Mn3.34+  Mn120  1  0.74870952  0.33785074  0.08631198  1
  Mn3.34+  Mn121  1  0.75440205  0.33586941  0.41471428  1
  Mn3.34+  Mn122  1  0.75063549  0.32737106  0.75820953  1
  Mn3.34+  Mn123  1  0.74917653  0.83186671  0.08432694  1
  Mn3.34+  Mn124  1  0.75149423  0.84600240  0.42001545  1
  Mn3.34+  Mn125  1  0.75213599  0.83605213  0.74328279  1
  Mn3.34+  Mn126  1  0.24259265  0.33063076  0.25039395  1
  Mn3.34+  Mn127  1  0.24479006  0.32726747  0.57773738  1
  Mn3.34+  Mn128  1  0.25068745  0.33251226  0.91431920  1
  Mn3.34+  Mn129  1  0.24470619  0.82769207  0.24910895  1
  Mn3.34+  Mn130  1  0.24786983  0.83425886  0.58020668  1
  Mn3.34+  Mn131  1  0.24248700  0.83073398  0.90742161  1
  Mn3.34+  Mn132  1  0.59160821  0.32744017  0.24858163  1
  Mn3.34+  Mn133  1  0.58859927  0.32466230  0.58174669  1
  Mn3.34+  Mn134  1  0.58989349  0.34582479  0.92472891  1
  Mn3.34+  Mn135  1  0.58610191  0.83633867  0.25598359  1
  Mn3.34+  Mn136  1  0.58402888  0.83711429  0.57756957  1
  Mn3.34+  Mn137  1  0.58187597  0.83108892  0.91109244  1
  Mn3.34+  Mn138  1  0.90743220  0.34091754  0.24963825  1
  Mn3.34+  Mn139  1  0.91506284  0.32569651  0.57878948  1
  Mn3.34+  Mn140  1  0.90382211  0.34366853  0.91922310  1
  Mn3.34+  Mn141  1  0.91608041  0.83494728  0.25318301  1
  Mn3.34+  Mn142  1  0.91653425  0.84269492  0.58239925  1
  Mn3.34+  Mn143  1  0.92609452  0.83070213  0.91001872  1
  Mn3.34+  Mn144  1  0.41775990  0.16081473  0.75236373  1
  Mn3.34+  Mn145  1  0.58129545  0.66548289  0.91574959  1
  Mn3.34+  Mn146  1  0.91685093  0.66698099  0.91582194  1
  Mn3.34+  Mn147  1  0.59141209  0.66043468  0.91453932  1
  Mn3.34+  Mn148  1  0.07549161  0.17363969  0.08498618  1
  Mn3.34+  Mn149  1  0.08660211  0.16569970  0.75016067  1
  Mn3.34+  Mn150  1  0.59057415  0.16696701  0.56984850  1
  Mn3.34+  Mn151  1  0.91979193  0.16770916  0.91072627  1
  Mn3.34+  Mn152  1  0.58678346  0.66576598  0.58556245  1
  Mn3.34+  Mn153  1  0.25184687  0.17018661  0.91405802  1
  Mn3.34+  Mn154  1  0.58561246  0.66669898  0.24168514  1
  Mn3.34+  Mn155  1  0.08772285  0.16162369  0.42185580  1
  Mn3.34+  Mn156  1  0.75269925  0.66801967  0.41795147  1
  Mn3.34+  Mn157  1  0.25159722  0.66999933  0.90807872  1
  Mn3.34+  Mn158  1  0.08149064  0.67527244  0.08286958  1
  Mn3.34+  Mn159  1  0.59196906  0.17529013  0.91686459  1
  Mn3.34+  Mn160  1  0.23902907  0.16352005  0.91083532  1
  Mn3.34+  Mn161  1  0.57987893  0.16740736  0.91537548  1
  Mn3.34+  Mn162  1  0.58343117  0.16467536  0.24595768  1
  Mn3.34+  Mn163  1  0.07769431  0.17168903  0.74850504  1
  Mn3.34+  Mn164  1  0.07734621  0.16585232  0.42261173  1
  Mn3.34+  Mn165  1  0.92102726  0.67048044  0.58395270  1
  Mn3.34+  Mn166  1  0.08525636  0.16826784  0.08470885  1
  Mn3.34+  Mn167  1  0.40886014  0.67330009  0.41300241  1
  Mn3.34+  Mn168  1  0.75447470  0.66244151  0.07901079  1
  Mn3.34+  Mn169  1  0.25420827  0.16190327  0.57938292  1
  Mn3.34+  Mn170  1  0.41527787  0.66543868  0.08555471  1
  Mn3.34+  Mn171  1  0.76274338  0.66231457  0.41986650  1
  Mn3.34+  Mn172  1  0.09099528  0.66984720  0.08485845  1
  Mn3.34+  Mn173  1  0.90684781  0.16570959  0.57648421  1
  Mn3.34+  Mn174  1  0.57457056  0.67350326  0.58812573  1
  Mn3.34+  Mn175  1  0.42124964  0.68071870  0.41315852  1
  Mn3.34+  Mn176  1  0.41351484  0.66733324  0.75758230  1
  Mn3.34+  Mn177  1  0.92164960  0.66775060  0.24421733  1
  Mn3.34+  Mn178  1  0.08914332  0.65897551  0.75354183  1
  Mn3.34+  Mn179  1  0.25116206  0.67225473  0.24608860  1
  Mn3.34+  Mn180  1  0.42086923  0.49936159  0.42473257  1
  Mn3.34+  Mn181  1  0.59692890  0.49590834  0.58256546  1
  Mn3.34+  Mn182  1  0.08142209  0.00085203  0.40984013  1
  Mn3.34+  Mn183  1  0.74457467  0.50198368  0.77095965  1
  Mn3.34+  Mn184  1  0.06437680  -0.00228283  0.75233940  1
  Mn3.34+  Mn185  1  0.58836676  0.49735273  0.23180073  1
  Mn3.34+  Mn186  1  0.60242745  -0.00159576  0.27444541  1
  Mn3.34+  Mn187  1  0.07566659  0.50182127  0.08451901  1
  Mn3.34+  Mn188  1  0.24273654  0.50291102  0.24805218  1
  Mn3.34+  Mn189  1  0.08013736  0.00143767  0.75262429  1
  Mn3.34+  Mn190  1  0.92586924  0.49974029  0.57757391  1
  Mn3.34+  Mn191  1  0.92651909  0.00096453  0.91428876  1
  Mn3.34+  Mn192  1  0.59352590  0.00456569  0.27455766  1
  Mn3.34+  Mn193  1  0.24557131  0.50031425  0.57920525  1
  Mn3.34+  Mn194  1  0.23386888  0.50424888  0.58172430  1
  Mn3.34+  Mn195  1  0.75146367  -0.00628705  0.73132736  1
  Mn3.34+  Mn196  1  0.41578501  0.50090307  0.75326265  1
  Mn3.34+  Mn197  1  0.58129845  -0.00204828  0.90963731  1
  Mn3.34+  Mn198  1  0.40647602  0.50564526  0.42346037  1
  Mn3.34+  Mn199  1  0.40931352  -0.00095827  0.08059842  1
  Mn3.34+  Mn200  1  0.57991452  -0.00076079  0.58160425  1
  Mn3.34+  Mn201  1  0.41299632  -0.00236291  0.41055231  1
  Mn3.34+  Mn202  1  0.25292620  0.50858241  0.24813694  1
  Mn3.34+  Mn203  1  0.75647581  0.49525044  0.76877142  1
  Mn3.34+  Mn204  1  0.75131500  0.00209246  0.08319441  1
  Mn3.34+  Mn205  1  0.76834184  0.49372196  0.40666795  1
  Mn3.34+  Mn206  1  0.59685172  0.49377255  0.23804474  1
  Mn3.34+  Mn207  1  0.58122030  0.50041657  0.58276321  1
  Mn3.34+  Mn208  1  0.42427920  0.50098800  0.07253614  1
  Mn3.34+  Mn209  1  0.74842540  0.49229482  0.05243128  1
  Mn3.34+  Mn210  1  0.25438022  0.50108267  0.91920473  1
  Mn3.34+  Mn211  1  0.91467892  0.49546364  0.57682384  1
  Mn3.34+  Mn212  1  0.09424323  -0.00296671  0.08225062  1
  Mn3.34+  Mn213  1  0.59239122  0.00128901  0.90880225  1
  Mn3.34+  Mn214  1  0.08422552  0.00075149  0.07745503  1
  Mn3.34+  Mn215  1  0.23862287  -0.00073750  0.91048883  1
  O2-  O216  1  0.00201167  0.17096646  -0.00137441  1
  O2-  O217  1  0.00257849  0.15496378  0.33856003  1
  O2-  O218  1  -0.01012399  0.15792935  0.67524471  1
  O2-  O219  1  0.00802285  0.65828017  -0.00449728  1
  O2-  O220  1  -0.00117921  0.66091098  0.32381779  1
  O2-  O221  1  0.00077705  0.65907457  0.67097773  1
  O2-  O222  1  0.32748853  0.14771838  -0.00587210  1
  O2-  O223  1  0.33348948  0.16035681  0.33334425  1
  O2-  O224  1  0.33816495  0.16860709  0.66685227  1
  O2-  O225  1  0.33385593  0.66813032  -0.00413857  1
  O2-  O226  1  0.33591733  0.68761215  0.32736676  1
  O2-  O227  1  0.34423604  0.68230015  0.67281248  1
  O2-  O228  1  0.66976747  0.16017320  -0.00613770  1
  O2-  O229  1  0.66848613  0.16618998  0.32550294  1
  O2-  O230  1  0.66075195  0.17024353  0.66706923  1
  O2-  O231  1  0.66054946  0.65307376  0.00833871  1
  O2-  O232  1  0.67219169  0.64425694  0.33089107  1
  O2-  O233  1  0.66610423  0.65298247  0.66522746  1
  O2-  O234  1  0.16484437  0.15022335  0.00536552  1
  O2-  O235  1  0.16515596  0.15492534  0.34174313  1
  O2-  O236  1  0.17001989  0.16418930  0.66966652  1
  O2-  O237  1  0.17266258  0.67307717  -0.00005473  1
  O2-  O238  1  0.17056037  0.67013207  0.32331071  1
  O2-  O239  1  0.15473632  0.67563493  0.67188958  1
  O2-  O240  1  0.49300749  0.15487939  -0.01390997  1
  O2-  O241  1  0.49794733  0.15693280  0.32224408  1
  O2-  O242  1  0.49992919  0.15597527  0.67275392  1
  O2-  O243  1  0.49798648  0.65122956  -0.00535256  1
  O2-  O244  1  0.50708739  0.65920738  0.33921924  1
  O2-  O245  1  0.49920790  0.65296499  0.67412990  1
  O2-  O246  1  0.84300982  0.16903968  -0.00742408  1
  O2-  O247  1  0.83392551  0.17259549  0.33898544  1
  O2-  O248  1  0.83097003  0.17392922  0.66330236  1
  O2-  O249  1  0.84241444  0.65570692  0.00351644  1
  O2-  O250  1  0.83541608  0.65226364  0.32637919  1
  O2-  O251  1  0.84716107  0.65476099  0.67183330  1
  O2-  O252  1  0.00227771  0.34363137  -0.00879808  1
  O2-  O253  1  -0.00171480  0.33658670  0.33290638  1
  O2-  O254  1  0.00262593  0.33957050  0.66661541  1
  O2-  O255  1  -0.00462610  0.83964945  0.00901031  1
  O2-  O256  1  0.00480394  0.84733982  0.33238038  1
  O2-  O257  1  0.01189116  0.82788162  0.65866698  1
  O2-  O258  1  0.32976247  0.34598242  0.00279573  1
  O2-  O259  1  0.33092665  0.34907962  0.33366126  1
  O2-  O260  1  0.33211547  0.33655186  0.66666708  1
  O2-  O261  1  0.32818038  0.83710635  -0.00457681  1
  O2-  O262  1  0.33095165  0.83372270  0.33111454  1
  O2-  O263  1  0.33372571  0.83584185  0.66754614  1
  O2-  O264  1  0.67274755  0.33703509  -0.00243109  1
  O2-  O265  1  0.66422216  0.32771467  0.33870540  1
  O2-  O266  1  0.66734736  0.33021956  0.66921722  1
  O2-  O267  1  0.66716993  0.85489035  -0.00508427  1
  O2-  O268  1  0.67071148  0.83707382  0.33142705  1
  O2-  O269  1  0.66061732  0.84526285  0.67190548  1
  O2-  O270  1  0.15746914  0.35887292  -0.01047021  1
  O2-  O271  1  0.15913666  0.34511478  0.32778423  1
  O2-  O272  1  0.16831621  0.34227229  0.66998300  1
  O2-  O273  1  0.16731517  0.81186238  0.00016414  1
  O2-  O274  1  0.16328348  0.84547230  0.33224434  1
  O2-  O275  1  0.17276718  0.84826113  0.67182051  1
  O2-  O276  1  0.49941845  0.34064927  -0.00344280  1
  O2-  O277  1  0.49607036  0.34694440  0.33489306  1
  O2-  O278  1  0.49869328  0.34249665  0.66771000  1
  O2-  O279  1  0.50204908  0.85166233  -0.00043006  1
  O2-  O280  1  0.48819958  0.83787978  0.32885408  1
  O2-  O281  1  0.49517295  0.83134161  0.66771050  1
  O2-  O282  1  0.83759754  0.32142217  0.00381240  1
  O2-  O283  1  0.82949213  0.32160076  0.33437936  1
  O2-  O284  1  0.83474154  0.33093771  0.67163276  1
  O2-  O285  1  0.83364687  0.84696714  0.00274992  1
  O2-  O286  1  0.83915095  0.84143668  0.33696384  1
  O2-  O287  1  0.83758783  0.84010620  0.66834247  1
  O2-  O288  1  -0.00107411  0.17287983  0.16754754  1
  O2-  O289  1  0.00195842  0.17539373  0.50329210  1
  O2-  O290  1  0.00613747  0.19487246  0.83500275  1
  O2-  O291  1  0.00015330  0.68903288  0.16239053  1
  O2-  O292  1  -0.00548818  0.67674670  0.50267896  1
  O2-  O293  1  0.00121832  0.68210727  0.83016618  1
  O2-  O294  1  0.33707681  0.17320501  0.17125238  1
  O2-  O295  1  0.32860454  0.17326501  0.50037195  1
  O2-  O296  1  0.33836062  0.18750150  0.83233716  1
  O2-  O297  1  0.33156928  0.68658793  0.16352439  1
  O2-  O298  1  0.33411204  0.68240688  0.49645664  1
  O2-  O299  1  0.33484305  0.69213499  0.83537178  1
  O2-  O300  1  0.67155642  0.17412350  0.17680547  1
  O2-  O301  1  0.66481410  0.18228526  0.49831230  1
  O2-  O302  1  0.66434636  0.17509679  0.83028583  1
  O2-  O303  1  0.67933565  0.66662580  0.17041954  1
  O2-  O304  1  0.64925523  0.67352975  0.48360625  1
  O2-  O305  1  0.66228867  0.67790151  0.83037356  1
  O2-  O306  1  0.16159994  0.17137985  0.16813488  1
  O2-  O307  1  0.16532338  0.17637750  0.50192646  1
  O2-  O308  1  0.16890712  0.18939744  0.82859208  1
  O2-  O309  1  0.16861427  0.69399705  0.16363308  1
  O2-  O310  1  0.15878510  0.67588931  0.50066259  1
  O2-  O311  1  0.16313540  0.68393947  0.83515305  1
  O2-  O312  1  0.49842891  0.17406301  0.17096188  1
  O2-  O313  1  0.50045618  0.16912544  0.50667835  1
  O2-  O314  1  0.50439240  0.18582163  0.83080685  1
  O2-  O315  1  0.50574254  0.67559608  0.15681839  1
  O2-  O316  1  0.49426186  0.68038872  0.50371196  1
  O2-  O317  1  0.49972495  0.68700135  0.83464572  1
  O2-  O318  1  0.83147289  0.17349274  0.17824600  1
  O2-  O319  1  0.83968046  0.18087798  0.49569179  1
  O2-  O320  1  0.84171016  0.17812933  0.82882276  1
  O2-  O321  1  0.83247528  0.67400919  0.16688804  1
  O2-  O322  1  0.82399361  0.67514395  0.51623954  1
  O2-  O323  1  0.84761445  0.67536864  0.83104343  1
  O2-  O324  1  0.00302180  0.32471787  0.17220790  1
  O2-  O325  1  0.00402791  0.32555483  0.50574014  1
  O2-  O326  1  -0.00289829  0.31552751  0.83159771  1
  O2-  O327  1  0.00028115  0.81849090  0.16490175  1
  O2-  O328  1  0.00084888  0.82500552  0.49992480  1
  O2-  O329  1  -0.00267913  0.80966456  0.82450184  1
  O2-  O330  1  0.33459939  0.33219111  0.16801148  1
  O2-  O331  1  0.33864221  0.32695992  0.50522132  1
  O2-  O332  1  0.32781704  0.31488013  0.82623847  1
  O2-  O333  1  0.33490513  0.81729915  0.17077587  1
  O2-  O334  1  0.32735253  0.81786028  0.49470966  1
  O2-  O335  1  0.33543495  0.81195888  0.83201429  1
  O2-  O336  1  0.66420286  0.32167836  0.16632958  1
  O2-  O337  1  0.66755988  0.31601440  0.50012259  1
  O2-  O338  1  0.66295901  0.31416500  0.83000883  1
  O2-  O339  1  0.65856543  0.82747604  0.15542667  1
  O2-  O340  1  0.67038093  0.82557838  0.50124218  1
  O2-  O341  1  0.67208838  0.82494865  0.83910701  1
  O2-  O342  1  0.17607580  0.32972996  0.15365265  1
  O2-  O343  1  0.16391598  0.32623307  0.49944527  1
  O2-  O344  1  0.16895470  0.31368673  0.82717382  1
  O2-  O345  1  0.16712731  0.80954971  0.16658243  1
  O2-  O346  1  0.16359600  0.83186966  0.50127691  1
  O2-  O347  1  0.16604941  0.80668463  0.82637239  1
  O2-  O348  1  0.49138743  0.32680728  0.17511129  1
  O2-  O349  1  0.49661035  0.33286704  0.50579202  1
  O2-  O350  1  0.50318738  0.31682433  0.82773456  1
  O2-  O351  1  0.50319787  0.83328914  0.16568155  1
  O2-  O352  1  0.49614285  0.80863015  0.49877201  1
  O2-  O353  1  0.50015793  0.81261587  0.83142962  1
  O2-  O354  1  0.82967557  0.32646019  0.16833913  1
  O2-  O355  1  0.82856301  0.31320920  0.50323785  1
  O2-  O356  1  0.83394901  0.31075876  0.83632065  1
  O2-  O357  1  0.83843116  0.82884163  0.16155681  1
  O2-  O358  1  0.83822788  0.82591837  0.49698958  1
  O2-  O359  1  0.82733930  0.82671467  0.84119225  1
  O2-  O360  1  0.07362900  0.08139982  0.11114338  1
  O2-  O361  1  0.08413730  0.07877258  0.44365619  1
  O2-  O362  1  0.08509128  0.08068713  0.78478162  1
  O2-  O363  1  0.08906672  0.58361962  0.11361839  1
  O2-  O364  1  0.08188724  0.56674254  0.45252659  1
  O2-  O365  1  0.06230374  0.58108740  0.77664072  1
  O2-  O366  1  0.40593061  0.07631753  0.10379411  1
  O2-  O367  1  0.40743260  0.07161037  0.43812907  1
  O2-  O368  1  0.43253452  0.07770691  0.79811616  1
  O2-  O369  1  0.40428446  0.58061580  0.10396350  1
  O2-  O370  1  0.43076693  0.58670676  0.44291752  1
  O2-  O371  1  0.42700655  0.58010628  0.78304452  1
  O2-  O372  1  0.76026737  0.07699389  0.11546417  1
  O2-  O373  1  0.75910075  0.08327104  0.40033079  1
  O2-  O374  1  0.74358005  0.07133477  0.77837900  1
  O2-  O375  1  0.75290402  0.56254334  0.11125344  1
  O2-  O376  1  0.72820850  0.57375880  0.45945899  1
  O2-  O377  1  0.76109736  0.58203056  0.77554472  1
  O2-  O378  1  0.26938044  0.06823780  0.23048619  1
  O2-  O379  1  0.26835346  0.08218091  0.57022352  1
  O2-  O380  1  0.26459056  0.08265370  0.87242112  1
  O2-  O381  1  0.23756533  0.58722108  0.21244041  1
  O2-  O382  1  0.24839357  0.58515846  0.55665336  1
  O2-  O383  1  0.25232334  0.58253116  0.90849405  1
  O2-  O384  1  0.57786267  0.07814509  0.22415488  1
  O2-  O385  1  0.58935135  0.08253313  0.57955378  1
  O2-  O386  1  0.58678523  0.08396683  0.88812123  1
  O2-  O387  1  0.58490967  0.58069555  0.22234860  1
  O2-  O388  1  0.57461939  0.58041740  0.54565649  1
  O2-  O389  1  0.57583580  0.58060401  0.88575602  1
  O2-  O390  1  0.89704567  0.06678731  0.22770278  1
  O2-  O391  1  0.90241971  0.08711573  0.57678003  1
  O2-  O392  1  0.91271360  0.08028140  0.87034182  1
  O2-  O393  1  0.91718045  0.58581818  0.20926581  1
  O2-  O394  1  0.91748307  0.58251862  0.55477678  1
  O2-  O395  1  0.93016850  0.58533495  0.89517340  1
  O2-  O396  1  0.09444073  0.42257559  0.11732507  1
  O2-  O397  1  0.08962224  0.41739220  0.44025199  1
  O2-  O398  1  0.10025815  0.41968580  0.79353725  1
  O2-  O399  1  0.09515175  0.91516752  0.11632244  1
  O2-  O400  1  0.09066895  0.92182302  0.44115457  1
  O2-  O401  1  0.09011758  0.91956797  0.77802169  1
  O2-  O402  1  0.40652889  0.42392690  0.11460728  1
  O2-  O403  1  0.41329438  0.41832712  0.44717648  1
  O2-  O404  1  0.38961431  0.41921704  0.75556239  1
  O2-  O405  1  0.40725152  0.91830259  0.11442180  1
  O2-  O406  1  0.40130852  0.92109260  0.44864175  1
  O2-  O407  1  0.41110584  0.91220996  0.77458877  1
  O2-  O408  1  0.74435694  0.42792234  0.10728484  1
  O2-  O409  1  0.73020755  0.42310421  0.45482629  1
  O2-  O410  1  0.74729436  0.41462278  0.76647287  1
  O2-  O411  1  0.75135327  0.91928620  0.10531191  1
  O2-  O412  1  0.75874065  0.92205926  0.43080076  1
  O2-  O413  1  0.73602423  0.92130929  0.78117482  1
  O2-  O414  1  0.25930509  0.42097917  0.22025252  1
  O2-  O415  1  0.26086109  0.41581612  0.55894334  1
  O2-  O416  1  0.25166930  0.42073084  0.88431057  1
  O2-  O417  1  0.25330141  0.91506445  0.21626013  1
  O2-  O418  1  0.25681334  0.91709845  0.57052359  1
  O2-  O419  1  0.25771562  0.91768183  0.87134972  1
  O2-  O420  1  0.57054653  0.41244868  0.24099987  1
  O2-  O421  1  0.59219695  0.41249547  0.56681242  1
  O2-  O422  1  0.58739616  0.41973310  0.88825877  1
  O2-  O423  1  0.58329465  0.92586146  0.21724911  1
  O2-  O424  1  0.55906733  0.91808035  0.56940687  1
  O2-  O425  1  0.57239497  0.91727913  0.87910595  1
  O2-  O426  1  0.91865336  0.41974729  0.24275013  1
  O2-  O427  1  0.90779929  0.41212899  0.56898210  1
  O2-  O428  1  0.93205756  0.42197019  0.87622474  1
  O2-  O429  1  0.94579728  0.91937063  0.21568913  1
  O2-  O430  1  0.93577446  0.91934811  0.55782665  1
  O2-  O431  1  0.90966788  0.91551935  0.89945472  1
  O2-  O432  1  -0.01937100  -0.01018938  0.02746619  1
  O2-  O433  1  0.00236157  -0.01096556  0.33599856  1
  O2-  O434  1  -0.00339985  0.01336078  0.67152822  1
  O2-  O435  1  0.01002937  0.50536846  -0.01021172  1
  O2-  O436  1  0.00516109  0.51132237  0.32339830  1
  O2-  O437  1  -0.00952140  0.49349469  0.67165525  1
  O2-  O438  1  0.34920815  0.00059139  -0.02663687  1
  O2-  O439  1  0.33245633  -0.01438075  0.33611360  1
  O2-  O440  1  0.33630688  -0.01145966  0.68115907  1
  O2-  O441  1  0.32091479  0.49649440  0.02031058  1
  O2-  O442  1  0.34230995  0.49031292  0.32549695  1
  O2-  O443  1  0.33983937  0.50776027  0.65677176  1
  O2-  O444  1  0.66106313  -0.01128734  0.00415891  1
  O2-  O445  1  0.70450876  0.01561180  0.31370086  1
  O2-  O446  1  0.64745360  -0.00086174  0.68545611  1
  O2-  O447  1  0.65988663  0.50979814  0.00776764  1
  O2-  O448  1  0.66695979  0.50912682  0.33561550  1
  O2-  O449  1  0.66342908  0.51191528  0.67892740  1
  O2-  O450  1  0.19353810  -0.00282351  0.02392374  1
  O2-  O451  1  0.15694540  -0.00725055  0.32914611  1
  O2-  O452  1  0.17589082  -0.00248141  0.69234636  1
  O2-  O453  1  0.16676885  0.48960065  0.00015319  1
  O2-  O454  1  0.17008725  0.50206304  0.33533540  1
  O2-  O455  1  0.17137246  0.47897181  0.67180536  1
  O2-  O456  1  0.50012322  0.00063357  -0.00305098  1
  O2-  O457  1  0.48831111  -0.01411363  0.32091801  1
  O2-  O458  1  0.49529353  0.00701034  0.65120718  1
  O2-  O459  1  0.49736937  0.51959268  -0.00026902  1
  O2-  O460  1  0.50453672  0.50925541  0.33541942  1
  O2-  O461  1  0.50225757  0.49241844  0.66988662  1
  O2-  O462  1  0.82143256  -0.00437889  -0.01309098  1
  O2-  O463  1  0.84830060  0.01944297  0.33858317  1
  O2-  O464  1  0.84793670  0.00400935  0.68891491  1
  O2-  O465  1  0.83598718  0.50318712  0.00177773  1
  O2-  O466  1  0.83582073  0.53109500  0.33568337  1
  O2-  O467  1  0.82569941  0.50663749  0.66356047  1
  O2-  O468  1  0.08068274  0.75611022  0.40864854  1
  O2-  O469  1  0.09486844  0.25621672  0.06325623  1
  O2-  O470  1  0.24015164  0.24941328  0.95165656  1
  O2-  O471  1  0.90928044  0.75084187  0.26962761  1
  O2-  O472  1  0.58578314  0.74779298  0.26116812  1
  O2-  O473  1  0.74782498  0.75155995  0.39921990  1
  O2-  O474  1  0.23973850  0.75507911  0.59142818  1
  O2-  O475  1  0.74465356  0.25561670  0.07937622  1
  O2-  O476  1  0.43135613  0.75046389  0.06496800  1
  O2-  O477  1  0.08165893  0.24954337  0.40400912  1
  O2-  O478  1  0.41890956  0.25204707  0.40328723  1
  O2-  O479  1  0.74672907  0.75214636  0.06542483  1
  O2-  O480  1  0.57985050  0.25342064  0.94046126  1
  O2-  O481  1  0.91190088  0.75040560  0.94178354  1
  O2-  O482  1  0.25012094  0.25384251  0.26103924  1
  O2-  O483  1  0.92094530  0.25530591  0.25426631  1
  O2-  O484  1  0.60053737  0.75367526  0.60192151  1
  O2-  O485  1  0.56629563  0.24780772  0.59941302  1
  O2-  O486  1  0.91065767  0.75124250  0.59684011  1
  O2-  O487  1  0.24453765  0.24905245  0.59641787  1
  O2-  O488  1  0.75063310  0.75620013  0.73570045  1
  O2-  O489  1  0.58740176  0.74718045  0.94765011  1
  O2-  O490  1  0.41355418  0.25414024  0.06789460  1
  O2-  O491  1  0.93280495  0.24853409  0.60050091  1
  O2-  O492  1  0.57086977  0.24928634  0.26238425  1
