# generated using pymatgen
data_Ca108Mn108O277
_symmetry_space_group_name_H-M   'P 1'
_cell_length_a   16.03632794
_cell_length_b   22.31793770
_cell_length_c   16.39698720
_cell_angle_alpha   89.99903373
_cell_angle_beta   90.00243349
_cell_angle_gamma   89.99343243
_symmetry_Int_Tables_number   1
_chemical_formula_structural   Ca108Mn108O277
_chemical_formula_sum   'Ca108 Mn108 O277'
_cell_volume   5868.44507483
_cell_formula_units_Z   1
loop_
 _symmetry_equiv_pos_site_id
 _symmetry_equiv_pos_as_xyz
  1  'x, y, z'
loop_
 _atom_type_symbol
 _atom_type_oxidation_number
  Ca2+  2.0
  Mn3.34+  3.34
  O2-  -2.0
loop_
 _atom_site_type_symbol
 _atom_site_label
 _atom_site_symmetry_multiplicity
 _atom_site_fract_x
 _atom_site_fract_y
 _atom_site_fract_z
 _atom_site_occupancy
  Ca2+  Ca0  1  0.08289533  0.25942723  0.24442182  1
  Ca2+  Ca1  1  0.07488349  0.25972419  0.59103230  1
  Ca2+  Ca2  1  0.09384093  0.24796815  0.91296499  1
  Ca2+  Ca3  1  0.09555649  0.73879335  0.22245345  1
  Ca2+  Ca4  1  0.07543358  0.75850455  0.58258718  1
  Ca2+  Ca5  1  0.07884232  0.73959925  0.93034058  1
  Ca2+  Ca6  1  0.42100356  0.26500788  0.24212337  1
  Ca2+  Ca7  1  0.43769351  0.26155778  0.58699724  1
  Ca2+  Ca8  1  0.39770922  0.25615824  0.91908740  1
  Ca2+  Ca9  1  0.41526912  0.73474714  0.24539838  1
  Ca2+  Ca10  1  0.42641590  0.74213024  0.55663106  1
  Ca2+  Ca11  1  0.41468257  0.73658768  0.93563129  1
  Ca2+  Ca12  1  0.74531342  0.25275176  0.25991394  1
  Ca2+  Ca13  1  0.73880763  0.24516574  0.56150055  1
  Ca2+  Ca14  1  0.75943387  0.26646267  0.91947906  1
  Ca2+  Ca15  1  0.75903530  0.75172365  0.24667573  1
  Ca2+  Ca16  1  0.74925951  0.74312486  0.58250856  1
  Ca2+  Ca17  1  0.76161993  0.74295960  0.92169764  1
  Ca2+  Ca18  1  0.24674060  0.25260046  0.07035294  1
  Ca2+  Ca19  1  0.23871394  0.27013663  0.41529770  1
  Ca2+  Ca20  1  0.23831258  0.25506948  0.77142310  1
  Ca2+  Ca21  1  0.24568225  0.74686828  0.08689186  1
  Ca2+  Ca22  1  0.26802665  0.74667173  0.40335425  1
  Ca2+  Ca23  1  0.24308258  0.74541573  0.75327213  1
  Ca2+  Ca24  1  0.58744005  0.24856013  0.08510929  1
  Ca2+  Ca25  1  0.60461048  0.24590614  0.42437081  1
  Ca2+  Ca26  1  0.58478359  0.25462620  0.73736579  1
  Ca2+  Ca27  1  0.57569145  0.75712070  0.09051005  1
  Ca2+  Ca28  1  0.56698435  0.75143979  0.41420957  1
  Ca2+  Ca29  1  0.58021476  0.76019530  0.74636825  1
  Ca2+  Ca30  1  0.91767677  0.24819413  0.08148633  1
  Ca2+  Ca31  1  0.89740274  0.25392694  0.42806007  1
  Ca2+  Ca32  1  0.93328064  0.25413843  0.75135533  1
  Ca2+  Ca33  1  0.93514721  0.74399483  0.08253964  1
  Ca2+  Ca34  1  0.92233686  0.76069690  0.42032977  1
  Ca2+  Ca35  1  0.92532316  0.74437155  0.75398033  1
  Ca2+  Ca36  1  0.74950178  0.09272979  0.93074956  1
  Ca2+  Ca37  1  0.74938000  0.58602558  0.59862001  1
  Ca2+  Ca38  1  0.06167285  0.60444849  0.91691983  1
  Ca2+  Ca39  1  0.94409088  0.07866318  0.06879536  1
  Ca2+  Ca40  1  0.29073559  0.60292820  0.10716397  1
  Ca2+  Ca41  1  0.73019099  0.09093294  0.27060124  1
  Ca2+  Ca42  1  0.57994423  0.09865316  0.08650143  1
  Ca2+  Ca43  1  0.79138341  0.60058767  0.91484624  1
  Ca2+  Ca44  1  0.58388393  0.58916062  0.73279248  1
  Ca2+  Ca45  1  0.12066694  0.59505695  0.24237650  1
  Ca2+  Ca46  1  0.45014991  0.07155978  0.24996526  1
  Ca2+  Ca47  1  0.52107179  0.59478563  0.10336586  1
  Ca2+  Ca48  1  0.56264996  0.59690832  0.40942702  1
  Ca2+  Ca49  1  0.92615338  0.59701439  0.75578527  1
  Ca2+  Ca50  1  0.23431197  0.08129786  0.06198909  1
  Ca2+  Ca51  1  0.28243975  0.60704371  0.10717860  1
  Ca2+  Ca52  1  0.95530791  0.07443243  0.73455504  1
  Ca2+  Ca53  1  0.74417626  0.59900232  0.25538006  1
  Ca2+  Ca54  1  0.55239781  0.59729328  0.41263113  1
  Ca2+  Ca55  1  0.08805630  0.09316377  0.91487616  1
  Ca2+  Ca56  1  0.07767922  0.57078951  0.61037336  1
  Ca2+  Ca57  1  0.89196668  0.10333043  0.41948048  1
  Ca2+  Ca58  1  0.59685201  0.10361825  0.42671052  1
  Ca2+  Ca59  1  0.56968327  0.10941178  0.74361353  1
  Ca2+  Ca60  1  0.41854715  0.58881271  0.59324430  1
  Ca2+  Ca61  1  0.92639623  0.58233040  0.41987664  1
  Ca2+  Ca62  1  0.22891233  0.57272221  0.75123800  1
  Ca2+  Ca63  1  0.24133107  0.10869343  0.78147159  1
  Ca2+  Ca64  1  0.40075362  0.10657657  0.91843938  1
  Ca2+  Ca65  1  0.45652221  0.10870153  0.58838544  1
  Ca2+  Ca66  1  0.93473176  0.60913391  0.06867839  1
  Ca2+  Ca67  1  0.74116423  0.08936826  0.27006582  1
  Ca2+  Ca68  1  0.07964945  0.07146195  0.24427100  1
  Ca2+  Ca69  1  0.73717924  0.10789186  0.56128059  1
  Ca2+  Ca70  1  0.91332467  0.58327762  0.42000139  1
  Ca2+  Ca71  1  0.22419838  0.07814610  0.06286354  1
  Ca2+  Ca72  1  0.41328551  0.90155176  0.92818956  1
  Ca2+  Ca73  1  0.09037169  0.41623708  0.26899842  1
  Ca2+  Ca74  1  0.74259245  0.90079356  0.91456498  1
  Ca2+  Ca75  1  0.28480131  0.42061584  0.10057614  1
  Ca2+  Ca76  1  0.42430466  0.90295955  0.92812203  1
  Ca2+  Ca77  1  0.08305090  0.92270152  0.94710936  1
  Ca2+  Ca78  1  0.74185786  0.90080992  0.57556256  1
  Ca2+  Ca79  1  0.41129124  0.90253448  0.57310951  1
  Ca2+  Ca80  1  0.55826390  0.40182849  0.09033176  1
  Ca2+  Ca81  1  0.24359185  0.41416452  0.74610021  1
  Ca2+  Ca82  1  0.08771039  0.41550131  0.58367787  1
  Ca2+  Ca83  1  0.93560588  0.41572278  0.74523457  1
  Ca2+  Ca84  1  0.92201093  0.91295556  0.40599344  1
  Ca2+  Ca85  1  0.56999437  0.40606670  0.41672203  1
  Ca2+  Ca86  1  0.22446256  0.42934251  0.39671997  1
  Ca2+  Ca87  1  0.57971440  0.92537640  0.38682118  1
  Ca2+  Ca88  1  0.75843438  0.40943710  0.58343978  1
  Ca2+  Ca89  1  0.07366874  0.91201662  0.59076105  1
  Ca2+  Ca90  1  0.74764289  0.40924330  0.58494124  1
  Ca2+  Ca91  1  0.09261965  0.90828369  0.24363757  1
  Ca2+  Ca92  1  0.24148608  0.91387168  0.08619996  1
  Ca2+  Ca93  1  0.56768731  0.39756798  0.08937941  1
  Ca2+  Ca94  1  0.74215330  0.90340198  0.25613783  1
  Ca2+  Ca95  1  0.21892846  0.90758609  0.76115349  1
  Ca2+  Ca96  1  0.42412329  0.90195802  0.57391137  1
  Ca2+  Ca97  1  0.58039567  0.40809986  0.41438092  1
  Ca2+  Ca98  1  0.08792792  0.40965518  0.90986155  1
  Ca2+  Ca99  1  0.23037307  0.90992920  0.75718458  1
  Ca2+  Ca100  1  0.93579281  0.90649319  0.08462249  1
  Ca2+  Ca101  1  0.41634439  0.90888478  0.24841072  1
  Ca2+  Ca102  1  0.24737560  0.92445483  0.37983903  1
  Ca2+  Ca103  1  0.93823303  0.91508409  0.74901462  1
  Ca2+  Ca104  1  0.75528362  0.90052200  0.91513118  1
  Ca2+  Ca105  1  0.75478594  0.90083287  0.57509834  1
  Ca2+  Ca106  1  0.92018267  0.39649748  0.08369711  1
  Ca2+  Ca107  1  0.57496017  0.40925546  0.74158100  1
  Mn3.34+  Mn108  1  0.08772098  0.33498599  0.08303426  1
  Mn3.34+  Mn109  1  0.07652281  0.33825352  0.41988312  1
  Mn3.34+  Mn110  1  0.08605540  0.33875553  0.75115169  1
  Mn3.34+  Mn111  1  0.08712956  0.83192252  0.08504436  1
  Mn3.34+  Mn112  1  0.08783986  0.83663510  0.41484101  1
  Mn3.34+  Mn113  1  0.07834850  0.82763456  0.75787332  1
  Mn3.34+  Mn114  1  0.41033572  0.32955787  0.08088361  1
  Mn3.34+  Mn115  1  0.40842330  0.33917260  0.42026524  1
  Mn3.34+  Mn116  1  0.41373206  0.33889518  0.75558134  1
  Mn3.34+  Mn117  1  0.41713756  0.82929992  0.09212574  1
  Mn3.34+  Mn118  1  0.41619370  0.83280156  0.41090548  1
  Mn3.34+  Mn119  1  0.41331138  0.83002436  0.75418240  1
  Mn3.34+  Mn120  1  0.75157268  0.33324623  0.08510023  1
  Mn3.34+  Mn121  1  0.75481848  0.33546709  0.41153440  1
  Mn3.34+  Mn122  1  0.75312334  0.33576170  0.75563430  1
  Mn3.34+  Mn123  1  0.74900617  0.82856016  0.08924064  1
  Mn3.34+  Mn124  1  0.74774752  0.82695665  0.41418216  1
  Mn3.34+  Mn125  1  0.75271641  0.82796556  0.75229493  1
  Mn3.34+  Mn126  1  0.24919456  0.33595669  0.24828394  1
  Mn3.34+  Mn127  1  0.25318029  0.33514598  0.58304203  1
  Mn3.34+  Mn128  1  0.25118500  0.34119470  0.91988005  1
  Mn3.34+  Mn129  1  0.25244269  0.83761644  0.24531881  1
  Mn3.34+  Mn130  1  0.24490979  0.83462479  0.57932813  1
  Mn3.34+  Mn131  1  0.24780798  0.82608842  0.91963099  1
  Mn3.34+  Mn132  1  0.58310217  0.33311889  0.25111228  1
  Mn3.34+  Mn133  1  0.58245628  0.33322486  0.58322710  1
  Mn3.34+  Mn134  1  0.57935878  0.33444320  0.90856399  1
  Mn3.34+  Mn135  1  0.58282882  0.83690247  0.24779111  1
  Mn3.34+  Mn136  1  0.58281160  0.82925584  0.58101369  1
  Mn3.34+  Mn137  1  0.58470732  0.83078757  0.92039793  1
  Mn3.34+  Mn138  1  0.91651319  0.33388485  0.24847348  1
  Mn3.34+  Mn139  1  0.91704693  0.33337947  0.58321731  1
  Mn3.34+  Mn140  1  0.91972983  0.33364794  0.91496814  1
  Mn3.34+  Mn141  1  0.92053338  0.83086017  0.24906764  1
  Mn3.34+  Mn142  1  0.91804737  0.83463202  0.58361140  1
  Mn3.34+  Mn143  1  0.92154277  0.83232037  0.91659760  1
  Mn3.34+  Mn144  1  0.74803902  0.16595896  0.75402995  1
  Mn3.34+  Mn145  1  0.41750698  0.16533049  0.08890141  1
  Mn3.34+  Mn146  1  0.41651333  0.16952601  0.41498957  1
  Mn3.34+  Mn147  1  0.91763138  0.66896825  0.58473241  1
  Mn3.34+  Mn148  1  0.25496755  0.17160076  0.58810051  1
  Mn3.34+  Mn149  1  0.25576087  0.66498148  0.58298318  1
  Mn3.34+  Mn150  1  0.08061559  0.66598449  0.41515938  1
  Mn3.34+  Mn151  1  0.24262860  0.16351078  0.24898618  1
  Mn3.34+  Mn152  1  0.08744962  0.15914481  0.41930297  1
  Mn3.34+  Mn153  1  0.75290173  0.66734868  0.42128524  1
  Mn3.34+  Mn154  1  0.25543185  0.15690676  0.24758435  1
  Mn3.34+  Mn155  1  0.58127233  0.16629315  0.91559143  1
  Mn3.34+  Mn156  1  0.91811577  0.16615405  0.58779694  1
  Mn3.34+  Mn157  1  0.09370765  0.65904831  0.41728941  1
  Mn3.34+  Mn158  1  0.08177889  0.16565537  0.75278727  1
  Mn3.34+  Mn159  1  0.41393149  0.17721898  0.75601190  1
  Mn3.34+  Mn160  1  0.08467731  0.66485140  0.75213081  1
  Mn3.34+  Mn161  1  0.58671551  0.66752253  0.24478273  1
  Mn3.34+  Mn162  1  0.76197401  0.17139631  0.75193395  1
  Mn3.34+  Mn163  1  0.58242458  0.16999208  0.24695011  1
  Mn3.34+  Mn164  1  0.74914833  0.66855418  0.08698088  1
  Mn3.34+  Mn165  1  0.08232105  0.17000850  0.08281548  1
  Mn3.34+  Mn166  1  0.91859734  0.16712318  0.91712314  1
  Mn3.34+  Mn167  1  0.24352819  0.16416540  0.58483063  1
  Mn3.34+  Mn168  1  0.75112611  0.66653268  0.75204516  1
  Mn3.34+  Mn169  1  0.57890370  0.66029535  0.91274141  1
  Mn3.34+  Mn170  1  0.41501051  0.66179410  0.75976972  1
  Mn3.34+  Mn171  1  0.91863552  0.66735950  0.24533982  1
  Mn3.34+  Mn172  1  0.75343287  0.17020426  0.08476423  1
  Mn3.34+  Mn173  1  0.25169345  0.65600442  0.91137254  1
  Mn3.34+  Mn174  1  0.24612380  0.65960301  0.58090598  1
  Mn3.34+  Mn175  1  0.58428482  0.66774064  0.58170020  1
  Mn3.34+  Mn176  1  0.07760353  0.16490695  0.41756657  1
  Mn3.34+  Mn177  1  0.91759781  0.16334785  0.24009232  1
  Mn3.34+  Mn178  1  0.40763699  0.16390329  0.41810812  1
  Mn3.34+  Mn179  1  0.58894107  0.66510962  0.91594525  1
  Mn3.34+  Mn180  1  0.41712083  -0.00161084  0.74853929  1
  Mn3.34+  Mn181  1  0.57258281  0.50155578  0.58632212  1
  Mn3.34+  Mn182  1  0.26420277  0.49890639  0.93541869  1
  Mn3.34+  Mn183  1  0.08864336  0.00298193  0.40473382  1
  Mn3.34+  Mn184  1  0.57834265  0.49630098  0.92475522  1
  Mn3.34+  Mn185  1  0.23067781  0.00549764  0.57932804  1
  Mn3.34+  Mn186  1  0.43247495  0.00307857  0.74884558  1
  Mn3.34+  Mn187  1  0.41544268  0.50173359  0.75688388  1
  Mn3.34+  Mn188  1  0.56704976  0.50372906  0.92841487  1
  Mn3.34+  Mn189  1  0.75419030  0.49906739  0.07845240  1
  Mn3.34+  Mn190  1  0.74979703  -0.00024221  0.74509875  1
  Mn3.34+  Mn191  1  0.92292490  0.50531717  0.24507221  1
  Mn3.34+  Mn192  1  0.09161291  0.50551923  0.08675816  1
  Mn3.34+  Mn193  1  0.58394471  0.50173100  0.25210629  1
  Mn3.34+  Mn194  1  0.25563013  -0.00126015  0.91821651  1
  Mn3.34+  Mn195  1  0.24319775  0.00973487  0.58172063  1
  Mn3.34+  Mn196  1  0.91993076  0.49419005  0.92508519  1
  Mn3.34+  Mn197  1  0.91598809  0.00242417  0.91247922  1
  Mn3.34+  Mn198  1  0.40459596  0.49822767  0.40211764  1
  Mn3.34+  Mn199  1  0.92377882  0.00246676  0.58267590  1
  Mn3.34+  Mn200  1  0.74797248  -0.00083223  0.41039508  1
  Mn3.34+  Mn201  1  0.42646899  -0.00235606  0.07809513  1
  Mn3.34+  Mn202  1  0.74641621  0.00034410  0.08832268  1
  Mn3.34+  Mn203  1  0.25983337  0.49421923  0.58673085  1
  Mn3.34+  Mn204  1  0.91694880  -0.00234002  0.24703762  1
  Mn3.34+  Mn205  1  0.73520152  0.00489749  0.74323600  1
  Mn3.34+  Mn206  1  0.41266574  0.00529998  0.40286847  1
  Mn3.34+  Mn207  1  0.10478313  0.49938819  0.08599497  1
  Mn3.34+  Mn208  1  0.73552535  -0.00518077  0.08739151  1
  Mn3.34+  Mn209  1  0.75003422  0.50387332  0.41760084  1
  Mn3.34+  Mn210  1  0.91059880  0.49831106  0.24676339  1
  Mn3.34+  Mn211  1  0.74087751  0.50516848  0.07762220  1
  Mn3.34+  Mn212  1  0.58105932  0.00000899  0.90526037  1
  Mn3.34+  Mn213  1  0.91751699  0.49822094  0.58682752  1
  Mn3.34+  Mn214  1  0.58467560  -0.00224177  0.56988361  1
  Mn3.34+  Mn215  1  0.74801344  0.49805726  0.75254958  1
  O2-  O216  1  0.00235603  0.15236683  -0.00275365  1
  O2-  O217  1  -0.00487818  0.15131000  0.33257309  1
  O2-  O218  1  -0.00270464  0.15797530  0.67204393  1
  O2-  O219  1  -0.01155840  0.67788088  -0.01228884  1
  O2-  O220  1  0.00605674  0.63916594  0.32949965  1
  O2-  O221  1  0.00415542  0.65085934  0.66297393  1
  O2-  O222  1  0.32837815  0.14612358  0.02412125  1
  O2-  O223  1  0.32342823  0.14949124  0.34294946  1
  O2-  O224  1  0.33533708  0.15028993  0.66843350  1
  O2-  O225  1  0.31976544  0.67177137  -0.00050601  1
  O2-  O226  1  0.32502538  0.67692952  0.31928847  1
  O2-  O227  1  0.33159204  0.65203345  0.67529768  1
  O2-  O228  1  0.66423751  0.15421755  0.00255363  1
  O2-  O229  1  0.65971766  0.16061920  0.32932882  1
  O2-  O230  1  0.67220841  0.15112847  0.67366070  1
  O2-  O231  1  0.67006653  0.63944564  -0.00654542  1
  O2-  O232  1  0.66880451  0.66540891  0.33816172  1
  O2-  O233  1  0.66867524  0.66213913  0.66637509  1
  O2-  O234  1  0.16132741  0.15519531  0.00453219  1
  O2-  O235  1  0.15785017  0.13569908  0.32599910  1
  O2-  O236  1  0.16892195  0.14539146  0.66883851  1
  O2-  O237  1  0.16707847  0.65814864  -0.01859377  1
  O2-  O238  1  0.17032582  0.66738082  0.33567544  1
  O2-  O239  1  0.17005114  0.64307727  0.66426825  1
  O2-  O240  1  0.49658520  0.15623450  -0.00172901  1
  O2-  O241  1  0.49327323  0.15000828  0.32888658  1
  O2-  O242  1  0.49495419  0.18022444  0.67501028  1
  O2-  O243  1  0.49659927  0.64847899  -0.01234240  1
  O2-  O244  1  0.51136213  0.67044686  0.33008466  1
  O2-  O245  1  0.49722551  0.65610906  0.66708260  1
  O2-  O246  1  0.83882097  0.14409548  0.00743337  1
  O2-  O247  1  0.83187877  0.15751358  0.31738619  1
  O2-  O248  1  0.83468369  0.13602400  0.67621674  1
  O2-  O249  1  0.83063603  0.66571316  0.00886573  1
  O2-  O250  1  0.83882372  0.65012464  0.33856957  1
  O2-  O251  1  0.83255202  0.65804947  0.66552566  1
  O2-  O252  1  0.00573856  0.35045369  -0.00315824  1
  O2-  O253  1  0.00598606  0.33082435  0.32350588  1
  O2-  O254  1  0.00396163  0.34714422  0.66211058  1
  O2-  O255  1  0.00250209  0.84078477  -0.00010398  1
  O2-  O256  1  0.00349342  0.85450229  0.33156057  1
  O2-  O257  1  0.00030591  0.84766768  0.67069086  1
  O2-  O258  1  0.33199691  0.34716292  0.00186701  1
  O2-  O259  1  0.33182114  0.32854362  0.33564826  1
  O2-  O260  1  0.33421909  0.32588893  0.67381738  1
  O2-  O261  1  0.33366341  0.84024647  0.00125065  1
  O2-  O262  1  0.33223671  0.84651543  0.33223870  1
  O2-  O263  1  0.32426463  0.86217212  0.67164550  1
  O2-  O264  1  0.65660429  0.34653582  0.00329224  1
  O2-  O265  1  0.66380110  0.34949684  0.33654050  1
  O2-  O266  1  0.66734611  0.35372217  0.66494260  1
  O2-  O267  1  0.67211186  0.85010029  0.00167601  1
  O2-  O268  1  0.66479298  0.81515451  0.33193894  1
  O2-  O269  1  0.67383888  0.83505615  0.66139431  1
  O2-  O270  1  0.17215383  0.36137765  0.00662415  1
  O2-  O271  1  0.16768787  0.34410917  0.33720088  1
  O2-  O272  1  0.16883846  0.35406438  0.66562129  1
  O2-  O273  1  0.16903012  0.84564847  0.00055551  1
  O2-  O274  1  0.17296444  0.83752623  0.33104429  1
  O2-  O275  1  0.16203077  0.85079543  0.66633820  1
  O2-  O276  1  0.50209758  0.33006296  0.00098227  1
  O2-  O277  1  0.49770304  0.34321942  0.33473409  1
  O2-  O278  1  0.50261301  0.33418014  0.67131604  1
  O2-  O279  1  0.50130556  0.84796338  0.00621629  1
  O2-  O280  1  0.50433781  0.84601455  0.33535488  1
  O2-  O281  1  0.49082258  0.84078265  0.66336341  1
  O2-  O282  1  0.83494045  0.34481071  -0.00031718  1
  O2-  O283  1  0.83851235  0.32367434  0.33307767  1
  O2-  O284  1  0.83598231  0.35677290  0.67141966  1
  O2-  O285  1  0.83539807  0.84386510  0.00064659  1
  O2-  O286  1  0.83241776  0.84399855  0.33502020  1
  O2-  O287  1  0.83449745  0.85124067  0.66899730  1
  O2-  O288  1  0.00272108  0.18677916  0.16713139  1
  O2-  O289  1  0.00055409  0.18716563  0.50011744  1
  O2-  O290  1  -0.00227431  0.18303418  0.83438440  1
  O2-  O291  1  -0.00211157  0.67734018  0.17164624  1
  O2-  O292  1  -0.00890120  0.67876936  0.48795466  1
  O2-  O293  1  0.00427464  0.67830024  0.82497414  1
  O2-  O294  1  0.34640191  0.18169485  0.18283226  1
  O2-  O295  1  0.33807374  0.18988070  0.50696429  1
  O2-  O296  1  0.33331511  0.18258164  0.83311844  1
  O2-  O297  1  0.31347853  0.68808184  0.18112646  1
  O2-  O298  1  0.33211802  0.67869928  0.50272816  1
  O2-  O299  1  0.33463813  0.68976749  0.83435024  1
  O2-  O300  1  0.66955703  0.18433666  0.17029364  1
  O2-  O301  1  0.66534231  0.17456864  0.49597634  1
  O2-  O302  1  0.66755423  0.18833018  0.83342562  1
  O2-  O303  1  0.67470224  0.68625850  0.17530258  1
  O2-  O304  1  0.66706772  0.68580486  0.49760534  1
  O2-  O305  1  0.66436066  0.68542974  0.83317447  1
  O2-  O306  1  0.17071279  0.18545380  0.16105870  1
  O2-  O307  1  0.17524574  0.18229489  0.49335093  1
  O2-  O308  1  0.15979200  0.17871247  0.83163866  1
  O2-  O309  1  0.18587712  0.66557293  0.16328066  1
  O2-  O310  1  0.15886411  0.68804829  0.50552791  1
  O2-  O311  1  0.17103647  0.68087915  0.82899161  1
  O2-  O312  1  0.50714411  0.18298643  0.16033868  1
  O2-  O313  1  0.49764326  0.18757277  0.49141414  1
  O2-  O314  1  0.50081971  0.18867926  0.83724111  1
  O2-  O315  1  0.51356453  0.68660024  0.16861636  1
  O2-  O316  1  0.50649771  0.67066798  0.49877503  1
  O2-  O317  1  0.50533256  0.69109720  0.82858208  1
  O2-  O318  1  0.83269848  0.18684976  0.16526010  1
  O2-  O319  1  0.83714797  0.17631308  0.50975835  1
  O2-  O320  1  0.82715449  0.18335874  0.84241121  1
  O2-  O321  1  0.83414553  0.68633988  0.16847743  1
  O2-  O322  1  0.83554153  0.69032072  0.49737541  1
  O2-  O323  1  0.83041914  0.68429994  0.82677020  1
  O2-  O324  1  -0.00457940  0.31658050  0.15813739  1
  O2-  O325  1  -0.00675619  0.31732642  0.49822207  1
  O2-  O326  1  0.00464115  0.31879238  0.83443903  1
  O2-  O327  1  0.00234011  0.82081292  0.16641435  1
  O2-  O328  1  -0.00231678  0.83250268  0.49856338  1
  O2-  O329  1  -0.00115639  0.80769684  0.83727493  1
  O2-  O330  1  0.32864364  0.31824569  0.16332564  1
  O2-  O331  1  0.33640020  0.31030305  0.50348265  1
  O2-  O332  1  0.32931437  0.32273464  0.83216528  1
  O2-  O333  1  0.33220714  0.81440420  0.16966830  1
  O2-  O334  1  0.34201450  0.82395271  0.50901376  1
  O2-  O335  1  0.32911510  0.81221095  0.83602142  1
  O2-  O336  1  0.65917649  0.32239798  0.16066210  1
  O2-  O337  1  0.66675263  0.33312037  0.49935251  1
  O2-  O338  1  0.66478774  0.31407346  0.82946470  1
  O2-  O339  1  0.66737713  0.81577011  0.17369719  1
  O2-  O340  1  0.67149031  0.81483668  0.50152098  1
  O2-  O341  1  0.67245637  0.81326034  0.83828776  1
  O2-  O342  1  0.16629161  0.31748896  0.16717235  1
  O2-  O343  1  0.15780084  0.32266747  0.50468088  1
  O2-  O344  1  0.16528331  0.33017385  0.83642572  1
  O2-  O345  1  0.17000487  0.81821004  0.16846057  1
  O2-  O346  1  0.16463579  0.81815043  0.50072324  1
  O2-  O347  1  0.17263661  0.81549909  0.83012912  1
  O2-  O348  1  0.50321286  0.31836311  0.15904535  1
  O2-  O349  1  0.50820421  0.32330250  0.49012307  1
  O2-  O350  1  0.49711277  0.30916131  0.83043056  1
  O2-  O351  1  0.49456383  0.82162150  0.17875231  1
  O2-  O352  1  0.49669118  0.82356169  0.49939376  1
  O2-  O353  1  0.49248303  0.81942282  0.84589565  1
  O2-  O354  1  0.83421288  0.31425500  0.16575571  1
  O2-  O355  1  0.82215881  0.32633457  0.51270013  1
  O2-  O356  1  0.84096893  0.31701764  0.82782417  1
  O2-  O357  1  0.83651158  0.81505069  0.16559227  1
  O2-  O358  1  0.82697985  0.81959048  0.50381413  1
  O2-  O359  1  0.83265807  0.81376388  0.84069528  1
  O2-  O360  1  0.08949035  0.08511652  0.10964767  1
  O2-  O361  1  0.06889755  0.07937741  0.45172918  1
  O2-  O362  1  0.08643524  0.08328797  0.78020602  1
  O2-  O363  1  0.06599665  0.58239002  0.10355150  1
  O2-  O364  1  0.06868123  0.58339232  0.46253465  1
  O2-  O365  1  0.08451462  0.58354516  0.77517486  1
  O2-  O366  1  0.43822092  0.07902319  0.11452931  1
  O2-  O367  1  0.42827028  0.07826139  0.45987805  1
  O2-  O368  1  0.42634808  0.08412477  0.77876897  1
  O2-  O369  1  0.40163809  0.57208865  0.14122409  1
  O2-  O370  1  0.43748110  0.55921315  0.46609648  1
  O2-  O371  1  0.41942026  0.57908091  0.79002175  1
  O2-  O372  1  0.74082663  0.08071949  0.12791817  1
  O2-  O373  1  0.74801555  0.07873084  0.42831828  1
  O2-  O374  1  0.73889133  0.08151441  0.79452264  1
  O2-  O375  1  0.74906156  0.58285610  0.12060690  1
  O2-  O376  1  0.77576177  0.58022605  0.46227951  1
  O2-  O377  1  0.74694517  0.57896424  0.78180341  1
  O2-  O378  1  0.24458800  0.08043811  0.20281651  1
  O2-  O379  1  0.26475759  0.08628453  0.54426318  1
  O2-  O380  1  0.25405037  0.07917242  0.90949032  1
  O2-  O381  1  0.19296967  0.52573317  0.15194688  1
  O2-  O382  1  0.26488309  0.57735090  0.55568549  1
  O2-  O383  1  0.25461371  0.57246769  0.88538393  1
  O2-  O384  1  0.59493539  0.08627278  0.22270383  1
  O2-  O385  1  0.58812468  0.07815061  0.56317234  1
  O2-  O386  1  0.58259543  0.08021574  0.87492757  1
  O2-  O387  1  0.59719128  0.58462641  0.22416136  1
  O2-  O388  1  0.59674805  0.58353892  0.55039308  1
  O2-  O389  1  0.57727813  0.57709044  0.86898954  1
  O2-  O390  1  0.92676810  0.07502175  0.20569180  1
  O2-  O391  1  0.91557338  0.08065593  0.55345137  1
  O2-  O392  1  0.91535617  0.08240347  0.87887805  1
  O2-  O393  1  0.89979943  0.58243270  0.20492779  1
  O2-  O394  1  0.91673964  0.58012771  0.55635325  1
  O2-  O395  1  0.92460165  0.57067159  0.88541047  1
  O2-  O396  1  0.07812646  0.42204388  0.12558301  1
  O2-  O397  1  0.08420509  0.41755643  0.43692361  1
  O2-  O398  1  0.08075475  0.41860829  0.77324706  1
  O2-  O399  1  0.08442177  0.91598089  0.10568012  1
  O2-  O400  1  0.09776375  0.92906372  0.45423589  1
  O2-  O401  1  0.08826152  0.91127693  0.80030281  1
  O2-  O402  1  0.42491830  0.40994977  0.10280313  1
  O2-  O403  1  0.43328989  0.42816120  0.44817903  1
  O2-  O404  1  0.42595661  0.42125861  0.77505810  1
  O2-  O405  1  0.40339904  0.91730250  0.10995294  1
  O2-  O406  1  0.42679642  0.92501638  0.44233277  1
  O2-  O407  1  0.41064145  0.92129482  0.79436397  1
  O2-  O408  1  0.75315564  0.42020625  0.11291216  1
  O2-  O409  1  0.73746713  0.42239828  0.44503750  1
  O2-  O410  1  0.74275998  0.41837003  0.77917103  1
  O2-  O411  1  0.75444755  0.91488258  0.11933966  1
  O2-  O412  1  0.73783282  0.91861013  0.44109780  1
  O2-  O413  1  0.74914524  0.92004807  0.78304374  1
  O2-  O414  1  0.24105955  0.41433917  0.23388619  1
  O2-  O415  1  0.25289926  0.41938051  0.54232955  1
  O2-  O416  1  0.25235730  0.42885073  0.88126538  1
  O2-  O417  1  0.24732429  0.91630873  0.22412976  1
  O2-  O418  1  0.27710209  0.93102060  0.53135185  1
  O2-  O419  1  0.27164035  0.91767153  0.88795977  1
  O2-  O420  1  0.58037242  0.41805205  0.22343621  1
  O2-  O421  1  0.58975587  0.42103805  0.55128340  1
  O2-  O422  1  0.57084324  0.42293944  0.87659065  1
  O2-  O423  1  0.59739552  0.91539896  0.24307175  1
  O2-  O424  1  0.58358515  0.91479047  0.54693242  1
  O2-  O425  1  0.60086552  0.91713176  0.88755727  1
  O2-  O426  1  0.92923684  0.41946545  0.21931758  1
  O2-  O427  1  0.90079136  0.42002973  0.55602537  1
  O2-  O428  1  0.92755030  0.41737930  0.88556713  1
  O2-  O429  1  0.90820744  0.91664746  0.22079683  1
  O2-  O430  1  0.89007516  0.92502151  0.54539500  1
  O2-  O431  1  0.89458192  0.92080519  0.88514159  1
  O2-  O432  1  -0.00295609  -0.00148708  -0.01042918  1
  O2-  O433  1  -0.00596160  -0.00403405  0.33745827  1
  O2-  O434  1  -0.00121857  -0.01659523  0.66334451  1
  O2-  O435  1  0.00484808  0.49555857  0.01284074  1
  O2-  O436  1  -0.00550345  0.51674090  0.33438364  1
  O2-  O437  1  -0.00047295  0.49304822  0.65731706  1
  O2-  O438  1  0.31734046  0.00117303  0.02464885  1
  O2-  O439  1  0.34604926  -0.00987404  0.31881588  1
  O2-  O440  1  0.33393232  0.00028886  0.66238844  1
  O2-  O441  1  0.31258969  0.51204772  0.02890447  1
  O2-  O442  1  0.31216929  0.50176750  0.35687945  1
  O2-  O443  1  0.31909072  0.50350690  0.68939246  1
  O2-  O444  1  0.66313742  0.01052571  -0.00574045  1
  O2-  O445  1  0.67112728  0.00379815  0.33198802  1
  O2-  O446  1  0.67822851  -0.01368909  0.64335332  1
  O2-  O447  1  0.68457686  0.50549527  -0.02518261  1
  O2-  O448  1  0.64880977  0.52156740  0.36291333  1
  O2-  O449  1  0.67274966  0.49845964  0.65696226  1
  O2-  O450  1  0.16449742  0.00001906  -0.01183762  1
  O2-  O451  1  0.15418194  -0.00730809  0.31944634  1
  O2-  O452  1  0.17248351  -0.02493868  0.66936061  1
  O2-  O453  1  0.15666893  0.49416635  -0.02120299  1
  O2-  O454  1  0.15229757  0.50312312  0.31182461  1
  O2-  O455  1  0.16686146  0.49596886  0.64628491  1
  O2-  O456  1  0.47291344  -0.00618068  -0.04069715  1
  O2-  O457  1  0.50380518  0.00565220  0.34320893  1
  O2-  O458  1  0.49362316  -0.00620692  0.64780004  1
  O2-  O459  1  0.52990873  0.49708203  0.03875648  1
  O2-  O460  1  0.49871456  0.50218172  0.34349229  1
  O2-  O461  1  0.50447488  0.51312762  0.68123466  1
  O2-  O462  1  0.82869399  0.00126174  0.00223340  1
  O2-  O463  1  0.82869789  0.01078788  0.32432661  1
  O2-  O464  1  0.83930577  0.00261558  0.67160498  1
  O2-  O465  1  0.84395897  0.51914927  0.00815478  1
  O2-  O466  1  0.82938262  0.51641630  0.33138965  1
  O2-  O467  1  0.82907964  0.50122114  0.66212170  1
  O2-  O468  1  0.57242393  0.74855504  0.60657834  1
  O2-  O469  1  0.91309321  0.24958877  0.94408278  1
  O2-  O470  1  0.75443794  0.25170385  0.71202821  1
  O2-  O471  1  0.08802426  0.25275568  0.05223722  1
  O2-  O472  1  0.09080479  0.75246094  0.06992630  1
  O2-  O473  1  0.40439907  0.24557057  0.05863928  1
  O2-  O474  1  0.74452185  0.25048175  0.05318354  1
  O2-  O475  1  0.41497977  0.75422892  0.39753862  1
  O2-  O476  1  0.59620576  0.25589785  0.59704916  1
  O2-  O477  1  0.08807035  0.25204915  0.72746999  1
  O2-  O478  1  0.57977054  0.25155162  0.27879189  1
  O2-  O479  1  0.24190508  0.24252458  0.27998252  1
  O2-  O480  1  0.08846539  0.74887284  0.71802523  1
  O2-  O481  1  0.24347104  0.26116483  0.93504810  1
  O2-  O482  1  0.91976749  0.74804118  0.28288884  1
  O2-  O483  1  0.92630949  0.75027650  0.61056489  1
  O2-  O484  1  0.58695775  0.74720836  0.95258757  1
  O2-  O485  1  0.42537414  0.75273007  0.06850768  1
  O2-  O486  1  0.91307249  0.25184423  0.61303449  1
  O2-  O487  1  0.22872943  0.24954449  0.61487417  1
  O2-  O488  1  0.09541966  0.24480428  0.38789393  1
  O2-  O489  1  0.74702139  0.25537812  0.40683521  1
  O2-  O490  1  0.24827317  0.74666562  0.61469730  1
  O2-  O491  1  0.06922497  0.74674648  0.39111380  1
  O2-  O492  1  0.73394428  0.74963885  0.05591570  1
