# generated using pymatgen
data_Ca108Mn108O277
_symmetry_space_group_name_H-M   'P 1'
_cell_length_a   16.02474749
_cell_length_b   22.30284266
_cell_length_c   16.38881595
_cell_angle_alpha   90.00065321
_cell_angle_beta   90.00503672
_cell_angle_gamma   89.99611904
_symmetry_Int_Tables_number   1
_chemical_formula_structural   Ca108Mn108O277
_chemical_formula_sum   'Ca108 Mn108 O277'
_cell_volume   5857.32053389
_cell_formula_units_Z   1
loop_
 _symmetry_equiv_pos_site_id
 _symmetry_equiv_pos_as_xyz
  1  'x, y, z'
loop_
 _atom_type_symbol
 _atom_type_oxidation_number
  Ca2+  2.0
  Mn3.34+  3.34
  O2-  -2.0
loop_
 _atom_site_type_symbol
 _atom_site_label
 _atom_site_symmetry_multiplicity
 _atom_site_fract_x
 _atom_site_fract_y
 _atom_site_fract_z
 _atom_site_occupancy
  Ca2+  Ca0  1  0.06329971  0.25292181  0.23417742  1
  Ca2+  Ca1  1  0.07263382  0.25546290  0.58475091  1
  Ca2+  Ca2  1  0.06729304  0.24035250  0.93176383  1
  Ca2+  Ca3  1  0.07050179  0.75240690  0.24990136  1
  Ca2+  Ca4  1  0.08317323  0.75444176  0.58764234  1
  Ca2+  Ca5  1  0.06440463  0.75112994  0.91689522  1
  Ca2+  Ca6  1  0.41749349  0.25953265  0.25774443  1
  Ca2+  Ca7  1  0.42687543  0.25168938  0.57300248  1
  Ca2+  Ca8  1  0.40984776  0.26085912  0.91435499  1
  Ca2+  Ca9  1  0.43931668  0.72778133  0.24918814  1
  Ca2+  Ca10  1  0.42791892  0.74633431  0.57742595  1
  Ca2+  Ca11  1  0.43340352  0.74476935  0.93150980  1
  Ca2+  Ca12  1  0.76393581  0.25029011  0.23758796  1
  Ca2+  Ca13  1  0.74985739  0.25322758  0.57017539  1
  Ca2+  Ca14  1  0.76516753  0.25048810  0.93848407  1
  Ca2+  Ca15  1  0.73206563  0.74629621  0.26208149  1
  Ca2+  Ca16  1  0.73683629  0.74987039  0.55688005  1
  Ca2+  Ca17  1  0.75438331  0.74839315  0.92854584  1
  Ca2+  Ca18  1  0.22461898  0.24995569  0.07487966  1
  Ca2+  Ca19  1  0.26516993  0.25480553  0.42052916  1
  Ca2+  Ca20  1  0.24667242  0.25414364  0.74652953  1
  Ca2+  Ca21  1  0.28012529  0.74306147  0.09155125  1
  Ca2+  Ca22  1  0.26288842  0.74319427  0.40787711  1
  Ca2+  Ca23  1  0.26334943  0.75219195  0.74759252  1
  Ca2+  Ca24  1  0.60293961  0.25616889  0.08852124  1
  Ca2+  Ca25  1  0.58192981  0.25291223  0.42724782  1
  Ca2+  Ca26  1  0.58002994  0.26695909  0.73876325  1
  Ca2+  Ca27  1  0.57480497  0.73286146  0.09743498  1
  Ca2+  Ca28  1  0.59720093  0.75405322  0.40168199  1
  Ca2+  Ca29  1  0.57199465  0.74866746  0.75227459  1
  Ca2+  Ca30  1  0.91414034  0.24200696  0.08925776  1
  Ca2+  Ca31  1  0.91037436  0.26223922  0.40919596  1
  Ca2+  Ca32  1  0.92576768  0.24982275  0.75168633  1
  Ca2+  Ca33  1  0.90066274  0.74795613  0.07983903  1
  Ca2+  Ca34  1  0.87983052  0.74126471  0.40743399  1
  Ca2+  Ca35  1  0.92030631  0.75231684  0.76573134  1
  Ca2+  Ca36  1  0.46401878  0.59722791  0.58703008  1
  Ca2+  Ca37  1  0.59880066  0.60898697  0.40657783  1
  Ca2+  Ca38  1  0.72646969  0.60091133  0.56487888  1
  Ca2+  Ca39  1  0.73824101  0.58647279  0.93325101  1
  Ca2+  Ca40  1  0.06170920  0.09306490  0.22690886  1
  Ca2+  Ca41  1  0.41506690  0.10912297  0.57518368  1
  Ca2+  Ca42  1  0.21831895  0.08669946  0.04762017  1
  Ca2+  Ca43  1  0.78078643  0.07377628  0.57590399  1
  Ca2+  Ca44  1  0.91980253  0.58983848  0.73761235  1
  Ca2+  Ca45  1  0.60152537  0.61300910  0.39882117  1
  Ca2+  Ca46  1  0.91253572  0.10943861  0.08424173  1
  Ca2+  Ca47  1  0.26273853  0.10114768  0.43332729  1
  Ca2+  Ca48  1  0.31702984  0.59904960  0.11844251  1
  Ca2+  Ca49  1  0.78175584  0.10574116  0.93765107  1
  Ca2+  Ca50  1  0.62864004  0.10491564  0.09298826  1
  Ca2+  Ca51  1  0.25477271  0.09028070  0.75604652  1
  Ca2+  Ca52  1  0.09117655  0.58354162  0.27389837  1
  Ca2+  Ca53  1  0.59170451  0.09904709  0.42117650  1
  Ca2+  Ca54  1  0.24282109  0.09025664  0.75603510  1
  Ca2+  Ca55  1  0.75977174  0.09330819  0.25527931  1
  Ca2+  Ca56  1  0.91850390  0.08055260  0.73344689  1
  Ca2+  Ca57  1  0.73991081  0.60488551  0.25183330  1
  Ca2+  Ca58  1  0.77024296  0.07636390  0.57869751  1
  Ca2+  Ca59  1  0.43099962  0.09466565  0.26484109  1
  Ca2+  Ca60  1  0.58610469  0.07903051  0.72695750  1
  Ca2+  Ca61  1  0.60223982  0.09874138  0.42102148  1
  Ca2+  Ca62  1  0.47551208  0.59752033  0.58235315  1
  Ca2+  Ca63  1  0.73763624  0.60119267  0.56425087  1
  Ca2+  Ca64  1  0.05677688  0.59469842  0.90144607  1
  Ca2+  Ca65  1  0.05885005  0.10769074  0.92388559  1
  Ca2+  Ca66  1  0.72934010  0.58368698  0.92934032  1
  Ca2+  Ca67  1  0.06349598  0.08427249  0.58716371  1
  Ca2+  Ca68  1  0.04839984  0.59972317  0.90572565  1
  Ca2+  Ca69  1  0.45370787  0.57985907  0.95400665  1
  Ca2+  Ca70  1  0.44385361  0.09475149  0.26249903  1
  Ca2+  Ca71  1  0.89747354  0.59249527  0.08034677  1
  Ca2+  Ca72  1  0.73251165  0.41003268  0.92660950  1
  Ca2+  Ca73  1  0.90290083  0.40061059  0.08835918  1
  Ca2+  Ca74  1  0.24431257  0.91437256  0.74892784  1
  Ca2+  Ca75  1  0.07119418  0.91032280  0.26339422  1
  Ca2+  Ca76  1  0.25705900  0.91388452  0.75013427  1
  Ca2+  Ca77  1  0.08281519  0.91325317  0.91572294  1
  Ca2+  Ca78  1  0.41857156  0.90037152  0.91218499  1
  Ca2+  Ca79  1  0.41270970  0.41298490  0.23637805  1
  Ca2+  Ca80  1  0.42562605  0.41305366  0.23707340  1
  Ca2+  Ca81  1  0.90377546  0.90172779  0.09075414  1
  Ca2+  Ca82  1  0.07528635  0.41019872  0.57645276  1
  Ca2+  Ca83  1  0.26668786  0.40259906  0.07900082  1
  Ca2+  Ca84  1  0.07312914  0.41244672  0.27732723  1
  Ca2+  Ca85  1  0.59025810  0.40714586  0.41866001  1
  Ca2+  Ca86  1  0.43055082  0.89835545  0.58657910  1
  Ca2+  Ca87  1  0.07380041  0.39714518  0.91475798  1
  Ca2+  Ca88  1  0.25075000  0.40501999  0.73843447  1
  Ca2+  Ca89  1  0.42456774  0.40762356  0.59077861  1
  Ca2+  Ca90  1  0.73584021  0.41409260  0.58441170  1
  Ca2+  Ca91  1  0.75127242  0.89578863  0.90697896  1
  Ca2+  Ca92  1  0.91179311  0.41280566  0.74319637  1
  Ca2+  Ca93  1  0.08665564  0.39774885  0.91550231  1
  Ca2+  Ca94  1  0.56948206  0.42502591  0.05744080  1
  Ca2+  Ca95  1  0.42614730  0.89085164  0.24901921  1
  Ca2+  Ca96  1  0.09557306  0.91362076  0.91668881  1
  Ca2+  Ca97  1  0.24287297  0.90011323  0.42242593  1
  Ca2+  Ca98  1  0.59539394  0.89983778  0.74042733  1
  Ca2+  Ca99  1  0.05694891  0.91602324  0.58024049  1
  Ca2+  Ca100  1  0.23241950  0.41312788  0.41291942  1
  Ca2+  Ca101  1  0.77355092  0.92187634  0.58728167  1
  Ca2+  Ca102  1  0.04495014  0.91835996  0.57804341  1
  Ca2+  Ca103  1  0.24410239  0.90781314  0.07854833  1
  Ca2+  Ca104  1  0.23021168  0.89937934  0.42250067  1
  Ca2+  Ca105  1  0.74620836  0.41287171  0.58212766  1
  Ca2+  Ca106  1  0.25681402  0.90777568  0.07882801  1
  Ca2+  Ca107  1  0.05951006  0.91178654  0.26508323  1
  Mn3.34+  Mn108  1  0.07919991  0.32902607  0.08788201  1
  Mn3.34+  Mn109  1  0.08060526  0.33399576  0.41948254  1
  Mn3.34+  Mn110  1  0.08196394  0.33128812  0.74750726  1
  Mn3.34+  Mn111  1  0.07928678  0.83432129  0.08785224  1
  Mn3.34+  Mn112  1  0.07144989  0.82674860  0.42073248  1
  Mn3.34+  Mn113  1  0.07989371  0.83145058  0.75018027  1
  Mn3.34+  Mn114  1  0.42165124  0.33361325  0.08095724  1
  Mn3.34+  Mn115  1  0.41712764  0.33331826  0.41726258  1
  Mn3.34+  Mn116  1  0.41843309  0.33092796  0.75094967  1
  Mn3.34+  Mn117  1  0.42641686  0.82926896  0.08432218  1
  Mn3.34+  Mn118  1  0.42504966  0.83005575  0.41801404  1
  Mn3.34+  Mn119  1  0.42067794  0.83151527  0.75084906  1
  Mn3.34+  Mn120  1  0.74794595  0.33252296  0.08697949  1
  Mn3.34+  Mn121  1  0.75087650  0.33349190  0.41187317  1
  Mn3.34+  Mn122  1  0.74726386  0.33574191  0.75678050  1
  Mn3.34+  Mn123  1  0.74165677  0.83299989  0.08663746  1
  Mn3.34+  Mn124  1  0.74552277  0.84503789  0.41403206  1
  Mn3.34+  Mn125  1  0.75381006  0.83509201  0.74791500  1
  Mn3.34+  Mn126  1  0.24670128  0.33916633  0.24980322  1
  Mn3.34+  Mn127  1  0.25032116  0.33545028  0.57776265  1
  Mn3.34+  Mn128  1  0.25228965  0.33142819  0.91202701  1
  Mn3.34+  Mn129  1  0.25123327  0.82141831  0.24790470  1
  Mn3.34+  Mn130  1  0.24998758  0.83175951  0.58207806  1
  Mn3.34+  Mn131  1  0.24955570  0.83157952  0.91345436  1
  Mn3.34+  Mn132  1  0.59109160  0.34308942  0.24741898  1
  Mn3.34+  Mn133  1  0.58343405  0.33782247  0.58307719  1
  Mn3.34+  Mn134  1  0.58097440  0.33864378  0.91261941  1
  Mn3.34+  Mn135  1  0.58834252  0.83459843  0.24671027  1
  Mn3.34+  Mn136  1  0.58989330  0.83304501  0.57979729  1
  Mn3.34+  Mn137  1  0.58704850  0.82995253  0.91778885  1
  Mn3.34+  Mn138  1  0.91189428  0.34022440  0.25268256  1
  Mn3.34+  Mn139  1  0.91464087  0.33547514  0.58165687  1
  Mn3.34+  Mn140  1  0.91005968  0.33212893  0.91272302  1
  Mn3.34+  Mn141  1  0.90143567  0.83234255  0.25224221  1
  Mn3.34+  Mn142  1  0.90619975  0.82883105  0.58312091  1
  Mn3.34+  Mn143  1  0.91395941  0.82937233  0.91663582  1
  Mn3.34+  Mn144  1  0.58092644  0.66610893  0.91755177  1
  Mn3.34+  Mn145  1  0.24520209  0.65808379  0.58572967  1
  Mn3.34+  Mn146  1  0.74152128  0.66726279  0.75174800  1
  Mn3.34+  Mn147  1  0.91795099  0.16753951  0.58392008  1
  Mn3.34+  Mn148  1  0.91084427  0.66480266  0.24944697  1
  Mn3.34+  Mn149  1  0.74469796  0.66673771  0.08776080  1
  Mn3.34+  Mn150  1  0.58354232  0.16830112  0.58438798  1
  Mn3.34+  Mn151  1  0.75638445  0.16424717  0.75352957  1
  Mn3.34+  Mn152  1  0.42277816  0.16383063  0.08057162  1
  Mn3.34+  Mn153  1  0.58715824  0.17497141  0.91271206  1
  Mn3.34+  Mn154  1  0.25615135  0.66069106  0.91025572  1
  Mn3.34+  Mn155  1  0.25208682  0.17012237  0.25067425  1
  Mn3.34+  Mn156  1  0.57879406  0.16847758  0.91129090  1
  Mn3.34+  Mn157  1  0.75349088  0.67494889  0.75125733  1
  Mn3.34+  Mn158  1  0.41643213  0.16981256  0.75189306  1
  Mn3.34+  Mn159  1  0.08176065  0.66486400  0.09138763  1
  Mn3.34+  Mn160  1  0.08263267  0.16452094  0.41961134  1
  Mn3.34+  Mn161  1  0.41138785  0.16814230  0.07960773  1
  Mn3.34+  Mn162  1  0.07964793  0.16955174  0.75316570  1
  Mn3.34+  Mn163  1  0.59143994  0.17122595  0.25093310  1
  Mn3.34+  Mn164  1  0.25598785  0.66276754  0.58587531  1
  Mn3.34+  Mn165  1  0.24652473  0.66664908  0.91273413  1
  Mn3.34+  Mn166  1  0.09466540  0.67134135  0.08789727  1
  Mn3.34+  Mn167  1  0.07285936  0.15899038  0.42066132  1
  Mn3.34+  Mn168  1  0.24681549  0.16405416  0.90919338  1
  Mn3.34+  Mn169  1  0.24688819  0.17071600  0.58536746  1
  Mn3.34+  Mn170  1  0.07203423  0.66102537  0.42542147  1
  Mn3.34+  Mn171  1  0.08532891  0.65693891  0.42142205  1
  Mn3.34+  Mn172  1  0.41206836  0.66789003  0.41125027  1
  Mn3.34+  Mn173  1  0.42332691  0.66580200  0.75427341  1
  Mn3.34+  Mn174  1  0.08181254  0.66864407  0.74490442  1
  Mn3.34+  Mn175  1  0.74597533  0.16886289  0.75120863  1
  Mn3.34+  Mn176  1  0.91868127  0.66787572  0.58041553  1
  Mn3.34+  Mn177  1  0.23791000  0.16472561  0.24935053  1
  Mn3.34+  Mn178  1  0.91414848  0.16605844  0.24963774  1
  Mn3.34+  Mn179  1  0.76022113  0.16724828  0.41906246  1
  Mn3.34+  Mn180  1  0.90335225  -0.00540850  0.90493293  1
  Mn3.34+  Mn181  1  0.58439700  0.00420215  0.91194686  1
  Mn3.34+  Mn182  1  0.40898926  0.50434719  0.41670496  1
  Mn3.34+  Mn183  1  0.08815118  0.49720103  0.09830600  1
  Mn3.34+  Mn184  1  0.59743479  -0.00194712  0.91466557  1
  Mn3.34+  Mn185  1  0.43079982  -0.00473991  0.42306807  1
  Mn3.34+  Mn186  1  0.43563879  0.49970679  0.75693023  1
  Mn3.34+  Mn187  1  0.42391278  0.00412340  0.75564668  1
  Mn3.34+  Mn188  1  0.24556912  0.50259031  0.25891802  1
  Mn3.34+  Mn189  1  0.58751020  0.50474634  0.24972328  1
  Mn3.34+  Mn190  1  0.24913710  0.49893316  0.58915272  1
  Mn3.34+  Mn191  1  0.74180970  0.49910220  0.08290291  1
  Mn3.34+  Mn192  1  0.73485400  0.49855900  0.73870857  1
  Mn3.34+  Mn193  1  0.42119147  0.49890465  0.41771578  1
  Mn3.34+  Mn194  1  0.58397773  -0.00186417  0.58409010  1
  Mn3.34+  Mn195  1  0.25517995  -0.00284564  0.24963317  1
  Mn3.34+  Mn196  1  0.27549809  0.50132919  0.92126674  1
  Mn3.34+  Mn197  1  0.91402024  -0.00053089  0.90340509  1
  Mn3.34+  Mn198  1  0.42032381  0.00099709  0.08204061  1
  Mn3.34+  Mn199  1  0.59871659  -0.00681014  0.25943505  1
  Mn3.34+  Mn200  1  0.41661576  0.00126283  0.42663184  1
  Mn3.34+  Mn201  1  0.25504535  0.00104322  0.58713526  1
  Mn3.34+  Mn202  1  0.07636212  -0.00197587  0.08315130  1
  Mn3.34+  Mn203  1  0.90841601  0.49833522  0.91507794  1
  Mn3.34+  Mn204  1  0.08947521  0.49929233  0.73985130  1
  Mn3.34+  Mn205  1  0.91085779  0.00266076  0.27284739  1
  Mn3.34+  Mn206  1  0.43327196  -0.00606920  0.08228897  1
  Mn3.34+  Mn207  1  0.91597641  0.50362639  0.26210016  1
  Mn3.34+  Mn208  1  0.43058284  0.49652540  0.74694707  1
  Mn3.34+  Mn209  1  0.26187189  0.49885207  0.92141442  1
  Mn3.34+  Mn210  1  0.75327059  0.49554852  0.39821389  1
  Mn3.34+  Mn211  1  0.07184556  0.00196815  0.74699154  1
  Mn3.34+  Mn212  1  0.23985157  0.00219810  0.25123835  1
  Mn3.34+  Mn213  1  0.08264220  0.50166727  0.08994811  1
  Mn3.34+  Mn214  1  0.91641400  0.50097066  0.58804411  1
  Mn3.34+  Mn215  1  0.75003798  -0.00252530  0.08504323  1
  O2-  O216  1  -0.01586564  0.17269571  -0.00230919  1
  O2-  O217  1  0.00508928  0.14988642  0.32826918  1
  O2-  O218  1  -0.00048438  0.15373210  0.66928735  1
  O2-  O219  1  0.00152167  0.65119393  0.01035929  1
  O2-  O220  1  -0.00171733  0.65907986  0.33621199  1
  O2-  O221  1  -0.00267741  0.68800643  0.66706466  1
  O2-  O222  1  0.32448022  0.16579328  -0.00261957  1
  O2-  O223  1  0.33198494  0.14636476  0.32795333  1
  O2-  O224  1  0.32858172  0.15952229  0.67300584  1
  O2-  O225  1  0.33185431  0.65052000  -0.00499638  1
  O2-  O226  1  0.33382597  0.67682332  0.33252180  1
  O2-  O227  1  0.34342691  0.64647359  0.66501614  1
  O2-  O228  1  0.67450542  0.16684580  -0.01167018  1
  O2-  O229  1  0.67035720  0.16309773  0.33720412  1
  O2-  O230  1  0.67461901  0.14418371  0.66338926  1
  O2-  O231  1  0.66974745  0.66128514  -0.00335233  1
  O2-  O232  1  0.67143363  0.67196131  0.33410149  1
  O2-  O233  1  0.67184382  0.67597317  0.66291904  1
  O2-  O234  1  0.16480572  0.17114495  -0.01524447  1
  O2-  O235  1  0.17407260  0.14902458  0.34273923  1
  O2-  O236  1  0.16829035  0.15308641  0.66934106  1
  O2-  O237  1  0.15763630  0.64448575  -0.00898126  1
  O2-  O238  1  0.15054604  0.69523957  0.34107432  1
  O2-  O239  1  0.16751686  0.67660231  0.66779837  1
  O2-  O240  1  0.51497817  0.15563193  0.00672773  1
  O2-  O241  1  0.51235501  0.15416269  0.33516962  1
  O2-  O242  1  0.50278988  0.15134069  0.67030674  1
  O2-  O243  1  0.50525728  0.66516323  -0.00504890  1
  O2-  O244  1  0.49841688  0.66387118  0.34262465  1
  O2-  O245  1  0.50236330  0.66932085  0.67105755  1
  O2-  O246  1  0.84882835  0.17653311  -0.00041264  1
  O2-  O247  1  0.83405476  0.16033193  0.33546719  1
  O2-  O248  1  0.83746156  0.14852432  0.66784636  1
  O2-  O249  1  0.82031725  0.64679066  -0.00364224  1
  O2-  O250  1  0.83054064  0.66444337  0.32152168  1
  O2-  O251  1  0.83626171  0.66511721  0.67327890  1
  O2-  O252  1  -0.00429799  0.33585594  -0.00320271  1
  O2-  O253  1  -0.00019600  0.33843885  0.33305750  1
  O2-  O254  1  -0.00221363  0.34857818  0.66773539  1
  O2-  O255  1  0.00197135  0.85620440  -0.00029663  1
  O2-  O256  1  -0.00041002  0.83833606  0.33052677  1
  O2-  O257  1  0.00162197  0.82839209  0.66274135  1
  O2-  O258  1  0.32683141  0.32939035  0.00085053  1
  O2-  O259  1  0.33491023  0.35530158  0.33408202  1
  O2-  O260  1  0.33049418  0.33690910  0.66417027  1
  O2-  O261  1  0.33232350  0.84918046  -0.00039333  1
  O2-  O262  1  0.32657639  0.84215289  0.33785855  1
  O2-  O263  1  0.33428874  0.85251844  0.66967999  1
  O2-  O264  1  0.66251011  0.33079957  -0.00034921  1
  O2-  O265  1  0.65549861  0.32801077  0.34173484  1
  O2-  O266  1  0.66819558  0.34663106  0.66537110  1
  O2-  O267  1  0.67398911  0.84097303  -0.00933259  1
  O2-  O268  1  0.66551091  0.83756591  0.33060010  1
  O2-  O269  1  0.66804934  0.82012382  0.66662834  1
  O2-  O270  1  0.16498740  0.33614252  -0.00505042  1
  O2-  O271  1  0.16648622  0.34297757  0.33452720  1
  O2-  O272  1  0.16782646  0.33786691  0.66328425  1
  O2-  O273  1  0.16298832  0.85080788  -0.00037161  1
  O2-  O274  1  0.16097512  0.83534565  0.33086545  1
  O2-  O275  1  0.16497007  0.84329303  0.66590563  1
  O2-  O276  1  0.50533742  0.32335073  -0.00129410  1
  O2-  O277  1  0.49674644  0.35166705  0.32748457  1
  O2-  O278  1  0.49856660  0.34244120  0.66275278  1
  O2-  O279  1  0.49673544  0.84463156  -0.00646172  1
  O2-  O280  1  0.49945002  0.83424792  0.33395088  1
  O2-  O281  1  0.50430106  0.83102244  0.66840638  1
  O2-  O282  1  0.82831641  0.34188877  -0.00557736  1
  O2-  O283  1  0.82956799  0.33414399  0.33076914  1
  O2-  O284  1  0.82795707  0.35221427  0.66482605  1
  O2-  O285  1  0.83489094  0.84273214  -0.00267030  1
  O2-  O286  1  0.83154406  0.83343634  0.33694469  1
  O2-  O287  1  0.83307191  0.80472650  0.66904628  1
  O2-  O288  1  -0.00554405  0.17268503  0.17258386  1
  O2-  O289  1  -0.00102153  0.18182021  0.50704789  1
  O2-  O290  1  0.00507384  0.18114502  0.83122925  1
  O2-  O291  1  0.00465503  0.67959222  0.17342017  1
  O2-  O292  1  -0.00199889  0.69566584  0.49448004  1
  O2-  O293  1  0.00859124  0.67927311  0.83081222  1
  O2-  O294  1  0.33818255  0.16817793  0.17474267  1
  O2-  O295  1  0.32697571  0.18636195  0.51033227  1
  O2-  O296  1  0.32807634  0.18491652  0.82861765  1
  O2-  O297  1  0.34134569  0.68326094  0.17707526  1
  O2-  O298  1  0.33145874  0.67625912  0.50198496  1
  O2-  O299  1  0.33447576  0.68324034  0.83018276  1
  O2-  O300  1  0.66423652  0.18427725  0.17140255  1
  O2-  O301  1  0.66384971  0.17668631  0.49880668  1
  O2-  O302  1  0.65916349  0.19278464  0.82644936  1
  O2-  O303  1  0.67301423  0.67862929  0.16704991  1
  O2-  O304  1  0.66140776  0.67111076  0.50137182  1
  O2-  O305  1  0.66597830  0.68547996  0.83372084  1
  O2-  O306  1  0.16873545  0.17945047  0.16498950  1
  O2-  O307  1  0.16340808  0.18539017  0.50191642  1
  O2-  O308  1  0.17175151  0.18486523  0.82463811  1
  O2-  O309  1  0.17283343  0.68822740  0.16310805  1
  O2-  O310  1  0.16419723  0.68382600  0.50028739  1
  O2-  O311  1  0.16478684  0.68345099  0.83408592  1
  O2-  O312  1  0.49504349  0.18178312  0.18139718  1
  O2-  O313  1  0.50735544  0.17585135  0.50399140  1
  O2-  O314  1  0.49474629  0.18702362  0.83675261  1
  O2-  O315  1  0.48165047  0.65827185  0.15253576  1
  O2-  O316  1  0.49574107  0.67283095  0.50106064  1
  O2-  O317  1  0.49859583  0.68379780  0.83631079  1
  O2-  O318  1  0.83521755  0.17303798  0.17473006  1
  O2-  O319  1  0.82629811  0.17258728  0.51337019  1
  O2-  O320  1  0.82945494  0.18676981  0.83454479  1
  O2-  O321  1  0.84015601  0.67300830  0.15719922  1
  O2-  O322  1  0.83003932  0.67895138  0.51499994  1
  O2-  O323  1  0.82945603  0.68566078  0.83124164  1
  O2-  O324  1  -0.00302573  0.32997889  0.16688359  1
  O2-  O325  1  0.00038589  0.31977944  0.50416955  1
  O2-  O326  1  0.00263045  0.31634770  0.84059211  1
  O2-  O327  1  0.00099795  0.83235893  0.17219197  1
  O2-  O328  1  -0.00022782  0.81706065  0.50998603  1
  O2-  O329  1  0.00655203  0.82217463  0.83928427  1
  O2-  O330  1  0.34034710  0.33207239  0.17372019  1
  O2-  O331  1  0.33738342  0.31872191  0.50210785  1
  O2-  O332  1  0.32777818  0.31399133  0.82779281  1
  O2-  O333  1  0.33041613  0.82399695  0.16120994  1
  O2-  O334  1  0.32968500  0.83182379  0.49844960  1
  O2-  O335  1  0.33061622  0.83064958  0.82698969  1
  O2-  O336  1  0.67024034  0.31943135  0.17194622  1
  O2-  O337  1  0.66808055  0.32445021  0.50334845  1
  O2-  O338  1  0.66751388  0.31525115  0.84104541  1
  O2-  O339  1  0.66404037  0.81746198  0.16219557  1
  O2-  O340  1  0.66136765  0.82283149  0.49681009  1
  O2-  O341  1  0.66697610  0.81549601  0.82837528  1
  O2-  O342  1  0.17038996  0.32677163  0.16173277  1
  O2-  O343  1  0.16871406  0.31266310  0.49935148  1
  O2-  O344  1  0.16217050  0.31826563  0.83734557  1
  O2-  O345  1  0.16819967  0.81709974  0.16318202  1
  O2-  O346  1  0.16709621  0.81315242  0.49131788  1
  O2-  O347  1  0.16631824  0.81360820  0.82907077  1
  O2-  O348  1  0.50234856  0.31845057  0.17328224  1
  O2-  O349  1  0.50349588  0.32382376  0.49762628  1
  O2-  O350  1  0.50114936  0.31484438  0.83617822  1
  O2-  O351  1  0.49516775  0.81999932  0.17162784  1
  O2-  O352  1  0.49652166  0.82110851  0.51040058  1
  O2-  O353  1  0.49930088  0.82327865  0.83346408  1
  O2-  O354  1  0.83905821  0.32644419  0.16064847  1
  O2-  O355  1  0.82655698  0.32960876  0.50773373  1
  O2-  O356  1  0.83575566  0.31314292  0.82941269  1
  O2-  O357  1  0.83676139  0.82399846  0.15854425  1
  O2-  O358  1  0.82887514  0.81930083  0.50594543  1
  O2-  O359  1  0.82859990  0.81755230  0.83634262  1
  O2-  O360  1  0.08200727  0.07834989  0.08835445  1
  O2-  O361  1  0.09742054  0.08071261  0.45072139  1
  O2-  O362  1  0.09191888  0.08476384  0.77933721  1
  O2-  O363  1  0.08715366  0.58253419  0.12326999  1
  O2-  O364  1  0.09276731  0.57666822  0.42332708  1
  O2-  O365  1  0.07237075  0.58039161  0.77060928  1
  O2-  O366  1  0.42461722  0.07869237  0.12429140  1
  O2-  O367  1  0.42330196  0.08261007  0.44075239  1
  O2-  O368  1  0.39813223  0.08558995  0.77695475  1
  O2-  O369  1  0.44765388  0.57049900  0.09501561  1
  O2-  O370  1  0.41312722  0.58360692  0.44804522  1
  O2-  O371  1  0.42261604  0.58086637  0.78730792  1
  O2-  O372  1  0.75650877  0.07377386  0.11903360  1
  O2-  O373  1  0.73538820  0.08408301  0.44777687  1
  O2-  O374  1  0.74937512  0.08531093  0.79197597  1
  O2-  O375  1  0.74840595  0.57957186  0.11190223  1
  O2-  O376  1  0.73948175  0.57086587  0.43670072  1
  O2-  O377  1  0.75848332  0.58073114  0.78518346  1
  O2-  O378  1  0.24127082  0.08030710  0.20848634  1
  O2-  O379  1  0.26340640  0.08249512  0.56287706  1
  O2-  O380  1  0.23346703  0.08008495  0.89027963  1
  O2-  O381  1  0.22094106  0.57080838  0.21495850  1
  O2-  O382  1  0.24820971  0.57841938  0.55440076  1
  O2-  O383  1  0.22592325  0.57743926  0.87525428  1
  O2-  O384  1  0.56764452  0.07263299  0.21001163  1
  O2-  O385  1  0.57693784  0.07994209  0.55398471  1
  O2-  O386  1  0.58765177  0.08248074  0.86824965  1
  O2-  O387  1  0.60079853  0.58192782  0.26036631  1
  O2-  O388  1  0.58707031  0.56844890  0.52599048  1
  O2-  O389  1  0.59742737  0.58587904  0.89691289  1
  O2-  O390  1  0.91494707  0.07641512  0.22049238  1
  O2-  O391  1  0.91856109  0.08602201  0.56535829  1
  O2-  O392  1  0.91472612  0.08008509  0.87704781  1
  O2-  O393  1  0.92258746  0.58003096  0.21752084  1
  O2-  O394  1  0.89006715  0.58094732  0.57640301  1
  O2-  O395  1  0.92235863  0.57603057  0.87208777  1
  O2-  O396  1  0.07878317  0.41439378  0.08293380  1
  O2-  O397  1  0.09219337  0.41302603  0.44044682  1
  O2-  O398  1  0.08692101  0.41778843  0.78295160  1
  O2-  O399  1  0.09393915  0.92115242  0.12949871  1
  O2-  O400  1  0.09474044  0.91806275  0.45067608  1
  O2-  O401  1  0.10098220  0.92015506  0.78205745  1
  O2-  O402  1  0.42138710  0.41568018  0.10142220  1
  O2-  O403  1  0.41874332  0.42025906  0.45457343  1
  O2-  O404  1  0.40537872  0.41520690  0.77374116  1
  O2-  O405  1  0.40485071  0.91630543  0.11598919  1
  O2-  O406  1  0.41537505  0.91467914  0.43886984  1
  O2-  O407  1  0.41639235  0.92038825  0.77608466  1
  O2-  O408  1  0.74545599  0.41838907  0.09092711  1
  O2-  O409  1  0.74163298  0.41958662  0.44334252  1
  O2-  O410  1  0.75631818  0.42067230  0.79104732  1
  O2-  O411  1  0.75915174  0.91664463  0.09328232  1
  O2-  O412  1  0.74696881  0.92029864  0.45086491  1
  O2-  O413  1  0.73422952  0.91518755  0.76836350  1
  O2-  O414  1  0.26152711  0.42967186  0.20883205  1
  O2-  O415  1  0.25775607  0.42224687  0.54785989  1
  O2-  O416  1  0.23328766  0.42169166  0.88282244  1
  O2-  O417  1  0.25097057  0.91618546  0.21690669  1
  O2-  O418  1  0.23914159  0.91962316  0.55497914  1
  O2-  O419  1  0.23379650  0.91951069  0.88342731  1
  O2-  O420  1  0.56386874  0.42760912  0.20631196  1
  O2-  O421  1  0.59460069  0.41689213  0.55651300  1
  O2-  O422  1  0.58830952  0.41590319  0.91098819  1
  O2-  O423  1  0.56477869  0.92048403  0.22282111  1
  O2-  O424  1  0.58115768  0.91774467  0.58830573  1
  O2-  O425  1  0.58883504  0.91715179  0.88336404  1
  O2-  O426  1  0.92207381  0.42487431  0.22284021  1
  O2-  O427  1  0.91775707  0.42083123  0.55881879  1
  O2-  O428  1  0.93869226  0.41918236  0.88701888  1
  O2-  O429  1  0.92326259  0.92424242  0.22816322  1
  O2-  O430  1  0.91563154  0.91144890  0.56716381  1
  O2-  O431  1  0.91777865  0.91339403  0.88432328  1
  O2-  O432  1  0.00725399  -0.00790419  -0.01983894  1
  O2-  O433  1  0.02480078  0.00313327  0.29161206  1
  O2-  O434  1  0.01706377  -0.00018772  0.64129735  1
  O2-  O435  1  0.01040346  0.51810122  -0.00690892  1
  O2-  O436  1  0.01962412  0.50237903  0.29570421  1
  O2-  O437  1  -0.00722963  0.49792498  0.67781182  1
  O2-  O438  1  0.32272662  -0.00881702  0.02131280  1
  O2-  O439  1  0.33386965  0.01330274  0.33803744  1
  O2-  O440  1  0.32044143  -0.00223052  0.69701305  1
  O2-  O441  1  0.33236918  0.51443547  0.01505070  1
  O2-  O442  1  0.33423030  0.48496982  0.32648908  1
  O2-  O443  1  0.32953793  0.49204357  0.67683320  1
  O2-  O444  1  0.66190186  0.01790134  0.00741205  1
  O2-  O445  1  0.65623730  0.03169834  0.33635859  1
  O2-  O446  1  0.67416703  0.01345162  0.64393275  1
  O2-  O447  1  0.67708326  0.50135870  -0.00932797  1
  O2-  O448  1  0.64900983  0.49019393  0.35120018  1
  O2-  O449  1  0.69461907  0.50842310  0.62637647  1
  O2-  O450  1  0.16611477  -0.01979782  0.01445577  1
  O2-  O451  1  0.17708009  -0.02577110  0.34079751  1
  O2-  O452  1  0.17567815  -0.00199741  0.68183670  1
  O2-  O453  1  0.17093111  0.49503627  0.00318907  1
  O2-  O454  1  0.16833375  0.48530539  0.32566771  1
  O2-  O455  1  0.16326233  0.47481635  0.65885507  1
  O2-  O456  1  0.49277490  -0.00614763  -0.01630606  1
  O2-  O457  1  0.49224065  0.00949778  0.32254594  1
  O2-  O458  1  0.49983312  0.00728473  0.66645221  1
  O2-  O459  1  0.50703923  0.50195786  0.00915122  1
  O2-  O460  1  0.49144268  0.49179736  0.32123587  1
  O2-  O461  1  0.48959596  0.50764945  0.64656409  1
  O2-  O462  1  0.83559467  0.01026565  -0.00007401  1
  O2-  O463  1  0.81904138  0.00901142  0.31999553  1
  O2-  O464  1  0.83047217  0.00728830  0.65081250  1
  O2-  O465  1  0.83567819  0.51009478  0.00620058  1
  O2-  O466  1  0.81520014  0.51562358  0.31053473  1
  O2-  O467  1  0.83731678  0.48626194  0.67523033  1
  O2-  O468  1  0.92192313  0.74958168  0.26119385  1
  O2-  O469  1  0.40997933  0.75123155  0.41647984  1
  O2-  O470  1  0.26034976  0.25233292  0.27484948  1
  O2-  O471  1  0.58670912  0.24976799  0.60332201  1
  O2-  O472  1  0.40831567  0.25126369  0.07599347  1
  O2-  O473  1  0.74555576  0.24798990  0.71396594  1
  O2-  O474  1  0.42406687  0.24933727  0.71975725  1
  O2-  O475  1  0.07463738  0.24431686  0.38909499  1
  O2-  O476  1  0.07921650  0.25200289  0.07716154  1
  O2-  O477  1  0.91209878  0.25204857  0.60893577  1
  O2-  O478  1  0.07228961  0.75126696  0.05410311  1
  O2-  O479  1  0.24968045  0.74908934  0.94875586  1
  O2-  O480  1  0.91889971  0.25013338  0.26632112  1
  O2-  O481  1  0.75821697  0.24971328  0.41278404  1
  O2-  O482  1  0.75643947  0.74930633  0.06411736  1
  O2-  O483  1  0.41854439  0.25571362  0.39331926  1
  O2-  O484  1  0.92174221  0.75278657  0.94044047  1
  O2-  O485  1  0.42142305  0.75174164  0.06662695  1
  O2-  O486  1  0.58278302  0.75140353  0.93893010  1
  O2-  O487  1  0.07979451  0.24998882  0.72065061  1
  O2-  O488  1  0.75452272  0.25458959  0.07650349  1
  O2-  O489  1  0.74362169  0.75829879  0.40862821  1
  O2-  O490  1  0.26579285  0.74679423  0.60464135  1
  O2-  O491  1  0.40673092  0.75002170  0.72752594  1
  O2-  O492  1  0.58133686  0.75324868  0.25709306  1
