# generated using pymatgen
data_Ca108Mn108O277
_symmetry_space_group_name_H-M   'P 1'
_cell_length_a   16.02601793
_cell_length_b   22.30578016
_cell_length_c   16.38867831
_cell_angle_alpha   90.00304011
_cell_angle_beta   90.00111192
_cell_angle_gamma   89.99215497
_symmetry_Int_Tables_number   1
_chemical_formula_structural   Ca108Mn108O277
_chemical_formula_sum   'Ca108 Mn108 O277'
_cell_volume   5858.50719501
_cell_formula_units_Z   1
loop_
 _symmetry_equiv_pos_site_id
 _symmetry_equiv_pos_as_xyz
  1  'x, y, z'
loop_
 _atom_type_symbol
 _atom_type_oxidation_number
  Ca2+  2.0
  Mn3.34+  3.34
  O2-  -2.0
loop_
 _atom_site_type_symbol
 _atom_site_label
 _atom_site_symmetry_multiplicity
 _atom_site_fract_x
 _atom_site_fract_y
 _atom_site_fract_z
 _atom_site_occupancy
  Ca2+  Ca0  1  0.08872321  0.24905014  0.27038337  1
  Ca2+  Ca1  1  0.10690948  0.24575618  0.56065292  1
  Ca2+  Ca2  1  0.06980178  0.25631910  0.91106856  1
  Ca2+  Ca3  1  0.10716717  0.76084379  0.24189684  1
  Ca2+  Ca4  1  0.09391452  0.74948406  0.59062091  1
  Ca2+  Ca5  1  0.09287860  0.75564200  0.91594718  1
  Ca2+  Ca6  1  0.40911939  0.24232912  0.26221220  1
  Ca2+  Ca7  1  0.41330127  0.23259666  0.58235780  1
  Ca2+  Ca8  1  0.42459258  0.25388603  0.89911119  1
  Ca2+  Ca9  1  0.39901742  0.75236916  0.25862934  1
  Ca2+  Ca10  1  0.40138556  0.74812110  0.58037481  1
  Ca2+  Ca11  1  0.43188986  0.73974548  0.91661801  1
  Ca2+  Ca12  1  0.75228281  0.22772177  0.24454998  1
  Ca2+  Ca13  1  0.72832548  0.24093451  0.58663021  1
  Ca2+  Ca14  1  0.74923354  0.25414017  0.91076543  1
  Ca2+  Ca15  1  0.74029245  0.75318164  0.23771225  1
  Ca2+  Ca16  1  0.74910555  0.76180984  0.59344904  1
  Ca2+  Ca17  1  0.73133639  0.74502767  0.91758967  1
  Ca2+  Ca18  1  0.26356971  0.25352871  0.10096671  1
  Ca2+  Ca19  1  0.24767175  0.26049429  0.42219755  1
  Ca2+  Ca20  1  0.28110216  0.24988468  0.72739605  1
  Ca2+  Ca21  1  0.24840376  0.74421648  0.09378582  1
  Ca2+  Ca22  1  0.25812938  0.76278605  0.42171970  1
  Ca2+  Ca23  1  0.24470648  0.74925532  0.73530162  1
  Ca2+  Ca24  1  0.59281333  0.25449860  0.08552296  1
  Ca2+  Ca25  1  0.58412309  0.24850805  0.42943819  1
  Ca2+  Ca26  1  0.56925079  0.23662577  0.73194809  1
  Ca2+  Ca27  1  0.58690527  0.74137398  0.06902209  1
  Ca2+  Ca28  1  0.56610130  0.75322218  0.42588243  1
  Ca2+  Ca29  1  0.58701018  0.74673241  0.75394352  1
  Ca2+  Ca30  1  0.89643073  0.24882382  0.08806718  1
  Ca2+  Ca31  1  0.93116095  0.23682139  0.40140115  1
  Ca2+  Ca32  1  0.88846755  0.25065928  0.74825401  1
  Ca2+  Ca33  1  0.91678959  0.75674838  0.07419422  1
  Ca2+  Ca34  1  0.92431741  0.76203648  0.43824167  1
  Ca2+  Ca35  1  0.92497092  0.75843642  0.74097629  1
  Ca2+  Ca36  1  0.06042292  0.09786412  0.27240907  1
  Ca2+  Ca37  1  0.26797094  0.58969463  0.72645340  1
  Ca2+  Ca38  1  0.09613090  0.09112199  0.56580288  1
  Ca2+  Ca39  1  0.41949077  0.58649080  0.59242688  1
  Ca2+  Ca40  1  0.91751351  0.07504045  0.73450330  1
  Ca2+  Ca41  1  0.40898389  0.58679511  0.59232036  1
  Ca2+  Ca42  1  0.56008103  0.11191761  0.41753204  1
  Ca2+  Ca43  1  0.72871374  0.59253605  0.24144086  1
  Ca2+  Ca44  1  0.73807214  0.09069846  0.91358625  1
  Ca2+  Ca45  1  0.41048880  0.08561414  0.90011989  1
  Ca2+  Ca46  1  0.08796936  0.59520448  0.59384144  1
  Ca2+  Ca47  1  0.29013601  0.07354473  0.07833366  1
  Ca2+  Ca48  1  0.26528180  0.59561091  0.43435975  1
  Ca2+  Ca49  1  0.25779656  0.58788105  0.72659667  1
  Ca2+  Ca50  1  0.26950566  0.11765568  0.44251097  1
  Ca2+  Ca51  1  0.12191302  0.60188331  0.23965064  1
  Ca2+  Ca52  1  0.07057277  0.09885017  0.27459747  1
  Ca2+  Ca53  1  0.28934701  0.07963695  0.69153448  1
  Ca2+  Ca54  1  0.88302268  0.11131036  0.11844508  1
  Ca2+  Ca55  1  0.57138761  0.09800731  0.09975213  1
  Ca2+  Ca56  1  0.58326450  0.09862071  0.10003613  1
  Ca2+  Ca57  1  0.90812934  0.59840099  0.07320900  1
  Ca2+  Ca58  1  0.91142790  0.58055224  0.42618857  1
  Ca2+  Ca59  1  0.10664080  0.09096216  0.56546712  1
  Ca2+  Ca60  1  0.75034449  0.09017442  0.91643319  1
  Ca2+  Ca61  1  0.27677190  0.12265701  0.44413698  1
  Ca2+  Ca62  1  0.07655426  0.60869750  0.91645815  1
  Ca2+  Ca63  1  0.26185019  0.60643704  0.08521060  1
  Ca2+  Ca64  1  0.41037142  0.59645046  0.24720712  1
  Ca2+  Ca65  1  0.72099654  0.59192475  0.92285787  1
  Ca2+  Ca66  1  0.56828107  0.58958837  0.04912217  1
  Ca2+  Ca67  1  0.90828116  0.07845852  0.72957003  1
  Ca2+  Ca68  1  0.90495287  0.09476040  0.39514830  1
  Ca2+  Ca69  1  0.39944909  0.59839106  0.24512177  1
  Ca2+  Ca70  1  0.90196576  0.58081878  0.43312702  1
  Ca2+  Ca71  1  0.26829477  0.59796899  0.42499134  1
  Ca2+  Ca72  1  0.75711442  0.89817392  0.91768168  1
  Ca2+  Ca73  1  0.40769328  0.91276202  0.92033874  1
  Ca2+  Ca74  1  0.08416251  0.39644656  0.92220777  1
  Ca2+  Ca75  1  0.91259341  0.91040835  0.42793531  1
  Ca2+  Ca76  1  0.23652596  0.90811984  0.08010568  1
  Ca2+  Ca77  1  0.57732045  0.41072469  0.08463358  1
  Ca2+  Ca78  1  0.72105535  0.41602252  0.91941308  1
  Ca2+  Ca79  1  0.75368912  0.90419414  0.26441803  1
  Ca2+  Ca80  1  0.90363069  0.40077857  0.41951868  1
  Ca2+  Ca81  1  0.56720807  0.90810948  0.74097939  1
  Ca2+  Ca82  1  0.08247337  0.90924367  0.58447174  1
  Ca2+  Ca83  1  0.07873456  0.91253175  0.92562741  1
  Ca2+  Ca84  1  0.56291474  0.90778531  0.08046782  1
  Ca2+  Ca85  1  0.25534538  0.91906855  0.73562427  1
  Ca2+  Ca86  1  0.39989779  0.91123765  0.59458209  1
  Ca2+  Ca87  1  0.74411699  0.40059174  0.25027714  1
  Ca2+  Ca88  1  0.41899544  0.39721395  0.25252237  1
  Ca2+  Ca89  1  0.24767551  0.90750223  0.07925975  1
  Ca2+  Ca90  1  0.73037304  0.41923473  0.92267822  1
  Ca2+  Ca91  1  0.90872938  0.39986818  0.09025399  1
  Ca2+  Ca92  1  0.91531967  0.40100321  0.41902152  1
  Ca2+  Ca93  1  0.26131851  0.39724531  0.09222096  1
  Ca2+  Ca94  1  0.74334123  0.40950528  0.58160112  1
  Ca2+  Ca95  1  0.55162316  0.91127979  0.08350498  1
  Ca2+  Ca96  1  0.56274335  0.42165771  0.74263953  1
  Ca2+  Ca97  1  0.57711388  0.39666129  0.41901432  1
  Ca2+  Ca98  1  0.74117853  0.90462731  0.26465389  1
  Ca2+  Ca99  1  0.09704479  0.39559098  0.92265774  1
  Ca2+  Ca100  1  0.10099680  0.40364418  0.58159275  1
  Ca2+  Ca101  1  0.43599439  0.41365288  0.90839128  1
  Ca2+  Ca102  1  0.91313948  0.41300081  0.73069989  1
  Ca2+  Ca103  1  0.38445870  0.42709017  0.60925464  1
  Ca2+  Ca104  1  0.55841013  0.91290602  0.74130296  1
  Ca2+  Ca105  1  0.09297820  0.90886714  0.58463454  1
  Ca2+  Ca106  1  0.90212259  0.41312662  0.73227113  1
  Ca2+  Ca107  1  0.94517871  0.91100592  0.08367313  1
  Mn3.34+  Mn108  1  0.08360361  0.32322780  0.09255676  1
  Mn3.34+  Mn109  1  0.08699121  0.32838953  0.41595331  1
  Mn3.34+  Mn110  1  0.09069376  0.33175911  0.74558473  1
  Mn3.34+  Mn111  1  0.08474590  0.83292736  0.08443649  1
  Mn3.34+  Mn112  1  0.08650403  0.83836304  0.41167593  1
  Mn3.34+  Mn113  1  0.08308524  0.83532251  0.75543807  1
  Mn3.34+  Mn114  1  0.42024995  0.32969949  0.08347423  1
  Mn3.34+  Mn115  1  0.41381170  0.33480238  0.42341274  1
  Mn3.34+  Mn116  1  0.41622226  0.33811604  0.74696754  1
  Mn3.34+  Mn117  1  0.41148430  0.83199714  0.08648399  1
  Mn3.34+  Mn118  1  0.41728994  0.83477367  0.41822973  1
  Mn3.34+  Mn119  1  0.41071041  0.83344921  0.75627295  1
  Mn3.34+  Mn120  1  0.74579287  0.33057623  0.08567062  1
  Mn3.34+  Mn121  1  0.74562234  0.32882881  0.41937154  1
  Mn3.34+  Mn122  1  0.74064431  0.33433687  0.74818760  1
  Mn3.34+  Mn123  1  0.75140771  0.83178367  0.08404824  1
  Mn3.34+  Mn124  1  0.74499675  0.83192923  0.42441707  1
  Mn3.34+  Mn125  1  0.75239370  0.83444569  0.75114910  1
  Mn3.34+  Mn126  1  0.24814646  0.33258364  0.25674498  1
  Mn3.34+  Mn127  1  0.25510071  0.33705784  0.58067169  1
  Mn3.34+  Mn128  1  0.25705585  0.32616874  0.91470572  1
  Mn3.34+  Mn129  1  0.25462355  0.83296798  0.25609467  1
  Mn3.34+  Mn130  1  0.24960655  0.83447945  0.58237325  1
  Mn3.34+  Mn131  1  0.25097088  0.83117823  0.90991285  1
  Mn3.34+  Mn132  1  0.58215434  0.32979710  0.25086305  1
  Mn3.34+  Mn133  1  0.57713999  0.33645697  0.58383949  1
  Mn3.34+  Mn134  1  0.57888450  0.33635876  0.91286976  1
  Mn3.34+  Mn135  1  0.57489852  0.83224308  0.25052496  1
  Mn3.34+  Mn136  1  0.58070374  0.83404015  0.57823945  1
  Mn3.34+  Mn137  1  0.58098431  0.83220498  0.91263084  1
  Mn3.34+  Mn138  1  0.91760788  0.33123293  0.24676065  1
  Mn3.34+  Mn139  1  0.91698442  0.33377703  0.57892377  1
  Mn3.34+  Mn140  1  0.91163924  0.33666771  0.91447447  1
  Mn3.34+  Mn141  1  0.92114469  0.83148460  0.24959752  1
  Mn3.34+  Mn142  1  0.91636998  0.83948403  0.58719308  1
  Mn3.34+  Mn143  1  0.91642392  0.83365221  0.91105407  1
  Mn3.34+  Mn144  1  0.90582051  0.16181279  0.57772274  1
  Mn3.34+  Mn145  1  0.74309533  0.65735552  0.75003776  1
  Mn3.34+  Mn146  1  0.74436563  0.16491140  0.41394304  1
  Mn3.34+  Mn147  1  0.08197176  0.66500317  0.41859958  1
  Mn3.34+  Mn148  1  0.24251889  0.16451669  0.91710356  1
  Mn3.34+  Mn149  1  0.42236937  0.65917173  0.75961912  1
  Mn3.34+  Mn150  1  0.91301141  0.67019240  0.24629937  1
  Mn3.34+  Mn151  1  0.08251953  0.15528700  0.08771451  1
  Mn3.34+  Mn152  1  0.57714005  0.15503879  0.58506857  1
  Mn3.34+  Mn153  1  0.91446869  0.67680363  0.91361474  1
  Mn3.34+  Mn154  1  0.08050525  0.67018552  0.75401792  1
  Mn3.34+  Mn155  1  0.92796316  0.15759174  0.91662796  1
  Mn3.34+  Mn156  1  0.74630468  0.66916282  0.08177760  1
  Mn3.34+  Mn157  1  0.58446469  0.16944274  0.91035663  1
  Mn3.34+  Mn158  1  0.91444904  0.16447696  0.91708531  1
  Mn3.34+  Mn159  1  0.42293432  0.66791213  0.42216972  1
  Mn3.34+  Mn160  1  0.08404847  0.16031988  0.75611471  1
  Mn3.34+  Mn161  1  0.25610371  0.16491833  0.24993951  1
  Mn3.34+  Mn162  1  0.91850898  0.16907314  0.57950059  1
  Mn3.34+  Mn163  1  0.41894596  0.66978145  0.08248154  1
  Mn3.34+  Mn164  1  0.74390397  0.67331515  0.42308840  1
  Mn3.34+  Mn165  1  0.73445989  0.66794615  0.42241350  1
  Mn3.34+  Mn166  1  0.75593513  0.66438754  0.74961591  1
  Mn3.34+  Mn167  1  0.57937938  0.66777386  0.24540914  1
  Mn3.34+  Mn168  1  0.92240269  0.67577634  0.24834977  1
  Mn3.34+  Mn169  1  0.09568049  0.16772475  0.75327184  1
  Mn3.34+  Mn170  1  0.09255968  0.66975581  0.41909000  1
  Mn3.34+  Mn171  1  0.08683563  0.67136027  0.08142621  1
  Mn3.34+  Mn172  1  0.57479857  0.16385129  0.90897138  1
  Mn3.34+  Mn173  1  0.25601268  0.17112488  0.91760487  1
  Mn3.34+  Mn174  1  0.57809571  0.16860683  0.25530626  1
  Mn3.34+  Mn175  1  0.41638557  0.16756739  0.08872710  1
  Mn3.34+  Mn176  1  0.09270675  0.16026439  0.08567811  1
  Mn3.34+  Mn177  1  0.25516556  0.67177901  0.91297905  1
  Mn3.34+  Mn178  1  0.91817325  0.66451637  0.58937763  1
  Mn3.34+  Mn179  1  0.58030973  0.66786878  0.58821882  1
  Mn3.34+  Mn180  1  0.74503077  -0.00318250  0.72709367  1
  Mn3.34+  Mn181  1  0.42337886  0.49983123  0.40836774  1
  Mn3.34+  Mn182  1  0.90862538  0.50957433  0.91089441  1
  Mn3.34+  Mn183  1  0.42293428  0.49659960  0.07883185  1
  Mn3.34+  Mn184  1  0.42822080  -0.00216414  0.42973317  1
  Mn3.34+  Mn185  1  0.57960938  0.00005797  0.26090260  1
  Mn3.34+  Mn186  1  0.56197180  0.00015791  0.58989039  1
  Mn3.34+  Mn187  1  0.07620350  0.50569310  0.74679391  1
  Mn3.34+  Mn188  1  0.75388650  -0.00980479  0.72523860  1
  Mn3.34+  Mn189  1  0.10444730  0.49198272  0.41584912  1
  Mn3.34+  Mn190  1  0.91473182  0.50130393  0.25551538  1
  Mn3.34+  Mn191  1  0.76019897  -0.00252880  0.08561727  1
  Mn3.34+  Mn192  1  0.74853908  0.50675088  0.73155112  1
  Mn3.34+  Mn193  1  0.08469913  0.50367180  0.08603966  1
  Mn3.34+  Mn194  1  0.91515187  -0.00325234  0.25571804  1
  Mn3.34+  Mn195  1  0.08924407  0.00110446  0.75083271  1
  Mn3.34+  Mn196  1  0.25188016  -0.00258124  0.25716699  1
  Mn3.34+  Mn197  1  0.74506039  0.00293463  0.41069553  1
  Mn3.34+  Mn198  1  0.26785549  0.50301238  0.91064937  1
  Mn3.34+  Mn199  1  0.73271223  0.49864392  0.41113386  1
  Mn3.34+  Mn200  1  0.92377133  0.50440928  0.90946009  1
  Mn3.34+  Mn201  1  0.58364406  0.50319818  0.58701535  1
  Mn3.34+  Mn202  1  0.08884168  0.49780350  0.09595720  1
  Mn3.34+  Mn203  1  0.25475375  0.49975599  0.91018794  1
  Mn3.34+  Mn204  1  0.09368238  0.49519060  0.41737973  1
  Mn3.34+  Mn205  1  0.57370749  -0.00143035  0.91909681  1
  Mn3.34+  Mn206  1  0.25434098  0.49534498  0.25603934  1
  Mn3.34+  Mn207  1  0.41746871  0.00213462  0.42890025  1
  Mn3.34+  Mn208  1  0.09076714  0.50108910  0.74694683  1
  Mn3.34+  Mn209  1  0.74409909  0.00129103  0.08500796  1
  Mn3.34+  Mn210  1  0.58313800  0.50074071  0.25418594  1
  Mn3.34+  Mn211  1  0.92950370  -0.00083049  0.92639251  1
  Mn3.34+  Mn212  1  0.74609538  0.50116223  0.08452014  1
  Mn3.34+  Mn213  1  0.08440117  -0.00210334  0.40937028  1
  Mn3.34+  Mn214  1  0.24972687  -0.00122218  0.92208880  1
  Mn3.34+  Mn215  1  0.26227434  0.00277393  0.25726993  1
  O2-  O216  1  0.00380541  0.17264444  0.00241402  1
  O2-  O217  1  -0.00357692  0.16873353  0.32796524  1
  O2-  O218  1  0.00110817  0.14604776  0.66324479  1
  O2-  O219  1  -0.00504861  0.66859612  0.00372122  1
  O2-  O220  1  0.00202528  0.64732563  0.33445108  1
  O2-  O221  1  0.00801498  0.66120979  0.66342055  1
  O2-  O222  1  0.33569175  0.15132451  -0.00127199  1
  O2-  O223  1  0.33318604  0.16381647  0.32831446  1
  O2-  O224  1  0.33808924  0.16952212  0.66221287  1
  O2-  O225  1  0.33164647  0.67310159  0.00289832  1
  O2-  O226  1  0.33924418  0.65072000  0.34085613  1
  O2-  O227  1  0.34106205  0.66428175  0.67176435  1
  O2-  O228  1  0.65800095  0.14893719  -0.00311902  1
  O2-  O229  1  0.66332684  0.16685645  0.33139965  1
  O2-  O230  1  0.65907757  0.16686746  0.65815480  1
  O2-  O231  1  0.66664332  0.65681478  0.00848043  1
  O2-  O232  1  0.66452074  0.68231121  0.32776644  1
  O2-  O233  1  0.66350630  0.65467190  0.66866229  1
  O2-  O234  1  0.17144376  0.18675436  0.00580875  1
  O2-  O235  1  0.17553248  0.14514259  0.32721527  1
  O2-  O236  1  0.16962793  0.14710956  0.67121513  1
  O2-  O237  1  0.16800604  0.64853074  -0.00088192  1
  O2-  O238  1  0.17536408  0.65180496  0.34222067  1
  O2-  O239  1  0.16534538  0.65327374  0.67943686  1
  O2-  O240  1  0.50047103  0.15344184  -0.00162488  1
  O2-  O241  1  0.50737759  0.19280513  0.33425651  1
  O2-  O242  1  0.50036194  0.16014958  0.65926089  1
  O2-  O243  1  0.49862722  0.67534234  0.00681569  1
  O2-  O244  1  0.49467124  0.66049543  0.32617040  1
  O2-  O245  1  0.49155017  0.65877216  0.66455212  1
  O2-  O246  1  0.83173797  0.14572548  -0.00589810  1
  O2-  O247  1  0.83065320  0.16955800  0.34045183  1
  O2-  O248  1  0.84077188  0.15250887  0.67009996  1
  O2-  O249  1  0.83264836  0.66803669  -0.00030137  1
  O2-  O250  1  0.83050882  0.66969082  0.33357247  1
  O2-  O251  1  0.83090449  0.66046195  0.66705369  1
  O2-  O252  1  -0.00047023  0.33723801  0.00035058  1
  O2-  O253  1  -0.00954475  0.33065963  0.34000793  1
  O2-  O254  1  -0.00237386  0.35179762  0.66559578  1
  O2-  O255  1  0.00008703  0.83370581  -0.00078841  1
  O2-  O256  1  -0.00879646  0.83440508  0.34147760  1
  O2-  O257  1  0.00816997  0.84436006  0.66516659  1
  O2-  O258  1  0.33282140  0.34110857  0.00272291  1
  O2-  O259  1  0.33800782  0.32911868  0.33348109  1
  O2-  O260  1  0.33231674  0.34234805  0.66763859  1
  O2-  O261  1  0.32779064  0.84461927  0.00224153  1
  O2-  O262  1  0.33514465  0.83790490  0.33534100  1
  O2-  O263  1  0.32970754  0.83497884  0.67279777  1
  O2-  O264  1  0.65953805  0.35082418  0.00433299  1
  O2-  O265  1  0.66347651  0.34187535  0.33638580  1
  O2-  O266  1  0.65960960  0.35232384  0.67062573  1
  O2-  O267  1  0.65734483  0.85876687  0.00417114  1
  O2-  O268  1  0.67004000  0.82611467  0.32768942  1
  O2-  O269  1  0.65874172  0.84984908  0.67403906  1
  O2-  O270  1  0.16433620  0.32065414  -0.00114162  1
  O2-  O271  1  0.16170169  0.33845020  0.33021080  1
  O2-  O272  1  0.16494370  0.33582720  0.66122273  1
  O2-  O273  1  0.16570687  0.84938167  -0.00634520  1
  O2-  O274  1  0.16557996  0.84121825  0.32902105  1
  O2-  O275  1  0.16340658  0.84574251  0.67020400  1
  O2-  O276  1  0.49812294  0.34844437  -0.00304394  1
  O2-  O277  1  0.49821003  0.32660614  0.33338755  1
  O2-  O278  1  0.49608619  0.35458980  0.66164065  1
  O2-  O279  1  0.49310846  0.84044667  -0.00263004  1
  O2-  O280  1  0.49995484  0.81869727  0.33249809  1
  O2-  O281  1  0.49108975  0.84069409  0.66963668  1
  O2-  O282  1  0.82331970  0.35658151  -0.00596728  1
  O2-  O283  1  0.83245567  0.34093955  0.33229294  1
  O2-  O284  1  0.82936447  0.34753238  0.66387471  1
  O2-  O285  1  0.83762952  0.83506022  0.00200293  1
  O2-  O286  1  0.82980146  0.82213340  0.33146497  1
  O2-  O287  1  0.83411752  0.83326703  0.67005252  1
  O2-  O288  1  0.00384719  0.18170667  0.16191691  1
  O2-  O289  1  0.00008766  0.17912053  0.50564315  1
  O2-  O290  1  0.00097777  0.18041930  0.83161684  1
  O2-  O291  1  0.00473717  0.68895726  0.16746904  1
  O2-  O292  1  -0.00124453  0.67924491  0.49483618  1
  O2-  O293  1  0.00254820  0.69168508  0.83990875  1
  O2-  O294  1  0.33000142  0.17783618  0.16083054  1
  O2-  O295  1  0.33358214  0.19623261  0.48406653  1
  O2-  O296  1  0.33009709  0.18283184  0.83571601  1
  O2-  O297  1  0.34104447  0.67382182  0.16758749  1
  O2-  O298  1  0.33868877  0.67103076  0.49765804  1
  O2-  O299  1  0.33245453  0.68657549  0.82539708  1
  O2-  O300  1  0.64661088  0.18087560  0.16502230  1
  O2-  O301  1  0.66092882  0.17394091  0.49488316  1
  O2-  O302  1  0.67806143  0.17612368  0.84498852  1
  O2-  O303  1  0.66757866  0.68071518  0.16960989  1
  O2-  O304  1  0.66213583  0.68669961  0.50868743  1
  O2-  O305  1  0.67142790  0.67021250  0.83521223  1
  O2-  O306  1  0.16510321  0.18553129  0.17040591  1
  O2-  O307  1  0.16510093  0.16425646  0.50457835  1
  O2-  O308  1  0.16206274  0.19359093  0.84541329  1
  O2-  O309  1  0.16685640  0.67414189  0.15981664  1
  O2-  O310  1  0.16833816  0.66611049  0.50479615  1
  O2-  O311  1  0.16476128  0.67616370  0.83668087  1
  O2-  O312  1  0.49812311  0.18323831  0.16519539  1
  O2-  O313  1  0.50844745  0.18223433  0.50246301  1
  O2-  O314  1  0.49280966  0.17311348  0.83520951  1
  O2-  O315  1  0.49691572  0.68708096  0.17052967  1
  O2-  O316  1  0.49781002  0.68320691  0.50628742  1
  O2-  O317  1  0.49669809  0.69035177  0.82043726  1
  O2-  O318  1  0.84086671  0.18909344  0.16838122  1
  O2-  O319  1  0.83098564  0.17844105  0.49663512  1
  O2-  O320  1  0.83746967  0.16982313  0.83263642  1
  O2-  O321  1  0.83350067  0.68843730  0.16349133  1
  O2-  O322  1  0.84317672  0.67755188  0.49096280  1
  O2-  O323  1  0.83115169  0.68799245  0.83311400  1
  O2-  O324  1  -0.00266283  0.30659397  0.16751751  1
  O2-  O325  1  -0.00246583  0.32058782  0.49970578  1
  O2-  O326  1  0.00576425  0.33248835  0.83379576  1
  O2-  O327  1  0.00145912  0.81664250  0.16420514  1
  O2-  O328  1  0.00570507  0.82478004  0.50522141  1
  O2-  O329  1  0.00262433  0.81801456  0.83569882  1
  O2-  O330  1  0.33981708  0.32280712  0.16870704  1
  O2-  O331  1  0.33746068  0.31974504  0.50186953  1
  O2-  O332  1  0.33811098  0.31868046  0.83556258  1
  O2-  O333  1  0.33071675  0.81482339  0.16093223  1
  O2-  O334  1  0.33430863  0.82678658  0.50569543  1
  O2-  O335  1  0.33613867  0.81121569  0.83732359  1
  O2-  O336  1  0.66874822  0.31670791  0.17234664  1
  O2-  O337  1  0.66851505  0.32767366  0.50441104  1
  O2-  O338  1  0.67769451  0.32934767  0.84782397  1
  O2-  O339  1  0.66739535  0.82595855  0.17076940  1
  O2-  O340  1  0.66420219  0.81090886  0.49940545  1
  O2-  O341  1  0.66687598  0.82790672  0.83613271  1
  O2-  O342  1  0.17564755  0.32149295  0.16257224  1
  O2-  O343  1  0.16482805  0.32829942  0.50028999  1
  O2-  O344  1  0.16227708  0.31738263  0.84358077  1
  O2-  O345  1  0.17674333  0.82636658  0.15528180  1
  O2-  O346  1  0.15925137  0.83129312  0.50691662  1
  O2-  O347  1  0.16791005  0.82315666  0.83230078  1
  O2-  O348  1  0.50310074  0.31629156  0.16513146  1
  O2-  O349  1  0.50428790  0.32056567  0.49445763  1
  O2-  O350  1  0.50439757  0.32290183  0.83011932  1
  O2-  O351  1  0.50363322  0.81406457  0.15593470  1
  O2-  O352  1  0.49342096  0.81651936  0.50562803  1
  O2-  O353  1  0.50242983  0.81602115  0.82572431  1
  O2-  O354  1  0.83314929  0.32199141  0.16422253  1
  O2-  O355  1  0.83834938  0.32307325  0.49369059  1
  O2-  O356  1  0.83806841  0.33293481  0.82309106  1
  O2-  O357  1  0.83646604  0.81209821  0.17124561  1
  O2-  O358  1  0.83456658  0.82410372  0.50001002  1
  O2-  O359  1  0.82883837  0.81319573  0.83978488  1
  O2-  O360  1  0.09004870  0.07738760  0.13252326  1
  O2-  O361  1  0.06702606  0.07549060  0.43427536  1
  O2-  O362  1  0.08309085  0.08107648  0.79177107  1
  O2-  O363  1  0.06814251  0.58437127  0.11183922  1
  O2-  O364  1  0.08099850  0.57604350  0.45916145  1
  O2-  O365  1  0.06923164  0.58356935  0.78697812  1
  O2-  O366  1  0.43086859  0.08618579  0.10317314  1
  O2-  O367  1  0.41091252  0.08411581  0.44602125  1
  O2-  O368  1  0.39401279  0.05455812  0.77756284  1
  O2-  O369  1  0.42103935  0.57783455  0.11058639  1
  O2-  O370  1  0.42068202  0.57984434  0.45022810  1
  O2-  O371  1  0.40312443  0.58380989  0.77418119  1
  O2-  O372  1  0.73111749  0.08150319  0.10947883  1
  O2-  O373  1  0.75073179  0.08202880  0.43383867  1
  O2-  O374  1  0.77208471  0.06659085  0.78958190  1
  O2-  O375  1  0.76157028  0.58408743  0.10741747  1
  O2-  O376  1  0.76209079  0.58191524  0.43935428  1
  O2-  O377  1  0.76514038  0.57714169  0.79066419  1
  O2-  O378  1  0.25367370  0.07960000  0.20880089  1
  O2-  O379  1  0.22784317  0.06108039  0.54399506  1
  O2-  O380  1  0.25327534  0.07908767  0.89397962  1
  O2-  O381  1  0.26230730  0.57096723  0.20932151  1
  O2-  O382  1  0.27603375  0.56997848  0.55107549  1
  O2-  O383  1  0.25768087  0.58465902  0.87762795  1
  O2-  O384  1  0.57743275  0.08099745  0.23176278  1
  O2-  O385  1  0.57417372  0.07448915  0.54788631  1
  O2-  O386  1  0.59947632  0.07925843  0.88244564  1
  O2-  O387  1  0.58453329  0.57922573  0.21206342  1
  O2-  O388  1  0.56144946  0.58284789  0.56182880  1
  O2-  O389  1  0.58636912  0.56874147  0.91381704  1
  O2-  O390  1  0.93460277  0.07393414  0.22941305  1
  O2-  O391  1  0.93051313  0.08232693  0.55352868  1
  O2-  O392  1  0.91711020  0.07425920  0.87318821  1
  O2-  O393  1  0.90642510  0.58381009  0.21520521  1
  O2-  O394  1  0.93404931  0.58086094  0.55638933  1
  O2-  O395  1  0.91993447  0.59038813  0.90202624  1
  O2-  O396  1  0.08922624  0.41524898  0.08287327  1
  O2-  O397  1  0.06008635  0.41383388  0.44148991  1
  O2-  O398  1  0.09770933  0.42520634  0.79420590  1
  O2-  O399  1  0.08865684  0.91305376  0.09968249  1
  O2-  O400  1  0.07253720  0.92040978  0.44340560  1
  O2-  O401  1  0.08887795  0.92114018  0.78069362  1
  O2-  O402  1  0.41811482  0.41676359  0.11296608  1
  O2-  O403  1  0.43269654  0.42016884  0.43438690  1
  O2-  O404  1  0.42262945  0.42027936  0.77602363  1
  O2-  O405  1  0.41476032  0.91405533  0.10366346  1
  O2-  O406  1  0.42285172  0.91674853  0.44951424  1
  O2-  O407  1  0.42063613  0.91260316  0.78216849  1
  O2-  O408  1  0.74299937  0.41958353  0.11361714  1
  O2-  O409  1  0.75865594  0.41553413  0.43938577  1
  O2-  O410  1  0.75749009  0.42773981  0.78820128  1
  O2-  O411  1  0.76202814  0.91646876  0.11667879  1
  O2-  O412  1  0.76233076  0.91823016  0.41112228  1
  O2-  O413  1  0.74581437  0.91955141  0.78731662  1
  O2-  O414  1  0.26520150  0.41574899  0.22934875  1
  O2-  O415  1  0.24518191  0.41775706  0.56466276  1
  O2-  O416  1  0.23280137  0.41659389  0.90732318  1
  O2-  O417  1  0.25935713  0.91918202  0.21384682  1
  O2-  O418  1  0.23498242  0.91851171  0.58257276  1
  O2-  O419  1  0.25770072  0.91932491  0.88533341  1
  O2-  O420  1  0.57756726  0.41994060  0.22620467  1
  O2-  O421  1  0.59163221  0.42483641  0.54819004  1
  O2-  O422  1  0.58558204  0.41867273  0.88726805  1
  O2-  O423  1  0.59586679  0.92220955  0.21313162  1
  O2-  O424  1  0.56628400  0.91955482  0.56414687  1
  O2-  O425  1  0.56470614  0.91782136  0.88033427  1
  O2-  O426  1  0.91082520  0.41947682  0.22325694  1
  O2-  O427  1  0.91110004  0.41616195  0.55188097  1
  O2-  O428  1  0.93441390  0.42365218  0.88593104  1
  O2-  O429  1  0.88762229  0.91935672  0.22188646  1
  O2-  O430  1  0.94511342  0.91939365  0.56052170  1
  O2-  O431  1  0.91151603  0.92064957  0.90164238  1
  O2-  O432  1  -0.00009265  -0.01272349  0.00505100  1
  O2-  O433  1  0.00280218  0.00592043  0.32917753  1
  O2-  O434  1  0.01394327  0.01920707  0.66891513  1
  O2-  O435  1  -0.00323085  0.50619221  0.00534586  1
  O2-  O436  1  -0.00222865  0.51451664  0.35175191  1
  O2-  O437  1  0.00287898  0.47563821  0.66877424  1
  O2-  O438  1  0.34179554  -0.00087485  -0.01505082  1
  O2-  O439  1  0.33547490  -0.00293851  0.34643333  1
  O2-  O440  1  0.33892771  -0.01302024  0.67641482  1
  O2-  O441  1  0.32571847  0.49470885  0.01253037  1
  O2-  O442  1  0.32613778  0.52315433  0.34404300  1
  O2-  O443  1  0.33799903  0.52123725  0.66580286  1
  O2-  O444  1  0.68296172  -0.00772351  -0.01843428  1
  O2-  O445  1  0.68677326  -0.00946207  0.30704498  1
  O2-  O446  1  0.64348421  -0.00679065  0.67320192  1
  O2-  O447  1  0.68187189  0.50006560  -0.01254124  1
  O2-  O448  1  0.69331213  0.49994642  0.29389558  1
  O2-  O449  1  0.66017441  0.48398923  0.66846796  1
  O2-  O450  1  0.18361335  -0.01208793  0.00956515  1
  O2-  O451  1  0.16030147  0.01678348  0.32419978  1
  O2-  O452  1  0.17104835  0.00318835  0.68251202  1
  O2-  O453  1  0.15914052  0.50850547  -0.01132508  1
  O2-  O454  1  0.16533456  0.52324147  0.32618636  1
  O2-  O455  1  0.16352139  0.52611510  0.66484576  1
  O2-  O456  1  0.52564332  -0.00299110  0.02923144  1
  O2-  O457  1  0.51226321  0.01149769  0.35303804  1
  O2-  O458  1  0.48897129  -0.01624704  0.66821095  1
  O2-  O459  1  0.51774376  0.49273861  0.02493330  1
  O2-  O460  1  0.47603999  0.50591999  0.29932969  1
  O2-  O461  1  0.48653645  0.49695378  0.63605654  1
  O2-  O462  1  0.83216514  0.01763040  -0.00739675  1
  O2-  O463  1  0.84718885  0.00199617  0.34821795  1
  O2-  O464  1  0.84885386  0.00655477  0.66576276  1
  O2-  O465  1  0.84103137  0.48941782  0.00478749  1
  O2-  O466  1  0.85287036  0.49754587  0.36797556  1
  O2-  O467  1  0.83132989  0.48299364  0.66839153  1
  O2-  O468  1  0.24276952  0.75419951  0.59309347  1
  O2-  O469  1  0.06560237  0.24548968  0.72627685  1
  O2-  O470  1  0.73428432  0.74895281  0.73064788  1
  O2-  O471  1  0.74893857  0.25563790  0.05048953  1
  O2-  O472  1  0.09943696  0.75060664  0.05880158  1
  O2-  O473  1  0.09254043  0.25068403  0.40923055  1
  O2-  O474  1  0.24767426  0.75364733  0.26767160  1
  O2-  O475  1  0.73534270  0.75192982  0.05971710  1
  O2-  O476  1  0.92160723  0.75009172  0.59827524  1
  O2-  O477  1  0.40628472  0.74850314  0.40419736  1
  O2-  O478  1  0.91046293  0.25035869  0.92731158  1
  O2-  O479  1  0.42535400  0.25683398  0.73094104  1
  O2-  O480  1  0.24713560  0.24820766  0.26721714  1
  O2-  O481  1  0.59137476  0.75526590  0.93303830  1
  O2-  O482  1  0.91082063  0.24923392  0.61128409  1
  O2-  O483  1  0.58577249  0.25671511  0.59973434  1
  O2-  O484  1  0.58171152  0.75085723  0.61326538  1
  O2-  O485  1  0.74656794  0.25636338  0.73278885  1
  O2-  O486  1  0.58225971  0.25213851  0.94089222  1
  O2-  O487  1  0.24717296  0.25327777  0.59335648  1
  O2-  O488  1  0.08934570  0.75335639  0.39906320  1
  O2-  O489  1  0.41420595  0.24917998  0.05310091  1
  O2-  O490  1  0.74285623  0.24996092  0.40610076  1
  O2-  O491  1  0.23712282  0.75198087  0.94208826  1
  O2-  O492  1  0.09031914  0.75176561  0.72866594  1
