# generated using pymatgen
data_Ca108Mn108O277
_symmetry_space_group_name_H-M   'P 1'
_cell_length_a   16.00310888
_cell_length_b   22.27204408
_cell_length_c   16.37014217
_cell_angle_alpha   89.99963866
_cell_angle_beta   90.00037063
_cell_angle_gamma   90.00008969
_symmetry_Int_Tables_number   1
_chemical_formula_structural   Ca108Mn108O277
_chemical_formula_sum   'Ca108 Mn108 O277'
_cell_volume   5834.67793368
_cell_formula_units_Z   1
loop_
 _symmetry_equiv_pos_site_id
 _symmetry_equiv_pos_as_xyz
  1  'x, y, z'
loop_
 _atom_type_symbol
 _atom_type_oxidation_number
  Ca2+  2.0
  Mn3.34+  3.34
  O2-  -2.0
loop_
 _atom_site_type_symbol
 _atom_site_label
 _atom_site_symmetry_multiplicity
 _atom_site_fract_x
 _atom_site_fract_y
 _atom_site_fract_z
 _atom_site_occupancy
  Ca2+  Ca0  1  0.08446022  0.25936190  0.24321834  1
  Ca2+  Ca1  1  0.08375104  0.24789461  0.59141103  1
  Ca2+  Ca2  1  0.09591363  0.24875939  0.90938659  1
  Ca2+  Ca3  1  0.09178307  0.75735571  0.25857401  1
  Ca2+  Ca4  1  0.07544010  0.75347778  0.56957527  1
  Ca2+  Ca5  1  0.07428983  0.75120041  0.92075991  1
  Ca2+  Ca6  1  0.40960754  0.25566247  0.24301592  1
  Ca2+  Ca7  1  0.40938686  0.24888461  0.59323670  1
  Ca2+  Ca8  1  0.41498407  0.25082261  0.91278195  1
  Ca2+  Ca9  1  0.42079794  0.74716457  0.26092102  1
  Ca2+  Ca10  1  0.41638379  0.74963009  0.57333095  1
  Ca2+  Ca11  1  0.41826839  0.74731979  0.91188776  1
  Ca2+  Ca12  1  0.75489883  0.25849991  0.25893352  1
  Ca2+  Ca13  1  0.75981972  0.24345573  0.58786864  1
  Ca2+  Ca14  1  0.74177827  0.25616713  0.90165013  1
  Ca2+  Ca15  1  0.73393504  0.75472538  0.24936800  1
  Ca2+  Ca16  1  0.75814469  0.74982725  0.60023989  1
  Ca2+  Ca17  1  0.75878883  0.74304195  0.90322476  1
  Ca2+  Ca18  1  0.25040114  0.25075798  0.07367390  1
  Ca2+  Ca19  1  0.24868363  0.25835820  0.43283999  1
  Ca2+  Ca20  1  0.24976411  0.24652388  0.74185025  1
  Ca2+  Ca21  1  0.25191653  0.75111498  0.08709540  1
  Ca2+  Ca22  1  0.25899863  0.74286858  0.41076637  1
  Ca2+  Ca23  1  0.26266073  0.74944461  0.75674575  1
  Ca2+  Ca24  1  0.57613547  0.25281048  0.06915537  1
  Ca2+  Ca25  1  0.59167567  0.25359140  0.43522714  1
  Ca2+  Ca26  1  0.58407716  0.24538325  0.74724991  1
  Ca2+  Ca27  1  0.58184210  0.74564519  0.09221707  1
  Ca2+  Ca28  1  0.56481630  0.74440522  0.40470276  1
  Ca2+  Ca29  1  0.59489266  0.74243189  0.75664645  1
  Ca2+  Ca30  1  0.92769512  0.25436250  0.08164338  1
  Ca2+  Ca31  1  0.91111990  0.24941282  0.43589779  1
  Ca2+  Ca32  1  0.91808141  0.25117812  0.73320741  1
  Ca2+  Ca33  1  0.91736711  0.75868076  0.07010140  1
  Ca2+  Ca34  1  0.92397617  0.76007566  0.42357154  1
  Ca2+  Ca35  1  0.89736238  0.74405341  0.75619215  1
  Ca2+  Ca36  1  0.59728119  0.59406410  0.74907306  1
  Ca2+  Ca37  1  0.41352954  0.60013278  0.24226760  1
  Ca2+  Ca38  1  0.57158779  0.09759951  0.07859260  1
  Ca2+  Ca39  1  0.57438710  0.60212397  0.08725635  1
  Ca2+  Ca40  1  0.41172463  0.10031467  0.58728721  1
  Ca2+  Ca41  1  0.25699615  0.58846991  0.75366328  1
  Ca2+  Ca42  1  0.24678959  0.10430470  0.75724724  1
  Ca2+  Ca43  1  0.07271219  0.09238539  0.24294620  1
  Ca2+  Ca44  1  0.10117121  0.58392033  0.25758043  1
  Ca2+  Ca45  1  0.73326842  0.60117345  0.24094709  1
  Ca2+  Ca46  1  0.40289278  0.60024634  0.24224683  1
  Ca2+  Ca47  1  0.74120857  0.58909201  0.61268829  1
  Ca2+  Ca48  1  0.90024587  0.59644446  0.76248308  1
  Ca2+  Ca49  1  0.76599774  0.08744461  0.25793092  1
  Ca2+  Ca50  1  0.40859605  0.10614956  0.91375951  1
  Ca2+  Ca51  1  0.91506992  0.09165075  0.72709062  1
  Ca2+  Ca52  1  0.41337777  0.60053831  0.56938220  1
  Ca2+  Ca53  1  0.58519822  0.09336179  0.42932686  1
  Ca2+  Ca54  1  0.25273520  0.10213268  0.06082694  1
  Ca2+  Ca55  1  0.06025935  0.09372671  0.24264937  1
  Ca2+  Ca56  1  0.42446775  0.59961499  0.57056463  1
  Ca2+  Ca57  1  0.07300350  0.10151700  0.58576096  1
  Ca2+  Ca58  1  0.41765602  0.59015463  0.92097856  1
  Ca2+  Ca59  1  0.25552307  0.09997528  0.43729338  1
  Ca2+  Ca60  1  0.93884471  0.58865920  0.42764810  1
  Ca2+  Ca61  1  0.75332800  0.08727225  0.25786823  1
  Ca2+  Ca62  1  0.75540725  0.60090298  0.89673689  1
  Ca2+  Ca63  1  0.90594229  0.08821997  0.72940896  1
  Ca2+  Ca64  1  0.24286836  0.09985756  0.43699291  1
  Ca2+  Ca65  1  0.92688254  0.58753232  0.42717684  1
  Ca2+  Ca66  1  0.90692536  0.59257372  0.07189427  1
  Ca2+  Ca67  1  0.91988647  0.59232154  0.07190960  1
  Ca2+  Ca68  1  0.74273110  0.09086392  0.89696679  1
  Ca2+  Ca69  1  0.91052076  0.09671852  0.44433447  1
  Ca2+  Ca70  1  0.42220756  0.09574803  0.23980674  1
  Ca2+  Ca71  1  0.39838490  0.10793892  0.91527616  1
  Ca2+  Ca72  1  0.57075959  0.40624373  0.07726190  1
  Ca2+  Ca73  1  0.91997928  0.40844132  0.09179146  1
  Ca2+  Ca74  1  0.75913694  0.90647767  0.91364900  1
  Ca2+  Ca75  1  0.39033733  0.41093314  0.23281039  1
  Ca2+  Ca76  1  0.59966458  0.90930754  0.74470680  1
  Ca2+  Ca77  1  0.23921344  0.90813538  0.75099461  1
  Ca2+  Ca78  1  0.07380306  0.90278563  0.24525519  1
  Ca2+  Ca79  1  0.59261077  0.41165920  0.74808667  1
  Ca2+  Ca80  1  0.08732145  0.40676013  0.90985388  1
  Ca2+  Ca81  1  0.41630321  0.40458496  0.58532080  1
  Ca2+  Ca82  1  0.91085011  0.40834352  0.74883062  1
  Ca2+  Ca83  1  0.90373737  0.91285664  0.74240300  1
  Ca2+  Ca84  1  0.58502145  0.90496302  0.42094015  1
  Ca2+  Ca85  1  0.41524990  0.90676594  0.57640938  1
  Ca2+  Ca86  1  0.92299212  0.90832350  0.43162424  1
  Ca2+  Ca87  1  0.75011908  0.40814885  0.90286182  1
  Ca2+  Ca88  1  0.58135189  0.41167915  0.74885077  1
  Ca2+  Ca89  1  0.25180863  0.90842131  0.75108616  1
  Ca2+  Ca90  1  0.41026318  0.90193004  0.91430047  1
  Ca2+  Ca91  1  0.93093015  0.40619478  0.09409943  1
  Ca2+  Ca92  1  0.58811058  0.90978863  0.74582307  1
  Ca2+  Ca93  1  0.76180828  0.40402648  0.25217141  1
  Ca2+  Ca94  1  0.58394520  0.40366225  0.43571024  1
  Ca2+  Ca95  1  0.92904565  0.40594142  0.42442649  1
  Ca2+  Ca96  1  0.24116566  0.90243849  0.08371773  1
  Ca2+  Ca97  1  0.42317736  0.90041375  0.25191812  1
  Ca2+  Ca98  1  0.09802388  0.41335321  0.25092119  1
  Ca2+  Ca99  1  0.40201260  0.41013671  0.23580600  1
  Ca2+  Ca100  1  0.91481792  0.91273548  0.74393958  1
  Ca2+  Ca101  1  0.75102617  0.90423085  0.24546207  1
  Ca2+  Ca102  1  0.24799740  0.40628501  0.75226532  1
  Ca2+  Ca103  1  0.07744283  0.90817735  0.91910680  1
  Ca2+  Ca104  1  0.24513072  0.90123638  0.42692422  1
  Ca2+  Ca105  1  0.75668731  0.91479551  0.58490628  1
  Ca2+  Ca106  1  0.58769202  0.90065717  0.09216899  1
  Ca2+  Ca107  1  0.74929661  0.40919686  0.59309073  1
  Mn3.34+  Mn108  1  0.09180741  0.33200280  0.08083887  1
  Mn3.34+  Mn109  1  0.08722157  0.33760621  0.42096470  1
  Mn3.34+  Mn110  1  0.08480328  0.33304783  0.74777628  1
  Mn3.34+  Mn111  1  0.07932272  0.83638561  0.08519585  1
  Mn3.34+  Mn112  1  0.08450934  0.83229121  0.41798271  1
  Mn3.34+  Mn113  1  0.08130674  0.82889833  0.74883067  1
  Mn3.34+  Mn114  1  0.41069124  0.33978842  0.07565261  1
  Mn3.34+  Mn115  1  0.41440342  0.33013171  0.41755053  1
  Mn3.34+  Mn116  1  0.41257825  0.33283583  0.75329652  1
  Mn3.34+  Mn117  1  0.41670155  0.82855670  0.08458955  1
  Mn3.34+  Mn118  1  0.41573742  0.82904342  0.41711330  1
  Mn3.34+  Mn119  1  0.41860372  0.83095159  0.74940383  1
  Mn3.34+  Mn120  1  0.74764902  0.33225893  0.08248080  1
  Mn3.34+  Mn121  1  0.75099343  0.32915819  0.41981544  1
  Mn3.34+  Mn122  1  0.75195830  0.33264284  0.74970621  1
  Mn3.34+  Mn123  1  0.75260913  0.83320809  0.08304230  1
  Mn3.34+  Mn124  1  0.75098568  0.83599806  0.41815379  1
  Mn3.34+  Mn125  1  0.75008783  0.83090599  0.75205744  1
  Mn3.34+  Mn126  1  0.24589066  0.33775991  0.25131443  1
  Mn3.34+  Mn127  1  0.24633661  0.33230506  0.58170588  1
  Mn3.34+  Mn128  1  0.25438669  0.33844360  0.91754114  1
  Mn3.34+  Mn129  1  0.25036538  0.82823699  0.25033727  1
  Mn3.34+  Mn130  1  0.24671972  0.83141109  0.58175963  1
  Mn3.34+  Mn131  1  0.24764964  0.82969357  0.91911491  1
  Mn3.34+  Mn132  1  0.58218794  0.32817029  0.25027496  1
  Mn3.34+  Mn133  1  0.58243004  0.33369085  0.58346077  1
  Mn3.34+  Mn134  1  0.57900647  0.33424329  0.91580868  1
  Mn3.34+  Mn135  1  0.58318841  0.82813750  0.25067982  1
  Mn3.34+  Mn136  1  0.58449081  0.83107384  0.57977898  1
  Mn3.34+  Mn137  1  0.58427908  0.82915558  0.91991922  1
  Mn3.34+  Mn138  1  0.92027825  0.33609841  0.25432753  1
  Mn3.34+  Mn139  1  0.92144653  0.33139629  0.58254869  1
  Mn3.34+  Mn140  1  0.91840225  0.33585516  0.91359267  1
  Mn3.34+  Mn141  1  0.91492521  0.83451513  0.24755000  1
  Mn3.34+  Mn142  1  0.91869899  0.83618872  0.58166497  1
  Mn3.34+  Mn143  1  0.91694848  0.82848295  0.91780642  1
  Mn3.34+  Mn144  1  0.92383217  0.66852380  0.25142877  1
  Mn3.34+  Mn145  1  0.09108997  0.16735653  0.74931202  1
  Mn3.34+  Mn146  1  0.58280512  0.65845037  0.58478643  1
  Mn3.34+  Mn147  1  0.25510620  0.66385213  0.91625791  1
  Mn3.34+  Mn148  1  0.09028769  0.66179503  0.75025114  1
  Mn3.34+  Mn149  1  0.74723435  0.67341625  0.07973035  1
  Mn3.34+  Mn150  1  0.91557497  0.66674684  0.58652838  1
  Mn3.34+  Mn151  1  0.41268401  0.65902363  0.08148102  1
  Mn3.34+  Mn152  1  0.09274019  0.66611800  0.42276829  1
  Mn3.34+  Mn153  1  0.08799687  0.16664624  0.07637164  1
  Mn3.34+  Mn154  1  0.24732027  0.66160929  0.58069511  1
  Mn3.34+  Mn155  1  0.73394854  0.66598912  0.41936544  1
  Mn3.34+  Mn156  1  0.25001108  0.66205143  0.25255824  1
  Mn3.34+  Mn157  1  0.57965671  0.17480110  0.25271392  1
  Mn3.34+  Mn158  1  0.58545801  0.16614251  0.58633889  1
  Mn3.34+  Mn159  1  0.07938159  0.66833593  0.75124167  1
  Mn3.34+  Mn160  1  0.58409648  0.66583164  0.91432401  1
  Mn3.34+  Mn161  1  0.57948939  0.17478957  0.25284132  1
  Mn3.34+  Mn162  1  0.41881212  0.17106618  0.42396166  1
  Mn3.34+  Mn163  1  0.41783837  0.66591342  0.75202323  1
  Mn3.34+  Mn164  1  0.75870859  0.16238124  0.08067067  1
  Mn3.34+  Mn165  1  0.92948672  0.16239752  0.91501557  1
  Mn3.34+  Mn166  1  0.58181226  0.16924039  0.91032254  1
  Mn3.34+  Mn167  1  0.09726542  0.66122081  0.07879779  1
  Mn3.34+  Mn168  1  0.24694881  0.17346031  0.24867238  1
  Mn3.34+  Mn169  1  0.91758501  0.17317908  0.25169544  1
  Mn3.34+  Mn170  1  0.74503276  0.67017223  0.41990786  1
  Mn3.34+  Mn171  1  0.74625673  0.16053390  0.74449339  1
  Mn3.34+  Mn172  1  0.25979568  0.16665950  0.24819662  1
  Mn3.34+  Mn173  1  0.91186353  0.66263920  0.25088422  1
  Mn3.34+  Mn174  1  0.75210922  0.16685681  0.42699919  1
  Mn3.34+  Mn175  1  0.07916326  0.17007868  0.42030825  1
  Mn3.34+  Mn176  1  0.91933118  0.16732035  0.91507562  1
  Mn3.34+  Mn177  1  0.08768369  0.66697258  0.07855932  1
  Mn3.34+  Mn178  1  0.74810986  0.16756082  0.07989036  1
  Mn3.34+  Mn179  1  0.41656379  0.16764169  0.74555346  1
  Mn3.34+  Mn180  1  0.91735529  -0.00084888  0.92804712  1
  Mn3.34+  Mn181  1  0.25761167  -0.00002711  0.24791718  1
  Mn3.34+  Mn182  1  0.58132703  -0.00065208  0.91224361  1
  Mn3.34+  Mn183  1  0.41151448  0.50373883  0.41456781  1
  Mn3.34+  Mn184  1  0.09035183  0.49996296  0.40051332  1
  Mn3.34+  Mn185  1  0.75076475  0.00136774  0.41530904  1
  Mn3.34+  Mn186  1  0.74853789  0.49585090  0.41978022  1
  Mn3.34+  Mn187  1  0.59185045  0.00322280  0.91427671  1
  Mn3.34+  Mn188  1  0.91835452  -0.00273062  0.24947702  1
  Mn3.34+  Mn189  1  0.24087430  0.00340576  0.91900010  1
  Mn3.34+  Mn190  1  0.75949204  0.50003549  0.41749252  1
  Mn3.34+  Mn191  1  0.40703385  -0.00117268  0.08695357  1
  Mn3.34+  Mn192  1  0.07811276  0.00080174  0.07522394  1
  Mn3.34+  Mn193  1  0.09508061  0.49836663  0.07968910  1
  Mn3.34+  Mn194  1  0.41712171  0.00246313  0.74810442  1
  Mn3.34+  Mn195  1  0.08033631  0.00390669  0.73888756  1
  Mn3.34+  Mn196  1  0.42078438  -0.00093283  0.41643156  1
  Mn3.34+  Mn197  1  0.91186601  0.49929127  0.59797704  1
  Mn3.34+  Mn198  1  0.73984694  0.49743251  0.08659977  1
  Mn3.34+  Mn199  1  0.24821940  0.00002910  0.58896956  1
  Mn3.34+  Mn200  1  0.24235946  0.49677304  0.58685823  1
  Mn3.34+  Mn201  1  0.08254514  0.49835074  0.73866785  1
  Mn3.34+  Mn202  1  0.40091243  0.49891195  0.41316502  1
  Mn3.34+  Mn203  1  0.24628110  -0.00494873  0.24669003  1
  Mn3.34+  Mn204  1  0.75072295  0.50106952  0.08528980  1
  Mn3.34+  Mn205  1  0.41768553  0.00248318  0.08922397  1
  Mn3.34+  Mn206  1  0.92519367  0.50376005  0.91704848  1
  Mn3.34+  Mn207  1  0.57198443  0.50141092  0.92829232  1
  Mn3.34+  Mn208  1  0.59090845  0.49835743  0.24287183  1
  Mn3.34+  Mn209  1  0.58930077  0.00468769  0.59865731  1
  Mn3.34+  Mn210  1  0.41906037  0.50032016  0.73867680  1
  Mn3.34+  Mn211  1  0.75985111  -0.00234393  0.08079598  1
  Mn3.34+  Mn212  1  0.07980555  -0.00225137  0.41890190  1
  Mn3.34+  Mn213  1  0.57664847  0.50463637  0.24340688  1
  Mn3.34+  Mn214  1  0.25705704  0.50139007  0.93613552  1
  Mn3.34+  Mn215  1  0.58208580  -0.00247339  0.25185995  1
  O2-  O216  1  -0.00151526  0.16934979  0.00419116  1
  O2-  O217  1  0.00449102  0.16967693  0.32938870  1
  O2-  O218  1  0.00040474  0.16001977  0.67567503  1
  O2-  O219  1  -0.00296736  0.66339098  0.00917438  1
  O2-  O220  1  0.00010617  0.65950341  0.34018482  1
  O2-  O221  1  0.00165422  0.67004854  0.66803918  1
  O2-  O222  1  0.33765365  0.16901860  -0.00604112  1
  O2-  O223  1  0.33541786  0.16567660  0.33983071  1
  O2-  O224  1  0.33725856  0.16391683  0.66935551  1
  O2-  O225  1  0.33806051  0.67440351  -0.00346380  1
  O2-  O226  1  0.33836307  0.66591529  0.32217324  1
  O2-  O227  1  0.33336164  0.66667800  0.66534671  1
  O2-  O228  1  0.66262628  0.16156607  -0.00193891  1
  O2-  O229  1  0.66929842  0.16412385  0.33151068  1
  O2-  O230  1  0.66597923  0.17173394  0.66530571  1
  O2-  O231  1  0.66410811  0.66780993  -0.00169562  1
  O2-  O232  1  0.66944745  0.66716609  0.32844242  1
  O2-  O233  1  0.65995544  0.67348098  0.66073381  1
  O2-  O234  1  0.17171781  0.17224822  0.00610985  1
  O2-  O235  1  0.16518886  0.16264916  0.33268118  1
  O2-  O236  1  0.16423480  0.16342530  0.66864847  1
  O2-  O237  1  0.17083976  0.66986910  -0.00689108  1
  O2-  O238  1  0.16058097  0.66677628  0.32838690  1
  O2-  O239  1  0.17045874  0.67638942  0.66977227  1
  O2-  O240  1  0.50187631  0.16419285  -0.00761297  1
  O2-  O241  1  0.49565592  0.17240815  0.33695806  1
  O2-  O242  1  0.49765934  0.16644021  0.66074295  1
  O2-  O243  1  0.49815778  0.66974187  0.00132192  1
  O2-  O244  1  0.48943087  0.66670398  0.32392320  1
  O2-  O245  1  0.49786923  0.66650925  0.66511744  1
  O2-  O246  1  0.83588238  0.16396978  -0.00781921  1
  O2-  O247  1  0.82854956  0.16485382  0.32808340  1
  O2-  O248  1  0.83602303  0.16671170  0.67885578  1
  O2-  O249  1  0.83601209  0.66611081  0.01061778  1
  O2-  O250  1  0.83248697  0.65908747  0.33951023  1
  O2-  O251  1  0.83639153  0.66370708  0.66273259  1
  O2-  O252  1  -0.00354281  0.33813988  0.00504248  1
  O2-  O253  1  0.00182718  0.32227603  0.33520647  1
  O2-  O254  1  -0.00447948  0.33304011  0.67182629  1
  O2-  O255  1  0.00429635  0.83223624  -0.00497086  1
  O2-  O256  1  0.00060294  0.83486575  0.33394679  1
  O2-  O257  1  -0.00634017  0.83025846  0.67288355  1
  O2-  O258  1  0.33266154  0.31309713  -0.00077051  1
  O2-  O259  1  0.33966308  0.32777924  0.32705891  1
  O2-  O260  1  0.33530144  0.33592197  0.66648362  1
  O2-  O261  1  0.33448638  0.83110407  0.00014403  1
  O2-  O262  1  0.33371410  0.83675198  0.33358315  1
  O2-  O263  1  0.32930945  0.83386498  0.66815988  1
  O2-  O264  1  0.66433807  0.33644486  -0.00206995  1
  O2-  O265  1  0.66716601  0.32994901  0.33309739  1
  O2-  O266  1  0.66346800  0.33782667  0.67017123  1
  O2-  O267  1  0.66734675  0.83042495  0.00239714  1
  O2-  O268  1  0.66743667  0.83678452  0.33293105  1
  O2-  O269  1  0.66398718  0.83440192  0.66939480  1
  O2-  O270  1  0.16621410  0.32489258  -0.00646522  1
  O2-  O271  1  0.16153632  0.32578571  0.33217377  1
  O2-  O272  1  0.17081462  0.33232271  0.67140335  1
  O2-  O273  1  0.16486665  0.83608231  0.00153019  1
  O2-  O274  1  0.16583175  0.83562322  0.33346925  1
  O2-  O275  1  0.17241466  0.82422262  0.67323220  1
  O2-  O276  1  0.50210159  0.32637197  0.00578927  1
  O2-  O277  1  0.49792673  0.32437601  0.33241143  1
  O2-  O278  1  0.50277886  0.33832854  0.66948400  1
  O2-  O279  1  0.49852996  0.83114370  0.00047903  1
  O2-  O280  1  0.50014703  0.83726269  0.33381504  1
  O2-  O281  1  0.50466790  0.83489187  0.66740861  1
  O2-  O282  1  0.83888638  0.33905157  0.00339681  1
  O2-  O283  1  0.83248445  0.32966700  0.33167204  1
  O2-  O284  1  0.83280404  0.33723904  0.66599208  1
  O2-  O285  1  0.82892433  0.82677863  -0.00444577  1
  O2-  O286  1  0.83307645  0.83499590  0.33289191  1
  O2-  O287  1  0.83454338  0.83753327  0.66982921  1
  O2-  O288  1  0.00425704  0.17288862  0.17394102  1
  O2-  O289  1  0.00033788  0.17132897  0.49566448  1
  O2-  O290  1  -0.00138167  0.16766474  0.82760724  1
  O2-  O291  1  0.00207055  0.66528344  0.16306088  1
  O2-  O292  1  -0.00633064  0.66800492  0.49305577  1
  O2-  O293  1  0.00102830  0.67687917  0.82764486  1
  O2-  O294  1  0.33650898  0.17213318  0.16569306  1
  O2-  O295  1  0.33315395  0.17167471  0.49461825  1
  O2-  O296  1  0.34000335  0.17087968  0.82969402  1
  O2-  O297  1  0.33490176  0.67481616  0.16467307  1
  O2-  O298  1  0.33302901  0.67477535  0.51285287  1
  O2-  O299  1  0.33365935  0.66780674  0.83175208  1
  O2-  O300  1  0.66803385  0.16926879  0.17054319  1
  O2-  O301  1  0.66025887  0.16946775  0.49471052  1
  O2-  O302  1  0.67267396  0.17062703  0.83825181  1
  O2-  O303  1  0.67148285  0.67481384  0.16065434  1
  O2-  O304  1  0.66417637  0.67453142  0.50900805  1
  O2-  O305  1  0.66340064  0.66793171  0.83736719  1
  O2-  O306  1  0.16104694  0.16393319  0.16865061  1
  O2-  O307  1  0.16587891  0.17192178  0.49138930  1
  O2-  O308  1  0.16883512  0.17519620  0.82793362  1
  O2-  O309  1  0.16381672  0.66933310  0.16952715  1
  O2-  O310  1  0.16786258  0.68126978  0.50401581  1
  O2-  O311  1  0.17038511  0.67352705  0.83059922  1
  O2-  O312  1  0.49928415  0.17870938  0.16519026  1
  O2-  O313  1  0.50206903  0.17198979  0.50039371  1
  O2-  O314  1  0.49588367  0.16834669  0.83606910  1
  O2-  O315  1  0.48903224  0.67200478  0.16100919  1
  O2-  O316  1  0.49988092  0.67619521  0.51404029  1
  O2-  O317  1  0.49945584  0.66795683  0.83354631  1
  O2-  O318  1  0.83115725  0.17275809  0.17534980  1
  O2-  O319  1  0.83483881  0.17106229  0.49537588  1
  O2-  O320  1  0.83476520  0.16804191  0.83612312  1
  O2-  O321  1  0.83440374  0.66981180  0.16381962  1
  O2-  O322  1  0.83190197  0.66508668  0.49565761  1
  O2-  O323  1  0.83044014  0.66687627  0.83052692  1
  O2-  O324  1  -0.00370676  0.32724314  0.16612027  1
  O2-  O325  1  -0.00269827  0.32434378  0.49332149  1
  O2-  O326  1  0.00079122  0.33247459  0.83519802  1
  O2-  O327  1  0.00313340  0.82778890  0.17053688  1
  O2-  O328  1  -0.00222533  0.82891876  0.49621500  1
  O2-  O329  1  -0.00110484  0.83176855  0.83128031  1
  O2-  O330  1  0.33996716  0.32577377  0.16834953  1
  O2-  O331  1  0.33754367  0.32287192  0.50208992  1
  O2-  O332  1  0.32937481  0.32305617  0.83161091  1
  O2-  O333  1  0.33322423  0.82712833  0.16543220  1
  O2-  O334  1  0.33361403  0.82708414  0.50176255  1
  O2-  O335  1  0.33003840  0.83591485  0.83069622  1
  O2-  O336  1  0.66539733  0.32692082  0.16935026  1
  O2-  O337  1  0.66634900  0.33135029  0.49949513  1
  O2-  O338  1  0.66463357  0.33403426  0.83217921  1
  O2-  O339  1  0.66627835  0.82660470  0.16563585  1
  O2-  O340  1  0.66695203  0.82702665  0.50053854  1
  O2-  O341  1  0.66364556  0.83645736  0.83040515  1
  O2-  O342  1  0.16282941  0.32937865  0.17112985  1
  O2-  O343  1  0.16472438  0.31891375  0.49898496  1
  O2-  O344  1  0.16690521  0.32791916  0.83609838  1
  O2-  O345  1  0.16660272  0.83234365  0.16571361  1
  O2-  O346  1  0.16976788  0.82246795  0.49669962  1
  O2-  O347  1  0.16791107  0.83093425  0.82944528  1
  O2-  O348  1  0.49766298  0.32129730  0.16739364  1
  O2-  O349  1  0.50094708  0.32653350  0.49770643  1
  O2-  O350  1  0.50688738  0.33257577  0.82641095  1
  O2-  O351  1  0.50072225  0.82774430  0.16583257  1
  O2-  O352  1  0.49927312  0.82720821  0.50076747  1
  O2-  O353  1  0.50308473  0.83712250  0.83169503  1
  O2-  O354  1  0.83696212  0.32749026  0.16814340  1
  O2-  O355  1  0.83364139  0.33260786  0.49895927  1
  O2-  O356  1  0.83174278  0.33283272  0.83518946  1
  O2-  O357  1  0.82829595  0.82145584  0.16884914  1
  O2-  O358  1  0.83341867  0.83115240  0.49987101  1
  O2-  O359  1  0.83572459  0.83613176  0.83033045  1
  O2-  O360  1  0.08718153  0.08059090  0.10756353  1
  O2-  O361  1  0.09375021  0.07968018  0.43126851  1
  O2-  O362  1  0.07696065  0.08197114  0.76239350  1
  O2-  O363  1  0.07264695  0.57883725  0.10527869  1
  O2-  O364  1  0.07433342  0.57980242  0.42943874  1
  O2-  O365  1  0.08340312  0.57873635  0.76349673  1
  O2-  O366  1  0.42021009  0.08437070  0.09952762  1
  O2-  O367  1  0.40957751  0.08046235  0.43454993  1
  O2-  O368  1  0.41313816  0.08240288  0.76988115  1
  O2-  O369  1  0.42307266  0.57941295  0.10307505  1
  O2-  O370  1  0.41602617  0.58397789  0.43547082  1
  O2-  O371  1  0.41587742  0.58119489  0.76468007  1
  O2-  O372  1  0.74601193  0.07792469  0.11255492  1
  O2-  O373  1  0.74961353  0.08390574  0.41764565  1
  O2-  O374  1  0.76855835  0.08022127  0.76763825  1
  O2-  O375  1  0.75752562  0.58304351  0.09902050  1
  O2-  O376  1  0.75235650  0.58202692  0.43368644  1
  O2-  O377  1  0.74914926  0.57823288  0.75905151  1
  O2-  O378  1  0.24959102  0.08214992  0.23726394  1
  O2-  O379  1  0.25126880  0.07827961  0.56432460  1
  O2-  O380  1  0.26482354  0.07995080  0.90129851  1
  O2-  O381  1  0.25867840  0.58361805  0.23848481  1
  O2-  O382  1  0.26488086  0.57781188  0.57271912  1
  O2-  O383  1  0.25598675  0.57718018  0.89493186  1
  O2-  O384  1  0.58684382  0.08139178  0.23071679  1
  O2-  O385  1  0.57460611  0.08134066  0.56394729  1
  O2-  O386  1  0.58389034  0.08509718  0.90714653  1
  O2-  O387  1  0.58018939  0.58509908  0.23125047  1
  O2-  O388  1  0.57443656  0.58043868  0.57697304  1
  O2-  O389  1  0.58201010  0.58089989  0.90167800  1
  O2-  O390  1  0.91870749  0.08069951  0.23589302  1
  O2-  O391  1  0.92390227  0.07727997  0.58018956  1
  O2-  O392  1  0.91197688  0.07850141  0.89661635  1
  O2-  O393  1  0.91753592  0.58061388  0.22622515  1
  O2-  O394  1  0.91263150  0.57858231  0.56057757  1
  O2-  O395  1  0.90878298  0.58062417  0.90588811  1
  O2-  O396  1  0.06991907  0.41717727  0.09905557  1
  O2-  O397  1  0.07374588  0.42269570  0.42093356  1
  O2-  O398  1  0.08349255  0.41874920  0.76847010  1
  O2-  O399  1  0.08932725  0.92024565  0.09695484  1
  O2-  O400  1  0.08449591  0.91607628  0.42316191  1
  O2-  O401  1  0.08871286  0.92276966  0.76850748  1
  O2-  O402  1  0.42977587  0.42240869  0.10786997  1
  O2-  O403  1  0.42396273  0.41786769  0.42687186  1
  O2-  O404  1  0.42409417  0.41848301  0.75682195  1
  O2-  O405  1  0.41763618  0.91666861  0.09391842  1
  O2-  O406  1  0.41752709  0.91696598  0.43138035  1
  O2-  O407  1  0.41427506  0.91871390  0.76143660  1
  O2-  O408  1  0.75343896  0.41523370  0.09692981  1
  O2-  O409  1  0.74598518  0.41346491  0.42366161  1
  O2-  O410  1  0.74079551  0.41732585  0.76288582  1
  O2-  O411  1  0.74156843  0.91866570  0.09780631  1
  O2-  O412  1  0.74829955  0.91988706  0.43263451  1
  O2-  O413  1  0.74665904  0.91833663  0.76463729  1
  O2-  O414  1  0.25962725  0.41806782  0.23974081  1
  O2-  O415  1  0.26024709  0.41770169  0.57666851  1
  O2-  O416  1  0.24168484  0.42727242  0.89687616  1
  O2-  O417  1  0.25091375  0.91340199  0.23870477  1
  O2-  O418  1  0.25717298  0.91901591  0.57390173  1
  O2-  O419  1  0.24876329  0.92044571  0.89656378  1
  O2-  O420  1  0.57935723  0.41693060  0.23827144  1
  O2-  O421  1  0.58335642  0.41644398  0.57331818  1
  O2-  O422  1  0.58976932  0.42084961  0.89985393  1
  O2-  O423  1  0.58272293  0.91566273  0.23547373  1
  O2-  O424  1  0.58195102  0.92355347  0.56871548  1
  O2-  O425  1  0.58351551  0.91631652  0.90587431  1
  O2-  O426  1  0.91447712  0.42285811  0.22523700  1
  O2-  O427  1  0.90896679  0.42041692  0.56836245  1
  O2-  O428  1  0.91678760  0.42086817  0.90388857  1
  O2-  O429  1  0.91620150  0.91647618  0.24272282  1
  O2-  O430  1  0.90787682  0.91736346  0.57730649  1
  O2-  O431  1  0.91615734  0.91959039  0.89505330  1
  O2-  O432  1  0.00520777  -0.00224131  -0.00870174  1
  O2-  O433  1  0.00505425  0.00701316  0.32802313  1
  O2-  O434  1  -0.01203142  0.00232993  0.68235294  1
  O2-  O435  1  -0.00904018  0.50128164  0.01707564  1
  O2-  O436  1  -0.00434236  0.50634718  0.34621243  1
  O2-  O437  1  -0.00930319  0.50212472  0.67624303  1
  O2-  O438  1  0.33418937  0.00008396  -0.00426235  1
  O2-  O439  1  0.33301009  0.00428191  0.33643459  1
  O2-  O440  1  0.33216980  -0.00113584  0.66966199  1
  O2-  O441  1  0.34070538  0.50607235  -0.00769841  1
  O2-  O442  1  0.34259431  0.50171320  0.31545382  1
  O2-  O443  1  0.33529818  0.50406454  0.66484701  1
  O2-  O444  1  0.66587365  0.00369113  0.00417729  1
  O2-  O445  1  0.67100675  0.00530898  0.32725582  1
  O2-  O446  1  0.66519778  -0.01076627  0.67055272  1
  O2-  O447  1  0.66761948  0.50090948  -0.00509418  1
  O2-  O448  1  0.66620332  0.50377244  0.33348729  1
  O2-  O449  1  0.66524596  0.50361168  0.67362625  1
  O2-  O450  1  0.17115725  -0.00019528  0.01004161  1
  O2-  O451  1  0.16642462  0.00488475  0.33298929  1
  O2-  O452  1  0.17529427  -0.00013521  0.67899553  1
  O2-  O453  1  0.16331202  0.49973326  -0.01085361  1
  O2-  O454  1  0.16000156  0.50214010  0.32332265  1
  O2-  O455  1  0.17619601  0.50252434  0.68030968  1
  O2-  O456  1  0.50056489  0.00257814  0.00115702  1
  O2-  O457  1  0.49977864  0.00422860  0.33232000  1
  O2-  O458  1  0.49914933  -0.00481957  0.66572739  1
  O2-  O459  1  0.50166545  0.50531182  0.00387866  1
  O2-  O460  1  0.50286435  0.50078384  0.33548868  1
  O2-  O461  1  0.50340439  0.50070445  0.67431915  1
  O2-  O462  1  0.82276638  0.00246574  -0.01448267  1
  O2-  O463  1  0.82903145  0.00689953  0.32528699  1
  O2-  O464  1  0.84709654  0.00007792  0.68083672  1
  O2-  O465  1  0.83685499  0.50064522  0.00341602  1
  O2-  O466  1  0.83691423  0.50566258  0.33682662  1
  O2-  O467  1  0.82775636  0.50257450  0.66150022  1
  O2-  O468  1  0.58227184  0.75040020  0.25490073  1
  O2-  O469  1  0.91747372  0.75023225  0.25498075  1
  O2-  O470  1  0.75028660  0.25170750  0.08094949  1
  O2-  O471  1  0.58126873  0.74913066  0.91499644  1
  O2-  O472  1  0.91595145  0.25181155  0.92190126  1
  O2-  O473  1  0.07942634  0.74919943  0.41225458  1
  O2-  O474  1  0.41556903  0.74878794  0.75092179  1
  O2-  O475  1  0.91639497  0.75064404  0.91759853  1
  O2-  O476  1  0.91575396  0.75020536  0.58253792  1
  O2-  O477  1  0.08071174  0.24936204  0.08462241  1
  O2-  O478  1  0.41722070  0.75066368  0.41147247  1
  O2-  O479  1  0.58445335  0.24961927  0.58430777  1
  O2-  O480  1  0.75080000  0.75165388  0.75010225  1
  O2-  O481  1  0.25011660  0.25372502  0.58644878  1
  O2-  O482  1  0.07857179  0.25077266  0.74893649  1
  O2-  O483  1  0.75356742  0.75284873  0.41266830  1
  O2-  O484  1  0.24936754  0.25426120  0.25121830  1
  O2-  O485  1  0.58631592  0.25083068  0.91998057  1
  O2-  O486  1  0.91526960  0.25266251  0.58570245  1
  O2-  O487  1  0.75006146  0.24975586  0.75109024  1
  O2-  O488  1  0.24983455  0.74846043  0.91500087  1
  O2-  O489  1  0.74823492  0.24825347  0.41137935  1
  O2-  O490  1  0.24598326  0.74808779  0.25113233  1
  O2-  O491  1  0.08302593  0.75120119  0.08105388  1
  O2-  O492  1  0.42156103  0.25067423  0.74772582  1
