# generated using pymatgen
data_Ca108Mn108O277
_symmetry_space_group_name_H-M   'P 1'
_cell_length_a   16.00929512
_cell_length_b   22.28110133
_cell_length_c   16.37372528
_cell_angle_alpha   89.99906088
_cell_angle_beta   89.99928590
_cell_angle_gamma   89.99805386
_symmetry_Int_Tables_number   1
_chemical_formula_structural   Ca108Mn108O277
_chemical_formula_sum   'Ca108 Mn108 O277'
_cell_volume   5840.58519987
_cell_formula_units_Z   1
loop_
 _symmetry_equiv_pos_site_id
 _symmetry_equiv_pos_as_xyz
  1  'x, y, z'
loop_
 _atom_type_symbol
 _atom_type_oxidation_number
  Ca2+  2.0
  Mn3.34+  3.34
  O2-  -2.0
loop_
 _atom_site_type_symbol
 _atom_site_label
 _atom_site_symmetry_multiplicity
 _atom_site_fract_x
 _atom_site_fract_y
 _atom_site_fract_z
 _atom_site_occupancy
  Ca2+  Ca0  1  0.08973159  0.25385291  0.25890625  1
  Ca2+  Ca1  1  0.06457895  0.25679923  0.58229647  1
  Ca2+  Ca2  1  0.09165489  0.25705716  0.90606408  1
  Ca2+  Ca3  1  0.07732181  0.76471264  0.25333019  1
  Ca2+  Ca4  1  0.10133600  0.75200177  0.57087554  1
  Ca2+  Ca5  1  0.09217520  0.74723779  0.93106929  1
  Ca2+  Ca6  1  0.42753826  0.24054748  0.25800282  1
  Ca2+  Ca7  1  0.41834603  0.25474073  0.57885059  1
  Ca2+  Ca8  1  0.40661099  0.25200868  0.90891580  1
  Ca2+  Ca9  1  0.42374463  0.75836686  0.24438198  1
  Ca2+  Ca10  1  0.41906134  0.74450627  0.58827787  1
  Ca2+  Ca11  1  0.41624669  0.75076478  0.91251491  1
  Ca2+  Ca12  1  0.74471568  0.24381700  0.27163401  1
  Ca2+  Ca13  1  0.76604863  0.23904618  0.56088990  1
  Ca2+  Ca14  1  0.75038826  0.26690562  0.90661172  1
  Ca2+  Ca15  1  0.74972347  0.75497098  0.26134645  1
  Ca2+  Ca16  1  0.72783441  0.74707838  0.58612542  1
  Ca2+  Ca17  1  0.74102535  0.73970755  0.90827939  1
  Ca2+  Ca18  1  0.25863996  0.25213751  0.07436773  1
  Ca2+  Ca19  1  0.26333878  0.25195720  0.40941654  1
  Ca2+  Ca20  1  0.25643011  0.25464459  0.76529960  1
  Ca2+  Ca21  1  0.25206171  0.76192260  0.07919575  1
  Ca2+  Ca22  1  0.24746955  0.75291556  0.43551593  1
  Ca2+  Ca23  1  0.26709146  0.73780470  0.73079808  1
  Ca2+  Ca24  1  0.57605786  0.24641434  0.09369181  1
  Ca2+  Ca25  1  0.59133962  0.23517299  0.40545863  1
  Ca2+  Ca26  1  0.57447143  0.25792635  0.75527417  1
  Ca2+  Ca27  1  0.57418986  0.75369927  0.08833841  1
  Ca2+  Ca28  1  0.58711518  0.74625858  0.43541662  1
  Ca2+  Ca29  1  0.58092312  0.73156819  0.73720888  1
  Ca2+  Ca30  1  0.91788459  0.25647539  0.07995797  1
  Ca2+  Ca31  1  0.89949311  0.24711814  0.42407127  1
  Ca2+  Ca32  1  0.91525749  0.25484958  0.73784985  1
  Ca2+  Ca33  1  0.92566988  0.75369737  0.09223895  1
  Ca2+  Ca34  1  0.91250536  0.75880890  0.41084360  1
  Ca2+  Ca35  1  0.90038901  0.75415985  0.74702794  1
  Ca2+  Ca36  1  0.58887656  0.59970232  0.07171953  1
  Ca2+  Ca37  1  0.41507542  0.08902899  0.57011971  1
  Ca2+  Ca38  1  0.08041581  0.08640071  0.25279256  1
  Ca2+  Ca39  1  0.74959553  0.58232172  0.26697693  1
  Ca2+  Ca40  1  0.89485969  0.10229738  0.41982433  1
  Ca2+  Ca41  1  0.25293118  0.59829994  0.07174673  1
  Ca2+  Ca42  1  0.25004648  0.08793820  0.74387236  1
  Ca2+  Ca43  1  0.27068837  0.08020455  0.40441275  1
  Ca2+  Ca44  1  0.11076304  0.58987523  0.58744604  1
  Ca2+  Ca45  1  0.92254859  0.59436671  0.07521017  1
  Ca2+  Ca46  1  0.91111388  0.59413256  0.07516906  1
  Ca2+  Ca47  1  0.90724406  0.58275985  0.76851650  1
  Ca2+  Ca48  1  0.42734618  0.09091673  0.56966339  1
  Ca2+  Ca49  1  0.41710455  0.10199807  0.92194582  1
  Ca2+  Ca50  1  0.57944063  0.60198017  0.06633836  1
  Ca2+  Ca51  1  0.90094775  0.58156235  0.40700894  1
  Ca2+  Ca52  1  0.91231155  0.58163285  0.40721404  1
  Ca2+  Ca53  1  0.43583686  0.59588743  0.59516429  1
  Ca2+  Ca54  1  0.26190117  0.09318359  0.09679845  1
  Ca2+  Ca55  1  0.91900285  0.09606449  0.11655356  1
  Ca2+  Ca56  1  0.40623172  0.10342679  0.92383010  1
  Ca2+  Ca57  1  0.09424531  0.09605051  0.91647172  1
  Ca2+  Ca58  1  0.25012660  0.60490244  0.43548224  1
  Ca2+  Ca59  1  0.57636195  0.09250439  0.73629074  1
  Ca2+  Ca60  1  0.76090502  0.58243829  0.26659944  1
  Ca2+  Ca61  1  0.74176128  0.09514521  0.91814479  1
  Ca2+  Ca62  1  0.75287201  0.10128944  0.27095044  1
  Ca2+  Ca63  1  0.43318337  0.59640406  0.25104340  1
  Ca2+  Ca64  1  0.88454626  0.10351966  0.41944225  1
  Ca2+  Ca65  1  0.23894238  0.08739865  0.74138908  1
  Ca2+  Ca66  1  0.69671597  0.58902847  0.57934468  1
  Ca2+  Ca67  1  0.42861142  0.59981975  0.89749848  1
  Ca2+  Ca68  1  0.92551380  0.08845943  0.72494344  1
  Ca2+  Ca69  1  0.06488608  0.59068295  0.25683019  1
  Ca2+  Ca70  1  0.43898706  0.60079564  0.89857515  1
  Ca2+  Ca71  1  0.42554188  0.59614334  0.59489877  1
  Ca2+  Ca72  1  0.08753872  0.90166829  0.91566706  1
  Ca2+  Ca73  1  0.57666924  0.89883853  0.08422461  1
  Ca2+  Ca74  1  0.57610296  0.41646936  0.74171628  1
  Ca2+  Ca75  1  0.07425672  0.40643034  0.91014866  1
  Ca2+  Ca76  1  0.43056661  0.91253999  0.56682164  1
  Ca2+  Ca77  1  0.74173059  0.41218351  0.58103862  1
  Ca2+  Ca78  1  0.75571426  0.41331384  0.26540334  1
  Ca2+  Ca79  1  0.74304865  0.89379864  0.91615267  1
  Ca2+  Ca80  1  0.24553055  0.39905874  0.42399858  1
  Ca2+  Ca81  1  0.07440925  0.40146595  0.25318802  1
  Ca2+  Ca82  1  0.57229670  0.40186253  0.08421919  1
  Ca2+  Ca83  1  0.92494899  0.90440956  0.10090450  1
  Ca2+  Ca84  1  0.75953921  0.90610288  0.25744659  1
  Ca2+  Ca85  1  0.60009004  0.40793924  0.42437765  1
  Ca2+  Ca86  1  0.24065203  0.90941418  0.73372265  1
  Ca2+  Ca87  1  0.92748235  0.90660151  0.74016377  1
  Ca2+  Ca88  1  0.58510418  0.90129348  0.74185648  1
  Ca2+  Ca89  1  0.41839903  0.91243936  0.56973635  1
  Ca2+  Ca90  1  0.90697483  0.90883397  0.40939875  1
  Ca2+  Ca91  1  0.07486443  0.90147412  0.91558509  1
  Ca2+  Ca92  1  0.23582063  0.91615076  0.73405290  1
  Ca2+  Ca93  1  0.41619478  0.39603289  0.24692706  1
  Ca2+  Ca94  1  0.08469978  0.90947424  0.58940476  1
  Ca2+  Ca95  1  0.42726590  0.90153538  0.92362951  1
  Ca2+  Ca96  1  0.24722816  0.40681599  0.74460684  1
  Ca2+  Ca97  1  0.90073039  0.41254195  0.41320130  1
  Ca2+  Ca98  1  0.91717533  0.41326936  0.75967858  1
  Ca2+  Ca99  1  0.40140950  0.91366565  0.25515126  1
  Ca2+  Ca100  1  0.58503247  0.40263771  0.08411397  1
  Ca2+  Ca101  1  0.73698527  0.90647812  0.57435700  1
  Ca2+  Ca102  1  0.41989312  0.40367396  0.90454609  1
  Ca2+  Ca103  1  0.42288744  0.41375197  0.59867458  1
  Ca2+  Ca104  1  0.91650903  0.40549259  0.08205137  1
  Ca2+  Ca105  1  0.91230173  0.41309344  0.41431508  1
  Ca2+  Ca106  1  0.92831383  0.41336404  0.75768000  1
  Ca2+  Ca107  1  0.25921695  0.91243347  0.40853142  1
  Mn3.34+  Mn108  1  0.08623071  0.32923937  0.08444074  1
  Mn3.34+  Mn109  1  0.08422589  0.33512654  0.42068890  1
  Mn3.34+  Mn110  1  0.08547503  0.33880291  0.74853704  1
  Mn3.34+  Mn111  1  0.08807483  0.83440032  0.08968247  1
  Mn3.34+  Mn112  1  0.08344189  0.83280036  0.41487550  1
  Mn3.34+  Mn113  1  0.08150638  0.82851250  0.75006700  1
  Mn3.34+  Mn114  1  0.41148798  0.33164234  0.08385210  1
  Mn3.34+  Mn115  1  0.41952116  0.32925746  0.41901057  1
  Mn3.34+  Mn116  1  0.41594113  0.33716241  0.74969443  1
  Mn3.34+  Mn117  1  0.41287676  0.83493326  0.08745868  1
  Mn3.34+  Mn118  1  0.42000234  0.83829626  0.41305958  1
  Mn3.34+  Mn119  1  0.41813281  0.82994304  0.75156341  1
  Mn3.34+  Mn120  1  0.75068160  0.32667912  0.08650886  1
  Mn3.34+  Mn121  1  0.74714359  0.33152082  0.41959460  1
  Mn3.34+  Mn122  1  0.74705100  0.33949404  0.74963239  1
  Mn3.34+  Mn123  1  0.74972380  0.82600796  0.08475365  1
  Mn3.34+  Mn124  1  0.74524787  0.83370862  0.41872977  1
  Mn3.34+  Mn125  1  0.74902220  0.82884356  0.74854226  1
  Mn3.34+  Mn126  1  0.25056197  0.32728749  0.24749471  1
  Mn3.34+  Mn127  1  0.24737149  0.33569513  0.58324791  1
  Mn3.34+  Mn128  1  0.24900446  0.32941187  0.91762602  1
  Mn3.34+  Mn129  1  0.24726066  0.84127544  0.24952191  1
  Mn3.34+  Mn130  1  0.25284891  0.83303167  0.57847790  1
  Mn3.34+  Mn131  1  0.25374571  0.83067045  0.91614267  1
  Mn3.34+  Mn132  1  0.58460434  0.32883642  0.25361269  1
  Mn3.34+  Mn133  1  0.58399837  0.33822423  0.58125164  1
  Mn3.34+  Mn134  1  0.58526509  0.33351363  0.91330355  1
  Mn3.34+  Mn135  1  0.58396317  0.83407368  0.25336078  1
  Mn3.34+  Mn136  1  0.58136088  0.83236663  0.58066982  1
  Mn3.34+  Mn137  1  0.58389782  0.82886804  0.91471370  1
  Mn3.34+  Mn138  1  0.91545486  0.33444693  0.24583623  1
  Mn3.34+  Mn139  1  0.91616756  0.33342171  0.58256236  1
  Mn3.34+  Mn140  1  0.91501792  0.33610154  0.91680789  1
  Mn3.34+  Mn141  1  0.91716794  0.83756829  0.25004758  1
  Mn3.34+  Mn142  1  0.91538460  0.83625698  0.57908808  1
  Mn3.34+  Mn143  1  0.91353957  0.82452467  0.91696711  1
  Mn3.34+  Mn144  1  0.74885882  0.67733323  0.08316120  1
  Mn3.34+  Mn145  1  0.07700958  0.17108963  0.08348538  1
  Mn3.34+  Mn146  1  0.41627746  0.17068185  0.74817241  1
  Mn3.34+  Mn147  1  0.08171637  0.65650545  0.75829557  1
  Mn3.34+  Mn148  1  0.91633173  0.66843393  0.24666046  1
  Mn3.34+  Mn149  1  0.91454791  0.66194176  0.91322469  1
  Mn3.34+  Mn150  1  0.08995281  0.16513398  0.42103451  1
  Mn3.34+  Mn151  1  0.91440149  0.17056136  0.91634941  1
  Mn3.34+  Mn152  1  0.73939671  0.66342556  0.75726860  1
  Mn3.34+  Mn153  1  0.07753051  0.16237384  0.74631818  1
  Mn3.34+  Mn154  1  0.25787825  0.16153600  0.24989878  1
  Mn3.34+  Mn155  1  0.25143824  0.66877194  0.91445874  1
  Mn3.34+  Mn156  1  0.09199153  0.66124735  0.75719936  1
  Mn3.34+  Mn157  1  0.08527938  0.66920949  0.08021820  1
  Mn3.34+  Mn158  1  0.42375582  0.16250444  0.40969014  1
  Mn3.34+  Mn159  1  0.07918866  0.16913898  0.41895326  1
  Mn3.34+  Mn160  1  0.41907080  0.16361517  0.09102883  1
  Mn3.34+  Mn161  1  0.74166189  0.17380547  0.08722811  1
  Mn3.34+  Mn162  1  0.08291288  0.66620904  0.42113654  1
  Mn3.34+  Mn163  1  0.25172354  0.16080182  0.57689519  1
  Mn3.34+  Mn164  1  0.09131819  0.17142516  0.08799864  1
  Mn3.34+  Mn165  1  0.42138500  0.67030252  0.42029946  1
  Mn3.34+  Mn166  1  0.41898201  0.66443319  0.74843931  1
  Mn3.34+  Mn167  1  0.58444558  0.66929687  0.25284129  1
  Mn3.34+  Mn168  1  0.08596406  0.16876419  0.74625494  1
  Mn3.34+  Mn169  1  0.25620529  0.66535183  0.25130935  1
  Mn3.34+  Mn170  1  0.74214677  0.66544091  0.42223914  1
  Mn3.34+  Mn171  1  0.75580268  0.17341125  0.08706273  1
  Mn3.34+  Mn172  1  0.91853647  0.66231544  0.58526907  1
  Mn3.34+  Mn173  1  0.58290006  0.16885450  0.91700421  1
  Mn3.34+  Mn174  1  0.24327507  0.67204060  0.25089261  1
  Mn3.34+  Mn175  1  0.58678173  0.15933044  0.57327910  1
  Mn3.34+  Mn176  1  0.90808457  0.66731114  0.58556403  1
  Mn3.34+  Mn177  1  0.41650817  0.66881535  0.08284053  1
  Mn3.34+  Mn178  1  0.74389161  0.17063933  0.74378277  1
  Mn3.34+  Mn179  1  0.75385837  0.16546353  0.74473707  1
  Mn3.34+  Mn180  1  0.91156039  -0.00075433  0.91313438  1
  Mn3.34+  Mn181  1  0.08337780  0.50008115  0.41794571  1
  Mn3.34+  Mn182  1  0.74904382  0.00049560  0.41021840  1
  Mn3.34+  Mn183  1  0.74003076  0.50429129  0.73939474  1
  Mn3.34+  Mn184  1  0.58110883  0.00078537  0.91617711  1
  Mn3.34+  Mn185  1  0.56849332  0.00419915  0.26143079  1
  Mn3.34+  Mn186  1  0.25644450  -0.00334862  0.91548957  1
  Mn3.34+  Mn187  1  0.92221472  0.00484137  0.91276678  1
  Mn3.34+  Mn188  1  0.75177251  -0.00309039  0.08997558  1
  Mn3.34+  Mn189  1  0.92371755  0.49851573  0.59675135  1
  Mn3.34+  Mn190  1  0.42023807  -0.00000525  0.74842441  1
  Mn3.34+  Mn191  1  0.07410509  -0.00211425  0.41227035  1
  Mn3.34+  Mn192  1  0.24591129  0.00178681  0.91627998  1
  Mn3.34+  Mn193  1  0.42232548  0.00029435  0.08480802  1
  Mn3.34+  Mn194  1  0.75186191  -0.00502245  0.74822093  1
  Mn3.34+  Mn195  1  0.42645188  0.49666898  0.42076634  1
  Mn3.34+  Mn196  1  0.09034809  -0.00063717  0.41085994  1
  Mn3.34+  Mn197  1  0.41536560  0.50135108  0.42154272  1
  Mn3.34+  Mn198  1  0.58378489  0.50111142  0.91537755  1
  Mn3.34+  Mn199  1  0.74767574  0.49628078  0.08043937  1
  Mn3.34+  Mn200  1  0.58705366  0.49936137  0.25413632  1
  Mn3.34+  Mn201  1  0.73772220  0.00310608  0.08892903  1
  Mn3.34+  Mn202  1  0.09336921  0.50148516  0.08789335  1
  Mn3.34+  Mn203  1  0.74116698  -0.00028300  0.74642684  1
  Mn3.34+  Mn204  1  0.08747978  -0.00344386  0.09143447  1
  Mn3.34+  Mn205  1  0.25083251  0.49968835  0.60494483  1
  Mn3.34+  Mn206  1  0.25580648  0.49356972  0.24233729  1
  Mn3.34+  Mn207  1  0.42757980  -0.00270900  0.75660762  1
  Mn3.34+  Mn208  1  0.41284198  0.50047387  0.08361479  1
  Mn3.34+  Mn209  1  0.07884084  0.49600323  0.08501039  1
  Mn3.34+  Mn210  1  0.24136179  0.49919265  0.24342088  1
  Mn3.34+  Mn211  1  0.75809248  0.50097924  0.07885261  1
  Mn3.34+  Mn212  1  0.24280709  0.50438045  0.90827323  1
  Mn3.34+  Mn213  1  0.92688908  0.00144793  0.59234207  1
  Mn3.34+  Mn214  1  0.25331443  0.49945611  0.90843998  1
  Mn3.34+  Mn215  1  0.58084364  0.00963032  0.25998852  1
  O2-  O216  1  -0.00192304  0.16391813  0.00411925  1
  O2-  O217  1  0.00322335  0.16239336  0.33388567  1
  O2-  O218  1  -0.00321434  0.16562867  0.66962555  1
  O2-  O219  1  -0.00676504  0.66864183  0.00206017  1
  O2-  O220  1  -0.00664507  0.65356600  0.33693223  1
  O2-  O221  1  0.00138598  0.66883236  0.67294043  1
  O2-  O222  1  0.34135011  0.16741759  0.00266146  1
  O2-  O223  1  0.32964912  0.16335722  0.34074116  1
  O2-  O224  1  0.33083912  0.16061703  0.66649176  1
  O2-  O225  1  0.33875466  0.65684484  -0.00316791  1
  O2-  O226  1  0.33426797  0.66666913  0.33599019  1
  O2-  O227  1  0.34291424  0.66182320  0.66376200  1
  O2-  O228  1  0.67178840  0.16771656  -0.00098882  1
  O2-  O229  1  0.67389470  0.17047988  0.33281887  1
  O2-  O230  1  0.65665216  0.16868150  0.66721484  1
  O2-  O231  1  0.65980447  0.67889413  0.01216586  1
  O2-  O232  1  0.67423930  0.65899892  0.32600403  1
  O2-  O233  1  0.67627614  0.66455265  0.66879111  1
  O2-  O234  1  0.16567542  0.16531790  0.00309382  1
  O2-  O235  1  0.16418441  0.15917543  0.33345953  1
  O2-  O236  1  0.17368544  0.16547418  0.66548017  1
  O2-  O237  1  0.17379457  0.66570874  0.00289772  1
  O2-  O238  1  0.16254001  0.65507549  0.33468859  1
  O2-  O239  1  0.16039908  0.67073817  0.66859152  1
  O2-  O240  1  0.49493345  0.16789145  -0.00212052  1
  O2-  O241  1  0.49960513  0.16850200  0.33747613  1
  O2-  O242  1  0.49745659  0.16736957  0.66220010  1
  O2-  O243  1  0.49618642  0.66363460  0.00140774  1
  O2-  O244  1  0.49433950  0.67176963  0.32630963  1
  O2-  O245  1  0.49659407  0.66680881  0.66880660  1
  O2-  O246  1  0.83059248  0.16493453  0.00348104  1
  O2-  O247  1  0.83571068  0.16858547  0.33158835  1
  O2-  O248  1  0.83714853  0.16423955  0.67018624  1
  O2-  O249  1  0.83847528  0.67480430  0.00397831  1
  O2-  O250  1  0.83329753  0.65700875  0.32987931  1
  O2-  O251  1  0.83931858  0.65813683  0.67513497  1
  O2-  O252  1  0.00016739  0.33225014  0.00306362  1
  O2-  O253  1  -0.00359993  0.33610629  0.33113558  1
  O2-  O254  1  -0.00603700  0.33890524  0.67309639  1
  O2-  O255  1  0.00002354  0.83152239  -0.00464941  1
  O2-  O256  1  -0.00429728  0.83489128  0.33758085  1
  O2-  O257  1  0.00053304  0.83600433  0.66696170  1
  O2-  O258  1  0.33848510  0.32672828  -0.00527785  1
  O2-  O259  1  0.33210352  0.33993095  0.33635341  1
  O2-  O260  1  0.33283821  0.33319638  0.66595900  1
  O2-  O261  1  0.33942517  0.83605256  -0.00449348  1
  O2-  O262  1  0.33542082  0.82828041  0.33620689  1
  O2-  O263  1  0.33289954  0.84528131  0.66851990  1
  O2-  O264  1  0.66190081  0.33204025  0.00685245  1
  O2-  O265  1  0.66934736  0.34362685  0.33276358  1
  O2-  O266  1  0.66315471  0.33393163  0.66682445  1
  O2-  O267  1  0.66643011  0.82179216  -0.00062632  1
  O2-  O268  1  0.67320774  0.83625728  0.32721760  1
  O2-  O269  1  0.66654762  0.84089405  0.66535967  1
  O2-  O270  1  0.16234372  0.32579407  -0.00367298  1
  O2-  O271  1  0.16458481  0.33993324  0.33261648  1
  O2-  O272  1  0.17139075  0.32652838  0.67017325  1
  O2-  O273  1  0.16039423  0.83686182  -0.00717414  1
  O2-  O274  1  0.16965708  0.83188994  0.33843813  1
  O2-  O275  1  0.16745753  0.83951311  0.66703601  1
  O2-  O276  1  0.50109152  0.33505610  0.00331647  1
  O2-  O277  1  0.50021394  0.34262924  0.33290683  1
  O2-  O278  1  0.50127061  0.33074365  0.66596972  1
  O2-  O279  1  0.50248605  0.83076939  0.00045262  1
  O2-  O280  1  0.49688716  0.82476967  0.33126307  1
  O2-  O281  1  0.49526109  0.83912935  0.66481524  1
  O2-  O282  1  0.83382511  0.32637127  0.00549930  1
  O2-  O283  1  0.83589118  0.33691073  0.33585622  1
  O2-  O284  1  0.83562327  0.34585639  0.66879294  1
  O2-  O285  1  0.83297156  0.82190588  0.00137276  1
  O2-  O286  1  0.83308195  0.83663165  0.33450716  1
  O2-  O287  1  0.83522993  0.84263604  0.66779690  1
  O2-  O288  1  0.00053821  0.18381951  0.16492083  1
  O2-  O289  1  -0.00250626  0.17193155  0.49491881  1
  O2-  O290  1  0.00163912  0.16791057  0.83584266  1
  O2-  O291  1  -0.00293220  0.66774573  0.16340836  1
  O2-  O292  1  -0.00420669  0.67039476  0.50095151  1
  O2-  O293  1  0.00229565  0.68350891  0.83471126  1
  O2-  O294  1  0.32885473  0.17873493  0.15998869  1
  O2-  O295  1  0.33539923  0.17863514  0.50736642  1
  O2-  O296  1  0.33612032  0.16227078  0.82680094  1
  O2-  O297  1  0.33416268  0.66933101  0.16338528  1
  O2-  O298  1  0.33739938  0.67617468  0.49334349  1
  O2-  O299  1  0.33812547  0.67308667  0.83868057  1
  O2-  O300  1  0.67033020  0.18235171  0.16823654  1
  O2-  O301  1  0.65997150  0.18361678  0.50704019  1
  O2-  O302  1  0.66691939  0.16859371  0.82947699  1
  O2-  O303  1  0.66733398  0.66776960  0.16712910  1
  O2-  O304  1  0.66949088  0.67241086  0.50103578  1
  O2-  O305  1  0.66562674  0.68041632  0.83111180  1
  O2-  O306  1  0.16767786  0.17856040  0.16760247  1
  O2-  O307  1  0.16950534  0.17960333  0.50010321  1
  O2-  O308  1  0.16716676  0.16823305  0.82548414  1
  O2-  O309  1  0.16615461  0.66686345  0.16640156  1
  O2-  O310  1  0.16172167  0.67062215  0.49894217  1
  O2-  O311  1  0.16809189  0.68487083  0.83389799  1
  O2-  O312  1  0.49162306  0.18995941  0.15966705  1
  O2-  O313  1  0.49491731  0.17509648  0.50643508  1
  O2-  O314  1  0.49549109  0.16788022  0.83283341  1
  O2-  O315  1  0.50483595  0.66836802  0.16088579  1
  O2-  O316  1  0.49393474  0.67816332  0.50069255  1
  O2-  O317  1  0.49246817  0.67946705  0.83816304  1
  O2-  O318  1  0.83575864  0.18392316  0.16236064  1
  O2-  O319  1  0.83974024  0.17494329  0.49275952  1
  O2-  O320  1  0.82660570  0.16929850  0.83562479  1
  O2-  O321  1  0.83390501  0.67421371  0.16353965  1
  O2-  O322  1  0.83774122  0.67103654  0.49073301  1
  O2-  O323  1  0.83943742  0.68052982  0.83318916  1
  O2-  O324  1  -0.00022869  0.31483871  0.16789790  1
  O2-  O325  1  -0.00806333  0.33187297  0.49241315  1
  O2-  O326  1  0.00067283  0.32782751  0.83229106  1
  O2-  O327  1  -0.00264440  0.82701289  0.16429569  1
  O2-  O328  1  0.00177604  0.82950016  0.50181239  1
  O2-  O329  1  0.00154394  0.81797571  0.83697702  1
  O2-  O330  1  0.33846482  0.31754911  0.16994927  1
  O2-  O331  1  0.33165090  0.32360664  0.50194197  1
  O2-  O332  1  0.33283324  0.33283760  0.83157361  1
  O2-  O333  1  0.33586933  0.82753676  0.16993939  1
  O2-  O334  1  0.33803621  0.82441591  0.49910547  1
  O2-  O335  1  0.32954418  0.83543367  0.82733353  1
  O2-  O336  1  0.66233761  0.32741919  0.16271270  1
  O2-  O337  1  0.66675574  0.32731453  0.50215611  1
  O2-  O338  1  0.66276349  0.32876003  0.82869006  1
  O2-  O339  1  0.66580847  0.82543235  0.16346955  1
  O2-  O340  1  0.66925350  0.82760684  0.50383906  1
  O2-  O341  1  0.66787031  0.82298322  0.83502367  1
  O2-  O342  1  0.16261999  0.31703909  0.16913441  1
  O2-  O343  1  0.16928260  0.32106805  0.49854827  1
  O2-  O344  1  0.16638266  0.33225885  0.83205456  1
  O2-  O345  1  0.16804206  0.82454439  0.16673976  1
  O2-  O346  1  0.16619543  0.83139004  0.50102003  1
  O2-  O347  1  0.16426188  0.82641574  0.83351371  1
  O2-  O348  1  0.50275864  0.32624401  0.16289116  1
  O2-  O349  1  0.50165738  0.32161453  0.50319673  1
  O2-  O350  1  0.49704772  0.32897629  0.83430278  1
  O2-  O351  1  0.50121668  0.82929952  0.16560050  1
  O2-  O352  1  0.49345525  0.82228233  0.50110347  1
  O2-  O353  1  0.49803472  0.82378564  0.83608901  1
  O2-  O354  1  0.83255460  0.31358314  0.16972870  1
  O2-  O355  1  0.83454330  0.33054294  0.49727105  1
  O2-  O356  1  0.83960218  0.33158264  0.82628008  1
  O2-  O357  1  0.83266257  0.82057289  0.16629513  1
  O2-  O358  1  0.83413168  0.82983268  0.49799659  1
  O2-  O359  1  0.83321806  0.82455705  0.83453468  1
  O2-  O360  1  0.08031337  0.08084183  0.11207444  1
  O2-  O361  1  0.08971077  0.07949693  0.43974928  1
  O2-  O362  1  0.08954269  0.08033959  0.77136911  1
  O2-  O363  1  0.07949852  0.58272774  0.10359216  1
  O2-  O364  1  0.07815276  0.58125327  0.44141726  1
  O2-  O365  1  0.06850497  0.57661935  0.76064994  1
  O2-  O366  1  0.40748672  0.08127555  0.09347621  1
  O2-  O367  1  0.40756591  0.08156505  0.43919616  1
  O2-  O368  1  0.42050156  0.08411924  0.76556031  1
  O2-  O369  1  0.42207541  0.58254737  0.10630674  1
  O2-  O370  1  0.41321438  0.58350979  0.43387044  1
  O2-  O371  1  0.41993495  0.58234482  0.76725312  1
  O2-  O372  1  0.75603166  0.08423405  0.10340449  1
  O2-  O373  1  0.75479096  0.07768217  0.43007456  1
  O2-  O374  1  0.74676660  0.08103433  0.77377087  1
  O2-  O375  1  0.75322343  0.58353637  0.10356812  1
  O2-  O376  1  0.76108901  0.58352834  0.42920218  1
  O2-  O377  1  0.75975380  0.58045075  0.76976108  1
  O2-  O378  1  0.24043565  0.08372150  0.22956573  1
  O2-  O379  1  0.26931893  0.08095510  0.56691278  1
  O2-  O380  1  0.25288751  0.08267358  0.89113164  1
  O2-  O381  1  0.25236833  0.58108457  0.22854992  1
  O2-  O382  1  0.25081661  0.56963819  0.55780845  1
  O2-  O383  1  0.25328160  0.58610688  0.90015205  1
  O2-  O384  1  0.59720336  0.08406297  0.23009078  1
  O2-  O385  1  0.56584080  0.08241330  0.57477662  1
  O2-  O386  1  0.57839369  0.08317639  0.89444632  1
  O2-  O387  1  0.58524680  0.58006269  0.22287723  1
  O2-  O388  1  0.55974384  0.57194818  0.57038977  1
  O2-  O389  1  0.56873736  0.58186819  0.91648375  1
  O2-  O390  1  0.91035093  0.07623667  0.23813240  1
  O2-  O391  1  0.91809737  0.07303944  0.55356979  1
  O2-  O392  1  0.91218246  0.08610454  0.90035106  1
  O2-  O393  1  0.90831456  0.58176792  0.21976794  1
  O2-  O394  1  0.91818661  0.57743520  0.55605802  1
  O2-  O395  1  0.91780876  0.58410172  0.90663871  1
  O2-  O396  1  0.07501732  0.41624477  0.10653443  1
  O2-  O397  1  0.07883550  0.41818950  0.42367489  1
  O2-  O398  1  0.07282316  0.41952372  0.77186417  1
  O2-  O399  1  0.07029310  0.91567253  0.07931141  1
  O2-  O400  1  0.08335056  0.91758158  0.43612146  1
  O2-  O401  1  0.08850610  0.91988477  0.78365585  1
  O2-  O402  1  0.43355642  0.41995971  0.10588678  1
  O2-  O403  1  0.41660462  0.41455472  0.43833966  1
  O2-  O404  1  0.42005216  0.41812720  0.75922200  1
  O2-  O405  1  0.42879779  0.91847977  0.10006747  1
  O2-  O406  1  0.40524050  0.92115841  0.43590949  1
  O2-  O407  1  0.42204049  0.91471690  0.76981821  1
  O2-  O408  1  0.75202422  0.41503704  0.10342950  1
  O2-  O409  1  0.75813318  0.41819933  0.43344187  1
  O2-  O410  1  0.75512755  0.42350828  0.76440862  1
  O2-  O411  1  0.74789040  0.91530214  0.09416425  1
  O2-  O412  1  0.75556590  0.91901379  0.43652604  1
  O2-  O413  1  0.74859165  0.91378387  0.77326076  1
  O2-  O414  1  0.25061566  0.41235804  0.23421551  1
  O2-  O415  1  0.25729222  0.42713270  0.56142558  1
  O2-  O416  1  0.24759176  0.41674647  0.89818752  1
  O2-  O417  1  0.26249203  0.91898191  0.25363692  1
  O2-  O418  1  0.26195068  0.91822853  0.57276324  1
  O2-  O419  1  0.23891412  0.91549043  0.89837911  1
  O2-  O420  1  0.58312806  0.41940408  0.22233215  1
  O2-  O421  1  0.58212141  0.41806386  0.56598481  1
  O2-  O422  1  0.57485878  0.41853468  0.90280174  1
  O2-  O423  1  0.58371901  0.92297220  0.22894243  1
  O2-  O424  1  0.56569902  0.91569196  0.57370863  1
  O2-  O425  1  0.58555314  0.91853158  0.89890658  1
  O2-  O426  1  0.91739511  0.41645314  0.22916025  1
  O2-  O427  1  0.90772429  0.42241098  0.55604364  1
  O2-  O428  1  0.92905773  0.41897780  0.89625661  1
  O2-  O429  1  0.90265853  0.91669874  0.23293245  1
  O2-  O430  1  0.91877476  0.92221317  0.56218850  1
  O2-  O431  1  0.92788786  0.91641390  0.89789342  1
  O2-  O432  1  0.00062940  0.00388264  0.00117851  1
  O2-  O433  1  0.00025968  0.01006158  0.33437880  1
  O2-  O434  1  -0.00156166  -0.00524830  0.67139925  1
  O2-  O435  1  -0.00275383  0.50508771  0.01083108  1
  O2-  O436  1  -0.00794837  0.50546627  0.34917452  1
  O2-  O437  1  -0.00999103  0.49915779  0.67805056  1
  O2-  O438  1  0.33271862  0.00489355  0.00239237  1
  O2-  O439  1  0.32734132  -0.00331901  0.33980445  1
  O2-  O440  1  0.33262278  0.00642913  0.67152408  1
  O2-  O441  1  0.33678619  0.50571008  -0.00781123  1
  O2-  O442  1  0.33270957  0.50184835  0.33370362  1
  O2-  O443  1  0.34292510  0.50072125  0.65396542  1
  O2-  O444  1  0.67301893  0.00158158  -0.00882797  1
  O2-  O445  1  0.67526250  -0.00091927  0.32081625  1
  O2-  O446  1  0.65431684  -0.00316787  0.67585706  1
  O2-  O447  1  0.65510080  0.50512729  0.01217235  1
  O2-  O448  1  0.68345697  0.50022848  0.30989714  1
  O2-  O449  1  0.66714078  0.49564843  0.66328557  1
  O2-  O450  1  0.15969426  0.00658828  -0.00542207  1
  O2-  O451  1  0.17287573  0.00586956  0.33789951  1
  O2-  O452  1  0.19119700  -0.00131382  0.71027375  1
  O2-  O453  1  0.16600603  0.50234498  -0.00333733  1
  O2-  O454  1  0.16511335  0.50386275  0.33179412  1
  O2-  O455  1  0.16794009  0.50172198  0.66552080  1
  O2-  O456  1  0.48972007  0.00173725  -0.01264151  1
  O2-  O457  1  0.47825686  -0.00490812  0.31986353  1
  O2-  O458  1  0.49153561  0.00415465  0.65596212  1
  O2-  O459  1  0.50403343  0.50042835  0.00858688  1
  O2-  O460  1  0.49313920  0.50178224  0.32344120  1
  O2-  O461  1  0.49244807  0.50626873  0.64528024  1
  O2-  O462  1  0.83340594  0.00447988  0.00252725  1
  O2-  O463  1  0.83783588  -0.00089971  0.34903647  1
  O2-  O464  1  0.83952935  0.00173372  0.67013326  1
  O2-  O465  1  0.85396369  0.50707111  0.02116047  1
  O2-  O466  1  0.83965711  0.51024237  0.33937045  1
  O2-  O467  1  0.83699775  0.49878479  0.67563882  1
  O2-  O468  1  0.58548151  0.25138842  0.26216569  1
  O2-  O469  1  0.75048544  0.74994885  0.40650606  1
  O2-  O470  1  0.91530213  0.25072592  0.92085901  1
  O2-  O471  1  0.75345472  0.25463274  0.75017521  1
  O2-  O472  1  0.41349325  0.25130305  0.75074027  1
  O2-  O473  1  0.92014916  0.74984008  0.25999244  1
  O2-  O474  1  0.91812055  0.25470970  0.59035972  1
  O2-  O475  1  0.74907765  0.25255250  0.41084678  1
  O2-  O476  1  0.40932225  0.75061338  0.74059015  1
  O2-  O477  1  0.75529436  0.74896604  0.73655702  1
  O2-  O478  1  0.25373385  0.75021733  0.92933710  1
  O2-  O479  1  0.41484643  0.75058524  0.07969184  1
  O2-  O480  1  0.58706432  0.74978113  0.24785020  1
  O2-  O481  1  0.41369285  0.24883768  0.40787194  1
  O2-  O482  1  0.58538207  0.25081150  0.91611634  1
  O2-  O483  1  0.24964733  0.75322645  0.25232447  1
  O2-  O484  1  0.58522641  0.75281294  0.59094228  1
  O2-  O485  1  0.91522762  0.75109989  0.59128813  1
  O2-  O486  1  0.08070407  0.25125045  0.74821271  1
  O2-  O487  1  0.08199483  0.25323108  0.40586598  1
  O2-  O488  1  0.24694481  0.24747590  0.26702051  1
  O2-  O489  1  0.08072681  0.74870901  0.41010493  1
  O2-  O490  1  0.08472771  0.75130962  0.07765150  1
  O2-  O491  1  0.24917339  0.75382534  0.58944703  1
  O2-  O492  1  0.25013701  0.25128467  0.91231222  1
