# generated using pymatgen
data_Ca108Mn108O277
_symmetry_space_group_name_H-M   'P 1'
_cell_length_a   16.03107606
_cell_length_b   22.31079620
_cell_length_c   16.39245864
_cell_angle_alpha   90.00269858
_cell_angle_beta   89.99819679
_cell_angle_gamma   90.00322458
_symmetry_Int_Tables_number   1
_chemical_formula_structural   Ca108Mn108O277
_chemical_formula_sum   'Ca108 Mn108 O277'
_cell_volume   5863.02625578
_cell_formula_units_Z   1
loop_
 _symmetry_equiv_pos_site_id
 _symmetry_equiv_pos_as_xyz
  1  'x, y, z'
loop_
 _atom_type_symbol
 _atom_type_oxidation_number
  Ca2+  2.0
  Mn3.34+  3.34
  O2-  -2.0
loop_
 _atom_site_type_symbol
 _atom_site_label
 _atom_site_symmetry_multiplicity
 _atom_site_fract_x
 _atom_site_fract_y
 _atom_site_fract_z
 _atom_site_occupancy
  Ca2+  Ca0  1  0.08518158  0.26018858  0.25432328  1
  Ca2+  Ca1  1  0.07302351  0.26121115  0.57913447  1
  Ca2+  Ca2  1  0.07679708  0.25529313  0.91342629  1
  Ca2+  Ca3  1  0.06014688  0.75324362  0.24226849  1
  Ca2+  Ca4  1  0.04848185  0.73445959  0.57001952  1
  Ca2+  Ca5  1  0.05628754  0.74552459  0.94089481  1
  Ca2+  Ca6  1  0.42564435  0.26007658  0.24201419  1
  Ca2+  Ca7  1  0.44383253  0.24298808  0.59100317  1
  Ca2+  Ca8  1  0.42776081  0.25939163  0.91650502  1
  Ca2+  Ca9  1  0.42932307  0.75391472  0.23541691  1
  Ca2+  Ca10  1  0.42090305  0.74752608  0.60328792  1
  Ca2+  Ca11  1  0.42449526  0.74560518  0.91069035  1
  Ca2+  Ca12  1  0.73689468  0.25606409  0.23973081  1
  Ca2+  Ca13  1  0.71740892  0.24031827  0.59189423  1
  Ca2+  Ca14  1  0.74302491  0.25449755  0.93082967  1
  Ca2+  Ca15  1  0.76431026  0.74690862  0.24151954  1
  Ca2+  Ca16  1  0.76776185  0.74801287  0.58644904  1
  Ca2+  Ca17  1  0.76060768  0.74186075  0.91663521  1
  Ca2+  Ca18  1  0.26229389  0.27226237  0.08764538  1
  Ca2+  Ca19  1  0.25387452  0.26824509  0.41049618  1
  Ca2+  Ca20  1  0.26970610  0.25388762  0.74883653  1
  Ca2+  Ca21  1  0.23524135  0.74279095  0.07085853  1
  Ca2+  Ca22  1  0.24246867  0.75006074  0.42127192  1
  Ca2+  Ca23  1  0.27751405  0.74674095  0.75211614  1
  Ca2+  Ca24  1  0.59447835  0.24246609  0.08350153  1
  Ca2+  Ca25  1  0.57555617  0.25197623  0.43017147  1
  Ca2+  Ca26  1  0.56791970  0.23148994  0.74141009  1
  Ca2+  Ca27  1  0.58614182  0.74474879  0.07675294  1
  Ca2+  Ca28  1  0.59692601  0.75358953  0.41400859  1
  Ca2+  Ca29  1  0.57412684  0.74595433  0.75971675  1
  Ca2+  Ca30  1  0.88206666  0.24392693  0.08440979  1
  Ca2+  Ca31  1  0.92157366  0.25595961  0.41614181  1
  Ca2+  Ca32  1  0.91092264  0.24713079  0.75191214  1
  Ca2+  Ca33  1  0.91369300  0.74010829  0.08258799  1
  Ca2+  Ca34  1  0.90050706  0.74945055  0.40273953  1
  Ca2+  Ca35  1  0.89853591  0.74780376  0.74927130  1
  Ca2+  Ca36  1  0.44336806  0.58643566  0.92720841  1
  Ca2+  Ca37  1  0.74926801  0.11045742  0.93457925  1
  Ca2+  Ca38  1  0.56840263  0.60334513  0.75984820  1
  Ca2+  Ca39  1  0.29237819  0.59827432  0.75599557  1
  Ca2+  Ca40  1  0.59834650  0.09075409  0.43414495  1
  Ca2+  Ca41  1  0.74838809  0.58822073  0.92731375  1
  Ca2+  Ca42  1  0.75642444  0.11098032  0.22561876  1
  Ca2+  Ca43  1  0.07380329  0.08210727  0.61217550  1
  Ca2+  Ca44  1  0.59643050  0.58125391  0.06786301  1
  Ca2+  Ca45  1  0.08522280  0.08329638  0.61237054  1
  Ca2+  Ca46  1  0.90311161  0.60475498  0.75362859  1
  Ca2+  Ca47  1  0.06002636  0.60821726  0.93944720  1
  Ca2+  Ca48  1  0.07047389  0.08665435  0.26147515  1
  Ca2+  Ca49  1  0.88080477  0.07703819  0.74921085  1
  Ca2+  Ca50  1  0.43051188  0.09417618  0.24224262  1
  Ca2+  Ca51  1  0.42975631  0.10887713  0.89410972  1
  Ca2+  Ca52  1  0.89280465  0.07942182  0.74710890  1
  Ca2+  Ca53  1  0.45178830  0.08787322  0.61140720  1
  Ca2+  Ca54  1  0.25251932  0.08750263  0.41208535  1
  Ca2+  Ca55  1  0.60609196  0.57721720  0.41324848  1
  Ca2+  Ca56  1  0.44673989  0.08153199  0.60915230  1
  Ca2+  Ca57  1  0.60978940  0.07679343  0.72111338  1
  Ca2+  Ca58  1  0.59682504  0.57446367  0.41015002  1
  Ca2+  Ca59  1  0.92841714  0.61359272  0.43026087  1
  Ca2+  Ca60  1  0.05818341  0.08878790  0.25932729  1
  Ca2+  Ca61  1  0.43026812  0.57540008  0.23302136  1
  Ca2+  Ca62  1  0.76616864  0.60259008  0.58086027  1
  Ca2+  Ca63  1  0.07064873  0.10879129  0.88476296  1
  Ca2+  Ca64  1  0.91804958  0.60866869  0.09173724  1
  Ca2+  Ca65  1  0.41776979  0.57496132  0.23288833  1
  Ca2+  Ca66  1  0.26145732  0.08750303  0.73811891  1
  Ca2+  Ca67  1  0.27299687  0.08788883  0.74363232  1
  Ca2+  Ca68  1  0.42293195  0.58499312  0.60323656  1
  Ca2+  Ca69  1  0.76489176  0.60198671  0.24416140  1
  Ca2+  Ca70  1  0.05609704  0.61919923  0.26060975  1
  Ca2+  Ca71  1  0.41765351  0.09404100  0.24256574  1
  Ca2+  Ca72  1  0.89259388  0.40745240  0.07166322  1
  Ca2+  Ca73  1  0.57349141  0.42240793  0.06686151  1
  Ca2+  Ca74  1  0.06474360  0.90268251  0.58840452  1
  Ca2+  Ca75  1  0.07719141  0.90411641  0.59066072  1
  Ca2+  Ca76  1  0.09441035  0.40697582  0.25670135  1
  Ca2+  Ca77  1  0.07990575  0.89219340  0.90634852  1
  Ca2+  Ca78  1  0.91494889  0.41014835  0.74925228  1
  Ca2+  Ca79  1  0.41623544  0.40966636  0.23927102  1
  Ca2+  Ca80  1  0.92120025  0.89825072  0.08509504  1
  Ca2+  Ca81  1  0.43950540  0.92313589  0.61393407  1
  Ca2+  Ca82  1  0.59259002  0.91056378  0.74206583  1
  Ca2+  Ca83  1  0.42877948  0.92280684  0.61409376  1
  Ca2+  Ca84  1  0.26503920  0.42570363  0.40980401  1
  Ca2+  Ca85  1  0.26238797  0.41064123  0.73993628  1
  Ca2+  Ca86  1  0.10247044  0.41025514  0.58773514  1
  Ca2+  Ca87  1  0.89596182  0.41167125  0.41755419  1
  Ca2+  Ca88  1  0.40654687  0.89301494  0.24385677  1
  Ca2+  Ca89  1  0.56621487  0.89694403  0.08416514  1
  Ca2+  Ca90  1  0.91023274  0.89823980  0.08716185  1
  Ca2+  Ca91  1  0.75276744  0.93484430  0.61143628  1
  Ca2+  Ca92  1  0.89738197  0.90922801  0.74634400  1
  Ca2+  Ca93  1  0.41104411  0.41612582  0.58500497  1
  Ca2+  Ca94  1  0.72901654  0.42677522  0.94317991  1
  Ca2+  Ca95  1  0.88658462  0.91459236  0.42476106  1
  Ca2+  Ca96  1  0.74236073  0.41042471  0.58397679  1
  Ca2+  Ca97  1  0.60836331  0.91354228  0.42759113  1
  Ca2+  Ca98  1  0.90228450  0.40832642  0.75241522  1
  Ca2+  Ca99  1  0.58481324  0.41426267  0.40869582  1
  Ca2+  Ca100  1  0.24829436  0.89078069  0.41036704  1
  Ca2+  Ca101  1  0.74176135  0.41121209  0.24358095  1
  Ca2+  Ca102  1  0.25966973  0.90026311  0.74697565  1
  Ca2+  Ca103  1  0.08207616  0.39992708  0.92274085  1
  Ca2+  Ca104  1  0.40254515  0.41837946  0.57981597  1
  Ca2+  Ca105  1  0.90835384  0.41420724  0.41607820  1
  Ca2+  Ca106  1  0.75045839  0.90557394  0.25989271  1
  Ca2+  Ca107  1  0.57812932  0.40922361  0.75429784  1
  Mn3.34+  Mn108  1  0.08325673  0.33228357  0.08573518  1
  Mn3.34+  Mn109  1  0.08575627  0.33965328  0.41963999  1
  Mn3.34+  Mn110  1  0.08762374  0.32808281  0.75324347  1
  Mn3.34+  Mn111  1  0.08824370  0.82813222  0.08753827  1
  Mn3.34+  Mn112  1  0.07873529  0.82525158  0.41551228  1
  Mn3.34+  Mn113  1  0.08357421  0.82574831  0.75316118  1
  Mn3.34+  Mn114  1  0.42195272  0.33876752  0.07918598  1
  Mn3.34+  Mn115  1  0.41833887  0.33661070  0.41660447  1
  Mn3.34+  Mn116  1  0.42052535  0.33153990  0.75350762  1
  Mn3.34+  Mn117  1  0.40793414  0.82968893  0.07479109  1
  Mn3.34+  Mn118  1  0.42039886  0.82810703  0.41824832  1
  Mn3.34+  Mn119  1  0.42077222  0.83319655  0.75847347  1
  Mn3.34+  Mn120  1  0.74241164  0.33563800  0.08514659  1
  Mn3.34+  Mn121  1  0.74496488  0.33456378  0.41881007  1
  Mn3.34+  Mn122  1  0.74309294  0.33153164  0.75551165  1
  Mn3.34+  Mn123  1  0.74333332  0.83043998  0.08016854  1
  Mn3.34+  Mn124  1  0.74891320  0.83311656  0.42287564  1
  Mn3.34+  Mn125  1  0.74305305  0.83436017  0.75126054  1
  Mn3.34+  Mn126  1  0.25270545  0.34027512  0.24847722  1
  Mn3.34+  Mn127  1  0.25271872  0.33409524  0.57907058  1
  Mn3.34+  Mn128  1  0.25454357  0.33809222  0.91404026  1
  Mn3.34+  Mn129  1  0.24503690  0.83066679  0.24538800  1
  Mn3.34+  Mn130  1  0.24906489  0.82965549  0.57944966  1
  Mn3.34+  Mn131  1  0.24892261  0.82996251  0.91468463  1
  Mn3.34+  Mn132  1  0.58166414  0.33586302  0.24982210  1
  Mn3.34+  Mn133  1  0.58216058  0.33755633  0.58435747  1
  Mn3.34+  Mn134  1  0.58254557  0.34219620  0.91197982  1
  Mn3.34+  Mn135  1  0.58508572  0.83157446  0.25236435  1
  Mn3.34+  Mn136  1  0.58606136  0.83453238  0.57868791  1
  Mn3.34+  Mn137  1  0.58441712  0.83235495  0.91542771  1
  Mn3.34+  Mn138  1  0.91515147  0.33361186  0.24398901  1
  Mn3.34+  Mn139  1  0.91229289  0.33558066  0.58244772  1
  Mn3.34+  Mn140  1  0.91301894  0.33246672  0.91617071  1
  Mn3.34+  Mn141  1  0.91611487  0.83367263  0.25412426  1
  Mn3.34+  Mn142  1  0.91042376  0.83210255  0.58110555  1
  Mn3.34+  Mn143  1  0.90968361  0.83197699  0.91078539  1
  Mn3.34+  Mn144  1  0.42117903  0.17028688  0.42020259  1
  Mn3.34+  Mn145  1  0.09037674  0.66942886  0.75770560  1
  Mn3.34+  Mn146  1  0.24512076  0.17443871  0.57530469  1
  Mn3.34+  Mn147  1  0.91329287  0.17048261  0.25062787  1
  Mn3.34+  Mn148  1  0.75152861  0.66657856  0.41866669  1
  Mn3.34+  Mn149  1  0.25574147  0.16354511  0.24664397  1
  Mn3.34+  Mn150  1  0.42689578  0.66338241  0.41824741  1
  Mn3.34+  Mn151  1  0.08202911  0.17214668  0.41879674  1
  Mn3.34+  Mn152  1  0.41473811  0.65639995  0.42071618  1
  Mn3.34+  Mn153  1  0.25245157  0.66135479  0.91756229  1
  Mn3.34+  Mn154  1  0.75492677  0.15957740  0.41813036  1
  Mn3.34+  Mn155  1  0.74687835  0.66802672  0.75231672  1
  Mn3.34+  Mn156  1  0.58579004  0.66580851  0.91572528  1
  Mn3.34+  Mn157  1  0.58542512  0.66593773  0.24491428  1
  Mn3.34+  Mn158  1  0.58406606  0.17084217  0.25138736  1
  Mn3.34+  Mn159  1  0.07976057  0.67676529  0.75683872  1
  Mn3.34+  Mn160  1  0.25218283  0.17534557  0.91946076  1
  Mn3.34+  Mn161  1  0.24274977  0.67331562  0.24848384  1
  Mn3.34+  Mn162  1  0.58436121  0.16482155  0.91314978  1
  Mn3.34+  Mn163  1  0.41775369  0.66493069  0.07961156  1
  Mn3.34+  Mn164  1  0.74617798  0.16546904  0.41591289  1
  Mn3.34+  Mn165  1  0.06919732  0.16274267  0.08199136  1
  Mn3.34+  Mn166  1  0.24839469  0.66310779  0.57857820  1
  Mn3.34+  Mn167  1  0.42283586  0.16879456  0.07984831  1
  Mn3.34+  Mn168  1  0.74227240  0.16955736  0.75435095  1
  Mn3.34+  Mn169  1  0.91521004  0.16891237  0.90999279  1
  Mn3.34+  Mn170  1  0.58620332  0.66715976  0.58342916  1
  Mn3.34+  Mn171  1  0.90719260  0.16003334  0.57823774  1
  Mn3.34+  Mn172  1  0.23958880  0.65744986  0.57551802  1
  Mn3.34+  Mn173  1  0.24473631  0.16851525  0.24695151  1
  Mn3.34+  Mn174  1  0.24382125  0.16904598  0.91725425  1
  Mn3.34+  Mn175  1  0.25092618  0.66380355  0.24555940  1
  Mn3.34+  Mn176  1  0.25493974  0.17987560  0.57732763  1
  Mn3.34+  Mn177  1  0.08294181  0.16825047  0.08166651  1
  Mn3.34+  Mn178  1  0.74992365  0.66171276  0.08362236  1
  Mn3.34+  Mn179  1  0.91670816  0.16577905  0.58109936  1
  Mn3.34+  Mn180  1  0.90379869  0.00144812  0.25342037  1
  Mn3.34+  Mn181  1  0.41756118  -0.00222376  0.07953229  1
  Mn3.34+  Mn182  1  0.91865591  0.50502635  0.59411969  1
  Mn3.34+  Mn183  1  0.10076894  0.50550491  0.74944261  1
  Mn3.34+  Mn184  1  0.26697988  0.49420946  0.93117342  1
  Mn3.34+  Mn185  1  0.08238651  0.00240927  0.42107781  1
  Mn3.34+  Mn186  1  0.59047188  0.50028210  0.58781159  1
  Mn3.34+  Mn187  1  0.75484397  0.00586611  0.08286753  1
  Mn3.34+  Mn188  1  0.08369189  0.00008349  0.08154274  1
  Mn3.34+  Mn189  1  0.41970866  0.49491541  0.75140629  1
  Mn3.34+  Mn190  1  0.43077287  0.00139371  0.42675438  1
  Mn3.34+  Mn191  1  0.91155029  0.50295352  0.24765955  1
  Mn3.34+  Mn192  1  0.24600072  -0.00043239  0.57078899  1
  Mn3.34+  Mn193  1  0.60190216  0.00563662  0.25200485  1
  Mn3.34+  Mn194  1  0.09707831  -0.00605461  0.08077891  1
  Mn3.34+  Mn195  1  0.08698022  -0.00326006  0.75563249  1
  Mn3.34+  Mn196  1  0.91587475  -0.00475459  0.91737091  1
  Mn3.34+  Mn197  1  0.74487088  0.49929392  0.75542533  1
  Mn3.34+  Mn198  1  0.08793353  0.49874747  0.75311176  1
  Mn3.34+  Mn199  1  0.08039782  0.49762824  0.09209494  1
  Mn3.34+  Mn200  1  0.58949061  -0.00115991  0.24947286  1
  Mn3.34+  Mn201  1  0.59172500  0.49935344  0.25295514  1
  Mn3.34+  Mn202  1  0.57549868  0.00077635  0.91626108  1
  Mn3.34+  Mn203  1  0.41809413  0.00629501  0.41858423  1
  Mn3.34+  Mn204  1  0.24814665  0.50043383  0.25211830  1
  Mn3.34+  Mn205  1  0.09302315  0.50420845  0.09309912  1
  Mn3.34+  Mn206  1  0.91653677  0.50115294  0.92537860  1
  Mn3.34+  Mn207  1  0.92626012  0.49720797  0.24582483  1
  Mn3.34+  Mn208  1  0.58856085  -0.00526014  0.91463810  1
  Mn3.34+  Mn209  1  0.07096306  -0.00252850  0.41916002  1
  Mn3.34+  Mn210  1  0.26793594  -0.00086677  0.91475578  1
  Mn3.34+  Mn211  1  0.25730573  -0.00577560  0.91947265  1
  Mn3.34+  Mn212  1  0.08550265  0.50521237  0.41428054  1
  Mn3.34+  Mn213  1  0.74197999  -0.00050472  0.08160783  1
  Mn3.34+  Mn214  1  0.24819467  -0.00236679  0.24289363  1
  Mn3.34+  Mn215  1  0.25625300  0.50250443  0.93247245  1
  O2-  O216  1  -0.00005997  0.16420471  -0.00780274  1
  O2-  O217  1  0.00449536  0.16205346  0.32637816  1
  O2-  O218  1  -0.00497170  0.15380802  0.66975495  1
  O2-  O219  1  -0.01268167  0.66724072  0.00909742  1
  O2-  O220  1  0.00118857  0.68591749  0.34502897  1
  O2-  O221  1  -0.00173361  0.67085151  0.67865844  1
  O2-  O222  1  0.33507159  0.15997220  -0.00492266  1
  O2-  O223  1  0.33827134  0.14787965  0.33478785  1
  O2-  O224  1  0.33143222  0.15593075  0.65979212  1
  O2-  O225  1  0.33717465  0.66814337  -0.00187630  1
  O2-  O226  1  0.33394222  0.65181104  0.32586555  1
  O2-  O227  1  0.33267625  0.65617139  0.65577063  1
  O2-  O228  1  0.66140032  0.17726623  -0.01024130  1
  O2-  O229  1  0.66925983  0.14728456  0.32920229  1
  O2-  O230  1  0.66809389  0.16195911  0.67585245  1
  O2-  O231  1  0.66688831  0.65688137  -0.00040153  1
  O2-  O232  1  0.66210127  0.64633572  0.33083929  1
  O2-  O233  1  0.66410222  0.65515451  0.66676866  1
  O2-  O234  1  0.16328703  0.14895953  -0.00350037  1
  O2-  O235  1  0.16546823  0.14496469  0.33482826  1
  O2-  O236  1  0.16715044  0.16429772  0.66226827  1
  O2-  O237  1  0.16402637  0.67591827  -0.01694844  1
  O2-  O238  1  0.16888366  0.68453588  0.32998630  1
  O2-  O239  1  0.16584676  0.66560401  0.67165383  1
  O2-  O240  1  0.50173034  0.17099634  -0.00176594  1
  O2-  O241  1  0.50100168  0.14191369  0.34093690  1
  O2-  O242  1  0.50821764  0.15188915  0.67651307  1
  O2-  O243  1  0.50740126  0.65688942  0.00722927  1
  O2-  O244  1  0.50192458  0.63868781  0.33190831  1
  O2-  O245  1  0.50299454  0.66315122  0.65895590  1
  O2-  O246  1  0.83566901  0.18177031  -0.01474953  1
  O2-  O247  1  0.83801989  0.16198246  0.33982524  1
  O2-  O248  1  0.83012817  0.14878973  0.66724358  1
  O2-  O249  1  0.82588852  0.65319975  0.00312278  1
  O2-  O250  1  0.82920652  0.65307023  0.34215987  1
  O2-  O251  1  0.82630317  0.66006352  0.67274886  1
  O2-  O252  1  -0.00451776  0.33943632  0.00003211  1
  O2-  O253  1  -0.00373067  0.35087038  0.33303448  1
  O2-  O254  1  0.00162509  0.34558078  0.66833215  1
  O2-  O255  1  -0.00194344  0.84621986  0.00016176  1
  O2-  O256  1  -0.00744747  0.83734335  0.34098681  1
  O2-  O257  1  -0.00260453  0.84128898  0.67022876  1
  O2-  O258  1  0.33468439  0.32773629  -0.00430212  1
  O2-  O259  1  0.33143531  0.35076439  0.33698770  1
  O2-  O260  1  0.33339680  0.34549827  0.66369134  1
  O2-  O261  1  0.32640315  0.81054807  -0.00451003  1
  O2-  O262  1  0.33312035  0.82912960  0.33210748  1
  O2-  O263  1  0.33706825  0.84575508  0.65523063  1
  O2-  O264  1  0.66209057  0.34466898  -0.00014476  1
  O2-  O265  1  0.66714381  0.35171638  0.33334611  1
  O2-  O266  1  0.66207310  0.35299135  0.67108489  1
  O2-  O267  1  0.65848576  0.84740395  0.00621979  1
  O2-  O268  1  0.66533448  0.84714682  0.33925672  1
  O2-  O269  1  0.66374272  0.83770457  0.66162917  1
  O2-  O270  1  0.16746921  0.33553764  -0.00732858  1
  O2-  O271  1  0.17219231  0.34984671  0.34024033  1
  O2-  O272  1  0.16963677  0.31906833  0.66586255  1
  O2-  O273  1  0.15988945  0.82712608  -0.00743957  1
  O2-  O274  1  0.16754464  0.81600166  0.33695369  1
  O2-  O275  1  0.16559146  0.84053648  0.66519253  1
  O2-  O276  1  0.50663704  0.32659776  -0.00320607  1
  O2-  O277  1  0.49846561  0.35566154  0.33130916  1
  O2-  O278  1  0.49287338  0.35839459  0.65986107  1
  O2-  O279  1  0.49483057  0.84213151  -0.00284012  1
  O2-  O280  1  0.50253355  0.85191795  0.33599870  1
  O2-  O281  1  0.50277497  0.83860072  0.66532025  1
  O2-  O282  1  0.82726321  0.33681395  -0.00473828  1
  O2-  O283  1  0.83535381  0.34100391  0.33317463  1
  O2-  O284  1  0.83031298  0.35368759  0.66606736  1
  O2-  O285  1  0.83162832  0.85066681  0.00045952  1
  O2-  O286  1  0.83104611  0.84753861  0.33524955  1
  O2-  O287  1  0.82693867  0.84884235  0.65754547  1
  O2-  O288  1  -0.00767945  0.18662638  0.16656579  1
  O2-  O289  1  0.00106325  0.18730517  0.50468106  1
  O2-  O290  1  -0.00204961  0.19026760  0.83708685  1
  O2-  O291  1  -0.00804376  0.68216882  0.16998800  1
  O2-  O292  1  -0.00028087  0.69518214  0.46389997  1
  O2-  O293  1  0.00466425  0.68137369  0.83999587  1
  O2-  O294  1  0.33913570  0.17700632  0.16732930  1
  O2-  O295  1  0.32959152  0.19104334  0.49174071  1
  O2-  O296  1  0.32886786  0.18078788  0.83314990  1
  O2-  O297  1  0.33167753  0.68347319  0.16760307  1
  O2-  O298  1  0.33241912  0.68120558  0.49621236  1
  O2-  O299  1  0.33073385  0.67798718  0.83997239  1
  O2-  O300  1  0.66190216  0.18208339  0.17749363  1
  O2-  O301  1  0.66310050  0.17698956  0.49179194  1
  O2-  O302  1  0.66947555  0.18756975  0.83775578  1
  O2-  O303  1  0.66475244  0.68216176  0.16905408  1
  O2-  O304  1  0.66266689  0.68424171  0.49850164  1
  O2-  O305  1  0.66340694  0.68020362  0.83248563  1
  O2-  O306  1  0.14593655  0.17550329  0.17933623  1
  O2-  O307  1  0.16799939  0.19754125  0.49678927  1
  O2-  O308  1  0.16603583  0.18812339  0.83705528  1
  O2-  O309  1  0.16163253  0.68255321  0.17419142  1
  O2-  O310  1  0.16216375  0.68280290  0.50366073  1
  O2-  O311  1  0.17709033  0.68600326  0.82629955  1
  O2-  O312  1  0.49262010  0.17926853  0.18122354  1
  O2-  O313  1  0.49602985  0.17503644  0.49969307  1
  O2-  O314  1  0.50093178  0.18853518  0.84714749  1
  O2-  O315  1  0.49134297  0.67147398  0.17806829  1
  O2-  O316  1  0.50239658  0.68810049  0.50265597  1
  O2-  O317  1  0.50339343  0.67435276  0.84184043  1
  O2-  O318  1  0.82887894  0.19059993  0.18613589  1
  O2-  O319  1  0.83392516  0.18920938  0.49663374  1
  O2-  O320  1  0.83748702  0.17980890  0.82590116  1
  O2-  O321  1  0.82754867  0.67456132  0.16209604  1
  O2-  O322  1  0.82704856  0.67825398  0.49667295  1
  O2-  O323  1  0.82782275  0.67441567  0.82867152  1
  O2-  O324  1  -0.00164003  0.31187392  0.17046701  1
  O2-  O325  1  -0.00413121  0.32599004  0.49766721  1
  O2-  O326  1  -0.00105849  0.31611059  0.83357077  1
  O2-  O327  1  -0.00866403  0.82884610  0.16227988  1
  O2-  O328  1  0.00707757  0.82304071  0.50909750  1
  O2-  O329  1  0.00218155  0.81229697  0.83540780  1
  O2-  O330  1  0.33969679  0.32932516  0.17378263  1
  O2-  O331  1  0.33856317  0.31250069  0.50445164  1
  O2-  O332  1  0.33417367  0.31778845  0.83162978  1
  O2-  O333  1  0.33337122  0.81599089  0.16938349  1
  O2-  O334  1  0.32547545  0.82256358  0.49351103  1
  O2-  O335  1  0.32930559  0.82460912  0.82905603  1
  O2-  O336  1  0.66497971  0.32579434  0.17158075  1
  O2-  O337  1  0.66614343  0.32430622  0.50272156  1
  O2-  O338  1  0.66720115  0.31533187  0.83909768  1
  O2-  O339  1  0.67001583  0.82009894  0.17147768  1
  O2-  O340  1  0.66738915  0.81349173  0.50178352  1
  O2-  O341  1  0.66347253  0.81581070  0.83083701  1
  O2-  O342  1  0.16553997  0.32054388  0.17380088  1
  O2-  O343  1  0.16509330  0.32041569  0.50553723  1
  O2-  O344  1  0.16989269  0.31031859  0.83288393  1
  O2-  O345  1  0.16668889  0.80811082  0.16749666  1
  O2-  O346  1  0.16293401  0.81353057  0.50101019  1
  O2-  O347  1  0.16841729  0.80610043  0.82787685  1
  O2-  O348  1  0.50429925  0.32193334  0.16686070  1
  O2-  O349  1  0.49832261  0.32351428  0.50119228  1
  O2-  O350  1  0.50955855  0.31972532  0.82613799  1
  O2-  O351  1  0.50187866  0.82751654  0.17032453  1
  O2-  O352  1  0.50005833  0.81069154  0.50505627  1
  O2-  O353  1  0.50319882  0.81949560  0.83292686  1
  O2-  O354  1  0.82987501  0.32156519  0.16626705  1
  O2-  O355  1  0.83700432  0.32108041  0.49207010  1
  O2-  O356  1  0.84154727  0.31987567  0.82564113  1
  O2-  O357  1  0.83441471  0.82928552  0.16217128  1
  O2-  O358  1  0.83938091  0.81899447  0.49263548  1
  O2-  O359  1  0.83547094  0.82533223  0.82340787  1
  O2-  O360  1  0.08031519  0.07857334  0.12608668  1
  O2-  O361  1  0.08284194  0.08095750  0.46529378  1
  O2-  O362  1  0.08477210  0.08007089  0.75877270  1
  O2-  O363  1  0.06857678  0.58094803  0.12095242  1
  O2-  O364  1  0.06492313  0.58046665  0.41058873  1
  O2-  O365  1  0.07883104  0.58363927  0.78490272  1
  O2-  O366  1  0.42545759  0.08011925  0.11066979  1
  O2-  O367  1  0.39326841  0.08268658  0.46573851  1
  O2-  O368  1  0.38450163  0.06266230  0.78909404  1
  O2-  O369  1  0.42121270  0.58312146  0.10164618  1
  O2-  O370  1  0.43736050  0.57996888  0.45847426  1
  O2-  O371  1  0.42425471  0.57134727  0.78391995  1
  O2-  O372  1  0.75253550  0.08521106  0.09530245  1
  O2-  O373  1  0.74747551  0.08144777  0.44117608  1
  O2-  O374  1  0.75253557  0.08721802  0.78914765  1
  O2-  O375  1  0.74433071  0.58163155  0.10895657  1
  O2-  O376  1  0.73316009  0.58321353  0.44829821  1
  O2-  O377  1  0.74547452  0.58065709  0.77794322  1
  O2-  O378  1  0.25428843  0.08047538  0.20693449  1
  O2-  O379  1  0.22519969  0.08631273  0.54742957  1
  O2-  O380  1  0.23138395  0.07917572  0.87225309  1
  O2-  O381  1  0.26871081  0.58162118  0.21967857  1
  O2-  O382  1  0.25784024  0.57786563  0.56626537  1
  O2-  O383  1  0.23559131  0.57466046  0.87703427  1
  O2-  O384  1  0.57172229  0.08320883  0.21794090  1
  O2-  O385  1  0.55128127  0.05278825  0.53733087  1
  O2-  O386  1  0.57823281  0.07916630  0.86994917  1
  O2-  O387  1  0.57784535  0.57737917  0.21223614  1
  O2-  O388  1  0.58220784  0.57872044  0.55023985  1
  O2-  O389  1  0.58840115  0.58387865  0.89547374  1
  O2-  O390  1  0.92485416  0.08170974  0.22160902  1
  O2-  O391  1  0.93575684  0.07965972  0.56386533  1
  O2-  O392  1  0.92478846  0.07759811  0.88073103  1
  O2-  O393  1  0.92224997  0.58320803  0.23085409  1
  O2-  O394  1  0.90492963  0.57787252  0.55910071  1
  O2-  O395  1  0.92755072  0.57053470  0.88120534  1
  O2-  O396  1  0.07819916  0.41735094  0.11592714  1
  O2-  O397  1  0.08455770  0.42506374  0.45536027  1
  O2-  O398  1  0.07289041  0.41844166  0.78954385  1
  O2-  O399  1  0.08399897  0.91456272  0.10958678  1
  O2-  O400  1  0.09963891  0.91698582  0.44485514  1
  O2-  O401  1  0.09096917  0.91512531  0.76798774  1
  O2-  O402  1  0.43459714  0.41683516  0.10114861  1
  O2-  O403  1  0.41101005  0.42006164  0.44721106  1
  O2-  O404  1  0.41605115  0.41646647  0.77924550  1
  O2-  O405  1  0.41420246  0.91712139  0.10983476  1
  O2-  O406  1  0.41112206  0.91976872  0.44948470  1
  O2-  O407  1  0.41112871  0.91626907  0.75012468  1
  O2-  O408  1  0.75405619  0.41757497  0.10265753  1
  O2-  O409  1  0.76100733  0.41548756  0.44686203  1
  O2-  O410  1  0.76318656  0.41911387  0.79437538  1
  O2-  O411  1  0.75286859  0.92146517  0.11719261  1
  O2-  O412  1  0.74932727  0.91302418  0.45826508  1
  O2-  O413  1  0.73955106  0.91494167  0.75923680  1
  O2-  O414  1  0.24004100  0.42153580  0.22048112  1
  O2-  O415  1  0.26774728  0.41821087  0.54858396  1
  O2-  O416  1  0.23057336  0.42504905  0.87274907  1
  O2-  O417  1  0.25898689  0.91618093  0.26019519  1
  O2-  O418  1  0.22844341  0.91485676  0.55814017  1
  O2-  O419  1  0.22783295  0.91816618  0.88034022  1
  O2-  O420  1  0.58783538  0.42181388  0.21902165  1
  O2-  O421  1  0.57429181  0.42260000  0.54761953  1
  O2-  O422  1  0.59314451  0.41971668  0.88965408  1
  O2-  O423  1  0.59189679  0.92038337  0.21847613  1
  O2-  O424  1  0.56696895  0.91397294  0.55759436  1
  O2-  O425  1  0.58260871  0.91626724  0.88008874  1
  O2-  O426  1  0.91697420  0.42030297  0.20468239  1
  O2-  O427  1  0.91361376  0.42768253  0.54981723  1
  O2-  O428  1  0.92912062  0.42360743  0.88571222  1
  O2-  O429  1  0.91291940  0.92215890  0.22091072  1
  O2-  O430  1  0.93483636  0.91840400  0.55299399  1
  O2-  O431  1  0.93450016  0.91723297  0.88161081  1
  O2-  O432  1  0.00355376  -0.00789843  -0.00134815  1
  O2-  O433  1  0.00227944  0.00935585  0.32442082  1
  O2-  O434  1  0.02684327  -0.00495432  0.65277204  1
  O2-  O435  1  0.00670315  0.50253047  -0.00086600  1
  O2-  O436  1  -0.00707181  0.48217316  0.34247607  1
  O2-  O437  1  0.00402130  0.48570346  0.66998002  1
  O2-  O438  1  0.34822964  0.01952288  -0.00900361  1
  O2-  O439  1  0.33622360  0.02150835  0.32926114  1
  O2-  O440  1  0.34752839  0.01286104  0.63122305  1
  O2-  O441  1  0.36860198  0.50825420  -0.02851048  1
  O2-  O442  1  0.35865904  0.49588655  0.28537982  1
  O2-  O443  1  0.34009381  0.49322600  0.67404367  1
  O2-  O444  1  0.67685085  0.01152798  -0.01239057  1
  O2-  O445  1  0.65290158  -0.00774578  0.35135414  1
  O2-  O446  1  0.65899511  -0.01245532  0.68461248  1
  O2-  O447  1  0.65643007  0.50085296  0.00553710  1
  O2-  O448  1  0.66228077  0.49799829  0.33907952  1
  O2-  O449  1  0.67319518  0.48497832  0.66494775  1
  O2-  O450  1  0.16843079  0.01127401  -0.00698022  1
  O2-  O451  1  0.15961872  0.02256237  0.33065300  1
  O2-  O452  1  0.18413374  0.01453599  0.67883788  1
  O2-  O453  1  0.17595849  0.49192259  0.01393698  1
  O2-  O454  1  0.16477346  0.48962732  0.33141653  1
  O2-  O455  1  0.17309512  0.47200203  0.67463276  1
  O2-  O456  1  0.51348384  -0.01045464  0.01242575  1
  O2-  O457  1  0.49297616  0.00942808  0.32128720  1
  O2-  O458  1  0.50041720  0.00072743  0.66712195  1
  O2-  O459  1  0.52095979  0.50722136  0.00958825  1
  O2-  O460  1  0.51036895  0.51550811  0.33022533  1
  O2-  O461  1  0.49558886  0.49779946  0.66052869  1
  O2-  O462  1  0.84245333  -0.01147176  0.01000774  1
  O2-  O463  1  0.81487555  -0.00766148  0.31190258  1
  O2-  O464  1  0.85385196  -0.00504685  0.69972045  1
  O2-  O465  1  0.82728749  0.49608651  -0.01616207  1
  O2-  O466  1  0.83131488  0.48108876  0.32587950  1
  O2-  O467  1  0.84545952  0.48915748  0.68674922  1
  O2-  O468  1  0.58279817  0.75130050  0.93939759  1
  O2-  O469  1  0.06704473  0.75191072  0.07702607  1
  O2-  O470  1  0.41628023  0.74035345  0.38307717  1
  O2-  O471  1  0.58037996  0.25237218  0.28452291  1
  O2-  O472  1  0.74723542  0.75023063  0.38514600  1
  O2-  O473  1  0.57433188  0.74697079  0.27712057  1
  O2-  O474  1  0.25034963  0.25246027  0.27373493  1
  O2-  O475  1  0.74216599  0.24745307  0.39030727  1
  O2-  O476  1  0.07829798  0.25738940  0.39031341  1
  O2-  O477  1  0.41758702  0.25574704  0.72367095  1
  O2-  O478  1  0.42376656  0.25127622  0.38378716  1
  O2-  O479  1  0.90417665  0.75622717  0.93950235  1
  O2-  O480  1  0.26085919  0.74668116  0.60466070  1
  O2-  O481  1  0.90811345  0.75521553  0.26091318  1
  O2-  O482  1  0.09675205  0.24882910  0.05845526  1
  O2-  O483  1  0.74812014  0.75096255  0.05972909  1
  O2-  O484  1  0.75043293  0.75061617  0.72750374  1
  O2-  O485  1  0.40988355  0.25105056  0.07621325  1
  O2-  O486  1  0.43709992  0.74874465  0.07414470  1
  O2-  O487  1  0.91416722  0.24650633  0.60959640  1
  O2-  O488  1  0.75807720  0.25229509  0.72212231  1
  O2-  O489  1  0.41811727  0.75363313  0.73727497  1
  O2-  O490  1  0.91059968  0.75448762  0.60536466  1
  O2-  O491  1  0.73922391  0.25597100  0.07265023  1
  O2-  O492  1  0.58101204  0.25893860  0.60495042  1
