# generated using pymatgen
data_Ca108Mn108O277
_symmetry_space_group_name_H-M   'P 1'
_cell_length_a   16.02562669
_cell_length_b   22.30338350
_cell_length_c   16.38528420
_cell_angle_alpha   89.99855480
_cell_angle_beta   89.99969489
_cell_angle_gamma   90.00106194
_symmetry_Int_Tables_number   1
_chemical_formula_structural   Ca108Mn108O277
_chemical_formula_sum   'Ca108 Mn108 O277'
_cell_volume   5856.52163613
_cell_formula_units_Z   1
loop_
 _symmetry_equiv_pos_site_id
 _symmetry_equiv_pos_as_xyz
  1  'x, y, z'
loop_
 _atom_type_symbol
 _atom_type_oxidation_number
  Ca2+  2.0
  Mn3.34+  3.34
  O2-  -2.0
loop_
 _atom_site_type_symbol
 _atom_site_label
 _atom_site_symmetry_multiplicity
 _atom_site_fract_x
 _atom_site_fract_y
 _atom_site_fract_z
 _atom_site_occupancy
  Ca2+  Ca0  1  0.06151726  0.25235412  0.26442866  1
  Ca2+  Ca1  1  0.08431195  0.24745421  0.58291087  1
  Ca2+  Ca2  1  0.07699230  0.25357137  0.90503087  1
  Ca2+  Ca3  1  0.09481822  0.74593038  0.25985327  1
  Ca2+  Ca4  1  0.11007955  0.74139636  0.56175635  1
  Ca2+  Ca5  1  0.09845644  0.75575514  0.92045396  1
  Ca2+  Ca6  1  0.41530342  0.25148764  0.25184618  1
  Ca2+  Ca7  1  0.39986124  0.25680675  0.59110197  1
  Ca2+  Ca8  1  0.41427459  0.24967112  0.90656377  1
  Ca2+  Ca9  1  0.41028783  0.75275736  0.25787951  1
  Ca2+  Ca10  1  0.40906787  0.73653802  0.59060256  1
  Ca2+  Ca11  1  0.41297938  0.74079131  0.88455595  1
  Ca2+  Ca12  1  0.76836960  0.24206286  0.26409033  1
  Ca2+  Ca13  1  0.76503044  0.25216276  0.58061098  1
  Ca2+  Ca14  1  0.75599077  0.24713481  0.89881013  1
  Ca2+  Ca15  1  0.74241313  0.75438128  0.25410943  1
  Ca2+  Ca16  1  0.73145312  0.75450867  0.59450734  1
  Ca2+  Ca17  1  0.73966545  0.76255295  0.90440744  1
  Ca2+  Ca18  1  0.24810013  0.25937653  0.09156781  1
  Ca2+  Ca19  1  0.23630070  0.25439374  0.42078611  1
  Ca2+  Ca20  1  0.24763404  0.25214737  0.74384542  1
  Ca2+  Ca21  1  0.24234126  0.74457706  0.08079269  1
  Ca2+  Ca22  1  0.24370260  0.74624491  0.42425260  1
  Ca2+  Ca23  1  0.27177652  0.73924376  0.73542861  1
  Ca2+  Ca24  1  0.58563073  0.25603985  0.08915541  1
  Ca2+  Ca25  1  0.60879513  0.24474362  0.40757511  1
  Ca2+  Ca26  1  0.60303147  0.24319363  0.75304713  1
  Ca2+  Ca27  1  0.58789292  0.77347039  0.07810822  1
  Ca2+  Ca28  1  0.57066252  0.73858465  0.42185925  1
  Ca2+  Ca29  1  0.56883313  0.75049906  0.73733319  1
  Ca2+  Ca30  1  0.91387887  0.24523036  0.11141792  1
  Ca2+  Ca31  1  0.90042470  0.23449641  0.40810821  1
  Ca2+  Ca32  1  0.90977512  0.24951959  0.74322880  1
  Ca2+  Ca33  1  0.91403520  0.75998926  0.08301321  1
  Ca2+  Ca34  1  0.93808177  0.74552865  0.40886177  1
  Ca2+  Ca35  1  0.90370879  0.76329543  0.75366657  1
  Ca2+  Ca36  1  0.07936155  0.60504977  0.26075414  1
  Ca2+  Ca37  1  0.59842066  0.09552927  0.06864525  1
  Ca2+  Ca38  1  0.42011537  0.59584232  0.29170985  1
  Ca2+  Ca39  1  0.40970519  0.08559468  0.60208309  1
  Ca2+  Ca40  1  0.22480876  0.58771770  0.07631045  1
  Ca2+  Ca41  1  0.89559058  0.08763601  0.74749388  1
  Ca2+  Ca42  1  0.10789996  0.58046190  0.91507861  1
  Ca2+  Ca43  1  0.95026979  0.59923837  0.09779518  1
  Ca2+  Ca44  1  0.59069428  0.58827294  0.08604591  1
  Ca2+  Ca45  1  0.77977725  0.58175665  0.28293632  1
  Ca2+  Ca46  1  0.22053412  0.59441754  0.07403095  1
  Ca2+  Ca47  1  0.55566099  0.59662133  0.72973926  1
  Ca2+  Ca48  1  0.12308599  0.58742793  0.58218368  1
  Ca2+  Ca49  1  0.27846313  0.59204867  0.74378335  1
  Ca2+  Ca50  1  0.74566729  0.09040796  0.59285180  1
  Ca2+  Ca51  1  0.57740429  0.58838272  0.08546028  1
  Ca2+  Ca52  1  0.25421896  0.09412162  0.07287907  1
  Ca2+  Ca53  1  0.03489180  0.09485248  0.26314867  1
  Ca2+  Ca54  1  0.41097859  0.09663246  0.25083114  1
  Ca2+  Ca55  1  0.24449316  0.10268119  0.42335864  1
  Ca2+  Ca56  1  0.42390373  0.09699180  0.25039623  1
  Ca2+  Ca57  1  0.75102192  0.09467842  0.58634862  1
  Ca2+  Ca58  1  0.41387611  0.60251084  0.57300035  1
  Ca2+  Ca59  1  0.26707259  0.09428093  0.07189983  1
  Ca2+  Ca60  1  0.94296862  0.59347376  0.10171158  1
  Ca2+  Ca61  1  0.73894305  0.59570232  0.90805928  1
  Ca2+  Ca62  1  0.25443280  0.61328367  0.43927505  1
  Ca2+  Ca63  1  0.92667134  0.58030420  0.72904282  1
  Ca2+  Ca64  1  0.63703864  0.08319367  0.41195673  1
  Ca2+  Ca65  1  0.88156292  0.08862741  0.40098037  1
  Ca2+  Ca66  1  0.73590243  0.09419786  0.88263388  1
  Ca2+  Ca67  1  0.24995524  0.09459825  0.75306737  1
  Ca2+  Ca68  1  0.58604825  0.09483541  0.06633125  1
  Ca2+  Ca69  1  0.76938960  0.09315848  0.25367722  1
  Ca2+  Ca70  1  0.26314349  0.61019890  0.43601773  1
  Ca2+  Ca71  1  0.90607651  0.08732922  0.74777941  1
  Ca2+  Ca72  1  0.56452862  0.41032828  0.71992399  1
  Ca2+  Ca73  1  0.90478730  0.91046210  0.75322998  1
  Ca2+  Ca74  1  0.42402154  0.89928453  0.90774396  1
  Ca2+  Ca75  1  0.10394644  0.41967679  0.60045675  1
  Ca2+  Ca76  1  0.41877643  0.40178353  0.25082839  1
  Ca2+  Ca77  1  0.23932158  0.89953340  0.08784268  1
  Ca2+  Ca78  1  0.43828754  0.91730920  0.59429547  1
  Ca2+  Ca79  1  0.90557354  0.91852675  0.07017849  1
  Ca2+  Ca80  1  0.61628689  0.90766426  0.41941180  1
  Ca2+  Ca81  1  0.24962493  0.90887172  0.75269549  1
  Ca2+  Ca82  1  0.92765300  0.40374392  0.74893299  1
  Ca2+  Ca83  1  0.39470456  0.40596977  0.91378955  1
  Ca2+  Ca84  1  0.10112525  0.40737347  0.91160896  1
  Ca2+  Ca85  1  0.89741420  0.41290369  0.40523921  1
  Ca2+  Ca86  1  0.42744395  0.91424399  0.59870415  1
  Ca2+  Ca87  1  0.90378913  0.91364185  0.39683501  1
  Ca2+  Ca88  1  0.24138992  0.42162268  0.74449105  1
  Ca2+  Ca89  1  0.40602518  0.40190444  0.25117059  1
  Ca2+  Ca90  1  0.06728707  0.90674783  0.91438996  1
  Ca2+  Ca91  1  0.75455953  0.91417185  0.90773685  1
  Ca2+  Ca92  1  0.24413339  0.89933861  0.41535743  1
  Ca2+  Ca93  1  0.75939062  0.40547902  0.24662234  1
  Ca2+  Ca94  1  0.59190805  0.40866308  0.43487195  1
  Ca2+  Ca95  1  0.25218218  0.90001653  0.08799025  1
  Ca2+  Ca96  1  0.76435543  0.92105792  0.26102000  1
  Ca2+  Ca97  1  0.26307347  0.40531501  0.42538834  1
  Ca2+  Ca98  1  0.91492553  0.39921484  0.09559671  1
  Ca2+  Ca99  1  0.09352426  0.41926550  0.59935004  1
  Ca2+  Ca100  1  0.60456298  0.90660540  0.41576096  1
  Ca2+  Ca101  1  0.75349852  0.92044377  0.26199461  1
  Ca2+  Ca102  1  0.25559800  0.89865904  0.41434739  1
  Ca2+  Ca103  1  0.57514547  0.41043361  0.71986477  1
  Ca2+  Ca104  1  0.74703630  0.38867519  0.91948326  1
  Ca2+  Ca105  1  0.90652954  0.41110385  0.40056996  1
  Ca2+  Ca106  1  0.08014515  0.89494554  0.58582874  1
  Ca2+  Ca107  1  0.24375004  0.41257194  0.07118075  1
  Mn3.34+  Mn108  1  0.08133435  0.33384506  0.08334844  1
  Mn3.34+  Mn109  1  0.08333769  0.33438579  0.41967499  1
  Mn3.34+  Mn110  1  0.08444978  0.33316867  0.75185240  1
  Mn3.34+  Mn111  1  0.07727721  0.82986202  0.09038151  1
  Mn3.34+  Mn112  1  0.07819994  0.82967838  0.41561506  1
  Mn3.34+  Mn113  1  0.08271673  0.83437811  0.75132503  1
  Mn3.34+  Mn114  1  0.41945880  0.33032159  0.08128533  1
  Mn3.34+  Mn115  1  0.42176643  0.32967584  0.42385737  1
  Mn3.34+  Mn116  1  0.41297614  0.33001091  0.74872848  1
  Mn3.34+  Mn117  1  0.41962843  0.83166086  0.08285303  1
  Mn3.34+  Mn118  1  0.42030021  0.82796761  0.41925255  1
  Mn3.34+  Mn119  1  0.42053296  0.83542444  0.75133034  1
  Mn3.34+  Mn120  1  0.74830269  0.32905312  0.08580972  1
  Mn3.34+  Mn121  1  0.74740461  0.33156174  0.42080082  1
  Mn3.34+  Mn122  1  0.75256297  0.33031813  0.74615473  1
  Mn3.34+  Mn123  1  0.74869288  0.84192861  0.08259796  1
  Mn3.34+  Mn124  1  0.75917203  0.82474299  0.42137589  1
  Mn3.34+  Mn125  1  0.74238044  0.84366247  0.74586050  1
  Mn3.34+  Mn126  1  0.23954659  0.33372920  0.25054280  1
  Mn3.34+  Mn127  1  0.25292821  0.33576500  0.58309362  1
  Mn3.34+  Mn128  1  0.24924306  0.33477423  0.91290890  1
  Mn3.34+  Mn129  1  0.24932593  0.82967821  0.24777494  1
  Mn3.34+  Mn130  1  0.25173836  0.83417353  0.58601387  1
  Mn3.34+  Mn131  1  0.25153838  0.83158353  0.91251383  1
  Mn3.34+  Mn132  1  0.58792096  0.32949041  0.24957903  1
  Mn3.34+  Mn133  1  0.58142831  0.33176775  0.57747286  1
  Mn3.34+  Mn134  1  0.58172353  0.32627985  0.91551304  1
  Mn3.34+  Mn135  1  0.58016079  0.83370624  0.24605268  1
  Mn3.34+  Mn136  1  0.58561631  0.83343591  0.58341679  1
  Mn3.34+  Mn137  1  0.58380180  0.83777259  0.91395282  1
  Mn3.34+  Mn138  1  0.91777333  0.33541068  0.24911959  1
  Mn3.34+  Mn139  1  0.91673932  0.33516345  0.57941891  1
  Mn3.34+  Mn140  1  0.91845521  0.33058322  0.91827558  1
  Mn3.34+  Mn141  1  0.92138328  0.83604670  0.24378734  1
  Mn3.34+  Mn142  1  0.91397419  0.83069552  0.58030418  1
  Mn3.34+  Mn143  1  0.91414725  0.83790392  0.91476117  1
  Mn3.34+  Mn144  1  0.74664848  0.66645221  0.42074772  1
  Mn3.34+  Mn145  1  0.07802785  0.16810741  0.42250062  1
  Mn3.34+  Mn146  1  0.58062525  0.17014228  0.91074363  1
  Mn3.34+  Mn147  1  0.57946451  0.66229276  0.57445744  1
  Mn3.34+  Mn148  1  0.91127177  0.16107412  0.91882620  1
  Mn3.34+  Mn149  1  0.24594533  0.16879850  0.90958906  1
  Mn3.34+  Mn150  1  0.41172142  0.66772894  0.08006037  1
  Mn3.34+  Mn151  1  0.91620997  0.67115158  0.57619740  1
  Mn3.34+  Mn152  1  0.74548987  0.66990578  0.08620376  1
  Mn3.34+  Mn153  1  0.58089090  0.67065233  0.90644499  1
  Mn3.34+  Mn154  1  0.24929864  0.66556157  0.24918003  1
  Mn3.34+  Mn155  1  0.09111445  0.66178895  0.75082480  1
  Mn3.34+  Mn156  1  0.92455124  0.66514554  0.91309383  1
  Mn3.34+  Mn157  1  0.92140615  0.15558389  0.91734970  1
  Mn3.34+  Mn158  1  0.08546661  0.16798010  0.08483694  1
  Mn3.34+  Mn159  1  0.58611486  0.16772432  0.24857758  1
  Mn3.34+  Mn160  1  0.07646505  0.16184773  0.08673238  1
  Mn3.34+  Mn161  1  0.08354134  0.16573111  0.74694165  1
  Mn3.34+  Mn162  1  0.41534947  0.16702756  0.75704819  1
  Mn3.34+  Mn163  1  0.91071303  0.67056732  0.91502307  1
  Mn3.34+  Mn164  1  0.92039627  0.16764415  0.57877777  1
  Mn3.34+  Mn165  1  0.08147161  0.66689978  0.74795690  1
  Mn3.34+  Mn166  1  0.90361227  0.66432762  0.57459915  1
  Mn3.34+  Mn167  1  0.91600561  0.66918177  0.25567038  1
  Mn3.34+  Mn168  1  0.74358777  0.67094937  0.74716609  1
  Mn3.34+  Mn169  1  0.57306029  0.16962645  0.58100817  1
  Mn3.34+  Mn170  1  0.24827093  0.16802309  0.58361027  1
  Mn3.34+  Mn171  1  0.41689393  0.18083446  0.08120092  1
  Mn3.34+  Mn172  1  0.75119919  0.16645599  0.08661701  1
  Mn3.34+  Mn173  1  0.75563196  0.66433625  0.08872117  1
  Mn3.34+  Mn174  1  0.24499232  0.16848485  0.25353972  1
  Mn3.34+  Mn175  1  0.25252077  0.66328134  0.91066924  1
  Mn3.34+  Mn176  1  0.41625455  0.17238083  0.42197683  1
  Mn3.34+  Mn177  1  0.58244007  0.67191825  0.25739337  1
  Mn3.34+  Mn178  1  0.58149883  0.16349395  0.57986753  1
  Mn3.34+  Mn179  1  0.42116880  0.66190808  0.08153446  1
  Mn3.34+  Mn180  1  0.92684119  0.00066496  0.57609676  1
  Mn3.34+  Mn181  1  0.42499900  0.00783360  0.42326418  1
  Mn3.34+  Mn182  1  0.74979117  0.49837082  0.08697559  1
  Mn3.34+  Mn183  1  0.58090467  0.50019262  0.25302217  1
  Mn3.34+  Mn184  1  0.23993441  0.00471331  0.59147302  1
  Mn3.34+  Mn185  1  0.08082660  0.49542739  0.09234497  1
  Mn3.34+  Mn186  1  0.74409051  0.50322907  0.74171586  1
  Mn3.34+  Mn187  1  0.75347116  0.49748966  0.73981563  1
  Mn3.34+  Mn188  1  0.92220960  0.49834357  0.91779259  1
  Mn3.34+  Mn189  1  0.43372971  -0.00704502  0.08863608  1
  Mn3.34+  Mn190  1  0.41184718  0.49967875  0.08269870  1
  Mn3.34+  Mn191  1  0.41277894  0.49755405  0.73989345  1
  Mn3.34+  Mn192  1  0.75715651  0.00372116  0.06681959  1
  Mn3.34+  Mn193  1  0.25220259  0.49851264  0.24777028  1
  Mn3.34+  Mn194  1  0.42737209  0.00451300  0.74274738  1
  Mn3.34+  Mn195  1  0.08290981  0.00242384  0.75093853  1
  Mn3.34+  Mn196  1  0.59145183  0.49499399  0.25135349  1
  Mn3.34+  Mn197  1  0.07257449  0.00412546  0.41972324  1
  Mn3.34+  Mn198  1  0.58526678  0.49846307  0.91236092  1
  Mn3.34+  Mn199  1  0.42138138  -0.00288011  0.08906465  1
  Mn3.34+  Mn200  1  0.75194007  0.50201579  0.42394393  1
  Mn3.34+  Mn201  1  0.06080119  0.00199020  0.08526109  1
  Mn3.34+  Mn202  1  0.41548648  0.49773856  0.42196102  1
  Mn3.34+  Mn203  1  0.24193660  0.00005544  0.25311985  1
  Mn3.34+  Mn204  1  0.08714235  0.49964603  0.40832690  1
  Mn3.34+  Mn205  1  0.58313089  0.00070413  0.91111636  1
  Mn3.34+  Mn206  1  0.41383094  0.00306898  0.42168714  1
  Mn3.34+  Mn207  1  0.24921084  0.00114283  0.91908226  1
  Mn3.34+  Mn208  1  0.91978935  0.49885408  0.58253591  1
  Mn3.34+  Mn209  1  0.07384296  0.50556262  0.41068355  1
  Mn3.34+  Mn210  1  0.08250666  -0.00091973  0.41751362  1
  Mn3.34+  Mn211  1  0.90790512  0.50445588  0.91609924  1
  Mn3.34+  Mn212  1  0.57124633  0.50426421  0.91133529  1
  Mn3.34+  Mn213  1  0.58564569  -0.00012317  0.24516244  1
  Mn3.34+  Mn214  1  0.91264438  -0.00486917  0.57458517  1
  Mn3.34+  Mn215  1  0.07393014  -0.00056790  0.08606264  1
  O2-  O216  1  0.00129235  0.15293570  -0.00091284  1
  O2-  O217  1  -0.00491575  0.16149615  0.34980427  1
  O2-  O218  1  -0.00741818  0.15134355  0.67435642  1
  O2-  O219  1  -0.00139981  0.66009761  0.00027421  1
  O2-  O220  1  0.00069423  0.67698823  0.32315848  1
  O2-  O221  1  -0.00590579  0.66002308  0.66362883  1
  O2-  O222  1  0.32429396  0.17792380  0.00542709  1
  O2-  O223  1  0.33527891  0.15805095  0.33401907  1
  O2-  O224  1  0.33238838  0.15611449  0.66625857  1
  O2-  O225  1  0.32776324  0.64626328  0.00620557  1
  O2-  O226  1  0.32970755  0.66155661  0.33105460  1
  O2-  O227  1  0.33930200  0.65866989  0.66222684  1
  O2-  O228  1  0.66437262  0.17082332  0.00247065  1
  O2-  O229  1  0.66789799  0.15399360  0.32002163  1
  O2-  O230  1  0.66510546  0.17140243  0.65726587  1
  O2-  O231  1  0.66419467  0.64643117  0.00244109  1
  O2-  O232  1  0.67117879  0.66847855  0.33099003  1
  O2-  O233  1  0.65924342  0.66275365  0.67531524  1
  O2-  O234  1  0.16544522  0.15660111  0.00226711  1
  O2-  O235  1  0.15829631  0.14867498  0.32926460  1
  O2-  O236  1  0.17098932  0.15674180  0.67152585  1
  O2-  O237  1  0.16739653  0.66078162  -0.00122117  1
  O2-  O238  1  0.17397111  0.65216739  0.32932948  1
  O2-  O239  1  0.17522004  0.65239159  0.67554266  1
  O2-  O240  1  0.50569473  0.17191860  0.00622235  1
  O2-  O241  1  0.49742250  0.15767799  0.33326654  1
  O2-  O242  1  0.49763187  0.16233607  0.66474775  1
  O2-  O243  1  0.50229862  0.64912157  -0.00229772  1
  O2-  O244  1  0.49599337  0.67747968  0.32605732  1
  O2-  O245  1  0.49758089  0.66615480  0.65677483  1
  O2-  O246  1  0.82776821  0.16742503  -0.00095686  1
  O2-  O247  1  0.83036868  0.16293051  0.33216680  1
  O2-  O248  1  0.83987377  0.15128637  0.66074713  1
  O2-  O249  1  0.83668211  0.63692907  0.00495473  1
  O2-  O250  1  0.83059342  0.68492761  0.33435318  1
  O2-  O251  1  0.83414425  0.66664882  0.66590352  1
  O2-  O252  1  0.00325646  0.34745790  -0.00475023  1
  O2-  O253  1  -0.00474372  0.34905191  0.33997518  1
  O2-  O254  1  0.00655607  0.35160144  0.66189406  1
  O2-  O255  1  -0.00144847  0.83586099  0.00464852  1
  O2-  O256  1  -0.00860779  0.83551138  0.33870417  1
  O2-  O257  1  -0.00632652  0.84169452  0.67121460  1
  O2-  O258  1  0.33125506  0.32691294  0.00093677  1
  O2-  O259  1  0.33983431  0.33801858  0.33157126  1
  O2-  O260  1  0.32770064  0.34621497  0.67332244  1
  O2-  O261  1  0.33103046  0.85199605  -0.00097003  1
  O2-  O262  1  0.33412190  0.83391966  0.33767973  1
  O2-  O263  1  0.33786483  0.85524424  0.66331652  1
  O2-  O264  1  0.67059894  0.31297923  -0.00379984  1
  O2-  O265  1  0.66283920  0.35027568  0.33846613  1
  O2-  O266  1  0.65705046  0.33495318  0.67175771  1
  O2-  O267  1  0.67037939  0.84745244  -0.00711994  1
  O2-  O268  1  0.67586870  0.83328172  0.33463735  1
  O2-  O269  1  0.66684076  0.83797437  0.66314955  1
  O2-  O270  1  0.16880852  0.33440697  -0.00339342  1
  O2-  O271  1  0.17365132  0.34791003  0.34524111  1
  O2-  O272  1  0.16912891  0.34567097  0.67011707  1
  O2-  O273  1  0.16444112  0.83740770  0.00309153  1
  O2-  O274  1  0.16660477  0.84600396  0.33412166  1
  O2-  O275  1  0.16942128  0.84969309  0.66804666  1
  O2-  O276  1  0.49646215  0.31009754  -0.00396388  1
  O2-  O277  1  0.49704125  0.33782133  0.32992059  1
  O2-  O278  1  0.49894685  0.33123464  0.66370260  1
  O2-  O279  1  0.49968148  0.84259607  0.00088149  1
  O2-  O280  1  0.51201531  0.83448406  0.34624432  1
  O2-  O281  1  0.50091928  0.84690223  0.66586663  1
  O2-  O282  1  0.83484986  0.33070644  0.00387203  1
  O2-  O283  1  0.82824690  0.34400575  0.33142552  1
  O2-  O284  1  0.83977973  0.34695416  0.66985964  1
  O2-  O285  1  0.83407678  0.85070383  0.00092565  1
  O2-  O286  1  0.83478304  0.82822238  0.32722512  1
  O2-  O287  1  0.83576726  0.83163351  0.66753738  1
  O2-  O288  1  0.00557816  0.17346492  0.17359955  1
  O2-  O289  1  0.00130283  0.18862318  0.50256166  1
  O2-  O290  1  -0.00263494  0.17530487  0.82956365  1
  O2-  O291  1  -0.01058097  0.67860617  0.16577414  1
  O2-  O292  1  -0.00154941  0.68666110  0.50635438  1
  O2-  O293  1  -0.00419626  0.68628334  0.82163302  1
  O2-  O294  1  0.33671378  0.18083098  0.16824323  1
  O2-  O295  1  0.33074434  0.18871610  0.49643782  1
  O2-  O296  1  0.32670883  0.18610192  0.83270386  1
  O2-  O297  1  0.33823095  0.67787909  0.16847155  1
  O2-  O298  1  0.33784751  0.68469517  0.49338935  1
  O2-  O299  1  0.32373320  0.67409398  0.82775900  1
  O2-  O300  1  0.65253326  0.17683973  0.15439388  1
  O2-  O301  1  0.66251005  0.17958245  0.50211427  1
  O2-  O302  1  0.66602692  0.18378148  0.84366642  1
  O2-  O303  1  0.65786569  0.67388606  0.16337551  1
  O2-  O304  1  0.66842864  0.68647045  0.49785465  1
  O2-  O305  1  0.67842700  0.67690237  0.84462349  1
  O2-  O306  1  0.18013023  0.17560169  0.15441427  1
  O2-  O307  1  0.17138714  0.18009039  0.49700528  1
  O2-  O308  1  0.16448967  0.18752239  0.83213849  1
  O2-  O309  1  0.17336137  0.67385253  0.16336431  1
  O2-  O310  1  0.17671851  0.67152564  0.50047185  1
  O2-  O311  1  0.15684016  0.68065403  0.84537717  1
  O2-  O312  1  0.49185485  0.17859831  0.17121096  1
  O2-  O313  1  0.49830311  0.19122092  0.50163739  1
  O2-  O314  1  0.50069260  0.18968103  0.83299112  1
  O2-  O315  1  0.50481009  0.67706879  0.15876505  1
  O2-  O316  1  0.49889450  0.67838862  0.50264081  1
  O2-  O317  1  0.51106877  0.68140188  0.82554896  1
  O2-  O318  1  0.82160942  0.18249700  0.16609856  1
  O2-  O319  1  0.83012121  0.17250546  0.51176502  1
  O2-  O320  1  0.83661712  0.17249386  0.83085965  1
  O2-  O321  1  0.83284210  0.68710977  0.17128142  1
  O2-  O322  1  0.82944835  0.69127485  0.49787696  1
  O2-  O323  1  0.83402939  0.67711316  0.83288420  1
  O2-  O324  1  -0.00192960  0.32384884  0.16324528  1
  O2-  O325  1  0.00459626  0.32745647  0.50401166  1
  O2-  O326  1  -0.00120011  0.32577972  0.82983994  1
  O2-  O327  1  0.00263232  0.80504382  0.17324984  1
  O2-  O328  1  0.00794417  0.81447492  0.50901137  1
  O2-  O329  1  0.00046367  0.81850311  0.83778976  1
  O2-  O330  1  0.33891207  0.31733003  0.16905068  1
  O2-  O331  1  0.32892086  0.31927270  0.49494546  1
  O2-  O332  1  0.33651489  0.32218448  0.83921754  1
  O2-  O333  1  0.32499406  0.81769181  0.15587952  1
  O2-  O334  1  0.32847915  0.82616431  0.49469914  1
  O2-  O335  1  0.33246069  0.82767522  0.83087579  1
  O2-  O336  1  0.67268663  0.31350620  0.17267854  1
  O2-  O337  1  0.66633130  0.31570215  0.50277083  1
  O2-  O338  1  0.66827599  0.31919547  0.83528709  1
  O2-  O339  1  0.67298519  0.83065632  0.16933676  1
  O2-  O340  1  0.66141481  0.82494185  0.49138032  1
  O2-  O341  1  0.66619256  0.83002639  0.83365383  1
  O2-  O342  1  0.16942069  0.32675529  0.15919632  1
  O2-  O343  1  0.16335440  0.32164892  0.50657459  1
  O2-  O344  1  0.16641646  0.31638698  0.83425443  1
  O2-  O345  1  0.16921046  0.81384479  0.15849353  1
  O2-  O346  1  0.17134332  0.82997339  0.49690420  1
  O2-  O347  1  0.16458354  0.82412970  0.83728793  1
  O2-  O348  1  0.49513226  0.31745057  0.16964329  1
  O2-  O349  1  0.50470708  0.30502333  0.49774968  1
  O2-  O350  1  0.50320467  0.32169756  0.82799337  1
  O2-  O351  1  0.49402247  0.81863511  0.16882331  1
  O2-  O352  1  0.49397451  0.81914688  0.50599416  1
  O2-  O353  1  0.49596089  0.82021461  0.83776270  1
  O2-  O354  1  0.83321659  0.31833975  0.16746627  1
  O2-  O355  1  0.84324120  0.32255947  0.48939687  1
  O2-  O356  1  0.83259448  0.32516430  0.83576880  1
  O2-  O357  1  0.83667790  0.81675661  0.16801339  1
  O2-  O358  1  0.83829910  0.80457092  0.49829609  1
  O2-  O359  1  0.83147655  0.82595794  0.83598840  1
  O2-  O360  1  0.10786034  0.07894672  0.12623688  1
  O2-  O361  1  0.08867672  0.08378672  0.44849728  1
  O2-  O362  1  0.08048883  0.08222393  0.77727930  1
  O2-  O363  1  0.08090108  0.57542736  0.12722787  1
  O2-  O364  1  0.08925446  0.58153394  0.44391848  1
  O2-  O365  1  0.06997844  0.58125422  0.77692714  1
  O2-  O366  1  0.40865629  0.08220455  0.11032317  1
  O2-  O367  1  0.41739079  0.08666918  0.45949328  1
  O2-  O368  1  0.40359700  0.08240736  0.76984244  1
  O2-  O369  1  0.43913100  0.57735092  0.12332323  1
  O2-  O370  1  0.39428556  0.57672427  0.43671703  1
  O2-  O371  1  0.42238961  0.56559640  0.78437467  1
  O2-  O372  1  0.72519780  0.07546252  0.11854660  1
  O2-  O373  1  0.75959584  0.06220076  0.46667079  1
  O2-  O374  1  0.77078202  0.07136625  0.76354960  1
  O2-  O375  1  0.73620439  0.57910319  0.13167753  1
  O2-  O376  1  0.76150069  0.58290468  0.42485076  1
  O2-  O377  1  0.76331988  0.58345442  0.77075445  1
  O2-  O378  1  0.27404803  0.07913880  0.20626701  1
  O2-  O379  1  0.26397827  0.08419922  0.55579125  1
  O2-  O380  1  0.25220937  0.08174618  0.89810541  1
  O2-  O381  1  0.25416971  0.57940374  0.21225623  1
  O2-  O382  1  0.25236244  0.56126417  0.54936147  1
  O2-  O383  1  0.24042887  0.58276720  0.89128487  1
  O2-  O384  1  0.56006809  0.07927190  0.20593989  1
  O2-  O385  1  0.58631229  0.08268025  0.54757184  1
  O2-  O386  1  0.59530631  0.08369869  0.90990806  1
  O2-  O387  1  0.58022940  0.58216510  0.22308597  1
  O2-  O388  1  0.56658555  0.58372692  0.57565142  1
  O2-  O389  1  0.58909935  0.58353299  0.87599612  1
  O2-  O390  1  0.90357821  0.07502517  0.24887137  1
  O2-  O391  1  0.92376298  0.08141058  0.54424233  1
  O2-  O392  1  0.90581933  0.07502338  0.88652692  1
  O2-  O393  1  0.91017327  0.58262212  0.22698787  1
  O2-  O394  1  0.92262826  0.58018051  0.56940021  1
  O2-  O395  1  0.91997679  0.58123959  0.87015647  1
  O2-  O396  1  0.08515344  0.41558469  0.08904245  1
  O2-  O397  1  0.08950698  0.42322830  0.45480310  1
  O2-  O398  1  0.09052850  0.41568992  0.77340700  1
  O2-  O399  1  0.09897619  0.91882762  0.11650223  1
  O2-  O400  1  0.07967454  0.91716132  0.44618894  1
  O2-  O401  1  0.07945496  0.92136269  0.77946945  1
  O2-  O402  1  0.40810380  0.41895844  0.11119512  1
  O2-  O403  1  0.42856492  0.41663147  0.43139243  1
  O2-  O404  1  0.43409225  0.42340564  0.78323632  1
  O2-  O405  1  0.40096393  0.91418939  0.11285217  1
  O2-  O406  1  0.40886913  0.92050115  0.44264429  1
  O2-  O407  1  0.41379775  0.92443194  0.77418122  1
  O2-  O408  1  0.76049088  0.41576954  0.10070416  1
  O2-  O409  1  0.75370827  0.41915830  0.44827209  1
  O2-  O410  1  0.74055205  0.41887561  0.78145060  1
  O2-  O411  1  0.76176404  0.93082206  0.12386170  1
  O2-  O412  1  0.75203987  0.91617742  0.41243668  1
  O2-  O413  1  0.76424829  0.91975878  0.77004253  1
  O2-  O414  1  0.26892197  0.41709229  0.21723300  1
  O2-  O415  1  0.23654824  0.41523061  0.55892972  1
  O2-  O416  1  0.25216287  0.41904567  0.89664273  1
  O2-  O417  1  0.25034744  0.91572388  0.22128254  1
  O2-  O418  1  0.24963364  0.92433276  0.54565616  1
  O2-  O419  1  0.24493181  0.91954434  0.89586144  1
  O2-  O420  1  0.56763082  0.41457728  0.22269547  1
  O2-  O421  1  0.57807944  0.41177850  0.57347149  1
  O2-  O422  1  0.58538038  0.41628460  0.89632187  1
  O2-  O423  1  0.60418173  0.91746260  0.25715544  1
  O2-  O424  1  0.56640877  0.91902017  0.54398831  1
  O2-  O425  1  0.57102469  0.92039002  0.89213205  1
  O2-  O426  1  0.90086402  0.41667279  0.22827000  1
  O2-  O427  1  0.91902138  0.42134969  0.54271769  1
  O2-  O428  1  0.90845366  0.41764395  0.89532882  1
  O2-  O429  1  0.90102768  0.91454448  0.22558750  1
  O2-  O430  1  0.92341024  0.91693719  0.53638426  1
  O2-  O431  1  0.92021527  0.91551609  0.88914166  1
  O2-  O432  1  -0.00023542  -0.02069028  -0.00216192  1
  O2-  O433  1  -0.01463757  0.00422358  0.34821968  1
  O2-  O434  1  -0.01543302  -0.00419265  0.68267880  1
  O2-  O435  1  -0.00372980  0.51933662  0.00717168  1
  O2-  O436  1  -0.01675791  0.48774436  0.34974617  1
  O2-  O437  1  0.00957810  0.49239998  0.64787976  1
  O2-  O438  1  0.32652475  0.00597687  0.01496752  1
  O2-  O439  1  0.33987695  0.02180410  0.33110988  1
  O2-  O440  1  0.33687504  -0.00720407  0.66109671  1
  O2-  O441  1  0.30678326  0.50847758  0.04583127  1
  O2-  O442  1  0.33771208  0.48778163  0.32836805  1
  O2-  O443  1  0.31962168  0.49765219  0.69297931  1
  O2-  O444  1  0.66498324  0.00592487  0.00065445  1
  O2-  O445  1  0.66514865  0.00559891  0.32462023  1
  O2-  O446  1  0.67728272  0.02486646  0.65468014  1
  O2-  O447  1  0.66555379  0.51993101  -0.00051237  1
  O2-  O448  1  0.66736535  0.49307400  0.33900078  1
  O2-  O449  1  0.64294147  0.49552267  0.69139775  1
  O2-  O450  1  0.17362095  0.00321678  0.01459310  1
  O2-  O451  1  0.18714530  -0.00868823  0.36369889  1
  O2-  O452  1  0.17903203  -0.00400295  0.69202321  1
  O2-  O453  1  0.15918136  0.51047813  0.01277478  1
  O2-  O454  1  0.16703400  0.50678435  0.32840701  1
  O2-  O455  1  0.16000191  0.49970980  0.65286568  1
  O2-  O456  1  0.50342061  0.01348933  0.00240282  1
  O2-  O457  1  0.49927683  0.01388371  0.33106899  1
  O2-  O458  1  0.48730211  -0.00030914  0.64613983  1
  O2-  O459  1  0.50417394  0.50678613  0.01042564  1
  O2-  O460  1  0.49433467  0.50607608  0.33082109  1
  O2-  O461  1  0.49462983  0.49455865  0.67404283  1
  O2-  O462  1  0.82749530  -0.01358822  -0.00820606  1
  O2-  O463  1  0.82076929  0.00136450  0.30858004  1
  O2-  O464  1  0.82917789  0.01094689  0.65004621  1
  O2-  O465  1  0.83514351  0.51155410  0.00555292  1
  O2-  O466  1  0.82600434  0.48890435  0.34314447  1
  O2-  O467  1  0.85648755  0.49499342  0.68773836  1
  O2-  O468  1  0.92145268  0.25539541  0.26764956  1
  O2-  O469  1  0.24237117  0.25118995  0.27184809  1
  O2-  O470  1  0.07380108  0.24980012  0.72492309  1
  O2-  O471  1  0.09493477  0.75320161  0.40196857  1
  O2-  O472  1  0.09082076  0.74792836  0.72548256  1
  O2-  O473  1  0.24687528  0.25104953  0.60660490  1
  O2-  O474  1  0.41260215  0.75012774  0.05298687  1
  O2-  O475  1  0.90532602  0.75165814  0.94021373  1
  O2-  O476  1  0.75947772  0.25290853  0.73203325  1
  O2-  O477  1  0.07929474  0.25089311  0.06217363  1
  O2-  O478  1  0.57932986  0.24874786  0.27231747  1
  O2-  O479  1  0.41401442  0.75736857  0.73296922  1
  O2-  O480  1  0.25161922  0.75659437  0.60252313  1
  O2-  O481  1  0.59350534  0.75256570  0.25220338  1
  O2-  O482  1  0.75029667  0.25393236  0.39978454  1
  O2-  O483  1  0.74915425  0.75193731  0.74211168  1
  O2-  O484  1  0.58602112  0.75275596  0.59985173  1
  O2-  O485  1  0.58971844  0.75031106  0.94029911  1
  O2-  O486  1  0.40546786  0.24888910  0.72917897  1
  O2-  O487  1  0.08932855  0.25185019  0.39695774  1
  O2-  O488  1  0.75091163  0.75181491  0.05348161  1
  O2-  O489  1  0.91683591  0.25154182  0.60602145  1
  O2-  O490  1  0.25840871  0.75007479  0.93907115  1
  O2-  O491  1  0.92689983  0.24418631  0.93073392  1
  O2-  O492  1  0.24911545  0.74860225  0.27239862  1
