# generated using pymatgen
data_Ca108Mn108O277
_symmetry_space_group_name_H-M   'P 1'
_cell_length_a   16.02871154
_cell_length_b   22.30971651
_cell_length_c   16.39122361
_cell_angle_alpha   90.00139044
_cell_angle_beta   89.99944488
_cell_angle_gamma   89.99421187
_symmetry_Int_Tables_number   1
_chemical_formula_structural   Ca108Mn108O277
_chemical_formula_sum   'Ca108 Mn108 O277'
_cell_volume   5861.43613641
_cell_formula_units_Z   1
loop_
 _symmetry_equiv_pos_site_id
 _symmetry_equiv_pos_as_xyz
  1  'x, y, z'
loop_
 _atom_type_symbol
 _atom_type_oxidation_number
  Ca2+  2.0
  Mn3.34+  3.34
  O2-  -2.0
loop_
 _atom_site_type_symbol
 _atom_site_label
 _atom_site_symmetry_multiplicity
 _atom_site_fract_x
 _atom_site_fract_y
 _atom_site_fract_z
 _atom_site_occupancy
  Ca2+  Ca0  1  0.07856502  0.23839056  0.24799740  1
  Ca2+  Ca1  1  0.10476144  0.23705077  0.57352413  1
  Ca2+  Ca2  1  0.11677685  0.23069158  0.93103155  1
  Ca2+  Ca3  1  0.09055812  0.75931189  0.25088513  1
  Ca2+  Ca4  1  0.07740459  0.76976318  0.57936375  1
  Ca2+  Ca5  1  0.07605631  0.76697774  0.91623516  1
  Ca2+  Ca6  1  0.42610738  0.23801263  0.24966374  1
  Ca2+  Ca7  1  0.39906150  0.23404610  0.59119103  1
  Ca2+  Ca8  1  0.39765169  0.23854726  0.91316802  1
  Ca2+  Ca9  1  0.39880273  0.76089262  0.25160938  1
  Ca2+  Ca10  1  0.40851281  0.75405085  0.59810528  1
  Ca2+  Ca11  1  0.41811498  0.76406007  0.89877785  1
  Ca2+  Ca12  1  0.74726228  0.24353130  0.25112215  1
  Ca2+  Ca13  1  0.74708175  0.25388374  0.57212355  1
  Ca2+  Ca14  1  0.74894373  0.24760276  0.92382216  1
  Ca2+  Ca15  1  0.75789706  0.74489251  0.25008411  1
  Ca2+  Ca16  1  0.76607114  0.75199316  0.59126721  1
  Ca2+  Ca17  1  0.76325202  0.74880200  0.91500226  1
  Ca2+  Ca18  1  0.24734618  0.24798689  0.07926993  1
  Ca2+  Ca19  1  0.25453144  0.24909533  0.42326396  1
  Ca2+  Ca20  1  0.26706824  0.24619185  0.74653847  1
  Ca2+  Ca21  1  0.25214462  0.75908638  0.09766098  1
  Ca2+  Ca22  1  0.25115267  0.75805066  0.40569378  1
  Ca2+  Ca23  1  0.26011281  0.76229492  0.75000845  1
  Ca2+  Ca24  1  0.59283427  0.23027231  0.09656893  1
  Ca2+  Ca25  1  0.59378099  0.23906811  0.41340425  1
  Ca2+  Ca26  1  0.57410006  0.24942247  0.74364489  1
  Ca2+  Ca27  1  0.60778096  0.75577557  0.08112825  1
  Ca2+  Ca28  1  0.59714020  0.75549734  0.41386309  1
  Ca2+  Ca29  1  0.59762986  0.75104211  0.75478082  1
  Ca2+  Ca30  1  0.91809430  0.24478510  0.09459936  1
  Ca2+  Ca31  1  0.90726437  0.24287918  0.41557763  1
  Ca2+  Ca32  1  0.90193749  0.24575964  0.73332485  1
  Ca2+  Ca33  1  0.90205609  0.75549040  0.07825428  1
  Ca2+  Ca34  1  0.90860954  0.75019509  0.41101924  1
  Ca2+  Ca35  1  0.89505087  0.75825878  0.75251272  1
  Ca2+  Ca36  1  0.75219315  0.59623432  0.93568194  1
  Ca2+  Ca37  1  0.75766411  0.09745959  0.58809491  1
  Ca2+  Ca38  1  0.27007022  0.09689425  0.74175788  1
  Ca2+  Ca39  1  0.07208346  0.58864153  0.93751683  1
  Ca2+  Ca40  1  0.10262611  0.58582283  0.57904003  1
  Ca2+  Ca41  1  0.11034244  0.06776309  0.27853223  1
  Ca2+  Ca42  1  0.24714928  0.60217396  0.09542311  1
  Ca2+  Ca43  1  0.65015818  0.59824141  0.10089862  1
  Ca2+  Ca44  1  0.87185911  0.60456342  0.75143963  1
  Ca2+  Ca45  1  0.08982818  0.58504861  0.57964551  1
  Ca2+  Ca46  1  0.58529267  0.09013101  0.75097881  1
  Ca2+  Ca47  1  0.26854181  0.08844197  0.07773764  1
  Ca2+  Ca48  1  0.89578250  0.09164347  0.08274811  1
  Ca2+  Ca49  1  0.23568990  0.60062881  0.09901266  1
  Ca2+  Ca50  1  0.25949220  0.59712435  0.41493316  1
  Ca2+  Ca51  1  0.06552266  0.61888537  0.23300923  1
  Ca2+  Ca52  1  0.41117901  0.09221495  0.92405243  1
  Ca2+  Ca53  1  0.89041645  0.09620087  0.08908644  1
  Ca2+  Ca54  1  0.26827705  0.58954589  0.73781678  1
  Ca2+  Ca55  1  0.57816392  0.08671959  0.40732456  1
  Ca2+  Ca56  1  0.60032620  0.59472569  0.41050846  1
  Ca2+  Ca57  1  0.93801962  0.08193438  0.41670275  1
  Ca2+  Ca58  1  0.41517775  0.58795718  0.58848085  1
  Ca2+  Ca59  1  0.88581135  0.61708186  0.10141711  1
  Ca2+  Ca60  1  0.24055493  0.08970738  0.43440320  1
  Ca2+  Ca61  1  0.42620082  0.58419400  0.58409712  1
  Ca2+  Ca62  1  0.42666434  0.08563005  0.24377926  1
  Ca2+  Ca63  1  0.71281356  0.10710896  0.23078270  1
  Ca2+  Ca64  1  0.76710025  0.09523621  0.58469035  1
  Ca2+  Ca65  1  0.73668357  0.08907578  0.93321538  1
  Ca2+  Ca66  1  0.25901608  0.09710670  0.74071616  1
  Ca2+  Ca67  1  0.42624583  0.58663574  0.89791952  1
  Ca2+  Ca68  1  0.25903508  0.09230022  0.07611784  1
  Ca2+  Ca69  1  0.27984525  0.58679279  0.74132958  1
  Ca2+  Ca70  1  0.41785468  0.60198545  0.26291335  1
  Ca2+  Ca71  1  0.40509901  0.60120310  0.26220763  1
  Ca2+  Ca72  1  0.40649829  0.92577592  0.25576687  1
  Ca2+  Ca73  1  0.89530774  0.40042866  0.74886889  1
  Ca2+  Ca74  1  0.41979802  0.39725127  0.23922398  1
  Ca2+  Ca75  1  0.25729159  0.40988199  0.73506192  1
  Ca2+  Ca76  1  0.42634611  0.40756965  0.58388598  1
  Ca2+  Ca77  1  0.41722472  0.90471385  0.56973119  1
  Ca2+  Ca78  1  0.77417120  0.91435739  0.92145304  1
  Ca2+  Ca79  1  0.26009445  0.91351854  0.10122416  1
  Ca2+  Ca80  1  0.90920904  0.40818468  0.08214755  1
  Ca2+  Ca81  1  0.09142570  0.39607237  0.58066097  1
  Ca2+  Ca82  1  0.72394487  0.40597418  0.59255583  1
  Ca2+  Ca83  1  0.59069163  0.40260306  0.06921963  1
  Ca2+  Ca84  1  0.10179043  0.40640716  0.92231525  1
  Ca2+  Ca85  1  0.75217508  0.40300792  0.24529869  1
  Ca2+  Ca86  1  0.08086251  0.39583634  0.25006474  1
  Ca2+  Ca87  1  0.59164309  0.40554698  0.42946597  1
  Ca2+  Ca88  1  0.57988716  0.40589728  0.42836899  1
  Ca2+  Ca89  1  0.92217450  0.39787111  0.41495749  1
  Ca2+  Ca90  1  0.58682859  0.90817847  0.73927630  1
  Ca2+  Ca91  1  0.06396755  0.91941128  0.57294394  1
  Ca2+  Ca92  1  0.57926335  0.91010906  0.74618985  1
  Ca2+  Ca93  1  0.23926379  0.92791757  0.39378630  1
  Ca2+  Ca94  1  0.73519156  0.41347429  0.93109135  1
  Ca2+  Ca95  1  0.40814885  0.39717591  0.23790483  1
  Ca2+  Ca96  1  0.24441635  0.40272477  0.43438635  1
  Ca2+  Ca97  1  0.89649468  0.40726688  0.08150938  1
  Ca2+  Ca98  1  0.26629818  0.40689009  0.74083715  1
  Ca2+  Ca99  1  0.76537355  0.91308696  0.92702157  1
  Ca2+  Ca100  1  0.24965202  0.92767512  0.39508164  1
  Ca2+  Ca101  1  0.57762554  0.90907172  0.08649272  1
  Ca2+  Ca102  1  0.90782485  0.40046272  0.74758576  1
  Ca2+  Ca103  1  0.08938029  0.40565542  0.92288321  1
  Ca2+  Ca104  1  0.43613926  0.39908953  0.91904130  1
  Ca2+  Ca105  1  0.40826949  0.91833928  0.93062470  1
  Ca2+  Ca106  1  0.92188020  0.90097491  0.41160330  1
  Ca2+  Ca107  1  0.24706292  0.90836794  0.75298321  1
  Mn3.34+  Mn108  1  0.08440120  0.33024473  0.08751480  1
  Mn3.34+  Mn109  1  0.08495801  0.32891773  0.41678916  1
  Mn3.34+  Mn110  1  0.08304156  0.32325087  0.75192844  1
  Mn3.34+  Mn111  1  0.07826539  0.83564999  0.08924496  1
  Mn3.34+  Mn112  1  0.08576614  0.83987533  0.41520254  1
  Mn3.34+  Mn113  1  0.08014573  0.84044226  0.74962769  1
  Mn3.34+  Mn114  1  0.41769991  0.32714304  0.07989808  1
  Mn3.34+  Mn115  1  0.41742263  0.33093580  0.41836380  1
  Mn3.34+  Mn116  1  0.42594172  0.33199618  0.75255093  1
  Mn3.34+  Mn117  1  0.41863178  0.83953662  0.08625255  1
  Mn3.34+  Mn118  1  0.42122742  0.83864237  0.41761619  1
  Mn3.34+  Mn119  1  0.41575649  0.83461648  0.74879650  1
  Mn3.34+  Mn120  1  0.74607462  0.32847751  0.08643732  1
  Mn3.34+  Mn121  1  0.75112000  0.33364012  0.41569227  1
  Mn3.34+  Mn122  1  0.73620888  0.33554754  0.75533954  1
  Mn3.34+  Mn123  1  0.75504896  0.83413117  0.09274826  1
  Mn3.34+  Mn124  1  0.75148428  0.82765328  0.41635177  1
  Mn3.34+  Mn125  1  0.75387510  0.83737673  0.74948811  1
  Mn3.34+  Mn126  1  0.24830663  0.32408213  0.25018968  1
  Mn3.34+  Mn127  1  0.25265133  0.33058220  0.58371656  1
  Mn3.34+  Mn128  1  0.25386769  0.32880417  0.91633396  1
  Mn3.34+  Mn129  1  0.24803831  0.83521685  0.24892989  1
  Mn3.34+  Mn130  1  0.24939632  0.83679370  0.57940915  1
  Mn3.34+  Mn131  1  0.24442869  0.83811852  0.92219701  1
  Mn3.34+  Mn132  1  0.58687946  0.32781549  0.24814224  1
  Mn3.34+  Mn133  1  0.57898012  0.32888128  0.58594485  1
  Mn3.34+  Mn134  1  0.58390105  0.32392592  0.91557995  1
  Mn3.34+  Mn135  1  0.58424891  0.83748082  0.25184122  1
  Mn3.34+  Mn136  1  0.58779550  0.83610623  0.57423952  1
  Mn3.34+  Mn137  1  0.58255741  0.83908971  0.91612379  1
  Mn3.34+  Mn138  1  0.91401216  0.32688249  0.25092806  1
  Mn3.34+  Mn139  1  0.91718407  0.32872310  0.57656792  1
  Mn3.34+  Mn140  1  0.91437558  0.32684470  0.91422158  1
  Mn3.34+  Mn141  1  0.91897614  0.83778834  0.24500967  1
  Mn3.34+  Mn142  1  0.91226041  0.84323035  0.58281797  1
  Mn3.34+  Mn143  1  0.92568014  0.84157654  0.91625504  1
  Mn3.34+  Mn144  1  0.58832244  0.67568656  0.25448126  1
  Mn3.34+  Mn145  1  0.07457091  0.16175789  0.74806956  1
  Mn3.34+  Mn146  1  0.08520483  0.16209701  0.08983702  1
  Mn3.34+  Mn147  1  0.25335167  0.67082658  0.57882126  1
  Mn3.34+  Mn148  1  0.58364531  0.16418792  0.58403110  1
  Mn3.34+  Mn149  1  0.07405530  0.66561989  0.41265449  1
  Mn3.34+  Mn150  1  0.59027770  0.66269286  0.90973266  1
  Mn3.34+  Mn151  1  0.07746325  0.67780258  0.08110200  1
  Mn3.34+  Mn152  1  0.91317762  0.16034468  0.91107734  1
  Mn3.34+  Mn153  1  0.25981233  0.66879806  0.91304650  1
  Mn3.34+  Mn154  1  0.74977648  0.16119043  0.75777780  1
  Mn3.34+  Mn155  1  0.08061332  0.67554037  0.74691599  1
  Mn3.34+  Mn156  1  0.08755708  0.16821324  0.74706912  1
  Mn3.34+  Mn157  1  0.58748165  0.66360534  0.58335605  1
  Mn3.34+  Mn158  1  0.92507287  0.16345366  0.91156614  1
  Mn3.34+  Mn159  1  0.75027660  0.16403674  0.41362323  1
  Mn3.34+  Mn160  1  0.43455309  0.66794330  0.08607109  1
  Mn3.34+  Mn161  1  0.08486471  0.66998824  0.41207756  1
  Mn3.34+  Mn162  1  0.42480795  0.16053865  0.08545029  1
  Mn3.34+  Mn163  1  0.91243977  0.67138299  0.57957823  1
  Mn3.34+  Mn164  1  0.08435043  0.15972216  0.41653246  1
  Mn3.34+  Mn165  1  0.41885661  0.16115673  0.41816667  1
  Mn3.34+  Mn166  1  0.42192521  0.67767999  0.42326012  1
  Mn3.34+  Mn167  1  0.06914799  0.67173902  0.74884889  1
  Mn3.34+  Mn168  1  0.76328835  0.66461885  0.41090648  1
  Mn3.34+  Mn169  1  0.57755253  0.66741209  0.90780860  1
  Mn3.34+  Mn170  1  0.58298099  0.17024075  0.91671949  1
  Mn3.34+  Mn171  1  0.91623078  0.16103139  0.25250354  1
  Mn3.34+  Mn172  1  0.24838114  0.66459848  0.91190754  1
  Mn3.34+  Mn173  1  0.59632099  0.65757040  0.58422405  1
  Mn3.34+  Mn174  1  0.42372982  0.16684681  0.75120201  1
  Mn3.34+  Mn175  1  0.91467307  0.67389487  0.91680808  1
  Mn3.34+  Mn176  1  0.24950913  0.16357481  0.24653984  1
  Mn3.34+  Mn177  1  0.92055239  0.16693999  0.57488127  1
  Mn3.34+  Mn178  1  0.41074383  0.15477662  0.42003280  1
  Mn3.34+  Mn179  1  0.42301981  0.67198909  0.08352314  1
  Mn3.34+  Mn180  1  0.90556979  0.50768289  0.91401385  1
  Mn3.34+  Mn181  1  0.89454154  0.50389276  0.91058641  1
  Mn3.34+  Mn182  1  0.90400521  0.50171986  0.56787283  1
  Mn3.34+  Mn183  1  0.74267570  -0.01033007  0.41200992  1
  Mn3.34+  Mn184  1  0.57648056  -0.00077845  0.25825934  1
  Mn3.34+  Mn185  1  0.07519452  0.49695204  0.41515790  1
  Mn3.34+  Mn186  1  0.23424883  0.49413205  0.25244289  1
  Mn3.34+  Mn187  1  0.75138512  -0.00450063  0.41518220  1
  Mn3.34+  Mn188  1  0.58383818  0.49865267  0.92145494  1
  Mn3.34+  Mn189  1  0.74641207  -0.00505189  0.07688777  1
  Mn3.34+  Mn190  1  0.73231686  0.50150165  0.73829509  1
  Mn3.34+  Mn191  1  0.08246047  0.50595782  0.75318210  1
  Mn3.34+  Mn192  1  0.07232448  0.50099727  0.75330906  1
  Mn3.34+  Mn193  1  0.76171732  0.00092348  0.73600451  1
  Mn3.34+  Mn194  1  0.75145662  0.50292288  0.42712337  1
  Mn3.34+  Mn195  1  0.41979844  0.00188164  0.74597101  1
  Mn3.34+  Mn196  1  0.90084743  0.51122543  0.26071428  1
  Mn3.34+  Mn197  1  0.24767541  -0.00220686  0.59646379  1
  Mn3.34+  Mn198  1  0.24794203  0.00082982  0.92367335  1
  Mn3.34+  Mn199  1  0.60077368  0.50027028  0.24372288  1
  Mn3.34+  Mn200  1  0.41792310  0.50170626  0.41852215  1
  Mn3.34+  Mn201  1  0.90890576  0.50540609  0.25599890  1
  Mn3.34+  Mn202  1  0.42154020  0.50248309  0.07153947  1
  Mn3.34+  Mn203  1  0.92658163  -0.00220249  0.26257091  1
  Mn3.34+  Mn204  1  0.07467650  -0.00435446  0.07202636  1
  Mn3.34+  Mn205  1  0.58219948  0.00208358  0.58562395  1
  Mn3.34+  Mn206  1  0.24670542  0.49798888  0.25156657  1
  Mn3.34+  Mn207  1  0.58933724  0.50343049  0.24381708  1
  Mn3.34+  Mn208  1  0.89927623  0.50229566  0.57827523  1
  Mn3.34+  Mn209  1  0.08690561  0.49772853  0.08277105  1
  Mn3.34+  Mn210  1  0.26452982  0.49588636  0.93043893  1
  Mn3.34+  Mn211  1  0.57550240  0.00396562  0.92572329  1
  Mn3.34+  Mn212  1  0.06299899  -0.00285765  0.74889583  1
  Mn3.34+  Mn213  1  0.06624746  0.00002160  0.07837566  1
  Mn3.34+  Mn214  1  0.43723343  0.49350845  0.74234184  1
  Mn3.34+  Mn215  1  0.05008499  0.00013358  0.74675541  1
  O2-  O216  1  -0.00253030  0.14429130  0.00420510  1
  O2-  O217  1  0.00401287  0.15994283  0.33181127  1
  O2-  O218  1  0.00185106  0.17475030  0.66284732  1
  O2-  O219  1  -0.00203976  0.66017653  0.00111075  1
  O2-  O220  1  -0.00066943  0.67823442  0.32904120  1
  O2-  O221  1  0.00601560  0.64276387  0.65767363  1
  O2-  O222  1  0.33982341  0.16015103  0.00563757  1
  O2-  O223  1  0.33338314  0.14535611  0.33088270  1
  O2-  O224  1  0.34195891  0.15962748  0.67259524  1
  O2-  O225  1  0.33721063  0.64019979  -0.00143584  1
  O2-  O226  1  0.34186567  0.66581637  0.34098504  1
  O2-  O227  1  0.33588272  0.65100009  0.65471542  1
  O2-  O228  1  0.66646067  0.18247086  -0.01167984  1
  O2-  O229  1  0.66475139  0.15413134  0.34480811  1
  O2-  O230  1  0.67288913  0.15202530  0.66642198  1
  O2-  O231  1  0.66178308  0.65931800  -0.00524915  1
  O2-  O232  1  0.66505882  0.66665171  0.33805990  1
  O2-  O233  1  0.66244591  0.69288173  0.66110604  1
  O2-  O234  1  0.17121273  0.15467468  0.01631931  1
  O2-  O235  1  0.16324987  0.15863124  0.32857863  1
  O2-  O236  1  0.16787717  0.15989990  0.66892694  1
  O2-  O237  1  0.16674920  0.65840973  -0.00424290  1
  O2-  O238  1  0.16240817  0.64630915  0.33469605  1
  O2-  O239  1  0.16960229  0.64464360  0.66852421  1
  O2-  O240  1  0.49652146  0.18283896  -0.00196963  1
  O2-  O241  1  0.49541237  0.15240701  0.33556560  1
  O2-  O242  1  0.51045631  0.15527846  0.67330212  1
  O2-  O243  1  0.50099704  0.64356753  -0.00490364  1
  O2-  O244  1  0.50442476  0.66001143  0.34158497  1
  O2-  O245  1  0.49905835  0.65836193  0.65414554  1
  O2-  O246  1  0.83118579  0.16153688  -0.00136037  1
  O2-  O247  1  0.83771798  0.14736126  0.33751694  1
  O2-  O248  1  0.82931478  0.16480468  0.66928573  1
  O2-  O249  1  0.83347567  0.66376398  -0.00865093  1
  O2-  O250  1  0.83494234  0.66878956  0.33322655  1
  O2-  O251  1  0.83853798  0.66861336  0.65991819  1
  O2-  O252  1  -0.00293791  0.35771098  -0.00228690  1
  O2-  O253  1  0.00170398  0.33851473  0.33081144  1
  O2-  O254  1  -0.00359644  0.34093564  0.67021534  1
  O2-  O255  1  0.00213347  0.82600405  0.00327970  1
  O2-  O256  1  0.00119692  0.82952268  0.33257510  1
  O2-  O257  1  0.00636281  0.84867253  0.65900832  1
  O2-  O258  1  0.34426282  0.33897166  -0.01057595  1
  O2-  O259  1  0.33604448  0.35127193  0.33434482  1
  O2-  O260  1  0.33966777  0.34765263  0.66367610  1
  O2-  O261  1  0.32753881  0.85526646  0.00656329  1
  O2-  O262  1  0.33681630  0.83920390  0.33427688  1
  O2-  O263  1  0.33506559  0.85236445  0.66441881  1
  O2-  O264  1  0.67112288  0.32707460  -0.00186774  1
  O2-  O265  1  0.66486067  0.35422262  0.33368757  1
  O2-  O266  1  0.66670398  0.32726369  0.66420443  1
  O2-  O267  1  0.66907254  0.85420598  -0.00691056  1
  O2-  O268  1  0.66585790  0.82240353  0.33056712  1
  O2-  O269  1  0.66047256  0.84162068  0.67190879  1
  O2-  O270  1  0.16811559  0.34346914  -0.00000777  1
  O2-  O271  1  0.17075939  0.34257176  0.33808927  1
  O2-  O272  1  0.17049032  0.33951171  0.67473656  1
  O2-  O273  1  0.16398047  0.81834508  0.00873528  1
  O2-  O274  1  0.17452036  0.84710251  0.33768077  1
  O2-  O275  1  0.16673775  0.85719604  0.66237884  1
  O2-  O276  1  0.50920257  0.32774966  0.00721324  1
  O2-  O277  1  0.50433514  0.35690942  0.32827672  1
  O2-  O278  1  0.49986484  0.34241792  0.66534623  1
  O2-  O279  1  0.49770068  0.85153656  -0.00374338  1
  O2-  O280  1  0.49760230  0.81028967  0.33327455  1
  O2-  O281  1  0.50174465  0.83738031  0.66625053  1
  O2-  O282  1  0.83167577  0.33634464  -0.00000950  1
  O2-  O283  1  0.83271751  0.34843636  0.33188305  1
  O2-  O284  1  0.82466175  0.34469316  0.66661723  1
  O2-  O285  1  0.83400596  0.84573944  0.00239955  1
  O2-  O286  1  0.84257469  0.82739032  0.33478689  1
  O2-  O287  1  0.83336619  0.83742690  0.66680934  1
  O2-  O288  1  -0.00544677  0.17520519  0.16386064  1
  O2-  O289  1  0.00031625  0.18377167  0.49103959  1
  O2-  O290  1  0.00068990  0.19121664  0.82686792  1
  O2-  O291  1  0.00309048  0.69270431  0.15951561  1
  O2-  O292  1  0.00747601  0.68126897  0.50236172  1
  O2-  O293  1  0.00755091  0.68876069  0.84325530  1
  O2-  O294  1  0.32999483  0.18178816  0.16065211  1
  O2-  O295  1  0.32932417  0.17467252  0.49219917  1
  O2-  O296  1  0.33544579  0.17246277  0.82328276  1
  O2-  O297  1  0.33306818  0.67244746  0.16251104  1
  O2-  O298  1  0.33485225  0.68766435  0.49941818  1
  O2-  O299  1  0.33203767  0.66953682  0.82374971  1
  O2-  O300  1  0.68677270  0.18719131  0.16457927  1
  O2-  O301  1  0.67318293  0.17907864  0.50600668  1
  O2-  O302  1  0.66358636  0.18559920  0.82686978  1
  O2-  O303  1  0.65656072  0.68772393  0.17033314  1
  O2-  O304  1  0.66786389  0.67524201  0.49990431  1
  O2-  O305  1  0.67153221  0.67792601  0.83657881  1
  O2-  O306  1  0.16668914  0.18535005  0.16840764  1
  O2-  O307  1  0.16521919  0.18546199  0.47978897  1
  O2-  O308  1  0.17002657  0.18131535  0.82168344  1
  O2-  O309  1  0.16717089  0.68284706  0.15194009  1
  O2-  O310  1  0.16289510  0.67112191  0.50214065  1
  O2-  O311  1  0.17125378  0.68146799  0.82415245  1
  O2-  O312  1  0.49335065  0.17976202  0.16556736  1
  O2-  O313  1  0.50321543  0.17544562  0.49672594  1
  O2-  O314  1  0.50005703  0.18228120  0.83614427  1
  O2-  O315  1  0.48895907  0.68923289  0.18993687  1
  O2-  O316  1  0.50635157  0.69475281  0.50335646  1
  O2-  O317  1  0.49450920  0.68119403  0.84189938  1
  O2-  O318  1  0.84059926  0.17058504  0.16785072  1
  O2-  O319  1  0.82845601  0.17942135  0.50226491  1
  O2-  O320  1  0.83262365  0.19157805  0.83295638  1
  O2-  O321  1  0.83464458  0.69249297  0.16599521  1
  O2-  O322  1  0.83722209  0.68247201  0.49824283  1
  O2-  O323  1  0.83931972  0.67689422  0.83510321  1
  O2-  O324  1  -0.01046973  0.32441605  0.16089056  1
  O2-  O325  1  0.00377452  0.31188133  0.49522408  1
  O2-  O326  1  -0.00384747  0.33116057  0.83071851  1
  O2-  O327  1  -0.00165283  0.81144981  0.16758463  1
  O2-  O328  1  0.00219197  0.82888110  0.49347867  1
  O2-  O329  1  -0.00380934  0.81887800  0.82626865  1
  O2-  O330  1  0.33857852  0.31651348  0.16876964  1
  O2-  O331  1  0.33152832  0.32613331  0.50077482  1
  O2-  O332  1  0.32172436  0.32761337  0.81927742  1
  O2-  O333  1  0.33259589  0.82500311  0.16543953  1
  O2-  O334  1  0.33737158  0.81410396  0.49965746  1
  O2-  O335  1  0.33556080  0.83524957  0.83280776  1
  O2-  O336  1  0.66612451  0.31511686  0.16656588  1
  O2-  O337  1  0.66378266  0.32252553  0.49574744  1
  O2-  O338  1  0.66448159  0.30684567  0.83574692  1
  O2-  O339  1  0.66197006  0.82395695  0.16463732  1
  O2-  O340  1  0.67136861  0.81012254  0.50576532  1
  O2-  O341  1  0.66167273  0.83209568  0.83069899  1
  O2-  O342  1  0.15866863  0.31516239  0.17763516  1
  O2-  O343  1  0.16755136  0.31816807  0.50181534  1
  O2-  O344  1  0.15765234  0.31762006  0.84258641  1
  O2-  O345  1  0.16691042  0.82155316  0.16751321  1
  O2-  O346  1  0.16999792  0.82290561  0.49879200  1
  O2-  O347  1  0.16991965  0.81986476  0.83145226  1
  O2-  O348  1  0.49398114  0.31878466  0.17505827  1
  O2-  O349  1  0.50911870  0.32178109  0.48860143  1
  O2-  O350  1  0.49153713  0.31355281  0.84519123  1
  O2-  O351  1  0.50145210  0.81643421  0.16332624  1
  O2-  O352  1  0.49729240  0.81762369  0.50233515  1
  O2-  O353  1  0.50661020  0.82559311  0.82512826  1
  O2-  O354  1  0.83100805  0.31448151  0.16444497  1
  O2-  O355  1  0.83477003  0.32488457  0.49334030  1
  O2-  O356  1  0.83469510  0.31693091  0.82158288  1
  O2-  O357  1  0.83373385  0.81702604  0.17206163  1
  O2-  O358  1  0.83985024  0.81779290  0.49656177  1
  O2-  O359  1  0.82468828  0.83354927  0.84328420  1
  O2-  O360  1  0.09190187  0.07646307  0.12867430  1
  O2-  O361  1  0.08419615  0.08422095  0.43721997  1
  O2-  O362  1  0.09104810  0.07908626  0.78572588  1
  O2-  O363  1  0.10248027  0.58172244  0.10614957  1
  O2-  O364  1  0.08407739  0.58023876  0.44630371  1
  O2-  O365  1  0.07033868  0.58411842  0.79426928  1
  O2-  O366  1  0.40337569  0.08102889  0.10838152  1
  O2-  O367  1  0.42566391  0.07595795  0.44217304  1
  O2-  O368  1  0.41659048  0.08129188  0.78086093  1
  O2-  O369  1  0.42505406  0.58132400  0.13044094  1
  O2-  O370  1  0.41204639  0.58494217  0.44985153  1
  O2-  O371  1  0.41423496  0.57376717  0.76530987  1
  O2-  O372  1  0.76063647  0.06949715  0.11416116  1
  O2-  O373  1  0.74555972  0.07647388  0.45265019  1
  O2-  O374  1  0.73898172  0.07211035  0.78952934  1
  O2-  O375  1  0.77103504  0.56611878  0.11163365  1
  O2-  O376  1  0.74191403  0.58331900  0.43535557  1
  O2-  O377  1  0.77764262  0.54905137  0.82168098  1
  O2-  O378  1  0.24645074  0.08417492  0.21192168  1
  O2-  O379  1  0.25064353  0.07358693  0.57384691  1
  O2-  O380  1  0.26314476  0.07098928  0.87414128  1
  O2-  O381  1  0.26270978  0.57933050  0.22560570  1
  O2-  O382  1  0.25168339  0.58289030  0.55359890  1
  O2-  O383  1  0.24532101  0.57686358  0.87316791  1
  O2-  O384  1  0.57916421  0.06698020  0.21029661  1
  O2-  O385  1  0.60871612  0.08024647  0.55362372  1
  O2-  O386  1  0.58672568  0.08187349  0.89276415  1
  O2-  O387  1  0.56965022  0.58582444  0.22513022  1
  O2-  O388  1  0.56026562  0.58167030  0.54184479  1
  O2-  O389  1  0.58229665  0.57903437  0.88278363  1
  O2-  O390  1  0.92244679  0.07480969  0.21817554  1
  O2-  O391  1  0.89987064  0.08777068  0.55005273  1
  O2-  O392  1  0.89469816  0.08206469  0.88899534  1
  O2-  O393  1  0.94171525  0.58172533  0.21540410  1
  O2-  O394  1  0.93505381  0.58374729  0.55186256  1
  O2-  O395  1  0.92986162  0.58746732  0.88981304  1
  O2-  O396  1  0.06991127  0.41684631  0.11600474  1
  O2-  O397  1  0.07974280  0.41677911  0.44955558  1
  O2-  O398  1  0.08955335  0.41908062  0.77644813  1
  O2-  O399  1  0.10378478  0.91963945  0.10675265  1
  O2-  O400  1  0.10121125  0.91966678  0.43649773  1
  O2-  O401  1  0.08948837  0.92151854  0.78836546  1
  O2-  O402  1  0.43823514  0.41992166  0.11011098  1
  O2-  O403  1  0.43227456  0.41955850  0.44547287  1
  O2-  O404  1  0.41239664  0.41601522  0.78297405  1
  O2-  O405  1  0.42047066  0.91860559  0.11301630  1
  O2-  O406  1  0.39243428  0.91788125  0.43509718  1
  O2-  O407  1  0.43776990  0.92242195  0.77479180  1
  O2-  O408  1  0.75754839  0.41208204  0.11020707  1
  O2-  O409  1  0.73460572  0.42210547  0.45734623  1
  O2-  O410  1  0.76326319  0.42342953  0.78833659  1
  O2-  O411  1  0.73470855  0.91933720  0.10511867  1
  O2-  O412  1  0.76115291  0.91028028  0.43401816  1
  O2-  O413  1  0.73666321  0.92817541  0.78718289  1
  O2-  O414  1  0.25872714  0.41346706  0.22068186  1
  O2-  O415  1  0.23895968  0.41700528  0.57496278  1
  O2-  O416  1  0.23386463  0.41995082  0.87547737  1
  O2-  O417  1  0.26185542  0.91948143  0.23988403  1
  O2-  O418  1  0.25959060  0.92351360  0.54460426  1
  O2-  O419  1  0.25195813  0.92340571  0.89259103  1
  O2-  O420  1  0.59166216  0.41850320  0.20789880  1
  O2-  O421  1  0.58119124  0.41223029  0.56070247  1
  O2-  O422  1  0.58937523  0.41576085  0.91182397  1
  O2-  O423  1  0.56748027  0.92481473  0.22194590  1
  O2-  O424  1  0.56110639  0.92230547  0.57335338  1
  O2-  O425  1  0.57878522  0.92641501  0.88191318  1
  O2-  O426  1  0.90615992  0.42304475  0.21469127  1
  O2-  O427  1  0.92247433  0.41614790  0.55485148  1
  O2-  O428  1  0.91072437  0.42152317  0.87794724  1
  O2-  O429  1  0.92080828  0.92152230  0.23645614  1
  O2-  O430  1  0.91959542  0.91867742  0.54668421  1
  O2-  O431  1  0.90961982  0.92028378  0.90171617  1
  O2-  O432  1  -0.03298064  0.02156237  0.03097268  1
  O2-  O433  1  0.00490813  0.00850335  0.33290346  1
  O2-  O434  1  -0.00190434  -0.00814370  0.64954436  1
  O2-  O435  1  -0.00130449  0.49202023  -0.01028754  1
  O2-  O436  1  0.00808610  0.48515798  0.31723492  1
  O2-  O437  1  0.01238004  0.49636594  0.64505951  1
  O2-  O438  1  0.32684930  0.00939527  -0.00081571  1
  O2-  O439  1  0.32588946  0.00436437  0.33934131  1
  O2-  O440  1  0.31446235  -0.00008833  0.69803569  1
  O2-  O441  1  0.30907277  0.52640610  0.03203516  1
  O2-  O442  1  0.34005242  0.51313478  0.32473184  1
  O2-  O443  1  0.31212049  0.49636441  0.71089624  1
  O2-  O444  1  0.67009435  -0.00427780  -0.01241825  1
  O2-  O445  1  0.65523427  0.01356899  0.33865798  1
  O2-  O446  1  0.66246949  -0.00426350  0.67858571  1
  O2-  O447  1  0.66603842  0.50351250  -0.00688032  1
  O2-  O448  1  0.65057282  0.49249938  0.35391786  1
  O2-  O449  1  0.68037648  0.49028603  0.64633506  1
  O2-  O450  1  0.17522332  0.01205362  0.01491349  1
  O2-  O451  1  0.18917947  0.01348341  0.36078889  1
  O2-  O452  1  0.16082694  -0.00349027  0.67525662  1
  O2-  O453  1  0.15076720  0.49610095  -0.02491154  1
  O2-  O454  1  0.18195591  0.49608136  0.35644444  1
  O2-  O455  1  0.16442522  0.52666299  0.67379864  1
  O2-  O456  1  0.47748616  0.00299860  -0.03119530  1
  O2-  O457  1  0.48445457  0.00499902  0.31129953  1
  O2-  O458  1  0.51528080  0.00623333  0.68635864  1
  O2-  O459  1  0.47021468  0.49714336  -0.04141260  1
  O2-  O460  1  0.49092074  0.50000383  0.31316645  1
  O2-  O461  1  0.45896732  0.49956068  0.62665660  1
  O2-  O462  1  0.81905444  0.00220121  -0.00347182  1
  O2-  O463  1  0.84495846  0.00672214  0.34549534  1
  O2-  O464  1  0.82050321  0.01769635  0.65138511  1
  O2-  O465  1  0.83383066  0.47340676  -0.00042342  1
  O2-  O466  1  0.82719650  0.48055070  0.34135725  1
  O2-  O467  1  0.84968947  0.49718040  0.68674112  1
  O2-  O468  1  0.25521901  0.25263580  0.60576535  1
  O2-  O469  1  0.75208926  0.75920590  0.74732648  1
  O2-  O470  1  0.41839272  0.25050945  0.72837788  1
  O2-  O471  1  0.58412703  0.25318719  0.27836140  1
  O2-  O472  1  0.24581405  0.75123716  0.61236748  1
  O2-  O473  1  0.93113704  0.75170301  0.60367368  1
  O2-  O474  1  0.93339455  0.24290956  0.94799341  1
  O2-  O475  1  0.90185441  0.25047764  0.59846054  1
  O2-  O476  1  0.40941793  0.75270254  0.04798889  1
  O2-  O477  1  0.41484036  0.24470849  0.39183840  1
  O2-  O478  1  0.07497099  0.24732975  0.06169209  1
  O2-  O479  1  0.25510840  0.25102082  0.93634399  1
  O2-  O480  1  0.57783982  0.75173456  0.93887758  1
  O2-  O481  1  0.91622667  0.24450836  0.27371309  1
  O2-  O482  1  0.90953263  0.75470341  0.93077526  1
  O2-  O483  1  0.10257325  0.75292824  0.39988405  1
  O2-  O484  1  0.40431036  0.75643895  0.73763006  1
  O2-  O485  1  0.25907597  0.24644935  0.28193298  1
  O2-  O486  1  0.75152636  0.24950124  0.39275148  1
  O2-  O487  1  0.75213525  0.74717508  0.40278709  1
  O2-  O488  1  0.27118042  0.75168682  0.93488964  1
  O2-  O489  1  0.74844868  0.75823439  0.06019849  1
  O2-  O490  1  0.09462630  0.75666443  0.71632511  1
  O2-  O491  1  0.24875799  0.75511638  0.26688278  1
  O2-  O492  1  0.57905971  0.24652057  0.60198387  1
