# generated using pymatgen
data_Ca108Mn108O277
_symmetry_space_group_name_H-M   'P 1'
_cell_length_a   16.02651738
_cell_length_b   22.30558631
_cell_length_c   16.38798136
_cell_angle_alpha   89.99645074
_cell_angle_beta   89.99650870
_cell_angle_gamma   89.99843680
_symmetry_Int_Tables_number   1
_chemical_formula_structural   Ca108Mn108O277
_chemical_formula_sum   'Ca108 Mn108 O277'
_cell_volume   5858.38975551
_cell_formula_units_Z   1
loop_
 _symmetry_equiv_pos_site_id
 _symmetry_equiv_pos_as_xyz
  1  'x, y, z'
loop_
 _atom_type_symbol
 _atom_type_oxidation_number
  Ca2+  2.0
  Mn3.34+  3.34
  O2-  -2.0
loop_
 _atom_site_type_symbol
 _atom_site_label
 _atom_site_symmetry_multiplicity
 _atom_site_fract_x
 _atom_site_fract_y
 _atom_site_fract_z
 _atom_site_occupancy
  Ca2+  Ca0  1  0.09570385  0.25523888  0.25545437  1
  Ca2+  Ca1  1  0.09450140  0.27096280  0.58968397  1
  Ca2+  Ca2  1  0.07055604  0.26116051  0.91600565  1
  Ca2+  Ca3  1  0.08058111  0.74180487  0.25864420  1
  Ca2+  Ca4  1  0.08548057  0.74515202  0.58152942  1
  Ca2+  Ca5  1  0.07480831  0.74896470  0.91410771  1
  Ca2+  Ca6  1  0.43633371  0.24635100  0.23546191  1
  Ca2+  Ca7  1  0.41997374  0.24622645  0.57936971  1
  Ca2+  Ca8  1  0.43120384  0.25188148  0.93342309  1
  Ca2+  Ca9  1  0.41909360  0.75155354  0.24817016  1
  Ca2+  Ca10  1  0.41390565  0.75368188  0.57305709  1
  Ca2+  Ca11  1  0.41678977  0.75292994  0.92698034  1
  Ca2+  Ca12  1  0.72645346  0.24777526  0.23026088  1
  Ca2+  Ca13  1  0.72865859  0.25444623  0.56886083  1
  Ca2+  Ca14  1  0.73736413  0.24605420  0.93537681  1
  Ca2+  Ca15  1  0.74905962  0.74372845  0.25899357  1
  Ca2+  Ca16  1  0.74668015  0.74556454  0.55713906  1
  Ca2+  Ca17  1  0.75854730  0.75177265  0.93050866  1
  Ca2+  Ca18  1  0.28224009  0.24282158  0.08173750  1
  Ca2+  Ca19  1  0.26631860  0.25012326  0.41726829  1
  Ca2+  Ca20  1  0.25324096  0.26080842  0.74607457  1
  Ca2+  Ca21  1  0.26040692  0.75282478  0.09013745  1
  Ca2+  Ca22  1  0.24686016  0.74555971  0.42103591  1
  Ca2+  Ca23  1  0.23843331  0.75493394  0.74527265  1
  Ca2+  Ca24  1  0.57851560  0.24488862  0.07995093  1
  Ca2+  Ca25  1  0.57641687  0.24448986  0.40454276  1
  Ca2+  Ca26  1  0.56865074  0.24193130  0.76454515  1
  Ca2+  Ca27  1  0.58591486  0.74342466  0.09591127  1
  Ca2+  Ca28  1  0.59111492  0.75034766  0.41782215  1
  Ca2+  Ca29  1  0.57219467  0.75732085  0.74183634  1
  Ca2+  Ca30  1  0.88772138  0.24668879  0.06660104  1
  Ca2+  Ca31  1  0.90251546  0.25781684  0.40571328  1
  Ca2+  Ca32  1  0.92488752  0.25790189  0.77427787  1
  Ca2+  Ca33  1  0.90665920  0.74487396  0.08838440  1
  Ca2+  Ca34  1  0.89589334  0.72782490  0.41391323  1
  Ca2+  Ca35  1  0.93293851  0.75485650  0.74504473  1
  Ca2+  Ca36  1  0.91503101  0.58305083  0.08881472  1
  Ca2+  Ca37  1  0.09701399  0.09041889  0.92399502  1
  Ca2+  Ca38  1  0.41977827  0.59432663  0.25117544  1
  Ca2+  Ca39  1  0.58669672  0.59229406  0.42779005  1
  Ca2+  Ca40  1  0.91933464  0.58548717  0.73998468  1
  Ca2+  Ca41  1  0.57977673  0.10719588  0.42755903  1
  Ca2+  Ca42  1  0.73357899  0.11607173  0.22897572  1
  Ca2+  Ca43  1  0.07224765  0.58605669  0.57452782  1
  Ca2+  Ca44  1  0.41464207  0.58573012  0.93132892  1
  Ca2+  Ca45  1  0.09118300  0.09165713  0.26546388  1
  Ca2+  Ca46  1  0.42425737  0.58550691  0.58327736  1
  Ca2+  Ca47  1  0.92605860  0.09623407  0.77162864  1
  Ca2+  Ca48  1  0.08315954  0.58569226  0.57501190  1
  Ca2+  Ca49  1  0.43869557  0.10372294  0.58307839  1
  Ca2+  Ca50  1  0.58084996  0.11070920  0.08482099  1
  Ca2+  Ca51  1  0.58449153  0.59072070  0.07582660  1
  Ca2+  Ca52  1  0.28065881  0.08379979  0.40968468  1
  Ca2+  Ca53  1  0.09290562  0.58359740  0.91915221  1
  Ca2+  Ca54  1  0.73721249  0.10951543  0.93731099  1
  Ca2+  Ca55  1  0.10270461  0.09283359  0.56980789  1
  Ca2+  Ca56  1  0.59565098  0.59487899  0.42337813  1
  Ca2+  Ca57  1  0.91323128  0.09649609  0.77143495  1
  Ca2+  Ca58  1  0.91531237  0.09033792  0.39471887  1
  Ca2+  Ca59  1  0.04858733  0.56769472  0.28835212  1
  Ca2+  Ca60  1  0.90254301  0.09026820  0.39505738  1
  Ca2+  Ca61  1  0.77326342  0.58432271  0.26528688  1
  Ca2+  Ca62  1  0.24074601  0.58801930  0.41144551  1
  Ca2+  Ca63  1  0.88553723  0.10621938  0.07055839  1
  Ca2+  Ca64  1  0.76354028  0.58595590  0.26849814  1
  Ca2+  Ca65  1  0.59532453  0.57281966  0.73222628  1
  Ca2+  Ca66  1  0.60722804  0.57099270  0.73529056  1
  Ca2+  Ca67  1  0.76054712  0.59227145  0.57437775  1
  Ca2+  Ca68  1  0.42925134  0.11249600  0.23695958  1
  Ca2+  Ca69  1  0.09040696  0.09510330  0.56774366  1
  Ca2+  Ca70  1  0.43340133  0.11027304  0.92347039  1
  Ca2+  Ca71  1  0.25374332  0.58764979  0.07260096  1
  Ca2+  Ca72  1  0.90190153  0.90499065  0.07571105  1
  Ca2+  Ca73  1  0.58011229  0.40325270  0.08630790  1
  Ca2+  Ca74  1  0.91326104  0.90508376  0.07492697  1
  Ca2+  Ca75  1  0.57324941  0.90939463  0.42044775  1
  Ca2+  Ca76  1  0.59127036  0.40500575  0.74069854  1
  Ca2+  Ca77  1  0.75128718  0.90500727  0.25240257  1
  Ca2+  Ca78  1  0.27389239  0.91641562  0.41894232  1
  Ca2+  Ca79  1  0.42261360  0.40353751  0.58907504  1
  Ca2+  Ca80  1  0.58226049  0.40488339  0.42523039  1
  Ca2+  Ca81  1  0.74107424  0.89507768  0.58468803  1
  Ca2+  Ca82  1  0.42050926  0.39675692  0.24603956  1
  Ca2+  Ca83  1  0.57735303  0.90497042  0.74282198  1
  Ca2+  Ca84  1  0.26258573  0.91299365  0.41550860  1
  Ca2+  Ca85  1  0.39505913  0.91080549  0.91608939  1
  Ca2+  Ca86  1  0.06914985  0.41374562  0.25344499  1
  Ca2+  Ca87  1  0.91611281  0.42738322  0.40084957  1
  Ca2+  Ca88  1  0.91763648  0.40316652  0.74896854  1
  Ca2+  Ca89  1  0.08129428  0.41445903  0.25303793  1
  Ca2+  Ca90  1  0.57209310  0.90293638  0.07836067  1
  Ca2+  Ca91  1  0.07903516  0.91080668  0.25238145  1
  Ca2+  Ca92  1  0.41086295  0.40412732  0.58919435  1
  Ca2+  Ca93  1  0.92531898  0.42960021  0.40454845  1
  Ca2+  Ca94  1  0.09058332  0.91076526  0.25241671  1
  Ca2+  Ca95  1  0.74840280  0.40353163  0.90823310  1
  Ca2+  Ca96  1  0.08411660  0.90157914  0.58784257  1
  Ca2+  Ca97  1  0.75528664  0.40526844  0.25175838  1
  Ca2+  Ca98  1  0.09277772  0.90608432  0.90782991  1
  Ca2+  Ca99  1  0.41121563  0.91524407  0.25904025  1
  Ca2+  Ca100  1  0.58390665  0.90275805  0.07732730  1
  Ca2+  Ca101  1  0.42392495  0.91461265  0.58882428  1
  Ca2+  Ca102  1  0.59682827  0.41055801  0.73632075  1
  Ca2+  Ca103  1  0.23426808  0.40494179  0.41980577  1
  Ca2+  Ca104  1  0.09558717  0.90164314  0.58703894  1
  Ca2+  Ca105  1  0.92405416  0.40583114  0.08844613  1
  Ca2+  Ca106  1  0.25189783  0.91128510  0.06034851  1
  Ca2+  Ca107  1  0.90899783  0.90147442  0.41887834  1
  Mn3.34+  Mn108  1  0.09751785  0.34501010  0.07551219  1
  Mn3.34+  Mn109  1  0.07787551  0.33225745  0.42180681  1
  Mn3.34+  Mn110  1  0.08954925  0.34146393  0.75505063  1
  Mn3.34+  Mn111  1  0.08566986  0.82939723  0.08276725  1
  Mn3.34+  Mn112  1  0.08221543  0.83114121  0.42015144  1
  Mn3.34+  Mn113  1  0.08334801  0.83292894  0.75304743  1
  Mn3.34+  Mn114  1  0.41496829  0.33523814  0.07887603  1
  Mn3.34+  Mn115  1  0.41523433  0.33305780  0.41536042  1
  Mn3.34+  Mn116  1  0.40944696  0.33622330  0.76429441  1
  Mn3.34+  Mn117  1  0.41500878  0.83324213  0.08388835  1
  Mn3.34+  Mn118  1  0.41866541  0.83310609  0.41741105  1
  Mn3.34+  Mn119  1  0.41126985  0.83559197  0.75179751  1
  Mn3.34+  Mn120  1  0.74807481  0.33638206  0.08408954  1
  Mn3.34+  Mn121  1  0.75026670  0.33301987  0.41781319  1
  Mn3.34+  Mn122  1  0.75338610  0.33082704  0.74785572  1
  Mn3.34+  Mn123  1  0.74745977  0.82964189  0.08342426  1
  Mn3.34+  Mn124  1  0.74836247  0.83326424  0.41606058  1
  Mn3.34+  Mn125  1  0.75063392  0.82894431  0.75524620  1
  Mn3.34+  Mn126  1  0.25114841  0.33070818  0.24511804  1
  Mn3.34+  Mn127  1  0.24702503  0.33542500  0.58604157  1
  Mn3.34+  Mn128  1  0.24861975  0.33823823  0.91898250  1
  Mn3.34+  Mn129  1  0.25130261  0.83425072  0.24729164  1
  Mn3.34+  Mn130  1  0.25568799  0.83046593  0.58641747  1
  Mn3.34+  Mn131  1  0.24837707  0.83316123  0.90969567  1
  Mn3.34+  Mn132  1  0.58456181  0.33492053  0.25168058  1
  Mn3.34+  Mn133  1  0.58437141  0.33327192  0.57853211  1
  Mn3.34+  Mn134  1  0.58194496  0.33433896  0.91654668  1
  Mn3.34+  Mn135  1  0.58289571  0.83167203  0.25423426  1
  Mn3.34+  Mn136  1  0.58074896  0.83179912  0.58350187  1
  Mn3.34+  Mn137  1  0.58483057  0.83013273  0.90815739  1
  Mn3.34+  Mn138  1  0.91718868  0.32874883  0.24357838  1
  Mn3.34+  Mn139  1  0.91198438  0.33634504  0.58164662  1
  Mn3.34+  Mn140  1  0.91863528  0.33421906  0.91975667  1
  Mn3.34+  Mn141  1  0.91570788  0.83153280  0.25052016  1
  Mn3.34+  Mn142  1  0.91217558  0.82771906  0.58638639  1
  Mn3.34+  Mn143  1  0.91433205  0.83048021  0.90904787  1
  Mn3.34+  Mn144  1  0.75080487  0.66314532  0.08353137  1
  Mn3.34+  Mn145  1  0.74360356  0.17145677  0.41566931  1
  Mn3.34+  Mn146  1  0.42074493  0.16619510  0.41763577  1
  Mn3.34+  Mn147  1  0.91754946  0.17603616  0.24484497  1
  Mn3.34+  Mn148  1  0.90905023  0.18020631  0.58224112  1
  Mn3.34+  Mn149  1  0.73806282  0.17132297  0.74609295  1
  Mn3.34+  Mn150  1  0.58364011  0.66243100  0.24756217  1
  Mn3.34+  Mn151  1  0.41136789  0.16192918  0.75440672  1
  Mn3.34+  Mn152  1  0.58192830  0.66621918  0.58136742  1
  Mn3.34+  Mn153  1  0.08640300  0.66350803  0.75313814  1
  Mn3.34+  Mn154  1  0.25018081  0.66260390  0.58187067  1
  Mn3.34+  Mn155  1  0.08578031  0.17832575  0.41699487  1
  Mn3.34+  Mn156  1  0.09378406  0.16866281  0.75506131  1
  Mn3.34+  Mn157  1  0.25674852  0.16886706  0.58131541  1
  Mn3.34+  Mn158  1  0.58462666  0.66109405  0.91451295  1
  Mn3.34+  Mn159  1  0.41328689  0.66690982  0.41710738  1
  Mn3.34+  Mn160  1  0.91696498  0.66447625  0.57993463  1
  Mn3.34+  Mn161  1  0.25724279  0.16049111  0.91207597  1
  Mn3.34+  Mn162  1  0.41810562  0.66746533  0.75354705  1
  Mn3.34+  Mn163  1  0.74771415  0.17668401  0.74454111  1
  Mn3.34+  Mn164  1  0.09536094  0.17271866  0.08680631  1
  Mn3.34+  Mn165  1  0.74619537  0.67512522  0.75543207  1
  Mn3.34+  Mn166  1  0.91754939  0.18655651  0.58493216  1
  Mn3.34+  Mn167  1  0.10380919  0.16349961  0.75853883  1
  Mn3.34+  Mn168  1  0.41540224  0.66593782  0.08557476  1
  Mn3.34+  Mn169  1  0.24931189  0.65940056  0.90914035  1
  Mn3.34+  Mn170  1  0.75727544  0.66699742  0.75838922  1
  Mn3.34+  Mn171  1  0.25119188  0.66838126  0.25132636  1
  Mn3.34+  Mn172  1  0.91784130  0.66565553  0.91644142  1
  Mn3.34+  Mn173  1  0.08374039  0.17875507  0.08496205  1
  Mn3.34+  Mn174  1  0.08233953  0.66293842  0.41444381  1
  Mn3.34+  Mn175  1  0.08935009  0.66122337  0.08860227  1
  Mn3.34+  Mn176  1  0.25609846  0.16949035  0.25062348  1
  Mn3.34+  Mn177  1  0.07973353  0.65550654  0.08954258  1
  Mn3.34+  Mn178  1  0.40372550  0.66196451  0.75482662  1
  Mn3.34+  Mn179  1  0.91562681  0.66436679  0.25227598  1
  Mn3.34+  Mn180  1  0.41226260  0.49866845  0.07849199  1
  Mn3.34+  Mn181  1  0.91379608  0.00677791  0.58521504  1
  Mn3.34+  Mn182  1  0.90812639  0.00329423  0.24736282  1
  Mn3.34+  Mn183  1  0.41657988  0.00189125  0.74517876  1
  Mn3.34+  Mn184  1  0.41165281  0.00084004  0.07018498  1
  Mn3.34+  Mn185  1  0.73666212  0.00170059  0.75831395  1
  Mn3.34+  Mn186  1  0.40108117  0.50040792  0.75053648  1
  Mn3.34+  Mn187  1  0.92751855  0.49915330  0.92306359  1
  Mn3.34+  Mn188  1  0.91637211  0.50394351  0.92244833  1
  Mn3.34+  Mn189  1  0.74728629  0.49407854  0.41500827  1
  Mn3.34+  Mn190  1  0.25182487  0.49977191  0.59707203  1
  Mn3.34+  Mn191  1  0.41563850  0.50000055  0.41718460  1
  Mn3.34+  Mn192  1  0.74863884  0.00272453  0.42568344  1
  Mn3.34+  Mn193  1  0.10690101  -0.00001138  0.74420862  1
  Mn3.34+  Mn194  1  0.09219880  0.00714634  0.07652283  1
  Mn3.34+  Mn195  1  0.90167401  0.00238434  0.58564079  1
  Mn3.34+  Mn196  1  0.59231985  -0.00202068  0.90667234  1
  Mn3.34+  Mn197  1  0.58718279  0.00198249  0.25712240  1
  Mn3.34+  Mn198  1  0.57339950  0.00762602  0.25575999  1
  Mn3.34+  Mn199  1  0.25618188  0.49700765  0.23829168  1
  Mn3.34+  Mn200  1  0.08454470  0.00129742  0.41047448  1
  Mn3.34+  Mn201  1  0.90723842  0.49787843  0.59814858  1
  Mn3.34+  Mn202  1  0.74638748  0.00007710  0.08523410  1
  Mn3.34+  Mn203  1  0.24423899  0.49724616  0.93014461  1
  Mn3.34+  Mn204  1  0.90660539  -0.00469197  0.92466268  1
  Mn3.34+  Mn205  1  0.25671914  0.00346589  0.24549274  1
  Mn3.34+  Mn206  1  0.57809960  0.50079824  0.25240089  1
  Mn3.34+  Mn207  1  0.24626130  0.50252560  0.23792752  1
  Mn3.34+  Mn208  1  0.09270272  0.49908026  0.74555890  1
  Mn3.34+  Mn209  1  0.25434997  0.00264419  0.60217077  1
  Mn3.34+  Mn210  1  0.74961552  -0.00475556  0.76016557  1
  Mn3.34+  Mn211  1  0.74635154  0.49798756  0.08258408  1
  Mn3.34+  Mn212  1  0.10383026  0.01181931  0.07414929  1
  Mn3.34+  Mn213  1  0.57854030  0.49779230  0.92640259  1
  Mn3.34+  Mn214  1  0.58530596  0.00030197  0.59247653  1
  Mn3.34+  Mn215  1  0.57944839  0.00402166  0.90728576  1
  O2-  O216  1  0.00808485  0.15765915  0.00505997  1
  O2-  O217  1  -0.00442128  0.17722310  0.33832089  1
  O2-  O218  1  -0.00064385  0.14682441  0.66376252  1
  O2-  O219  1  0.00540518  0.64348762  -0.00264924  1
  O2-  O220  1  -0.00036990  0.65832438  0.33269312  1
  O2-  O221  1  0.00326530  0.64655894  0.66437424  1
  O2-  O222  1  0.33649066  0.17313297  -0.01736898  1
  O2-  O223  1  0.33186977  0.15523536  0.33463663  1
  O2-  O224  1  0.33561470  0.16321209  0.66003086  1
  O2-  O225  1  0.32956304  0.66163183  -0.00039769  1
  O2-  O226  1  0.33319756  0.64923105  0.33474577  1
  O2-  O227  1  0.33916564  0.64912256  0.66006069  1
  O2-  O228  1  0.66157119  0.17194735  0.00811583  1
  O2-  O229  1  0.67032939  0.15459136  0.33856257  1
  O2-  O230  1  0.66183544  0.19332709  0.66705392  1
  O2-  O231  1  0.65943266  0.66786208  0.00512654  1
  O2-  O232  1  0.66625142  0.63990133  0.32482824  1
  O2-  O233  1  0.67133229  0.66190732  0.66425578  1
  O2-  O234  1  0.17351354  0.16875738  0.00331804  1
  O2-  O235  1  0.16313248  0.16184620  0.33521089  1
  O2-  O236  1  0.16648357  0.14814300  0.66214164  1
  O2-  O237  1  0.16838360  0.65724953  -0.00056204  1
  O2-  O238  1  0.16405751  0.65052928  0.32834515  1
  O2-  O239  1  0.15983947  0.65017784  0.65646005  1
  O2-  O240  1  0.50397644  0.16948337  0.00486254  1
  O2-  O241  1  0.49821194  0.15969336  0.33936497  1
  O2-  O242  1  0.48506372  0.18419892  0.67566099  1
  O2-  O243  1  0.49859176  0.65621084  -0.00256955  1
  O2-  O244  1  0.50525527  0.64814603  0.33772988  1
  O2-  O245  1  0.50509339  0.64473810  0.67489644  1
  O2-  O246  1  0.82372731  0.17059401  -0.00583611  1
  O2-  O247  1  0.83753125  0.16114340  0.33187602  1
  O2-  O248  1  0.83067739  0.15200660  0.66755156  1
  O2-  O249  1  0.84114296  0.65383398  0.00886100  1
  O2-  O250  1  0.83101928  0.66181117  0.32694131  1
  O2-  O251  1  0.83737608  0.66020053  0.67370061  1
  O2-  O252  1  0.00029311  0.33892269  0.00450988  1
  O2-  O253  1  -0.00081702  0.31774160  0.33117686  1
  O2-  O254  1  -0.00996296  0.33527348  0.66780407  1
  O2-  O255  1  0.00310543  0.85027735  0.00356844  1
  O2-  O256  1  0.00281710  0.85218875  0.33234021  1
  O2-  O257  1  0.00072861  0.84650797  0.66692665  1
  O2-  O258  1  0.33015191  0.32619823  0.00058195  1
  O2-  O259  1  0.32693222  0.35371940  0.33838059  1
  O2-  O260  1  0.33997155  0.33281830  0.66707125  1
  O2-  O261  1  0.33013710  0.83376432  -0.00157452  1
  O2-  O262  1  0.33322169  0.85101678  0.33302370  1
  O2-  O263  1  0.34016457  0.84569233  0.65913900  1
  O2-  O264  1  0.66822529  0.35184241  -0.00212383  1
  O2-  O265  1  0.67043547  0.35350260  0.33414082  1
  O2-  O266  1  0.66515037  0.32760165  0.66602180  1
  O2-  O267  1  0.65652003  0.83449786  0.00496262  1
  O2-  O268  1  0.66365322  0.85267685  0.33661666  1
  O2-  O269  1  0.66135759  0.83564559  0.67263103  1
  O2-  O270  1  0.16805398  0.30181468  0.00132742  1
  O2-  O271  1  0.15498938  0.34342057  0.33008386  1
  O2-  O272  1  0.16734262  0.34182738  0.66857303  1
  O2-  O273  1  0.17065742  0.83069744  0.00061016  1
  O2-  O274  1  0.17197747  0.85934361  0.33830883  1
  O2-  O275  1  0.16686962  0.84187167  0.66588148  1
  O2-  O276  1  0.50090661  0.34863918  -0.00101046  1
  O2-  O277  1  0.50265103  0.34835175  0.33811194  1
  O2-  O278  1  0.50205084  0.32635986  0.66369445  1
  O2-  O279  1  0.49708867  0.84680043  -0.00707618  1
  O2-  O280  1  0.49649295  0.85012287  0.33143409  1
  O2-  O281  1  0.49811836  0.84588558  0.66711278  1
  O2-  O282  1  0.83464537  0.34805542  0.00275776  1
  O2-  O283  1  0.84506298  0.34925494  0.34037752  1
  O2-  O284  1  0.83240373  0.29875171  0.66759089  1
  O2-  O285  1  0.83129043  0.83996661  0.00033874  1
  O2-  O286  1  0.83077764  0.84678276  0.33099085  1
  O2-  O287  1  0.82092982  0.82299925  0.65944419  1
  O2-  O288  1  0.00593513  0.19186016  0.16820744  1
  O2-  O289  1  0.01180234  0.18932190  0.51033671  1
  O2-  O290  1  -0.00120917  0.17363457  0.82506118  1
  O2-  O291  1  -0.00681997  0.67442015  0.16454467  1
  O2-  O292  1  0.00704453  0.67361397  0.50321684  1
  O2-  O293  1  -0.00124635  0.68179267  0.83046765  1
  O2-  O294  1  0.33770988  0.17825955  0.17865870  1
  O2-  O295  1  0.33080688  0.18029620  0.49847542  1
  O2-  O296  1  0.31816972  0.18400246  0.82340880  1
  O2-  O297  1  0.33631486  0.68469756  0.17152750  1
  O2-  O298  1  0.33197344  0.67976966  0.49737579  1
  O2-  O299  1  0.33251251  0.69207755  0.83840596  1
  O2-  O300  1  0.65633652  0.17994703  0.15716269  1
  O2-  O301  1  0.66489372  0.18410381  0.49018357  1
  O2-  O302  1  0.67331971  0.18418435  0.83564654  1
  O2-  O303  1  0.66773891  0.67727474  0.17095830  1
  O2-  O304  1  0.65592332  0.67398553  0.49720314  1
  O2-  O305  1  0.66449163  0.68833450  0.83412803  1
  O2-  O306  1  0.17015604  0.19009318  0.16880911  1
  O2-  O307  1  0.16367490  0.17383293  0.50312023  1
  O2-  O308  1  0.16209490  0.18942510  0.85367499  1
  O2-  O309  1  0.17139576  0.68756665  0.16526668  1
  O2-  O310  1  0.16606460  0.67516392  0.49801728  1
  O2-  O311  1  0.16543708  0.68482751  0.83679825  1
  O2-  O312  1  0.50676617  0.17773460  0.16230525  1
  O2-  O313  1  0.49704380  0.18189666  0.49792359  1
  O2-  O314  1  0.47734594  0.18547704  0.83525796  1
  O2-  O315  1  0.50007006  0.67612870  0.16925193  1
  O2-  O316  1  0.49827423  0.67476978  0.49897759  1
  O2-  O317  1  0.49824408  0.68778625  0.83643786  1
  O2-  O318  1  0.83633779  0.18249949  0.17132510  1
  O2-  O319  1  0.83777310  0.18907403  0.49094990  1
  O2-  O320  1  0.83855055  0.17903819  0.81583943  1
  O2-  O321  1  0.83054262  0.67561624  0.17207069  1
  O2-  O322  1  0.83027681  0.67318227  0.51221012  1
  O2-  O323  1  0.83416404  0.68877722  0.83658637  1
  O2-  O324  1  -0.00298900  0.30955530  0.17012782  1
  O2-  O325  1  -0.00278177  0.30700373  0.49820393  1
  O2-  O326  1  -0.00040193  0.32780835  0.83333907  1
  O2-  O327  1  -0.00097471  0.83341664  0.16494762  1
  O2-  O328  1  0.00247918  0.83341718  0.51019398  1
  O2-  O329  1  0.00483638  0.82032774  0.83725895  1
  O2-  O330  1  0.34067016  0.32227071  0.17504501  1
  O2-  O331  1  0.33799901  0.32539658  0.50431641  1
  O2-  O332  1  0.33559411  0.30652590  0.83981601  1
  O2-  O333  1  0.33438282  0.82363270  0.16743097  1
  O2-  O334  1  0.32730627  0.81966303  0.49172730  1
  O2-  O335  1  0.33286739  0.81412292  0.83659934  1
  O2-  O336  1  0.66577095  0.33207494  0.16761069  1
  O2-  O337  1  0.65789198  0.32156275  0.48957031  1
  O2-  O338  1  0.66916284  0.31787368  0.82851761  1
  O2-  O339  1  0.66572880  0.82658211  0.16628515  1
  O2-  O340  1  0.66694279  0.82262771  0.50152541  1
  O2-  O341  1  0.66738194  0.80366117  0.83417507  1
  O2-  O342  1  0.16303890  0.31883716  0.16879783  1
  O2-  O343  1  0.17109266  0.32112736  0.48907080  1
  O2-  O344  1  0.16859279  0.31759558  0.83610061  1
  O2-  O345  1  0.15778143  0.82217991  0.17736667  1
  O2-  O346  1  0.16552432  0.82561955  0.50505127  1
  O2-  O347  1  0.16296214  0.81387605  0.83754009  1
  O2-  O348  1  0.50228890  0.32883983  0.16961051  1
  O2-  O349  1  0.49748133  0.31753035  0.50241272  1
  O2-  O350  1  0.50733794  0.32605655  0.82568717  1
  O2-  O351  1  0.50674930  0.82726084  0.16113819  1
  O2-  O352  1  0.50088568  0.82212600  0.49562946  1
  O2-  O353  1  0.49854989  0.81531088  0.83242253  1
  O2-  O354  1  0.82902700  0.31901401  0.17253286  1
  O2-  O355  1  0.83121539  0.31309254  0.50129734  1
  O2-  O356  1  0.83199571  0.32228399  0.83120613  1
  O2-  O357  1  0.83614367  0.82639672  0.16061518  1
  O2-  O358  1  0.83715767  0.82013048  0.49419362  1
  O2-  O359  1  0.83543384  0.80677290  0.82919161  1
  O2-  O360  1  0.08114620  0.08681961  0.12687791  1
  O2-  O361  1  0.05114496  0.08353523  0.43887963  1
  O2-  O362  1  0.07056773  0.07832625  0.79225868  1
  O2-  O363  1  0.09407930  0.58003463  0.13255740  1
  O2-  O364  1  0.09043585  0.57998036  0.43850380  1
  O2-  O365  1  0.07956852  0.57874035  0.78374447  1
  O2-  O366  1  0.44204109  0.06692733  0.11524430  1
  O2-  O367  1  0.41641481  0.08572316  0.44568194  1
  O2-  O368  1  0.41866555  0.08037704  0.78335928  1
  O2-  O369  1  0.40648184  0.57950909  0.11320385  1
  O2-  O370  1  0.41995299  0.58147489  0.44676785  1
  O2-  O371  1  0.40468853  0.58298823  0.79276567  1
  O2-  O372  1  0.74796131  0.07853559  0.10110840  1
  O2-  O373  1  0.77036165  0.08566612  0.44236475  1
  O2-  O374  1  0.75885373  0.08393707  0.78486174  1
  O2-  O375  1  0.74575772  0.57759158  0.12216158  1
  O2-  O376  1  0.73048067  0.57085263  0.44632276  1
  O2-  O377  1  0.73630002  0.58424394  0.77601201  1
  O2-  O378  1  0.23858082  0.08499364  0.23619687  1
  O2-  O379  1  0.23803650  0.07980570  0.54844240  1
  O2-  O380  1  0.24222571  0.08624111  0.89654709  1
  O2-  O381  1  0.26201700  0.58366973  0.21241289  1
  O2-  O382  1  0.24680730  0.57714257  0.54911536  1
  O2-  O383  1  0.25026027  0.56935558  0.88163930  1
  O2-  O384  1  0.58874577  0.08269890  0.21980923  1
  O2-  O385  1  0.56961860  0.07178626  0.55360518  1
  O2-  O386  1  0.58513762  0.08424446  0.90655228  1
  O2-  O387  1  0.57479752  0.57841795  0.21199967  1
  O2-  O388  1  0.58642336  0.58093987  0.56507099  1
  O2-  O389  1  0.57014330  0.57381415  0.86901037  1
  O2-  O390  1  0.92804457  0.08615525  0.23932503  1
  O2-  O391  1  0.92036983  0.08622310  0.53872370  1
  O2-  O392  1  0.89944162  0.07432742  0.89768144  1
  O2-  O393  1  0.90399379  0.58068854  0.22841447  1
  O2-  O394  1  0.92441373  0.57584968  0.55571907  1
  O2-  O395  1  0.91636506  0.58162891  0.87516916  1
  O2-  O396  1  0.06653472  0.42054615  0.12098585  1
  O2-  O397  1  0.06153096  0.41184916  0.42748179  1
  O2-  O398  1  0.06263251  0.42254263  0.77054824  1
  O2-  O399  1  0.09030171  0.92705132  0.11868696  1
  O2-  O400  1  0.08613249  0.92143011  0.45436366  1
  O2-  O401  1  0.08833410  0.91741672  0.77007810  1
  O2-  O402  1  0.42499494  0.42113005  0.11096166  1
  O2-  O403  1  0.42463425  0.41911138  0.44997329  1
  O2-  O404  1  0.43590309  0.41815171  0.74130081  1
  O2-  O405  1  0.43153263  0.92508246  0.11670968  1
  O2-  O406  1  0.40720610  0.91537522  0.45102174  1
  O2-  O407  1  0.42350871  0.92259446  0.78492413  1
  O2-  O408  1  0.76020673  0.42083266  0.11683143  1
  O2-  O409  1  0.76555545  0.41657379  0.44364559  1
  O2-  O410  1  0.74785011  0.41016449  0.76580625  1
  O2-  O411  1  0.75234016  0.91718576  0.10966906  1
  O2-  O412  1  0.75226861  0.92048092  0.45020456  1
  O2-  O413  1  0.73582319  0.91505896  0.77843415  1
  O2-  O414  1  0.23345443  0.41511122  0.22369744  1
  O2-  O415  1  0.26422392  0.42001042  0.55730863  1
  O2-  O416  1  0.24985783  0.42613891  0.89026777  1
  O2-  O417  1  0.24734808  0.92328465  0.20639457  1
  O2-  O418  1  0.24241668  0.92248923  0.55293270  1
  O2-  O419  1  0.24720130  0.91051510  0.90101403  1
  O2-  O420  1  0.57951926  0.42160402  0.22691963  1
  O2-  O421  1  0.55705869  0.41929132  0.57090171  1
  O2-  O422  1  0.59792933  0.42233685  0.87607237  1
  O2-  O423  1  0.59134711  0.92692490  0.20732053  1
  O2-  O424  1  0.58663862  0.92014289  0.55706572  1
  O2-  O425  1  0.58458035  0.91839766  0.88069957  1
  O2-  O426  1  0.92805825  0.40965042  0.22908285  1
  O2-  O427  1  0.91828338  0.42596189  0.54402099  1
  O2-  O428  1  0.90092249  0.42078537  0.88359330  1
  O2-  O429  1  0.91112413  0.92244227  0.21198776  1
  O2-  O430  1  0.90201673  0.91916136  0.56719215  1
  O2-  O431  1  0.92290801  0.91538817  0.90837366  1
  O2-  O432  1  0.00416926  0.00779072  -0.00496941  1
  O2-  O433  1  0.00511076  -0.00715731  0.31628147  1
  O2-  O434  1  -0.00471469  0.02443190  0.67040005  1
  O2-  O435  1  0.00209793  0.51922648  0.00462468  1
  O2-  O436  1  0.00088115  0.48000548  0.32006151  1
  O2-  O437  1  -0.00773167  0.51023095  0.67243790  1
  O2-  O438  1  0.33344532  -0.01682841  0.00299343  1
  O2-  O439  1  0.31782594  -0.01053821  0.34464233  1
  O2-  O440  1  0.36255642  0.00412418  0.63663425  1
  O2-  O441  1  0.33115160  0.51400184  -0.00308249  1
  O2-  O442  1  0.33454361  0.50458902  0.32901930  1
  O2-  O443  1  0.36467159  0.49838940  0.62210847  1
  O2-  O444  1  0.66065064  -0.00639889  0.00494582  1
  O2-  O445  1  0.66955818  -0.00178955  0.33669092  1
  O2-  O446  1  0.67901147  -0.01053441  0.65757224  1
  O2-  O447  1  0.65425495  0.49163723  0.01485314  1
  O2-  O448  1  0.67633895  0.50758528  0.31984298  1
  O2-  O449  1  0.64948632  0.48773157  0.70251893  1
  O2-  O450  1  0.16146171  -0.00839614  -0.01914015  1
  O2-  O451  1  0.15769357  -0.01027683  0.31343223  1
  O2-  O452  1  0.13542737  0.00092056  0.61774497  1
  O2-  O453  1  0.16992346  0.51781423  -0.00148565  1
  O2-  O454  1  0.16065740  0.49803573  0.31814567  1
  O2-  O455  1  0.14709637  0.50925279  0.64072968  1
  O2-  O456  1  0.49875041  -0.01586679  -0.00640962  1
  O2-  O457  1  0.49583786  -0.01578586  0.33196980  1
  O2-  O458  1  0.51292581  -0.01497867  0.67731835  1
  O2-  O459  1  0.49988785  0.51911365  0.00582112  1
  O2-  O460  1  0.51415733  0.51047060  0.35110698  1
  O2-  O461  1  0.49828231  0.51548127  0.69601779  1
  O2-  O462  1  0.85242802  -0.00341653  0.03442618  1
  O2-  O463  1  0.84868266  0.00046424  0.35507974  1
  O2-  O464  1  0.84054915  0.01217549  0.68510498  1
  O2-  O465  1  0.84037008  0.49794624  0.01355430  1
  O2-  O466  1  0.83259804  0.49710378  0.33891600  1
  O2-  O467  1  0.82848434  0.51795121  0.66426212  1
  O2-  O468  1  0.91916490  0.25607308  0.92846019  1
  O2-  O469  1  0.93307478  0.74658912  0.60213965  1
  O2-  O470  1  0.58536797  0.25685394  0.26778509  1
  O2-  O471  1  0.08996707  0.74925310  0.39536818  1
  O2-  O472  1  0.24092318  0.24995899  0.60210666  1
  O2-  O473  1  0.57009177  0.74766800  0.60319456  1
  O2-  O474  1  0.41047045  0.25321945  0.38852959  1
  O2-  O475  1  0.24868347  0.25222345  0.27946824  1
  O2-  O476  1  0.24994196  0.75163655  0.27996842  1
  O2-  O477  1  0.42610763  0.25573331  0.07636599  1
  O2-  O478  1  0.75116212  0.25371591  0.38171615  1
  O2-  O479  1  0.92460489  0.74830476  0.94804427  1
  O2-  O480  1  0.08327841  0.74837147  0.72264123  1
  O2-  O481  1  0.08218900  0.25043957  0.72726956  1
  O2-  O482  1  0.41733600  0.74936247  0.38933255  1
  O2-  O483  1  0.58271326  0.25743679  0.93587887  1
  O2-  O484  1  0.58484787  0.74404305  0.27505349  1
  O2-  O485  1  0.06896314  0.74107855  0.06269770  1
  O2-  O486  1  0.42458865  0.74914617  0.06660632  1
  O2-  O487  1  0.74304950  0.25887056  0.07083880  1
  O2-  O488  1  0.41690070  0.74614435  0.71548780  1
  O2-  O489  1  0.74408097  0.75412928  0.39783372  1
  O2-  O490  1  0.92337914  0.74937797  0.26870890  1
  O2-  O491  1  0.24894532  0.74642878  0.60515875  1
  O2-  O492  1  0.75416648  0.74850101  0.07036020  1
