# generated using pymatgen
data_Ca108Mn108O277
_symmetry_space_group_name_H-M   'P 1'
_cell_length_a   16.02841107
_cell_length_b   22.30794801
_cell_length_c   16.38927702
_cell_angle_alpha   90.00353975
_cell_angle_beta   89.99656523
_cell_angle_gamma   90.00537155
_symmetry_Int_Tables_number   1
_chemical_formula_structural   Ca108Mn108O277
_chemical_formula_sum   'Ca108 Mn108 O277'
_cell_volume   5860.16559027
_cell_formula_units_Z   1
loop_
 _symmetry_equiv_pos_site_id
 _symmetry_equiv_pos_as_xyz
  1  'x, y, z'
loop_
 _atom_type_symbol
 _atom_type_oxidation_number
  Ca2+  2.0
  Mn3.34+  3.34
  O2-  -2.0
loop_
 _atom_site_type_symbol
 _atom_site_label
 _atom_site_symmetry_multiplicity
 _atom_site_fract_x
 _atom_site_fract_y
 _atom_site_fract_z
 _atom_site_occupancy
  Ca2+  Ca0  1  0.10254964  0.24019209  0.23987063  1
  Ca2+  Ca1  1  0.06954175  0.23096539  0.57199537  1
  Ca2+  Ca2  1  0.09932176  0.25378227  0.92969939  1
  Ca2+  Ca3  1  0.09359566  0.75368665  0.26234782  1
  Ca2+  Ca4  1  0.08479874  0.74767554  0.58893138  1
  Ca2+  Ca5  1  0.08050480  0.74359367  0.89077163  1
  Ca2+  Ca6  1  0.40532232  0.24658739  0.24872532  1
  Ca2+  Ca7  1  0.42666158  0.25257891  0.57932041  1
  Ca2+  Ca8  1  0.40570497  0.25625059  0.93137951  1
  Ca2+  Ca9  1  0.42863720  0.75358745  0.26658812  1
  Ca2+  Ca10  1  0.43193580  0.75253690  0.56723021  1
  Ca2+  Ca11  1  0.43867616  0.75551771  0.89884837  1
  Ca2+  Ca12  1  0.73005711  0.25759021  0.26826946  1
  Ca2+  Ca13  1  0.74249038  0.24242029  0.56797825  1
  Ca2+  Ca14  1  0.75023111  0.25828220  0.90213001  1
  Ca2+  Ca15  1  0.73866639  0.74598424  0.26695717  1
  Ca2+  Ca16  1  0.72007024  0.74305011  0.57217799  1
  Ca2+  Ca17  1  0.75475662  0.73072235  0.91976850  1
  Ca2+  Ca18  1  0.25782601  0.24845797  0.09795630  1
  Ca2+  Ca19  1  0.26228910  0.24318976  0.40015447  1
  Ca2+  Ca20  1  0.25512675  0.26091001  0.75251955  1
  Ca2+  Ca21  1  0.24551109  0.75852918  0.09595423  1
  Ca2+  Ca22  1  0.25969250  0.74966096  0.41010049  1
  Ca2+  Ca23  1  0.22554250  0.75186339  0.73759297  1
  Ca2+  Ca24  1  0.55462684  0.25402486  0.10323273  1
  Ca2+  Ca25  1  0.57378210  0.24870732  0.41657208  1
  Ca2+  Ca26  1  0.57478506  0.26004823  0.73427894  1
  Ca2+  Ca27  1  0.59655948  0.75638006  0.09076616  1
  Ca2+  Ca28  1  0.58469470  0.74187485  0.42103054  1
  Ca2+  Ca29  1  0.59312178  0.75145465  0.73288051  1
  Ca2+  Ca30  1  0.94555049  0.25596504  0.09319966  1
  Ca2+  Ca31  1  0.90377395  0.25643071  0.41900195  1
  Ca2+  Ca32  1  0.92151565  0.24495108  0.73865670  1
  Ca2+  Ca33  1  0.90150772  0.74404910  0.08353209  1
  Ca2+  Ca34  1  0.89867022  0.75094817  0.41125525  1
  Ca2+  Ca35  1  0.92564741  0.75311484  0.75427142  1
  Ca2+  Ca36  1  0.06187739  0.59983991  0.91224548  1
  Ca2+  Ca37  1  0.39443206  0.10564665  0.24995907  1
  Ca2+  Ca38  1  0.41436749  0.10875917  0.92117874  1
  Ca2+  Ca39  1  0.07872939  0.10441880  0.91746630  1
  Ca2+  Ca40  1  0.24175382  0.09463971  0.72453471  1
  Ca2+  Ca41  1  0.42570247  0.10835972  0.91994479  1
  Ca2+  Ca42  1  0.43302002  0.57932509  0.91762333  1
  Ca2+  Ca43  1  0.18637782  0.58628043  0.73998376  1
  Ca2+  Ca44  1  0.62119338  0.57533158  0.09638356  1
  Ca2+  Ca45  1  0.59763064  0.59282639  0.71804620  1
  Ca2+  Ca46  1  0.43684694  0.59081514  0.55946368  1
  Ca2+  Ca47  1  0.09473028  0.59421936  0.58356928  1
  Ca2+  Ca48  1  0.43113779  0.56889062  0.28801454  1
  Ca2+  Ca49  1  0.74425444  0.09962602  0.91234171  1
  Ca2+  Ca50  1  0.42080821  0.57749855  0.91976793  1
  Ca2+  Ca51  1  0.23692780  0.11439557  0.09618366  1
  Ca2+  Ca52  1  0.23037606  0.09375286  0.72386330  1
  Ca2+  Ca53  1  0.95813787  0.09930986  0.08338751  1
  Ca2+  Ca54  1  0.55744587  0.10966120  0.10174941  1
  Ca2+  Ca55  1  0.75659087  0.09757230  0.91476568  1
  Ca2+  Ca56  1  0.26049199  0.58032271  0.09997932  1
  Ca2+  Ca57  1  0.59089757  0.58955259  0.71139168  1
  Ca2+  Ca58  1  0.88105807  0.58219689  0.07167004  1
  Ca2+  Ca59  1  0.41760388  0.10018295  0.57260667  1
  Ca2+  Ca60  1  0.25988452  0.58220525  0.39625848  1
  Ca2+  Ca61  1  0.93103775  0.61156022  0.77300863  1
  Ca2+  Ca62  1  0.25229824  0.58213575  0.10916825  1
  Ca2+  Ca63  1  0.88489724  0.57858254  0.07984754  1
  Ca2+  Ca64  1  0.08980330  0.10373832  0.91736798  1
  Ca2+  Ca65  1  0.89349712  0.57037641  0.36742843  1
  Ca2+  Ca66  1  0.61628329  0.57324826  0.10499941  1
  Ca2+  Ca67  1  0.94112681  0.10971878  0.45160217  1
  Ca2+  Ca68  1  0.94015004  0.60968037  0.77774975  1
  Ca2+  Ca69  1  0.57000850  0.10920476  0.10218867  1
  Ca2+  Ca70  1  0.94562233  0.09794524  0.08472627  1
  Ca2+  Ca71  1  0.93070467  0.10927807  0.44991127  1
  Ca2+  Ca72  1  0.74646549  0.91161675  0.57785361  1
  Ca2+  Ca73  1  0.89866461  0.41963558  0.39458171  1
  Ca2+  Ca74  1  0.41996363  0.39889051  0.91974816  1
  Ca2+  Ca75  1  0.73773085  0.40290744  0.56990598  1
  Ca2+  Ca76  1  0.09405101  0.40446209  0.90938709  1
  Ca2+  Ca77  1  0.58650067  0.91652017  0.40319105  1
  Ca2+  Ca78  1  0.91011585  0.91478040  0.74369590  1
  Ca2+  Ca79  1  0.90151053  0.40532089  0.09241527  1
  Ca2+  Ca80  1  0.41807578  0.88937846  0.91760398  1
  Ca2+  Ca81  1  0.25969961  0.40193660  0.08953713  1
  Ca2+  Ca82  1  0.08883963  0.40972251  0.25806080  1
  Ca2+  Ca83  1  0.25849287  0.89730919  0.09194246  1
  Ca2+  Ca84  1  0.91186322  0.89568773  0.09494078  1
  Ca2+  Ca85  1  0.60043551  0.90776538  0.74239680  1
  Ca2+  Ca86  1  0.58044981  0.40444439  0.09578241  1
  Ca2+  Ca87  1  0.09446903  0.41313322  0.59697937  1
  Ca2+  Ca88  1  0.08034785  0.89958846  0.92024174  1
  Ca2+  Ca89  1  0.58926018  0.90744420  0.74171263  1
  Ca2+  Ca90  1  0.08855716  0.91054401  0.57860770  1
  Ca2+  Ca91  1  0.75318674  0.42013104  0.95339640  1
  Ca2+  Ca92  1  0.10624834  0.41062753  0.59297562  1
  Ca2+  Ca93  1  0.57087317  0.42328821  0.39937180  1
  Ca2+  Ca94  1  0.92455315  0.89505964  0.09564196  1
  Ca2+  Ca95  1  0.42821643  0.91329322  0.26016855  1
  Ca2+  Ca96  1  0.28008103  0.42556403  0.39553036  1
  Ca2+  Ca97  1  0.75271798  0.89266088  0.91761399  1
  Ca2+  Ca98  1  0.93524573  0.40327989  0.75758493  1
  Ca2+  Ca99  1  0.89821810  0.91548767  0.74442454  1
  Ca2+  Ca100  1  0.07831879  0.40922323  0.25875137  1
  Ca2+  Ca101  1  0.74027963  0.42030199  0.95364343  1
  Ca2+  Ca102  1  0.25313185  0.90787366  0.41248128  1
  Ca2+  Ca103  1  0.92373161  0.40345211  0.75229080  1
  Ca2+  Ca104  1  0.09158087  0.90005083  0.91891891  1
  Ca2+  Ca105  1  0.41641495  0.40255666  0.57666111  1
  Ca2+  Ca106  1  0.74212623  0.42956656  0.26665667  1
  Ca2+  Ca107  1  0.07595689  0.91037534  0.57820562  1
  Mn3.34+  Mn108  1  0.08729396  0.32943105  0.08539627  1
  Mn3.34+  Mn109  1  0.08263152  0.33133450  0.42394172  1
  Mn3.34+  Mn110  1  0.09214297  0.33228108  0.75386525  1
  Mn3.34+  Mn111  1  0.08607490  0.83126856  0.09066756  1
  Mn3.34+  Mn112  1  0.08023487  0.83619204  0.41568661  1
  Mn3.34+  Mn113  1  0.08380595  0.83499997  0.74861087  1
  Mn3.34+  Mn114  1  0.41581390  0.33243552  0.08778248  1
  Mn3.34+  Mn115  1  0.41792127  0.33590872  0.41438658  1
  Mn3.34+  Mn116  1  0.41754489  0.33625050  0.75046684  1
  Mn3.34+  Mn117  1  0.42274187  0.82853140  0.08989342  1
  Mn3.34+  Mn118  1  0.41771871  0.83803676  0.41957675  1
  Mn3.34+  Mn119  1  0.40896572  0.83396258  0.74120982  1
  Mn3.34+  Mn120  1  0.74709684  0.32602823  0.08976611  1
  Mn3.34+  Mn121  1  0.74597657  0.33526733  0.41690111  1
  Mn3.34+  Mn122  1  0.74476708  0.33346269  0.74811990  1
  Mn3.34+  Mn123  1  0.74549199  0.82978359  0.09102576  1
  Mn3.34+  Mn124  1  0.74773313  0.83535631  0.41361542  1
  Mn3.34+  Mn125  1  0.75444838  0.83130385  0.74904173  1
  Mn3.34+  Mn126  1  0.25317050  0.33717963  0.25162332  1
  Mn3.34+  Mn127  1  0.25419989  0.33058473  0.57745278  1
  Mn3.34+  Mn128  1  0.25268190  0.33562220  0.91670820  1
  Mn3.34+  Mn129  1  0.25163941  0.83606021  0.25347300  1
  Mn3.34+  Mn130  1  0.25623056  0.83779692  0.57979331  1
  Mn3.34+  Mn131  1  0.25451766  0.82613749  0.91695617  1
  Mn3.34+  Mn132  1  0.57958119  0.33836060  0.25406468  1
  Mn3.34+  Mn133  1  0.58243129  0.33404021  0.57909446  1
  Mn3.34+  Mn134  1  0.58265763  0.33008988  0.91449670  1
  Mn3.34+  Mn135  1  0.58615467  0.83925997  0.24859686  1
  Mn3.34+  Mn136  1  0.58039952  0.83956613  0.57398190  1
  Mn3.34+  Mn137  1  0.58694700  0.82783569  0.92019461  1
  Mn3.34+  Mn138  1  0.91407438  0.33562397  0.25018468  1
  Mn3.34+  Mn139  1  0.91482756  0.33072721  0.57731241  1
  Mn3.34+  Mn140  1  0.91715618  0.32731100  0.91767081  1
  Mn3.34+  Mn141  1  0.91817898  0.83380708  0.26023036  1
  Mn3.34+  Mn142  1  0.91238776  0.83578573  0.57318764  1
  Mn3.34+  Mn143  1  0.91522113  0.82051548  0.91715474  1
  Mn3.34+  Mn144  1  0.92647745  0.15985636  0.25674618  1
  Mn3.34+  Mn145  1  0.25199208  0.17200704  0.91344166  1
  Mn3.34+  Mn146  1  0.42627622  0.67521399  0.08641706  1
  Mn3.34+  Mn147  1  0.74278287  0.16077217  0.41989405  1
  Mn3.34+  Mn148  1  0.24470528  0.16936156  0.56534375  1
  Mn3.34+  Mn149  1  0.91528424  0.66163501  0.25160199  1
  Mn3.34+  Mn150  1  0.08146708  0.66368858  0.41390426  1
  Mn3.34+  Mn151  1  0.75218248  0.67121360  0.74914184  1
  Mn3.34+  Mn152  1  0.74902092  0.66915754  0.09302659  1
  Mn3.34+  Mn153  1  0.90620183  0.66434457  0.57612285  1
  Mn3.34+  Mn154  1  0.41969486  0.17239358  0.74524116  1
  Mn3.34+  Mn155  1  0.25214524  0.66708259  0.25702224  1
  Mn3.34+  Mn156  1  0.41775396  0.66755977  0.74496310  1
  Mn3.34+  Mn157  1  0.57961594  0.16287656  0.26454752  1
  Mn3.34+  Mn158  1  0.73808102  0.65209322  0.41837596  1
  Mn3.34+  Mn159  1  0.75419586  0.18045566  0.08954473  1
  Mn3.34+  Mn160  1  0.58320506  0.66435405  0.25660951  1
  Mn3.34+  Mn161  1  0.58096697  0.16138152  0.57512642  1
  Mn3.34+  Mn162  1  0.58508622  0.18389723  0.91053381  1
  Mn3.34+  Mn163  1  0.25147556  0.66463684  0.91407630  1
  Mn3.34+  Mn164  1  0.24879935  0.66659485  0.57090198  1
  Mn3.34+  Mn165  1  0.41903489  0.66844557  0.08908055  1
  Mn3.34+  Mn166  1  0.91754024  0.18187910  0.91144624  1
  Mn3.34+  Mn167  1  0.07776292  0.17181140  0.74227252  1
  Mn3.34+  Mn168  1  0.59344168  0.66100412  0.91279730  1
  Mn3.34+  Mn169  1  0.40385746  0.66135669  0.74693119  1
  Mn3.34+  Mn170  1  0.91644234  0.16507330  0.25795060  1
  Mn3.34+  Mn171  1  0.41408487  0.16568751  0.41630720  1
  Mn3.34+  Mn172  1  0.91645427  0.66978798  0.57715258  1
  Mn3.34+  Mn173  1  0.24145521  0.65876358  0.91238085  1
  Mn3.34+  Mn174  1  0.74724158  0.18739298  0.08948380  1
  Mn3.34+  Mn175  1  0.07330677  0.67155040  0.09280049  1
  Mn3.34+  Mn176  1  0.75800470  0.15804826  0.73650709  1
  Mn3.34+  Mn177  1  0.74684788  0.16256878  0.73573682  1
  Mn3.34+  Mn178  1  0.08175314  0.66509568  0.09530380  1
  Mn3.34+  Mn179  1  0.42026697  0.66676855  0.41785201  1
  Mn3.34+  Mn180  1  0.10153977  -0.00153070  0.09590228  1
  Mn3.34+  Mn181  1  0.24440249  0.00007402  0.26316874  1
  Mn3.34+  Mn182  1  0.42400761  0.00346563  0.74464359  1
  Mn3.34+  Mn183  1  0.91969981  -0.00218590  0.26890418  1
  Mn3.34+  Mn184  1  0.07384893  0.50269970  0.09001210  1
  Mn3.34+  Mn185  1  0.90260028  0.49788024  0.57062339  1
  Mn3.34+  Mn186  1  0.74323532  0.00343203  0.40038262  1
  Mn3.34+  Mn187  1  0.91385205  0.49880141  0.91643504  1
  Mn3.34+  Mn188  1  0.41115334  -0.00294053  0.74438313  1
  Mn3.34+  Mn189  1  0.24887686  0.00460521  0.57432374  1
  Mn3.34+  Mn190  1  0.41864882  -0.00221745  0.09661327  1
  Mn3.34+  Mn191  1  0.90463571  0.00107907  0.90885320  1
  Mn3.34+  Mn192  1  0.08621953  0.00693325  0.40936113  1
  Mn3.34+  Mn193  1  0.42309150  0.49951612  0.09487127  1
  Mn3.34+  Mn194  1  0.24894959  0.50049983  0.91504956  1
  Mn3.34+  Mn195  1  0.08218337  0.50154692  0.40989591  1
  Mn3.34+  Mn196  1  0.08177295  0.00176586  0.74677090  1
  Mn3.34+  Mn197  1  0.08436729  0.49705963  0.09056761  1
  Mn3.34+  Mn198  1  0.59035329  0.00334804  0.91277583  1
  Mn3.34+  Mn199  1  0.58337415  0.49851544  0.57981239  1
  Mn3.34+  Mn200  1  0.41152929  0.49303679  0.73629957  1
  Mn3.34+  Mn201  1  0.73143584  -0.00212918  0.11427679  1
  Mn3.34+  Mn202  1  0.73747658  0.00123378  0.10443712  1
  Mn3.34+  Mn203  1  0.59143138  0.50124095  0.91878477  1
  Mn3.34+  Mn204  1  0.40528593  0.00458066  0.09843700  1
  Mn3.34+  Mn205  1  0.42014576  0.00198014  0.40425984  1
  Mn3.34+  Mn206  1  0.25116895  0.50355003  0.58336553  1
  Mn3.34+  Mn207  1  0.59840991  0.00592982  0.59294442  1
  Mn3.34+  Mn208  1  0.24936308  -0.00003749  0.90461447  1
  Mn3.34+  Mn209  1  0.75734250  0.50246412  0.75339667  1
  Mn3.34+  Mn210  1  0.91526578  0.00493956  0.91000516  1
  Mn3.34+  Mn211  1  0.57798848  -0.00112267  0.91123301  1
  Mn3.34+  Mn212  1  0.26435905  -0.00550104  0.90494138  1
  Mn3.34+  Mn213  1  0.91709481  0.50308924  0.57348974  1
  Mn3.34+  Mn214  1  0.74406683  0.49566396  0.75418483  1
  Mn3.34+  Mn215  1  0.91094346  -0.00094551  0.59340652  1
  O2-  O216  1  -0.00382296  0.16426246  -0.00533749  1
  O2-  O217  1  0.00911884  0.16073697  0.33405941  1
  O2-  O218  1  -0.00419974  0.17564357  0.67198054  1
  O2-  O219  1  -0.00748944  0.65822741  0.01260480  1
  O2-  O220  1  -0.00193157  0.67705687  0.33436446  1
  O2-  O221  1  -0.00270792  0.65013794  0.65651046  1
  O2-  O222  1  0.32927751  0.15526655  -0.00594413  1
  O2-  O223  1  0.33316902  0.16263917  0.34191730  1
  O2-  O224  1  0.32583024  0.16293288  0.67333447  1
  O2-  O225  1  0.33290645  0.64482324  0.00165891  1
  O2-  O226  1  0.33439908  0.66351242  0.33102404  1
  O2-  O227  1  0.32728287  0.66650360  0.66274756  1
  O2-  O228  1  0.67243151  0.17009075  -0.00552216  1
  O2-  O229  1  0.67435732  0.16402057  0.32645735  1
  O2-  O230  1  0.66316803  0.15387868  0.65994168  1
  O2-  O231  1  0.66315223  0.64586452  0.01023913  1
  O2-  O232  1  0.66934409  0.65908394  0.33058083  1
  O2-  O233  1  0.66694450  0.66631416  0.67167088  1
  O2-  O234  1  0.16659883  0.15896839  -0.01380818  1
  O2-  O235  1  0.16448065  0.17807722  0.33175483  1
  O2-  O236  1  0.16429703  0.16433920  0.65870944  1
  O2-  O237  1  0.16597923  0.63510196  0.00963089  1
  O2-  O238  1  0.16858886  0.66574779  0.33705895  1
  O2-  O239  1  0.16914126  0.66701371  0.65280127  1
  O2-  O240  1  0.50714807  0.16203097  -0.00158835  1
  O2-  O241  1  0.49521050  0.15257496  0.33577635  1
  O2-  O242  1  0.49483643  0.15819683  0.66351572  1
  O2-  O243  1  0.49354312  0.65147614  -0.00940962  1
  O2-  O244  1  0.49225731  0.66092817  0.32534688  1
  O2-  O245  1  0.49258356  0.64976732  0.66366613  1
  O2-  O246  1  0.83375078  0.16840928  -0.00112985  1
  O2-  O247  1  0.84028245  0.14584297  0.33883753  1
  O2-  O248  1  0.83559611  0.17928823  0.65931197  1
  O2-  O249  1  0.83228930  0.66231226  0.01406189  1
  O2-  O250  1  0.83814095  0.66739915  0.33595253  1
  O2-  O251  1  0.84161787  0.64431497  0.67330077  1
  O2-  O252  1  -0.00153278  0.33818112  0.00212653  1
  O2-  O253  1  -0.00061817  0.34782371  0.33919238  1
  O2-  O254  1  0.00035396  0.34177583  0.66413813  1
  O2-  O255  1  0.00121241  0.83741057  -0.00397959  1
  O2-  O256  1  0.00014636  0.80876601  0.33740892  1
  O2-  O257  1  -0.00430049  0.85476655  0.67078497  1
  O2-  O258  1  0.33531838  0.34213793  -0.00179073  1
  O2-  O259  1  0.33066731  0.34244805  0.33568954  1
  O2-  O260  1  0.33375134  0.33100900  0.66118239  1
  O2-  O261  1  0.33481509  0.82940559  0.00494904  1
  O2-  O262  1  0.33638929  0.84766468  0.33255223  1
  O2-  O263  1  0.32574321  0.80748310  0.66090739  1
  O2-  O264  1  0.66944640  0.31805472  -0.00101005  1
  O2-  O265  1  0.67032591  0.34588407  0.33024552  1
  O2-  O266  1  0.66950645  0.34480337  0.65978946  1
  O2-  O267  1  0.67101379  0.84125200  -0.00042853  1
  O2-  O268  1  0.66218037  0.84573094  0.33792333  1
  O2-  O269  1  0.66914191  0.84822694  0.66444236  1
  O2-  O270  1  0.16709629  0.34769604  0.00273627  1
  O2-  O271  1  0.16173483  0.34431001  0.33527828  1
  O2-  O272  1  0.17061603  0.34084458  0.66732950  1
  O2-  O273  1  0.16917853  0.85233536  0.00521342  1
  O2-  O274  1  0.16963642  0.83418565  0.34117554  1
  O2-  O275  1  0.16313250  0.84342365  0.66088810  1
  O2-  O276  1  0.50321576  0.33140226  0.00150974  1
  O2-  O277  1  0.50606010  0.34414331  0.33991606  1
  O2-  O278  1  0.49932394  0.34343572  0.66205751  1
  O2-  O279  1  0.49599357  0.82576597  -0.00229460  1
  O2-  O280  1  0.49697785  0.84566901  0.33327953  1
  O2-  O281  1  0.50375290  0.85329917  0.66748565  1
  O2-  O282  1  0.82803552  0.32666322  -0.00256273  1
  O2-  O283  1  0.82884939  0.34525360  0.32835612  1
  O2-  O284  1  0.84157792  0.34606306  0.67206019  1
  O2-  O285  1  0.84012521  0.83575339  0.00382779  1
  O2-  O286  1  0.83101501  0.82311274  0.33096355  1
  O2-  O287  1  0.83686587  0.85100911  0.66624386  1
  O2-  O288  1  -0.00305588  0.17348163  0.16567179  1
  O2-  O289  1  -0.01577043  0.19291447  0.48734725  1
  O2-  O290  1  0.01263675  0.17973042  0.84267061  1
  O2-  O291  1  -0.00335843  0.69649309  0.17510739  1
  O2-  O292  1  0.00020803  0.68869387  0.49856646  1
  O2-  O293  1  -0.00535036  0.68220471  0.83846896  1
  O2-  O294  1  0.32491006  0.17678059  0.17034414  1
  O2-  O295  1  0.34169690  0.18342647  0.50882879  1
  O2-  O296  1  0.33770765  0.17698895  0.83590166  1
  O2-  O297  1  0.32363875  0.68376345  0.15574718  1
  O2-  O298  1  0.33341094  0.68490537  0.49820984  1
  O2-  O299  1  0.34617028  0.68523603  0.84146106  1
  O2-  O300  1  0.65358745  0.18393269  0.16134305  1
  O2-  O301  1  0.66018402  0.17866718  0.49478785  1
  O2-  O302  1  0.67805183  0.17599639  0.83384107  1
  O2-  O303  1  0.65963261  0.67202431  0.16444197  1
  O2-  O304  1  0.66654427  0.67045148  0.49107905  1
  O2-  O305  1  0.66798388  0.68223926  0.82757749  1
  O2-  O306  1  0.18063139  0.18081271  0.17054132  1
  O2-  O307  1  0.17572044  0.19976353  0.49424779  1
  O2-  O308  1  0.17248197  0.17155126  0.82850293  1
  O2-  O309  1  0.17236484  0.67545332  0.16527924  1
  O2-  O310  1  0.16308016  0.69018029  0.49538737  1
  O2-  O311  1  0.16603093  0.67303366  0.82562442  1
  O2-  O312  1  0.49960380  0.17545616  0.17782807  1
  O2-  O313  1  0.49620666  0.17889597  0.50249002  1
  O2-  O314  1  0.49071452  0.17957345  0.84145897  1
  O2-  O315  1  0.50744731  0.69067543  0.16505149  1
  O2-  O316  1  0.49399722  0.67580439  0.49598744  1
  O2-  O317  1  0.49922987  0.67033896  0.83024291  1
  O2-  O318  1  0.84451686  0.17676930  0.16582692  1
  O2-  O319  1  0.82795550  0.17536592  0.49012488  1
  O2-  O320  1  0.83185461  0.18334382  0.83093949  1
  O2-  O321  1  0.83153298  0.68628420  0.17245833  1
  O2-  O322  1  0.82747316  0.68397415  0.50059003  1
  O2-  O323  1  0.83729638  0.68183351  0.82393595  1
  O2-  O324  1  0.00832009  0.32269819  0.17627371  1
  O2-  O325  1  -0.00132391  0.31166393  0.50140119  1
  O2-  O326  1  -0.00178634  0.32135657  0.83228868  1
  O2-  O327  1  -0.00481626  0.81745616  0.16260236  1
  O2-  O328  1  0.00801126  0.82238118  0.50986737  1
  O2-  O329  1  0.00060598  0.82337891  0.83842166  1
  O2-  O330  1  0.32827493  0.33035945  0.16300367  1
  O2-  O331  1  0.33532265  0.31712502  0.49893656  1
  O2-  O332  1  0.33583002  0.32029445  0.83952667  1
  O2-  O333  1  0.33596207  0.81731681  0.16742313  1
  O2-  O334  1  0.33056142  0.82039477  0.49556180  1
  O2-  O335  1  0.33771975  0.81566993  0.83582303  1
  O2-  O336  1  0.66346922  0.31213199  0.16377508  1
  O2-  O337  1  0.66486211  0.32043300  0.49716589  1
  O2-  O338  1  0.66557923  0.31718273  0.83473523  1
  O2-  O339  1  0.67169003  0.81827386  0.17340853  1
  O2-  O340  1  0.66952509  0.82899529  0.50244699  1
  O2-  O341  1  0.66308612  0.83058654  0.82500446  1
  O2-  O342  1  0.16546421  0.32520032  0.16875785  1
  O2-  O343  1  0.15800456  0.32062280  0.51030559  1
  O2-  O344  1  0.16472975  0.32252354  0.84340782  1
  O2-  O345  1  0.16975028  0.82720973  0.16797453  1
  O2-  O346  1  0.16390582  0.81928350  0.50325209  1
  O2-  O347  1  0.15933310  0.82569292  0.84159739  1
  O2-  O348  1  0.49965984  0.33111606  0.16776338  1
  O2-  O349  1  0.49706647  0.32231168  0.50199781  1
  O2-  O350  1  0.49739015  0.31476716  0.84048147  1
  O2-  O351  1  0.50199218  0.81214651  0.16942175  1
  O2-  O352  1  0.50399962  0.82594510  0.49243932  1
  O2-  O353  1  0.50653231  0.83014350  0.83283666  1
  O2-  O354  1  0.83952981  0.31554191  0.15932574  1
  O2-  O355  1  0.82568012  0.31622308  0.50692128  1
  O2-  O356  1  0.84149673  0.31289947  0.82924700  1
  O2-  O357  1  0.84206719  0.81914230  0.16118784  1
  O2-  O358  1  0.82771589  0.82530657  0.50180358  1
  O2-  O359  1  0.83259665  0.81298381  0.83729133  1
  O2-  O360  1  0.08679890  0.08283726  0.08546394  1
  O2-  O361  1  0.06847486  0.06901468  0.47177940  1
  O2-  O362  1  0.09790857  0.08360867  0.78288516  1
  O2-  O363  1  0.09246416  0.57980556  0.13269324  1
  O2-  O364  1  0.08301887  0.57586778  0.45001792  1
  O2-  O365  1  0.05995514  0.56806989  0.78692459  1
  O2-  O366  1  0.42694343  0.08546132  0.10708185  1
  O2-  O367  1  0.40988617  0.07716256  0.44101261  1
  O2-  O368  1  0.41252269  0.08137946  0.78790294  1
  O2-  O369  1  0.40464861  0.58238112  0.12969952  1
  O2-  O370  1  0.40446385  0.58567320  0.43034393  1
  O2-  O371  1  0.41316470  0.57646386  0.78368123  1
  O2-  O372  1  0.73622604  0.08821085  0.10316095  1
  O2-  O373  1  0.75830938  0.07280254  0.44799175  1
  O2-  O374  1  0.75950072  0.07904429  0.78360549  1
  O2-  O375  1  0.75413468  0.58281178  0.11646518  1
  O2-  O376  1  0.76911284  0.58016944  0.43614505  1
  O2-  O377  1  0.73662990  0.58397652  0.77352458  1
  O2-  O378  1  0.28094536  0.05194274  0.18826794  1
  O2-  O379  1  0.26157938  0.08633287  0.57575430  1
  O2-  O380  1  0.25709385  0.08135077  0.87856214  1
  O2-  O381  1  0.25884434  0.58391639  0.23778754  1
  O2-  O382  1  0.24352834  0.58031512  0.54400365  1
  O2-  O383  1  0.26639928  0.57905982  0.86379339  1
  O2-  O384  1  0.58110224  0.08216213  0.22488921  1
  O2-  O385  1  0.56400761  0.07886360  0.55626372  1
  O2-  O386  1  0.60209233  0.08481787  0.89393412  1
  O2-  O387  1  0.56473097  0.58096393  0.21963121  1
  O2-  O388  1  0.57995665  0.57786406  0.57540482  1
  O2-  O389  1  0.56556500  0.57521457  0.86514578  1
  O2-  O390  1  0.91378094  0.07387251  0.20747801  1
  O2-  O391  1  0.91257914  0.07426932  0.57373613  1
  O2-  O392  1  0.90074844  0.08805944  0.89784832  1
  O2-  O393  1  0.92302585  0.57915473  0.20500251  1
  O2-  O394  1  0.92358090  0.58226053  0.53532625  1
  O2-  O395  1  0.91904259  0.57964679  0.90679671  1
  O2-  O396  1  0.07331350  0.41573507  0.11066019  1
  O2-  O397  1  0.07600144  0.42820149  0.46237490  1
  O2-  O398  1  0.06929494  0.41531394  0.77456793  1
  O2-  O399  1  0.06064267  0.91702437  0.09482229  1
  O2-  O400  1  0.08433413  0.92753977  0.44731838  1
  O2-  O401  1  0.06660762  0.92151903  0.79110647  1
  O2-  O402  1  0.42185224  0.41756184  0.08026140  1
  O2-  O403  1  0.41621447  0.41605296  0.44279476  1
  O2-  O404  1  0.41824365  0.41793353  0.78523910  1
  O2-  O405  1  0.40448802  0.91625001  0.10257778  1
  O2-  O406  1  0.40532873  0.92512232  0.44276002  1
  O2-  O407  1  0.41725946  0.92063358  0.78690820  1
  O2-  O408  1  0.74579177  0.41104185  0.08889616  1
  O2-  O409  1  0.75403784  0.41556386  0.43824153  1
  O2-  O410  1  0.76648057  0.41925532  0.79676741  1
  O2-  O411  1  0.77109564  0.91561422  0.10342003  1
  O2-  O412  1  0.74557387  0.92938657  0.44081120  1
  O2-  O413  1  0.76620178  0.91563982  0.78749675  1
  O2-  O414  1  0.22011158  0.42164118  0.22082064  1
  O2-  O415  1  0.24264047  0.42217157  0.55192278  1
  O2-  O416  1  0.24770031  0.41743923  0.90076194  1
  O2-  O417  1  0.25815974  0.92170582  0.22178007  1
  O2-  O418  1  0.22675712  0.92388332  0.55069965  1
  O2-  O419  1  0.25603745  0.91270611  0.89761786  1
  O2-  O420  1  0.60049971  0.41815024  0.22693659  1
  O2-  O421  1  0.58465046  0.41886580  0.54749902  1
  O2-  O422  1  0.60666258  0.41702925  0.91341821  1
  O2-  O423  1  0.57073443  0.91586870  0.22342241  1
  O2-  O424  1  0.59565572  0.92777746  0.54823271  1
  O2-  O425  1  0.57762913  0.91651838  0.90169374  1
  O2-  O426  1  0.92973092  0.41719954  0.22347720  1
  O2-  O427  1  0.91111077  0.41769191  0.53750769  1
  O2-  O428  1  0.89784119  0.41702877  0.89130110  1
  O2-  O429  1  0.91867608  0.92166116  0.22222325  1
  O2-  O430  1  0.92998892  0.92352473  0.54840918  1
  O2-  O431  1  0.91620814  0.91773490  0.89258545  1
  O2-  O432  1  -0.00755862  0.01092646  0.00100335  1
  O2-  O433  1  -0.00607985  0.02184819  0.34870200  1
  O2-  O434  1  -0.00325588  -0.02038368  0.66541316  1
  O2-  O435  1  0.00996895  0.49829254  -0.00981853  1
  O2-  O436  1  0.00082414  0.48876019  0.34020840  1
  O2-  O437  1  -0.01128789  0.47507094  0.65885033  1
  O2-  O438  1  0.32880866  0.00746538  0.00373793  1
  O2-  O439  1  0.34532786  -0.00305287  0.32098932  1
  O2-  O440  1  0.33265220  0.01191790  0.66262333  1
  O2-  O441  1  0.33407954  0.52495899  0.00512977  1
  O2-  O442  1  0.33683241  0.50709077  0.34641481  1
  O2-  O443  1  0.34677337  0.51027976  0.64237372  1
  O2-  O444  1  0.66796306  -0.00103955  0.00354037  1
  O2-  O445  1  0.66103416  0.00016819  0.34219947  1
  O2-  O446  1  0.66421785  -0.02088782  0.67649355  1
  O2-  O447  1  0.66455172  0.50065735  0.01259965  1
  O2-  O448  1  0.66197323  0.49332006  0.34040951  1
  O2-  O449  1  0.66745945  0.49983056  0.66622107  1
  O2-  O450  1  0.15357209  -0.00706590  -0.02431390  1
  O2-  O451  1  0.17801901  -0.01222091  0.35124543  1
  O2-  O452  1  0.16999676  0.00919019  0.66503532  1
  O2-  O453  1  0.17543295  0.51123692  0.01576431  1
  O2-  O454  1  0.16469595  0.48636448  0.34497725  1
  O2-  O455  1  0.14544031  0.50401638  0.63193864  1
  O2-  O456  1  0.49450501  0.01627422  -0.00183309  1
  O2-  O457  1  0.50149199  -0.01145266  0.34044097  1
  O2-  O458  1  0.50556720  -0.01196590  0.66658389  1
  O2-  O459  1  0.50034542  0.51789132  -0.00036434  1
  O2-  O460  1  0.50196124  0.49535254  0.34112650  1
  O2-  O461  1  0.50944092  0.50902172  0.67459694  1
  O2-  O462  1  0.82406121  0.01324032  0.00383782  1
  O2-  O463  1  0.82795960  0.00666234  0.33637218  1
  O2-  O464  1  0.83389628  -0.02123839  0.66312739  1
  O2-  O465  1  0.84197280  0.49241381  0.01249623  1
  O2-  O466  1  0.82501019  0.49195060  0.33574141  1
  O2-  O467  1  0.82905636  0.49092938  0.66163798  1
  O2-  O468  1  0.41951100  0.25196033  0.72773778  1
  O2-  O469  1  0.41135663  0.25340172  0.07562652  1
  O2-  O470  1  0.24530267  0.75116623  0.26557668  1
  O2-  O471  1  0.08820558  0.25180810  0.06954805  1
  O2-  O472  1  0.73887200  0.24705832  0.72810740  1
  O2-  O473  1  0.58435001  0.25014649  0.59917053  1
  O2-  O474  1  0.09651022  0.25186653  0.73729406  1
  O2-  O475  1  0.07896573  0.75695456  0.73026781  1
  O2-  O476  1  0.57823423  0.75958407  0.59706811  1
  O2-  O477  1  0.58868403  0.74578822  0.93520825  1
  O2-  O478  1  0.25220376  0.25684740  0.26135833  1
  O2-  O479  1  0.75125544  0.75197340  0.71788840  1
  O2-  O480  1  0.75247613  0.24867827  0.39874582  1
  O2-  O481  1  0.42286129  0.24948906  0.39312034  1
  O2-  O482  1  0.91665998  0.75232776  0.61268725  1
  O2-  O483  1  0.41794027  0.75479477  0.40034461  1
  O2-  O484  1  0.74115424  0.75286490  0.40799947  1
  O2-  O485  1  0.74237414  0.74893298  0.06080670  1
  O2-  O486  1  0.25005894  0.25205478  0.93914159  1
  O2-  O487  1  0.10208893  0.74993269  0.05346323  1
  O2-  O488  1  0.57898901  0.25131542  0.27381448  1
  O2-  O489  1  0.44117567  0.74938579  0.73809459  1
  O2-  O490  1  0.58876969  0.74900973  0.27737771  1
  O2-  O491  1  0.23042488  0.74476978  0.94800627  1
  O2-  O492  1  0.91373267  0.25068226  0.27341416  1
