# generated using pymatgen
data_Ca108Mn108O277
_symmetry_space_group_name_H-M   'P 1'
_cell_length_a   16.03209941
_cell_length_b   22.31255184
_cell_length_c   16.39388110
_cell_angle_alpha   89.99690880
_cell_angle_beta   89.99762278
_cell_angle_gamma   89.99992289
_symmetry_Int_Tables_number   1
_chemical_formula_structural   Ca108Mn108O277
_chemical_formula_sum   'Ca108 Mn108 O277'
_cell_volume   5864.37075903
_cell_formula_units_Z   1
loop_
 _symmetry_equiv_pos_site_id
 _symmetry_equiv_pos_as_xyz
  1  'x, y, z'
loop_
 _atom_type_symbol
 _atom_type_oxidation_number
  Ca2+  2.0
  Mn3.34+  3.34
  O2-  -2.0
loop_
 _atom_site_type_symbol
 _atom_site_label
 _atom_site_symmetry_multiplicity
 _atom_site_fract_x
 _atom_site_fract_y
 _atom_site_fract_z
 _atom_site_occupancy
  Ca2+  Ca0  1  0.08265926  0.25225724  0.25453179  1
  Ca2+  Ca1  1  0.07219197  0.22529951  0.58760687  1
  Ca2+  Ca2  1  0.06874057  0.24896172  0.90547290  1
  Ca2+  Ca3  1  0.08719661  0.75781359  0.23104702  1
  Ca2+  Ca4  1  0.08090885  0.75775388  0.59651060  1
  Ca2+  Ca5  1  0.06811222  0.75407257  0.91977257  1
  Ca2+  Ca6  1  0.43259163  0.24580097  0.26186253  1
  Ca2+  Ca7  1  0.41887803  0.24437382  0.57164519  1
  Ca2+  Ca8  1  0.44543220  0.24472656  0.92305399  1
  Ca2+  Ca9  1  0.41373329  0.76883798  0.24795490  1
  Ca2+  Ca10  1  0.41333125  0.77662841  0.58235205  1
  Ca2+  Ca11  1  0.43509632  0.75285613  0.93126268  1
  Ca2+  Ca12  1  0.73146355  0.24891579  0.26375313  1
  Ca2+  Ca13  1  0.76200912  0.23846998  0.58559456  1
  Ca2+  Ca14  1  0.72536565  0.23785127  0.90770670  1
  Ca2+  Ca15  1  0.73558761  0.75854691  0.25616042  1
  Ca2+  Ca16  1  0.74866174  0.76120258  0.58496092  1
  Ca2+  Ca17  1  0.76092590  0.76570337  0.91107924  1
  Ca2+  Ca18  1  0.26209239  0.25014493  0.10507026  1
  Ca2+  Ca19  1  0.26519750  0.24690792  0.41737945  1
  Ca2+  Ca20  1  0.24544303  0.24915612  0.73003830  1
  Ca2+  Ca21  1  0.23573133  0.74333250  0.09777265  1
  Ca2+  Ca22  1  0.25798605  0.76552883  0.40852039  1
  Ca2+  Ca23  1  0.22697352  0.75777267  0.74729082  1
  Ca2+  Ca24  1  0.57593211  0.22926183  0.09414618  1
  Ca2+  Ca25  1  0.57318341  0.23933781  0.40589643  1
  Ca2+  Ca26  1  0.58683582  0.22535961  0.74520893  1
  Ca2+  Ca27  1  0.57416285  0.74803142  0.09409687  1
  Ca2+  Ca28  1  0.58756351  0.76834804  0.41029463  1
  Ca2+  Ca29  1  0.59816468  0.75763319  0.75378232  1
  Ca2+  Ca30  1  0.91001876  0.24480376  0.09505028  1
  Ca2+  Ca31  1  0.91252470  0.24584731  0.42911276  1
  Ca2+  Ca32  1  0.91271372  0.23377847  0.73638025  1
  Ca2+  Ca33  1  0.93657633  0.75403078  0.07322866  1
  Ca2+  Ca34  1  0.89991715  0.75175587  0.41287997  1
  Ca2+  Ca35  1  0.93679362  0.74631365  0.76031046  1
  Ca2+  Ca36  1  0.75656064  0.58396487  0.27703627  1
  Ca2+  Ca37  1  0.46008241  0.11356578  0.88791310  1
  Ca2+  Ca38  1  0.08325899  0.61048979  0.22214725  1
  Ca2+  Ca39  1  0.07993913  0.09603555  0.24811436  1
  Ca2+  Ca40  1  0.57259530  0.59084699  0.07132279  1
  Ca2+  Ca41  1  0.74483886  0.59874094  0.90265984  1
  Ca2+  Ca42  1  0.05971032  0.57961620  0.60509587  1
  Ca2+  Ca43  1  0.91412957  0.07976085  0.71938296  1
  Ca2+  Ca44  1  0.22540768  0.56333382  0.73201027  1
  Ca2+  Ca45  1  0.27434271  0.11127415  0.71832320  1
  Ca2+  Ca46  1  0.42686862  0.09953158  0.27162519  1
  Ca2+  Ca47  1  0.40535239  0.58545856  0.23982057  1
  Ca2+  Ca48  1  0.04587852  0.59191921  0.91500614  1
  Ca2+  Ca49  1  0.24107482  0.57417805  0.40707734  1
  Ca2+  Ca50  1  0.58975198  0.59598117  0.76279333  1
  Ca2+  Ca51  1  0.93570287  0.59696623  0.08028645  1
  Ca2+  Ca52  1  0.23626860  0.56624481  0.72734064  1
  Ca2+  Ca53  1  0.71806484  0.09787023  0.25961183  1
  Ca2+  Ca54  1  0.75771311  0.59778588  0.90270774  1
  Ca2+  Ca55  1  0.05143464  0.58667995  0.90993135  1
  Ca2+  Ca56  1  0.90696875  0.58320246  0.41225252  1
  Ca2+  Ca57  1  0.45729783  0.59370899  0.92851912  1
  Ca2+  Ca58  1  0.06558855  0.57397697  0.59827340  1
  Ca2+  Ca59  1  0.93690843  0.08840028  0.06767247  1
  Ca2+  Ca60  1  0.60401227  0.57953959  0.40694926  1
  Ca2+  Ca61  1  0.41821580  0.58517547  0.24019999  1
  Ca2+  Ca62  1  0.27015546  0.11028768  0.43349970  1
  Ca2+  Ca63  1  0.76943502  0.58345041  0.58692150  1
  Ca2+  Ca64  1  0.91981322  0.10528738  0.44547506  1
  Ca2+  Ca65  1  0.75660827  0.58286821  0.58654210  1
  Ca2+  Ca66  1  0.23915027  0.09497399  0.08806566  1
  Ca2+  Ca67  1  0.43670655  0.09787550  0.26873485  1
  Ca2+  Ca68  1  0.56037045  0.10518873  0.41966080  1
  Ca2+  Ca69  1  0.06633202  0.09062790  0.91239356  1
  Ca2+  Ca70  1  0.41082041  0.11700574  0.57357757  1
  Ca2+  Ca71  1  0.76709253  0.09123496  0.59896202  1
  Ca2+  Ca72  1  0.77134613  0.92373453  0.60573836  1
  Ca2+  Ca73  1  0.26699979  0.91424497  0.40156869  1
  Ca2+  Ca74  1  0.40612945  0.40094537  0.91022148  1
  Ca2+  Ca75  1  0.08346687  0.40562264  0.91279986  1
  Ca2+  Ca76  1  0.91424905  0.41077205  0.75723005  1
  Ca2+  Ca77  1  0.92661610  0.41284305  0.75600567  1
  Ca2+  Ca78  1  0.91645063  0.40128537  0.07523907  1
  Ca2+  Ca79  1  0.41094126  0.40480757  0.58462320  1
  Ca2+  Ca80  1  0.06262153  0.91642628  0.92053171  1
  Ca2+  Ca81  1  0.75648474  0.90345105  0.25172649  1
  Ca2+  Ca82  1  0.25240469  0.90693871  0.74913143  1
  Ca2+  Ca83  1  0.22502239  0.41382019  0.41981309  1
  Ca2+  Ca84  1  0.57684033  0.40385947  0.74649734  1
  Ca2+  Ca85  1  0.91029265  0.40811202  0.42080836  1
  Ca2+  Ca86  1  0.91924907  0.89940559  0.41464484  1
  Ca2+  Ca87  1  0.57418155  0.39797795  0.08872122  1
  Ca2+  Ca88  1  0.61307002  0.92028954  0.74553585  1
  Ca2+  Ca89  1  0.41027479  0.40921477  0.25327210  1
  Ca2+  Ca90  1  0.92909772  0.39999676  0.07510479  1
  Ca2+  Ca91  1  0.58781671  0.40362392  0.74881782  1
  Ca2+  Ca92  1  0.74940340  0.40649054  0.57697576  1
  Ca2+  Ca93  1  0.23527100  0.41301071  0.42145276  1
  Ca2+  Ca94  1  0.41888969  0.40104862  0.91079320  1
  Ca2+  Ca95  1  0.06439293  0.91654360  0.59875848  1
  Ca2+  Ca96  1  0.57981372  0.90021807  0.08354627  1
  Ca2+  Ca97  1  0.89849779  0.92206511  0.75362818  1
  Ca2+  Ca98  1  0.07112561  0.40666981  0.91494297  1
  Ca2+  Ca99  1  0.10303618  0.42087654  0.60519245  1
  Ca2+  Ca100  1  0.41986361  0.90961313  0.91855061  1
  Ca2+  Ca101  1  0.92111871  0.40846303  0.42127910  1
  Ca2+  Ca102  1  0.24346842  0.90633394  0.08504060  1
  Ca2+  Ca103  1  0.39825534  0.40494391  0.58501000  1
  Ca2+  Ca104  1  0.59265694  0.90072794  0.08340301  1
  Ca2+  Ca105  1  0.23292945  0.90397533  0.08761005  1
  Ca2+  Ca106  1  0.23749943  0.39865525  0.08787588  1
  Ca2+  Ca107  1  0.58479923  0.39902215  0.09052401  1
  Mn3.34+  Mn108  1  0.08456564  0.32070365  0.08623280  1
  Mn3.34+  Mn109  1  0.08087856  0.33268120  0.41949053  1
  Mn3.34+  Mn110  1  0.08354755  0.33080563  0.74701841  1
  Mn3.34+  Mn111  1  0.07653745  0.83345598  0.08152285  1
  Mn3.34+  Mn112  1  0.08187911  0.82961548  0.41986851  1
  Mn3.34+  Mn113  1  0.08160743  0.83602903  0.75364424  1
  Mn3.34+  Mn114  1  0.41325649  0.33097617  0.08912947  1
  Mn3.34+  Mn115  1  0.41707742  0.33384438  0.41601020  1
  Mn3.34+  Mn116  1  0.41309891  0.31828527  0.75079489  1
  Mn3.34+  Mn117  1  0.41501761  0.83306421  0.08561045  1
  Mn3.34+  Mn118  1  0.42222048  0.84812596  0.41870798  1
  Mn3.34+  Mn119  1  0.41816471  0.83491379  0.75526832  1
  Mn3.34+  Mn120  1  0.74885100  0.33047283  0.08375396  1
  Mn3.34+  Mn121  1  0.74803454  0.33745621  0.41645281  1
  Mn3.34+  Mn122  1  0.75031218  0.33009785  0.74696542  1
  Mn3.34+  Mn123  1  0.76081812  0.83494126  0.08279908  1
  Mn3.34+  Mn124  1  0.74933588  0.83434077  0.42253455  1
  Mn3.34+  Mn125  1  0.75531821  0.83616398  0.74909793  1
  Mn3.34+  Mn126  1  0.24563980  0.33446082  0.25357887  1
  Mn3.34+  Mn127  1  0.24420093  0.32939206  0.58103801  1
  Mn3.34+  Mn128  1  0.24818597  0.32398210  0.91473663  1
  Mn3.34+  Mn129  1  0.24822499  0.83707179  0.25326761  1
  Mn3.34+  Mn130  1  0.24744674  0.83628693  0.57990407  1
  Mn3.34+  Mn131  1  0.25126889  0.83440009  0.91212708  1
  Mn3.34+  Mn132  1  0.58502834  0.33409792  0.25916966  1
  Mn3.34+  Mn133  1  0.58609254  0.33150923  0.57470036  1
  Mn3.34+  Mn134  1  0.58918339  0.32984683  0.91448121  1
  Mn3.34+  Mn135  1  0.58147901  0.83952360  0.25715275  1
  Mn3.34+  Mn136  1  0.58254968  0.83604109  0.58267051  1
  Mn3.34+  Mn137  1  0.58897646  0.83923480  0.90845155  1
  Mn3.34+  Mn138  1  0.91533743  0.32955837  0.25208238  1
  Mn3.34+  Mn139  1  0.91881710  0.33071091  0.58456637  1
  Mn3.34+  Mn140  1  0.90648435  0.32741441  0.91152155  1
  Mn3.34+  Mn141  1  0.92066555  0.83509911  0.24738694  1
  Mn3.34+  Mn142  1  0.91783516  0.83784277  0.58042668  1
  Mn3.34+  Mn143  1  0.91323506  0.84352296  0.91392877  1
  Mn3.34+  Mn144  1  0.40965475  0.66751507  0.41760578  1
  Mn3.34+  Mn145  1  0.41280969  0.67613424  0.75496743  1
  Mn3.34+  Mn146  1  0.74731964  0.15305265  0.75421894  1
  Mn3.34+  Mn147  1  0.91526798  0.67198730  0.24808655  1
  Mn3.34+  Mn148  1  0.75436396  0.16213843  0.08119078  1
  Mn3.34+  Mn149  1  0.58442036  0.17002956  0.58455887  1
  Mn3.34+  Mn150  1  0.07895618  0.17166964  0.08584530  1
  Mn3.34+  Mn151  1  0.08166234  0.16459414  0.74581809  1
  Mn3.34+  Mn152  1  0.74851862  0.16859765  0.42227034  1
  Mn3.34+  Mn153  1  0.58710901  0.66783284  0.58254047  1
  Mn3.34+  Mn154  1  0.25627811  0.17219836  0.91519414  1
  Mn3.34+  Mn155  1  0.91463515  0.16217899  0.25601905  1
  Mn3.34+  Mn156  1  0.24226781  0.67366047  0.91591085  1
  Mn3.34+  Mn157  1  0.42215792  0.66104078  0.42146650  1
  Mn3.34+  Mn158  1  0.07675154  0.67140812  0.41613357  1
  Mn3.34+  Mn159  1  0.24912380  0.66635649  0.24761393  1
  Mn3.34+  Mn160  1  0.41580499  0.66967619  0.08681164  1
  Mn3.34+  Mn161  1  0.08484846  0.66492109  0.41869954  1
  Mn3.34+  Mn162  1  0.75531193  0.67189041  0.08726994  1
  Mn3.34+  Mn163  1  0.24388799  0.66736107  0.58154243  1
  Mn3.34+  Mn164  1  0.25584531  0.66779281  0.91596055  1
  Mn3.34+  Mn165  1  0.25692213  0.66122880  0.57825372  1
  Mn3.34+  Mn166  1  0.74611863  0.66588944  0.08940940  1
  Mn3.34+  Mn167  1  0.91476909  0.67108368  0.91155026  1
  Mn3.34+  Mn168  1  0.58351769  0.66453457  0.25286731  1
  Mn3.34+  Mn169  1  0.41676435  0.16649910  0.08763239  1
  Mn3.34+  Mn170  1  0.74393712  0.15792834  0.08252087  1
  Mn3.34+  Mn171  1  0.91030518  0.15740141  0.90634205  1
  Mn3.34+  Mn172  1  0.42284658  0.66942706  0.75754376  1
  Mn3.34+  Mn173  1  0.24374012  0.16713676  0.91423367  1
  Mn3.34+  Mn174  1  0.75099560  0.66875855  0.41875139  1
  Mn3.34+  Mn175  1  0.91633476  0.67408555  0.58143170  1
  Mn3.34+  Mn176  1  0.75341842  0.67165537  0.74803744  1
  Mn3.34+  Mn177  1  0.57394334  0.66164353  0.58050886  1
  Mn3.34+  Mn178  1  0.24565640  0.16769343  0.25070839  1
  Mn3.34+  Mn179  1  0.08701216  0.17177444  0.42036408  1
  Mn3.34+  Mn180  1  0.57432686  0.50065224  0.58500162  1
  Mn3.34+  Mn181  1  0.08581410  0.00412303  0.42224099  1
  Mn3.34+  Mn182  1  0.24921852  0.00126659  0.91839964  1
  Mn3.34+  Mn183  1  0.07916768  -0.00014620  0.07535786  1
  Mn3.34+  Mn184  1  0.08510003  0.00172871  0.74579638  1
  Mn3.34+  Mn185  1  0.23617384  0.49959586  0.25137766  1
  Mn3.34+  Mn186  1  0.57249857  -0.00216595  0.26633957  1
  Mn3.34+  Mn187  1  0.74406613  0.00320416  0.41897008  1
  Mn3.34+  Mn188  1  0.23987867  0.50041459  0.90757269  1
  Mn3.34+  Mn189  1  0.42918039  0.00673921  0.08425764  1
  Mn3.34+  Mn190  1  0.91724961  0.00234578  0.24788996  1
  Mn3.34+  Mn191  1  0.93176001  0.49519137  0.25885422  1
  Mn3.34+  Mn192  1  0.75365343  0.00242995  0.06087798  1
  Mn3.34+  Mn193  1  0.25188763  0.00483278  0.26024625  1
  Mn3.34+  Mn194  1  0.75000428  0.49937853  0.74702659  1
  Mn3.34+  Mn195  1  0.92254193  0.50168672  0.25641004  1
  Mn3.34+  Mn196  1  0.41096764  0.49883340  0.07670820  1
  Mn3.34+  Mn197  1  0.41748783  0.50239224  0.75411751  1
  Mn3.34+  Mn198  1  0.41959821  0.00095512  0.08619270  1
  Mn3.34+  Mn199  1  0.41494251  -0.00007209  0.75215916  1
  Mn3.34+  Mn200  1  0.59503878  0.49779802  0.25822928  1
  Mn3.34+  Mn201  1  0.59498239  0.49456667  0.91952585  1
  Mn3.34+  Mn202  1  0.08253547  0.49713661  0.07849933  1
  Mn3.34+  Mn203  1  0.58207240  0.00478446  0.58433928  1
  Mn3.34+  Mn204  1  0.07456826  0.00045500  0.42284223  1
  Mn3.34+  Mn205  1  0.25095468  0.50406613  0.90935534  1
  Mn3.34+  Mn206  1  0.75070938  0.49844639  0.09634296  1
  Mn3.34+  Mn207  1  0.76182610  0.50223809  0.09365564  1
  Mn3.34+  Mn208  1  0.59107839  0.00207251  0.91361186  1
  Mn3.34+  Mn209  1  0.25104623  0.00203972  0.57963175  1
  Mn3.34+  Mn210  1  0.26021477  -0.00390039  0.58021852  1
  Mn3.34+  Mn211  1  0.56917809  -0.00141946  0.58371029  1
  Mn3.34+  Mn212  1  0.42403526  0.50071006  0.41122517  1
  Mn3.34+  Mn213  1  0.91635211  0.49648219  0.57889471  1
  Mn3.34+  Mn214  1  0.75794650  -0.00125314  0.41757011  1
  Mn3.34+  Mn215  1  0.76526473  -0.00428741  0.06122297  1
  O2-  O216  1  -0.00316639  0.17458630  -0.00186795  1
  O2-  O217  1  -0.00201111  0.14989128  0.33271231  1
  O2-  O218  1  0.00274225  0.15302850  0.67437441  1
  O2-  O219  1  -0.00749785  0.65962198  -0.00653090  1
  O2-  O220  1  0.00065395  0.66388637  0.32907083  1
  O2-  O221  1  0.00574431  0.66340853  0.64980919  1
  O2-  O222  1  0.32662527  0.15308312  0.00313445  1
  O2-  O223  1  0.32913024  0.15391216  0.32361829  1
  O2-  O224  1  0.33598060  0.19053774  0.66067530  1
  O2-  O225  1  0.32576306  0.67084617  0.00330280  1
  O2-  O226  1  0.33289961  0.64275604  0.33457926  1
  O2-  O227  1  0.32888991  0.65226691  0.68148140  1
  O2-  O228  1  0.66739839  0.15964022  0.00279247  1
  O2-  O229  1  0.66484186  0.16071609  0.34528928  1
  O2-  O230  1  0.67280121  0.15443280  0.66250642  1
  O2-  O231  1  0.67293573  0.64540660  0.00347731  1
  O2-  O232  1  0.66964517  0.65091784  0.33282907  1
  O2-  O233  1  0.66987232  0.64429459  0.66489649  1
  O2-  O234  1  0.16495365  0.17413790  -0.00115584  1
  O2-  O235  1  0.16343416  0.15593176  0.32894269  1
  O2-  O236  1  0.16813000  0.16917043  0.67668342  1
  O2-  O237  1  0.15666779  0.65172790  -0.01918092  1
  O2-  O238  1  0.16781108  0.64909400  0.33571723  1
  O2-  O239  1  0.16725247  0.64055122  0.66271435  1
  O2-  O240  1  0.49280451  0.16083514  0.00888467  1
  O2-  O241  1  0.49947744  0.16507245  0.33351681  1
  O2-  O242  1  0.50067964  0.16720130  0.65885754  1
  O2-  O243  1  0.50097320  0.66797368  0.00843833  1
  O2-  O244  1  0.50007538  0.63873299  0.33311169  1
  O2-  O245  1  0.50281359  0.65623394  0.67401772  1
  O2-  O246  1  0.83880602  0.15378645  0.00328697  1
  O2-  O247  1  0.82906766  0.14448013  0.33279975  1
  O2-  O248  1  0.83274967  0.16184230  0.67668440  1
  O2-  O249  1  0.83208094  0.65188190  0.00166426  1
  O2-  O250  1  0.83897699  0.65971981  0.33802799  1
  O2-  O251  1  0.83229425  0.65650150  0.66152277  1
  O2-  O252  1  -0.00136995  0.32491847  -0.00560725  1
  O2-  O253  1  -0.00205142  0.35217812  0.33716168  1
  O2-  O254  1  -0.00116273  0.35535169  0.66811557  1
  O2-  O255  1  0.00231168  0.84168313  -0.00527468  1
  O2-  O256  1  -0.00178241  0.80838447  0.33542893  1
  O2-  O257  1  -0.00357050  0.84287387  0.66824784  1
  O2-  O258  1  0.32973158  0.34795691  0.00391527  1
  O2-  O259  1  0.32421765  0.35615125  0.34170277  1
  O2-  O260  1  0.33573991  0.32512085  0.66112679  1
  O2-  O261  1  0.33277860  0.84818014  0.00021875  1
  O2-  O262  1  0.33482726  0.84227027  0.33281675  1
  O2-  O263  1  0.33000696  0.83414536  0.67533623  1
  O2-  O264  1  0.66427068  0.35170436  -0.00078969  1
  O2-  O265  1  0.66853745  0.33898104  0.33442217  1
  O2-  O266  1  0.66594772  0.35319036  0.66422624  1
  O2-  O267  1  0.66297687  0.84458193  -0.00027463  1
  O2-  O268  1  0.67278513  0.84782440  0.33429092  1
  O2-  O269  1  0.66709151  0.84608027  0.66629891  1
  O2-  O270  1  0.16406316  0.32973703  -0.00213741  1
  O2-  O271  1  0.16400429  0.34672622  0.33604568  1
  O2-  O272  1  0.16553624  0.33482044  0.66488847  1
  O2-  O273  1  0.16918869  0.84531212  -0.00196998  1
  O2-  O274  1  0.16763249  0.83455809  0.34074298  1
  O2-  O275  1  0.16395505  0.85009946  0.66566282  1
  O2-  O276  1  0.49601280  0.34728218  -0.00275884  1
  O2-  O277  1  0.49027282  0.34655913  0.32698132  1
  O2-  O278  1  0.49593476  0.34563840  0.67038871  1
  O2-  O279  1  0.50383887  0.83796665  -0.00331823  1
  O2-  O280  1  0.49846344  0.83908932  0.33412783  1
  O2-  O281  1  0.50049436  0.82708758  0.67490698  1
  O2-  O282  1  0.83678954  0.34253386  0.00268221  1
  O2-  O283  1  0.83782326  0.35099382  0.33450422  1
  O2-  O284  1  0.83596636  0.35283846  0.66755977  1
  O2-  O285  1  0.83464838  0.83844398  -0.00143344  1
  O2-  O286  1  0.83775420  0.83459853  0.33686790  1
  O2-  O287  1  0.83440606  0.83757476  0.66052262  1
  O2-  O288  1  0.00088684  0.18539681  0.16976738  1
  O2-  O289  1  0.00143759  0.17833962  0.49040018  1
  O2-  O290  1  -0.00261969  0.18008191  0.83751664  1
  O2-  O291  1  -0.00841920  0.68666739  0.17065800  1
  O2-  O292  1  -0.00688311  0.69384402  0.49361904  1
  O2-  O293  1  0.00274745  0.67244149  0.84077950  1
  O2-  O294  1  0.32577432  0.17592332  0.16734093  1
  O2-  O295  1  0.33231458  0.18451030  0.50219430  1
  O2-  O296  1  0.33231689  0.18787010  0.83799720  1
  O2-  O297  1  0.34026532  0.67584895  0.17730565  1
  O2-  O298  1  0.33353656  0.69222591  0.50386203  1
  O2-  O299  1  0.33841948  0.69487599  0.84398065  1
  O2-  O300  1  0.67405872  0.17355866  0.16957602  1
  O2-  O301  1  0.66771620  0.18574387  0.50039132  1
  O2-  O302  1  0.67078084  0.17227658  0.82513943  1
  O2-  O303  1  0.65995806  0.68086215  0.16445606  1
  O2-  O304  1  0.66547589  0.67980076  0.49799459  1
  O2-  O305  1  0.67419816  0.67734028  0.82918078  1
  O2-  O306  1  0.16450869  0.18470172  0.16305715  1
  O2-  O307  1  0.17024220  0.18801578  0.48803251  1
  O2-  O308  1  0.16662143  0.19213002  0.83665216  1
  O2-  O309  1  0.16700756  0.68041975  0.17630348  1
  O2-  O310  1  0.16887224  0.69360059  0.49161079  1
  O2-  O311  1  0.17745483  0.67925953  0.82632806  1
  O2-  O312  1  0.48499340  0.17430789  0.17285596  1
  O2-  O313  1  0.50708696  0.18009669  0.50323681  1
  O2-  O314  1  0.49056258  0.19323627  0.82397681  1
  O2-  O315  1  0.49608130  0.67556050  0.17695390  1
  O2-  O316  1  0.50049376  0.68916322  0.49622936  1
  O2-  O317  1  0.50291360  0.68694374  0.83497856  1
  O2-  O318  1  0.83442311  0.17067896  0.16332071  1
  O2-  O319  1  0.83257474  0.17379311  0.49865773  1
  O2-  O320  1  0.83118391  0.18590185  0.83971894  1
  O2-  O321  1  0.82711782  0.69029144  0.17263775  1
  O2-  O322  1  0.82752778  0.68598682  0.50666768  1
  O2-  O323  1  0.82812199  0.68353072  0.83599634  1
  O2-  O324  1  -0.00414730  0.31459294  0.16052008  1
  O2-  O325  1  -0.00709219  0.32729076  0.49365363  1
  O2-  O326  1  -0.00451774  0.32012160  0.83305079  1
  O2-  O327  1  -0.00201034  0.81911619  0.16412710  1
  O2-  O328  1  -0.00262715  0.81206864  0.50250807  1
  O2-  O329  1  0.00268011  0.82340560  0.83577108  1
  O2-  O330  1  0.33678635  0.32652179  0.17369075  1
  O2-  O331  1  0.33304464  0.32085230  0.50357123  1
  O2-  O332  1  0.34009807  0.31225678  0.84396136  1
  O2-  O333  1  0.32417311  0.82981938  0.15721042  1
  O2-  O334  1  0.33046320  0.82390386  0.49551055  1
  O2-  O335  1  0.33589113  0.80949197  0.83846019  1
  O2-  O336  1  0.65911073  0.32488349  0.15785513  1
  O2-  O337  1  0.67533720  0.32637838  0.50530296  1
  O2-  O338  1  0.65831039  0.32624300  0.82147926  1
  O2-  O339  1  0.66517623  0.83006055  0.16408571  1
  O2-  O340  1  0.66940007  0.82005439  0.50318161  1
  O2-  O341  1  0.67197805  0.82093637  0.83184094  1
  O2-  O342  1  0.17033839  0.31649331  0.16381441  1
  O2-  O343  1  0.17250490  0.31777547  0.49153693  1
  O2-  O344  1  0.15547831  0.32090620  0.84087509  1
  O2-  O345  1  0.16975293  0.82695537  0.16044420  1
  O2-  O346  1  0.16206692  0.81183988  0.50127952  1
  O2-  O347  1  0.16589633  0.81778174  0.83712799  1
  O2-  O348  1  0.50517937  0.32166380  0.15712454  1
  O2-  O349  1  0.48996306  0.32584427  0.50844389  1
  O2-  O350  1  0.49856514  0.32415839  0.83342702  1
  O2-  O351  1  0.50595142  0.82458700  0.16104471  1
  O2-  O352  1  0.50131392  0.82083588  0.49801509  1
  O2-  O353  1  0.50240992  0.81189720  0.83700522  1
  O2-  O354  1  0.84015865  0.32597342  0.15638610  1
  O2-  O355  1  0.83786646  0.32248010  0.50105192  1
  O2-  O356  1  0.83906555  0.32314644  0.82045351  1
  O2-  O357  1  0.82991142  0.81448281  0.17551958  1
  O2-  O358  1  0.83704299  0.81450878  0.50140675  1
  O2-  O359  1  0.84180621  0.82134569  0.82361424  1
  O2-  O360  1  0.08382280  0.08104664  0.10508293  1
  O2-  O361  1  0.09375088  0.08517660  0.44833960  1
  O2-  O362  1  0.09043622  0.08082715  0.77858581  1
  O2-  O363  1  0.07030224  0.57503974  0.10052376  1
  O2-  O364  1  0.07558037  0.58468185  0.46760998  1
  O2-  O365  1  0.13046978  0.54463195  0.82260185  1
  O2-  O366  1  0.39590105  0.08239887  0.12298964  1
  O2-  O367  1  0.41274670  0.07884917  0.44672903  1
  O2-  O368  1  0.39098242  0.07306530  0.78191615  1
  O2-  O369  1  0.42096610  0.58320766  0.10459379  1
  O2-  O370  1  0.40451695  0.58264608  0.45496426  1
  O2-  O371  1  0.42649558  0.58263416  0.79296509  1
  O2-  O372  1  0.75182574  0.06849138  0.12346671  1
  O2-  O373  1  0.73873890  0.08171569  0.45670015  1
  O2-  O374  1  0.76911490  0.07899446  0.76174978  1
  O2-  O375  1  0.75728200  0.58306079  0.13461792  1
  O2-  O376  1  0.75762794  0.58546324  0.45171787  1
  O2-  O377  1  0.74903561  0.58263568  0.77117005  1
  O2-  O378  1  0.22928132  0.08109004  0.22109364  1
  O2-  O379  1  0.27288973  0.08314634  0.57433635  1
  O2-  O380  1  0.23350892  0.08251448  0.89080165  1
  O2-  O381  1  0.25750896  0.58092201  0.22186670  1
  O2-  O382  1  0.24410504  0.58357927  0.54363036  1
  O2-  O383  1  0.27041265  0.58485876  0.87742116  1
  O2-  O384  1  0.56723960  0.06514499  0.21106330  1
  O2-  O385  1  0.57578292  0.08353983  0.55397070  1
  O2-  O386  1  0.58304719  0.07127448  0.87291746  1
  O2-  O387  1  0.57945272  0.57467188  0.20819028  1
  O2-  O388  1  0.59403758  0.58086473  0.54447759  1
  O2-  O389  1  0.60475414  0.57615191  0.89091252  1
  O2-  O390  1  0.93349705  0.07956716  0.20866846  1
  O2-  O391  1  0.89565840  0.05620404  0.56250001  1
  O2-  O392  1  0.92684720  0.08239433  0.88469060  1
  O2-  O393  1  0.92184586  0.58178725  0.21589808  1
  O2-  O394  1  0.91178897  0.57954470  0.55178861  1
  O2-  O395  1  0.90217242  0.58510581  0.89536221  1
  O2-  O396  1  0.06809754  0.41276494  0.08128594  1
  O2-  O397  1  0.09293550  0.41473104  0.45849416  1
  O2-  O398  1  0.06809759  0.41706293  0.78014264  1
  O2-  O399  1  0.09408913  0.91962788  0.10096745  1
  O2-  O400  1  0.06370842  0.91836228  0.45036016  1
  O2-  O401  1  0.09866693  0.92311957  0.78333821  1
  O2-  O402  1  0.43160638  0.41676939  0.11127913  1
  O2-  O403  1  0.40075759  0.42165067  0.45197744  1
  O2-  O404  1  0.41970674  0.41942631  0.77823610  1
  O2-  O405  1  0.44073700  0.91776960  0.10245524  1
  O2-  O406  1  0.40330486  0.92222057  0.43962566  1
  O2-  O407  1  0.40999604  0.92092678  0.78547960  1
  O2-  O408  1  0.74449247  0.41573267  0.10942886  1
  O2-  O409  1  0.77453419  0.41887907  0.44507250  1
  O2-  O410  1  0.75177161  0.41861637  0.77465668  1
  O2-  O411  1  0.74826576  0.92524349  0.11506122  1
  O2-  O412  1  0.77147378  0.91901065  0.45275622  1
  O2-  O413  1  0.75586826  0.91630347  0.75749752  1
  O2-  O414  1  0.24821048  0.41947796  0.21940032  1
  O2-  O415  1  0.26431717  0.42145507  0.55433708  1
  O2-  O416  1  0.24915029  0.41640514  0.88550767  1
  O2-  O417  1  0.25318361  0.92599189  0.22127073  1
  O2-  O418  1  0.23308189  0.92081022  0.53711660  1
  O2-  O419  1  0.25693016  0.92183888  0.88509457  1
  O2-  O420  1  0.57084845  0.42152006  0.22133040  1
  O2-  O421  1  0.56206258  0.41767245  0.56661847  1
  O2-  O422  1  0.55880370  0.41819672  0.88173233  1
  O2-  O423  1  0.59009012  0.92828497  0.21261315  1
  O2-  O424  1  0.58151578  0.91977041  0.55758187  1
  O2-  O425  1  0.57170252  0.92534207  0.87724511  1
  O2-  O426  1  0.92698793  0.42076907  0.20567905  1
  O2-  O427  1  0.91214646  0.41692868  0.55674636  1
  O2-  O428  1  0.93638786  0.41822368  0.89264068  1
  O2-  O429  1  0.90067102  0.92113920  0.24458935  1
  O2-  O430  1  0.92021404  0.91471216  0.55324345  1
  O2-  O431  1  0.92503312  0.92012019  0.88751761  1
  O2-  O432  1  0.02392954  0.00956527  -0.01614637  1
  O2-  O433  1  0.00175111  0.00705173  0.33279563  1
  O2-  O434  1  -0.00924077  -0.01186314  0.69647089  1
  O2-  O435  1  0.02445385  0.50073443  -0.02625308  1
  O2-  O436  1  -0.01260501  0.49844720  0.36185176  1
  O2-  O437  1  -0.00004003  0.49452905  0.65588670  1
  O2-  O438  1  0.33637539  -0.00975106  0.00353569  1
  O2-  O439  1  0.33922987  0.02159901  0.31672176  1
  O2-  O440  1  0.32142319  -0.01031805  0.67966974  1
  O2-  O441  1  0.34908725  0.48747426  -0.02698626  1
  O2-  O442  1  0.34560682  0.50471054  0.31001762  1
  O2-  O443  1  0.32289827  0.50042250  0.69026685  1
  O2-  O444  1  0.65943824  -0.01541588  0.00853915  1
  O2-  O445  1  0.67014485  -0.00045308  0.32555388  1
  O2-  O446  1  0.67532871  -0.00520265  0.64751739  1
  O2-  O447  1  0.66487692  0.50546271  0.01892682  1
  O2-  O448  1  0.66988451  0.51584001  0.32948076  1
  O2-  O449  1  0.67459069  0.50677060  0.65288178  1
  O2-  O450  1  0.18612989  -0.00212262  0.02606345  1
  O2-  O451  1  0.17847356  -0.00934779  0.35111497  1
  O2-  O452  1  0.15453256  -0.00572587  0.65121758  1
  O2-  O453  1  0.18025100  0.48598792  0.00810088  1
  O2-  O454  1  0.18358051  0.49535115  0.35620854  1
  O2-  O455  1  0.15415644  0.51553086  0.64979246  1
  O2-  O456  1  0.50125414  -0.00534336  -0.00897775  1
  O2-  O457  1  0.50080453  0.01973147  0.33856383  1
  O2-  O458  1  0.50544612  -0.00123210  0.67939666  1
  O2-  O459  1  0.50493899  0.50686616  -0.00123937  1
  O2-  O460  1  0.49989685  0.51457150  0.31854330  1
  O2-  O461  1  0.51848258  0.49484895  0.69493050  1
  O2-  O462  1  0.86117731  0.01173340  0.01855984  1
  O2-  O463  1  0.83070843  0.01194010  0.32945757  1
  O2-  O464  1  0.83937027  0.00427088  0.65707998  1
  O2-  O465  1  0.86137855  0.49824682  0.03526246  1
  O2-  O466  1  0.83464242  0.51079802  0.33181468  1
  O2-  O467  1  0.82701556  0.50212847  0.65347075  1
  O2-  O468  1  0.58922015  0.74807714  0.60952067  1
  O2-  O469  1  0.06912042  0.25254045  0.38829117  1
  O2-  O470  1  0.75575395  0.24947816  0.06111093  1
  O2-  O471  1  0.92244624  0.25385833  0.60246671  1
  O2-  O472  1  0.08859424  0.75533737  0.06282698  1
  O2-  O473  1  0.74678874  0.25215051  0.72650278  1
  O2-  O474  1  0.90481104  0.24581755  0.27646940  1
  O2-  O475  1  0.58858986  0.25398981  0.94209056  1
  O2-  O476  1  0.41716670  0.74632152  0.38681818  1
  O2-  O477  1  0.91428047  0.75217479  0.93334787  1
  O2-  O478  1  0.58263309  0.25556674  0.26483168  1
  O2-  O479  1  0.25427706  0.25143719  0.27457563  1
  O2-  O480  1  0.73304163  0.75100501  0.05222571  1
  O2-  O481  1  0.41637355  0.75236754  0.07194121  1
  O2-  O482  1  0.59006634  0.25370888  0.60791273  1
  O2-  O483  1  0.08247379  0.75690518  0.73121804  1
  O2-  O484  1  0.74169115  0.75008610  0.39303429  1
  O2-  O485  1  0.58554897  0.74846904  0.27225748  1
  O2-  O486  1  0.24874601  0.74578481  0.61405201  1
  O2-  O487  1  0.76143202  0.25139207  0.39670923  1
  O2-  O488  1  0.74456951  0.75023434  0.72155407  1
  O2-  O489  1  0.40629117  0.25074623  0.06228900  1
  O2-  O490  1  0.41540588  0.25637587  0.39803527  1
  O2-  O491  1  0.06992655  0.25025486  0.72827227  1
  O2-  O492  1  0.25889473  0.74827013  0.26993784  1
