# generated using pymatgen
data_Ca108Mn108O277
_symmetry_space_group_name_H-M   'P 1'
_cell_length_a   16.02661517
_cell_length_b   22.30394008
_cell_length_c   16.38968025
_cell_angle_alpha   89.99550794
_cell_angle_beta   90.00439537
_cell_angle_gamma   90.00094766
_symmetry_Int_Tables_number   1
_chemical_formula_structural   Ca108Mn108O277
_chemical_formula_sum   'Ca108 Mn108 O277'
_cell_volume   5858.60039578
_cell_formula_units_Z   1
loop_
 _symmetry_equiv_pos_site_id
 _symmetry_equiv_pos_as_xyz
  1  'x, y, z'
loop_
 _atom_type_symbol
 _atom_type_oxidation_number
  Ca2+  2.0
  Mn3.34+  3.34
  O2-  -2.0
loop_
 _atom_site_type_symbol
 _atom_site_label
 _atom_site_symmetry_multiplicity
 _atom_site_fract_x
 _atom_site_fract_y
 _atom_site_fract_z
 _atom_site_occupancy
  Ca2+  Ca0  1  0.07401856  0.23920925  0.26642999  1
  Ca2+  Ca1  1  0.08139698  0.25429840  0.56686285  1
  Ca2+  Ca2  1  0.09229055  0.22700441  0.91908908  1
  Ca2+  Ca3  1  0.08661498  0.75859866  0.22504368  1
  Ca2+  Ca4  1  0.07638665  0.76882742  0.59106541  1
  Ca2+  Ca5  1  0.06871516  0.74980035  0.94053609  1
  Ca2+  Ca6  1  0.42486715  0.24200225  0.27166484  1
  Ca2+  Ca7  1  0.40870530  0.24663993  0.56082838  1
  Ca2+  Ca8  1  0.39110287  0.23940959  0.92298177  1
  Ca2+  Ca9  1  0.44016092  0.76353797  0.23945087  1
  Ca2+  Ca10  1  0.40725519  0.75826614  0.59253768  1
  Ca2+  Ca11  1  0.43511905  0.75488598  0.91850311  1
  Ca2+  Ca12  1  0.75465803  0.23497983  0.27506979  1
  Ca2+  Ca13  1  0.76102462  0.23286785  0.56337155  1
  Ca2+  Ca14  1  0.76157700  0.24821357  0.91450594  1
  Ca2+  Ca15  1  0.71991387  0.74789695  0.24446951  1
  Ca2+  Ca16  1  0.76054959  0.75959110  0.59388477  1
  Ca2+  Ca17  1  0.74513536  0.75726624  0.91920166  1
  Ca2+  Ca18  1  0.24881594  0.22632423  0.06727580  1
  Ca2+  Ca19  1  0.24676468  0.22732070  0.43014324  1
  Ca2+  Ca20  1  0.24942431  0.24997068  0.73405373  1
  Ca2+  Ca21  1  0.24022089  0.75917631  0.09080087  1
  Ca2+  Ca22  1  0.25563739  0.77257587  0.41469604  1
  Ca2+  Ca23  1  0.26472807  0.75951972  0.74467358  1
  Ca2+  Ca24  1  0.57463302  0.24684305  0.10153842  1
  Ca2+  Ca25  1  0.57944092  0.22365133  0.40730086  1
  Ca2+  Ca26  1  0.59661487  0.24343329  0.74682787  1
  Ca2+  Ca27  1  0.58910716  0.76385575  0.08854671  1
  Ca2+  Ca28  1  0.59799715  0.75965403  0.39443261  1
  Ca2+  Ca29  1  0.60118977  0.74847141  0.76587255  1
  Ca2+  Ca30  1  0.93414514  0.24962556  0.09390061  1
  Ca2+  Ca31  1  0.92390983  0.23598508  0.41789060  1
  Ca2+  Ca32  1  0.90405780  0.24693726  0.74522577  1
  Ca2+  Ca33  1  0.91763096  0.75149584  0.07028599  1
  Ca2+  Ca34  1  0.89513404  0.75973253  0.42432051  1
  Ca2+  Ca35  1  0.88848426  0.74092498  0.75243867  1
  Ca2+  Ca36  1  0.39978982  0.08830114  0.92734265  1
  Ca2+  Ca37  1  0.92371992  0.60702898  0.06064986  1
  Ca2+  Ca38  1  0.90250191  0.58630071  0.41339201  1
  Ca2+  Ca39  1  0.09686920  0.11921520  0.56384212  1
  Ca2+  Ca40  1  0.76217981  0.59582241  0.59675752  1
  Ca2+  Ca41  1  0.26855367  0.57734342  0.42322827  1
  Ca2+  Ca42  1  0.57877770  0.08206744  0.07665128  1
  Ca2+  Ca43  1  0.25425512  0.58223945  0.73252895  1
  Ca2+  Ca44  1  0.73146076  0.08076964  0.28415305  1
  Ca2+  Ca45  1  0.57898500  0.60527036  0.08714040  1
  Ca2+  Ca46  1  0.42740137  0.58569157  0.23900034  1
  Ca2+  Ca47  1  0.08877831  0.11484920  0.56658418  1
  Ca2+  Ca48  1  0.04422866  0.60724516  0.92929035  1
  Ca2+  Ca49  1  0.89535551  0.09530766  0.41725019  1
  Ca2+  Ca50  1  0.43490997  0.58663684  0.92452607  1
  Ca2+  Ca51  1  0.06583652  0.58554525  0.23042407  1
  Ca2+  Ca52  1  0.24191158  0.10062763  0.75680861  1
  Ca2+  Ca53  1  0.26595833  0.58159898  0.73327470  1
  Ca2+  Ca54  1  0.09287165  0.58281396  0.59297005  1
  Ca2+  Ca55  1  0.43356918  0.08625143  0.27121018  1
  Ca2+  Ca56  1  0.58786327  0.60857033  0.09032679  1
  Ca2+  Ca57  1  0.90016011  0.11417725  0.75437514  1
  Ca2+  Ca58  1  0.74873113  0.59636999  0.59715194  1
  Ca2+  Ca59  1  0.23251968  0.10375576  0.76006501  1
  Ca2+  Ca60  1  0.22989783  0.59362546  0.07937174  1
  Ca2+  Ca61  1  0.07577181  0.09382000  0.26376171  1
  Ca2+  Ca62  1  0.74192751  0.10451345  0.89115916  1
  Ca2+  Ca63  1  0.25663950  0.57982194  0.42059405  1
  Ca2+  Ca64  1  0.41492013  0.58398581  0.23790525  1
  Ca2+  Ca65  1  0.92696860  0.10025611  0.07840334  1
  Ca2+  Ca66  1  0.40997123  0.09293921  0.56750635  1
  Ca2+  Ca67  1  0.75069418  0.10879023  0.88937904  1
  Ca2+  Ca68  1  0.08008918  0.58247674  0.59292950  1
  Ca2+  Ca69  1  0.77858445  0.61810983  0.89424009  1
  Ca2+  Ca70  1  0.07675398  0.58609066  0.23639305  1
  Ca2+  Ca71  1  0.59639490  0.59408774  0.40160122  1
  Ca2+  Ca72  1  0.25353058  0.41202831  0.09280843  1
  Ca2+  Ca73  1  0.57906393  0.40777126  0.74027719  1
  Ca2+  Ca74  1  0.23509356  0.41317161  0.72791124  1
  Ca2+  Ca75  1  0.57570273  0.92119179  0.74300024  1
  Ca2+  Ca76  1  0.91294157  0.40133150  0.41671782  1
  Ca2+  Ca77  1  0.09423286  0.90265126  0.25280629  1
  Ca2+  Ca78  1  0.43686417  0.92029326  0.59117164  1
  Ca2+  Ca79  1  0.06817147  0.39882962  0.90987555  1
  Ca2+  Ca80  1  0.24820063  0.90108434  0.08952106  1
  Ca2+  Ca81  1  0.42081573  0.91836403  0.91351563  1
  Ca2+  Ca82  1  0.40957209  0.40608253  0.57916317  1
  Ca2+  Ca83  1  0.60437604  0.93237634  0.39198776  1
  Ca2+  Ca84  1  0.40712216  0.40841833  0.25721042  1
  Ca2+  Ca85  1  0.08154392  0.40620454  0.24428999  1
  Ca2+  Ca86  1  0.41916420  0.40808964  0.91757758  1
  Ca2+  Ca87  1  0.43321265  0.91685425  0.91162571  1
  Ca2+  Ca88  1  0.43052317  0.40725694  0.91852232  1
  Ca2+  Ca89  1  0.76350604  0.39786611  0.91603760  1
  Ca2+  Ca90  1  0.72745106  0.91550882  0.92943133  1
  Ca2+  Ca91  1  0.56407059  0.40807147  0.08150188  1
  Ca2+  Ca92  1  0.24668448  0.41285770  0.72800108  1
  Ca2+  Ca93  1  0.77010814  0.40240693  0.25185932  1
  Ca2+  Ca94  1  0.25032461  0.90738792  0.74655189  1
  Ca2+  Ca95  1  0.91508083  0.90563086  0.74303952  1
  Ca2+  Ca96  1  0.57664028  0.40864087  0.08216654  1
  Ca2+  Ca97  1  0.08803528  0.40075855  0.58333475  1
  Ca2+  Ca98  1  0.42813359  0.91763082  0.59558846  1
  Ca2+  Ca99  1  0.07035699  0.40451300  0.24290676  1
  Ca2+  Ca100  1  0.26492144  0.41159969  0.09389412  1
  Ca2+  Ca101  1  0.73693321  0.91485693  0.57621075  1
  Ca2+  Ca102  1  0.88188343  0.92316774  0.40751555  1
  Ca2+  Ca103  1  0.58086515  0.39588433  0.42244738  1
  Ca2+  Ca104  1  0.92653376  0.90624938  0.74326614  1
  Ca2+  Ca105  1  0.74416741  0.39885127  0.57954252  1
  Ca2+  Ca106  1  0.75625147  0.39877245  0.57953892  1
  Ca2+  Ca107  1  0.91816301  0.39950799  0.08301446  1
  Mn3.34+  Mn108  1  0.08730627  0.33065977  0.08022100  1
  Mn3.34+  Mn109  1  0.08575833  0.32988706  0.41734999  1
  Mn3.34+  Mn110  1  0.07824489  0.32915385  0.75258200  1
  Mn3.34+  Mn111  1  0.07816515  0.83226798  0.08206748  1
  Mn3.34+  Mn112  1  0.07804053  0.82779285  0.41220946  1
  Mn3.34+  Mn113  1  0.08466503  0.83164351  0.76038775  1
  Mn3.34+  Mn114  1  0.41374897  0.33075593  0.08903365  1
  Mn3.34+  Mn115  1  0.41359784  0.33210416  0.41664595  1
  Mn3.34+  Mn116  1  0.41956628  0.33099302  0.74986205  1
  Mn3.34+  Mn117  1  0.41675179  0.83226005  0.08373691  1
  Mn3.34+  Mn118  1  0.42135387  0.84137106  0.41569633  1
  Mn3.34+  Mn119  1  0.41998859  0.83408832  0.75316156  1
  Mn3.34+  Mn120  1  0.75130631  0.33127385  0.08422565  1
  Mn3.34+  Mn121  1  0.74915086  0.32818315  0.41513903  1
  Mn3.34+  Mn122  1  0.75260445  0.32886297  0.75264427  1
  Mn3.34+  Mn123  1  0.75244835  0.83545026  0.08788311  1
  Mn3.34+  Mn124  1  0.74637249  0.83757486  0.41510222  1
  Mn3.34+  Mn125  1  0.74624426  0.83674977  0.75098815  1
  Mn3.34+  Mn126  1  0.24926810  0.33471290  0.25634292  1
  Mn3.34+  Mn127  1  0.25080851  0.33097642  0.57644615  1
  Mn3.34+  Mn128  1  0.24493834  0.33137098  0.91209979  1
  Mn3.34+  Mn129  1  0.25713065  0.84141000  0.25212657  1
  Mn3.34+  Mn130  1  0.24567793  0.83134366  0.57869427  1
  Mn3.34+  Mn131  1  0.24583114  0.83597786  0.91427045  1
  Mn3.34+  Mn132  1  0.58469026  0.33040896  0.25267163  1
  Mn3.34+  Mn133  1  0.57955319  0.32944592  0.58195224  1
  Mn3.34+  Mn134  1  0.58842901  0.32810157  0.91130319  1
  Mn3.34+  Mn135  1  0.58500069  0.84573242  0.24479588  1
  Mn3.34+  Mn136  1  0.58436281  0.83605503  0.57490730  1
  Mn3.34+  Mn137  1  0.58498081  0.83746047  0.91708796  1
  Mn3.34+  Mn138  1  0.91679471  0.33053129  0.24969864  1
  Mn3.34+  Mn139  1  0.91931455  0.32981010  0.58360739  1
  Mn3.34+  Mn140  1  0.91991852  0.32795930  0.91155938  1
  Mn3.34+  Mn141  1  0.90879935  0.83850862  0.24410160  1
  Mn3.34+  Mn142  1  0.91831735  0.83776659  0.57550111  1
  Mn3.34+  Mn143  1  0.91629374  0.83496828  0.91556184  1
  Mn3.34+  Mn144  1  0.74651064  0.67020868  0.41606178  1
  Mn3.34+  Mn145  1  0.90207710  0.66586170  0.24708370  1
  Mn3.34+  Mn146  1  0.58584269  0.15419687  0.58125964  1
  Mn3.34+  Mn147  1  0.41794309  0.66744723  0.08007221  1
  Mn3.34+  Mn148  1  0.25510326  0.67279481  0.91690907  1
  Mn3.34+  Mn149  1  0.57686253  0.66852228  0.58490776  1
  Mn3.34+  Mn150  1  0.59503949  0.15920170  0.58380449  1
  Mn3.34+  Mn151  1  0.91727400  0.16196846  0.25234385  1
  Mn3.34+  Mn152  1  0.74844341  0.67376943  0.07962897  1
  Mn3.34+  Mn153  1  0.91540717  0.67109623  0.58248295  1
  Mn3.34+  Mn154  1  0.42759845  0.15668481  0.75355696  1
  Mn3.34+  Mn155  1  0.42137991  0.66815377  0.75438304  1
  Mn3.34+  Mn156  1  0.08351969  0.16603824  0.08049759  1
  Mn3.34+  Mn157  1  0.91201382  0.16457273  0.58017511  1
  Mn3.34+  Mn158  1  0.24670774  0.67897897  0.91958033  1
  Mn3.34+  Mn159  1  0.57896120  0.16143512  0.91554384  1
  Mn3.34+  Mn160  1  0.41766929  0.67773288  0.41565367  1
  Mn3.34+  Mn161  1  0.08086394  0.67697182  0.75557489  1
  Mn3.34+  Mn162  1  0.75522650  0.16467115  0.08798799  1
  Mn3.34+  Mn163  1  0.07605200  0.68949737  0.41671537  1
  Mn3.34+  Mn164  1  0.74232930  0.15805020  0.09021847  1
  Mn3.34+  Mn165  1  0.25380236  0.66944575  0.58149164  1
  Mn3.34+  Mn166  1  0.41783548  0.16192368  0.75069831  1
  Mn3.34+  Mn167  1  0.42619135  0.67160567  0.41831733  1
  Mn3.34+  Mn168  1  0.25731722  0.15808852  0.24813688  1
  Mn3.34+  Mn169  1  0.07507526  0.16677370  0.75540507  1
  Mn3.34+  Mn170  1  0.58121125  0.15806736  0.25142091  1
  Mn3.34+  Mn171  1  0.91081788  0.67204966  0.24942546  1
  Mn3.34+  Mn172  1  0.25369795  0.66274997  0.24534261  1
  Mn3.34+  Mn173  1  0.58779097  0.67521460  0.58640590  1
  Mn3.34+  Mn174  1  0.08744304  0.68824851  0.41462353  1
  Mn3.34+  Mn175  1  0.07155942  0.67134005  0.75755261  1
  Mn3.34+  Mn176  1  0.24278687  0.66663995  0.24787388  1
  Mn3.34+  Mn177  1  0.41776829  0.16666418  0.08541051  1
  Mn3.34+  Mn178  1  0.24703297  0.16215845  0.24681977  1
  Mn3.34+  Mn179  1  0.58976022  0.66768754  0.91056208  1
  Mn3.34+  Mn180  1  0.75862867  0.50060277  0.41380455  1
  Mn3.34+  Mn181  1  0.08226583  -0.00054422  0.75518871  1
  Mn3.34+  Mn182  1  0.08204197  -0.00480500  0.41588032  1
  Mn3.34+  Mn183  1  0.41198510  0.00143327  0.09455784  1
  Mn3.34+  Mn184  1  0.23690808  -0.00552839  0.57635495  1
  Mn3.34+  Mn185  1  0.24123636  -0.00088079  0.92143901  1
  Mn3.34+  Mn186  1  0.74340902  -0.00277662  0.72932872  1
  Mn3.34+  Mn187  1  0.57698189  0.50153930  0.58222537  1
  Mn3.34+  Mn188  1  0.23544318  0.49916517  0.91654628  1
  Mn3.34+  Mn189  1  0.41357529  -0.00417602  0.39164274  1
  Mn3.34+  Mn190  1  0.76564017  0.50149674  0.08995154  1
  Mn3.34+  Mn191  1  0.24678746  0.00023682  0.57349413  1
  Mn3.34+  Mn192  1  0.60537381  0.50324180  0.25440567  1
  Mn3.34+  Mn193  1  0.07112920  0.49835677  0.07342714  1
  Mn3.34+  Mn194  1  0.92741909  0.00599830  0.92191844  1
  Mn3.34+  Mn195  1  0.43229462  0.50572853  0.74497864  1
  Mn3.34+  Mn196  1  0.08658528  0.49750517  0.41365685  1
  Mn3.34+  Mn197  1  0.07552395  0.50218548  0.41262906  1
  Mn3.34+  Mn198  1  0.75113268  0.50672437  0.09239957  1
  Mn3.34+  Mn199  1  0.59201603  0.49886528  0.91552753  1
  Mn3.34+  Mn200  1  0.91474754  0.49873191  0.90787077  1
  Mn3.34+  Mn201  1  0.41974543  0.50133206  0.41641478  1
  Mn3.34+  Mn202  1  0.92156922  0.00043393  0.58832994  1
  Mn3.34+  Mn203  1  0.42245475  -0.00383699  0.09408789  1
  Mn3.34+  Mn204  1  0.91574486  -0.00169802  0.92429148  1
  Mn3.34+  Mn205  1  0.91816812  0.49834170  0.57656374  1
  Mn3.34+  Mn206  1  0.90595187  0.00079581  0.25876145  1
  Mn3.34+  Mn207  1  0.74866858  0.50388127  0.75710843  1
  Mn3.34+  Mn208  1  0.25078952  0.50426983  0.91553144  1
  Mn3.34+  Mn209  1  0.74329876  -0.00289028  0.07736851  1
  Mn3.34+  Mn210  1  0.09465492  -0.00024677  0.40839316  1
  Mn3.34+  Mn211  1  0.08389152  -0.00234128  0.09013502  1
  Mn3.34+  Mn212  1  0.59589121  0.49684197  0.25309102  1
  Mn3.34+  Mn213  1  0.09647501  0.00421616  0.08990367  1
  Mn3.34+  Mn214  1  0.76254992  0.49767818  0.75581160  1
  Mn3.34+  Mn215  1  0.06141776  0.50252669  0.75400106  1
  O2-  O216  1  -0.00491182  0.17396963  0.01178950  1
  O2-  O217  1  -0.00839101  0.15483432  0.33295963  1
  O2-  O218  1  0.00155766  0.15852273  0.66428070  1
  O2-  O219  1  -0.00904398  0.67824105  0.00132799  1
  O2-  O220  1  -0.00103194  0.65487258  0.33279046  1
  O2-  O221  1  0.00575095  0.65630314  0.66042167  1
  O2-  O222  1  0.34218550  0.15866623  0.00417913  1
  O2-  O223  1  0.33540361  0.15926564  0.32531343  1
  O2-  O224  1  0.33650637  0.14530116  0.67110151  1
  O2-  O225  1  0.33309614  0.64661499  -0.00213447  1
  O2-  O226  1  0.33006489  0.65105758  0.33473446  1
  O2-  O227  1  0.33125763  0.65299886  0.67117464  1
  O2-  O228  1  0.66420111  0.15821986  0.00019420  1
  O2-  O229  1  0.66380250  0.16356509  0.32424209  1
  O2-  O230  1  0.66872917  0.16989244  0.66364613  1
  O2-  O231  1  0.67013140  0.64976446  -0.00418450  1
  O2-  O232  1  0.66426770  0.66464634  0.34380390  1
  O2-  O233  1  0.66861753  0.66343151  0.66288129  1
  O2-  O234  1  0.16002863  0.15851135  0.00420980  1
  O2-  O235  1  0.16825452  0.15914335  0.32572787  1
  O2-  O236  1  0.16054031  0.16279778  0.67255170  1
  O2-  O237  1  0.16574546  0.66105788  -0.00415042  1
  O2-  O238  1  0.16729564  0.64213949  0.34566111  1
  O2-  O239  1  0.16398526  0.65544834  0.67439423  1
  O2-  O240  1  0.50432704  0.16016445  0.00439567  1
  O2-  O241  1  0.50136303  0.16181020  0.32624232  1
  O2-  O242  1  0.50816543  0.15520382  0.66996854  1
  O2-  O243  1  0.50138170  0.65735810  0.00048399  1
  O2-  O244  1  0.49285333  0.64697695  0.32940598  1
  O2-  O245  1  0.49881315  0.66799310  0.66467416  1
  O2-  O246  1  0.82449876  0.15045612  -0.00022481  1
  O2-  O247  1  0.83066033  0.15427952  0.32189884  1
  O2-  O248  1  0.83604351  0.17356134  0.66439377  1
  O2-  O249  1  0.83226786  0.66976924  0.00626806  1
  O2-  O250  1  0.83346694  0.65504280  0.33819646  1
  O2-  O251  1  0.83675530  0.66037272  0.65882647  1
  O2-  O252  1  -0.00225347  0.33451241  0.00334898  1
  O2-  O253  1  0.00091941  0.34688387  0.33254442  1
  O2-  O254  1  0.00519172  0.33341117  0.66158322  1
  O2-  O255  1  -0.00400822  0.82582939  -0.00047571  1
  O2-  O256  1  0.00051214  0.79536955  0.33078951  1
  O2-  O257  1  -0.00129408  0.83722805  0.67017865  1
  O2-  O258  1  0.33353931  0.35478545  -0.00166702  1
  O2-  O259  1  0.33762312  0.34081567  0.32897270  1
  O2-  O260  1  0.33103370  0.34545552  0.67221403  1
  O2-  O261  1  0.33206916  0.83859245  -0.00515119  1
  O2-  O262  1  0.34176832  0.82316478  0.33210217  1
  O2-  O263  1  0.34064873  0.85265234  0.66566927  1
  O2-  O264  1  0.66494740  0.35075911  -0.00209722  1
  O2-  O265  1  0.67080502  0.35000466  0.32949593  1
  O2-  O266  1  0.66639830  0.33984697  0.67001250  1
  O2-  O267  1  0.66303128  0.84425483  -0.00089196  1
  O2-  O268  1  0.66417020  0.84106123  0.33753051  1
  O2-  O269  1  0.66304598  0.84402166  0.66418837  1
  O2-  O270  1  0.16978758  0.35876188  -0.00053812  1
  O2-  O271  1  0.15639794  0.34548171  0.32567321  1
  O2-  O272  1  0.16646519  0.32947648  0.66988384  1
  O2-  O273  1  0.17149206  0.83255336  0.00379691  1
  O2-  O274  1  0.16176547  0.82847962  0.33107066  1
  O2-  O275  1  0.16932638  0.83074774  0.67774464  1
  O2-  O276  1  0.50261052  0.34253219  -0.00096300  1
  O2-  O277  1  0.49835447  0.34383287  0.33009845  1
  O2-  O278  1  0.49875778  0.34613852  0.66485924  1
  O2-  O279  1  0.48988344  0.84561490  -0.01156639  1
  O2-  O280  1  0.50256566  0.83127719  0.33830339  1
  O2-  O281  1  0.49990602  0.84120014  0.66252483  1
  O2-  O282  1  0.83511397  0.33155554  -0.00300460  1
  O2-  O283  1  0.83528022  0.34289507  0.33493325  1
  O2-  O284  1  0.82758831  0.33547789  0.66324548  1
  O2-  O285  1  0.82978454  0.82822125  -0.00908034  1
  O2-  O286  1  0.83983490  0.83872443  0.34061879  1
  O2-  O287  1  0.83008761  0.85179223  0.66492609  1
  O2-  O288  1  0.00336416  0.17892876  0.17229153  1
  O2-  O289  1  -0.00001329  0.17754784  0.50563666  1
  O2-  O290  1  -0.00536904  0.18991726  0.82157695  1
  O2-  O291  1  -0.00223252  0.68346736  0.17711088  1
  O2-  O292  1  -0.00333164  0.68484040  0.50002620  1
  O2-  O293  1  -0.00266919  0.69197321  0.83668804  1
  O2-  O294  1  0.33496795  0.18011494  0.16959098  1
  O2-  O295  1  0.33651563  0.17113827  0.50587719  1
  O2-  O296  1  0.32986556  0.17510392  0.82578962  1
  O2-  O297  1  0.33270308  0.67430614  0.15745937  1
  O2-  O298  1  0.32544341  0.68916502  0.48497459  1
  O2-  O299  1  0.33288867  0.69150320  0.83757027  1
  O2-  O300  1  0.66373493  0.17718130  0.16560523  1
  O2-  O301  1  0.66415469  0.17200693  0.49921999  1
  O2-  O302  1  0.66098472  0.18925584  0.84901230  1
  O2-  O303  1  0.65682690  0.67714171  0.14955593  1
  O2-  O304  1  0.67139702  0.68463072  0.50686794  1
  O2-  O305  1  0.66944963  0.67929796  0.84035574  1
  O2-  O306  1  0.16749294  0.17257676  0.17036078  1
  O2-  O307  1  0.16097030  0.18528254  0.51037504  1
  O2-  O308  1  0.16721140  0.18435056  0.81706816  1
  O2-  O309  1  0.15545373  0.66538620  0.17270527  1
  O2-  O310  1  0.16052970  0.68454455  0.50655143  1
  O2-  O311  1  0.16808800  0.69248477  0.83364609  1
  O2-  O312  1  0.49899712  0.18113391  0.16772982  1
  O2-  O313  1  0.49993320  0.16818771  0.51089846  1
  O2-  O314  1  0.49574944  0.18423826  0.83982771  1
  O2-  O315  1  0.49214511  0.67319754  0.16260523  1
  O2-  O316  1  0.50392518  0.69162079  0.50128461  1
  O2-  O317  1  0.49746920  0.67816812  0.84043067  1
  O2-  O318  1  0.84060038  0.17864866  0.16145757  1
  O2-  O319  1  0.84119721  0.16830813  0.49715106  1
  O2-  O320  1  0.82013832  0.18157888  0.83466087  1
  O2-  O321  1  0.82659849  0.68644567  0.16575579  1
  O2-  O322  1  0.83251960  0.67363229  0.50164251  1
  O2-  O323  1  0.83100570  0.69926768  0.85228294  1
  O2-  O324  1  0.00817377  0.32201476  0.17217796  1
  O2-  O325  1  -0.00321406  0.32851964  0.49763116  1
  O2-  O326  1  0.00744358  0.31055395  0.84038578  1
  O2-  O327  1  -0.00293259  0.82325584  0.16797263  1
  O2-  O328  1  -0.00332169  0.81252208  0.49357211  1
  O2-  O329  1  -0.00549499  0.81206111  0.82956550  1
  O2-  O330  1  0.32694794  0.33346184  0.16464234  1
  O2-  O331  1  0.33930421  0.33367048  0.50529839  1
  O2-  O332  1  0.33695508  0.32892486  0.83794191  1
  O2-  O333  1  0.33192606  0.81862468  0.16283037  1
  O2-  O334  1  0.34021724  0.82160983  0.50035065  1
  O2-  O335  1  0.33518108  0.82055890  0.83432975  1
  O2-  O336  1  0.65918436  0.33565403  0.15833398  1
  O2-  O337  1  0.67139551  0.32465571  0.50434892  1
  O2-  O338  1  0.67086391  0.30979569  0.83297841  1
  O2-  O339  1  0.67010891  0.82830442  0.16737153  1
  O2-  O340  1  0.66835278  0.81321536  0.50370824  1
  O2-  O341  1  0.66846137  0.82832843  0.83636729  1
  O2-  O342  1  0.16787546  0.33986809  0.16369791  1
  O2-  O343  1  0.16227811  0.32547193  0.50371548  1
  O2-  O344  1  0.16925643  0.31628912  0.82733307  1
  O2-  O345  1  0.16820786  0.82869250  0.16608751  1
  O2-  O346  1  0.15848999  0.80934139  0.49643563  1
  O2-  O347  1  0.16813989  0.80678414  0.83674245  1
  O2-  O348  1  0.50324366  0.32488814  0.16335333  1
  O2-  O349  1  0.50079963  0.32780508  0.50022673  1
  O2-  O350  1  0.49757605  0.31734402  0.83973918  1
  O2-  O351  1  0.50266777  0.82815002  0.15782780  1
  O2-  O352  1  0.49945399  0.80895785  0.50288509  1
  O2-  O353  1  0.50257960  0.81944594  0.83148574  1
  O2-  O354  1  0.83770807  0.32360872  0.16664785  1
  O2-  O355  1  0.83001956  0.32813411  0.50207146  1
  O2-  O356  1  0.83418258  0.31173692  0.83346636  1
  O2-  O357  1  0.83114954  0.80735549  0.16925492  1
  O2-  O358  1  0.82769511  0.82671983  0.50362370  1
  O2-  O359  1  0.83851505  0.82890731  0.82350890  1
  O2-  O360  1  0.07254134  0.08274763  0.11863895  1
  O2-  O361  1  0.10120419  0.07789304  0.43657423  1
  O2-  O362  1  0.09373355  0.08144231  0.77785949  1
  O2-  O363  1  0.07511274  0.57833852  0.10185383  1
  O2-  O364  1  0.07505665  0.58261081  0.45741522  1
  O2-  O365  1  0.08829869  0.58640093  0.79568555  1
  O2-  O366  1  0.43009296  0.08293869  0.11830605  1
  O2-  O367  1  0.40562694  0.05968290  0.44291894  1
  O2-  O368  1  0.40855781  0.07768517  0.78424813  1
  O2-  O369  1  0.43523826  0.57903666  0.10365371  1
  O2-  O370  1  0.40417268  0.58341314  0.46042333  1
  O2-  O371  1  0.39776489  0.58322715  0.78849314  1
  O2-  O372  1  0.74918423  0.07555517  0.12594881  1
  O2-  O373  1  0.75657567  0.06085474  0.42389779  1
  O2-  O374  1  0.76438563  0.06796180  0.76908190  1
  O2-  O375  1  0.75129968  0.58782800  0.10625927  1
  O2-  O376  1  0.75342240  0.58056576  0.45451953  1
  O2-  O377  1  0.75919767  0.58449840  0.76050791  1
  O2-  O378  1  0.25795807  0.07975101  0.22271830  1
  O2-  O379  1  0.23123854  0.08137792  0.56797975  1
  O2-  O380  1  0.26044885  0.07224586  0.88199469  1
  O2-  O381  1  0.25965084  0.58012404  0.21232511  1
  O2-  O382  1  0.22967981  0.58298224  0.55355724  1
  O2-  O383  1  0.24819256  0.58495691  0.87574443  1
  O2-  O384  1  0.58082203  0.08130748  0.22033566  1
  O2-  O385  1  0.57314181  0.07633318  0.57315124  1
  O2-  O386  1  0.60122271  0.08650966  0.89263935  1
  O2-  O387  1  0.57077427  0.57923285  0.21906297  1
  O2-  O388  1  0.60456403  0.58334389  0.54717329  1
  O2-  O389  1  0.57656718  0.58110457  0.90698984  1
  O2-  O390  1  0.92183300  0.07733739  0.21586721  1
  O2-  O391  1  0.94224484  0.08015610  0.55916455  1
  O2-  O392  1  0.89303645  0.07885745  0.88000870  1
  O2-  O393  1  0.93182376  0.58232487  0.21312571  1
  O2-  O394  1  0.92500251  0.58193443  0.55286235  1
  O2-  O395  1  0.91249295  0.57773610  0.89584775  1
  O2-  O396  1  0.07111600  0.41801577  0.10516143  1
  O2-  O397  1  0.07733073  0.41731797  0.44214056  1
  O2-  O398  1  0.10253504  0.42049918  0.77348628  1
  O2-  O399  1  0.08570625  0.91740311  0.11278844  1
  O2-  O400  1  0.07262653  0.91509647  0.41112357  1
  O2-  O401  1  0.06930540  0.91856144  0.78018331  1
  O2-  O402  1  0.42458080  0.41772303  0.11221374  1
  O2-  O403  1  0.43218295  0.42051884  0.43828596  1
  O2-  O404  1  0.42539316  0.42450734  0.78764915  1
  O2-  O405  1  0.39815866  0.91455816  0.09704404  1
  O2-  O406  1  0.41999998  0.93098088  0.45349984  1
  O2-  O407  1  0.42033151  0.91735220  0.77743364  1
  O2-  O408  1  0.76452485  0.41993798  0.11101706  1
  O2-  O409  1  0.74775025  0.42069644  0.44488233  1
  O2-  O410  1  0.74189069  0.41771725  0.78182850  1
  O2-  O411  1  0.76109980  0.91858538  0.08457171  1
  O2-  O412  1  0.74338130  0.91688460  0.44062669  1
  O2-  O413  1  0.75651681  0.92791961  0.78761959  1
  O2-  O414  1  0.23912115  0.42743017  0.22408439  1
  O2-  O415  1  0.23628286  0.41834876  0.59158749  1
  O2-  O416  1  0.24125233  0.41982375  0.87307306  1
  O2-  O417  1  0.24045633  0.91812613  0.22703366  1
  O2-  O418  1  0.24761321  0.91379757  0.55657162  1
  O2-  O419  1  0.27207256  0.92318973  0.88233080  1
  O2-  O420  1  0.57436933  0.41889448  0.22134905  1
  O2-  O421  1  0.60571292  0.41945168  0.55581269  1
  O2-  O422  1  0.58348442  0.41861635  0.87793549  1
  O2-  O423  1  0.58014503  0.92305474  0.24835766  1
  O2-  O424  1  0.57156801  0.91370067  0.54514940  1
  O2-  O425  1  0.57066480  0.91871007  0.88732711  1
  O2-  O426  1  0.92868429  0.41519843  0.22302335  1
  O2-  O427  1  0.90012180  0.41670101  0.56121155  1
  O2-  O428  1  0.91530307  0.41585146  0.89242462  1
  O2-  O429  1  0.94065119  0.92147464  0.25590805  1
  O2-  O430  1  0.91858368  0.92154797  0.54714536  1
  O2-  O431  1  0.92021856  0.92257415  0.87809927  1
  O2-  O432  1  0.00551904  0.00927368  0.00642625  1
  O2-  O433  1  -0.01460796  0.01291225  0.35496008  1
  O2-  O434  1  -0.01359373  -0.00408884  0.68990601  1
  O2-  O435  1  0.01341897  0.49995274  -0.02556628  1
  O2-  O436  1  0.02459055  0.50413302  0.30587105  1
  O2-  O437  1  0.02326963  0.49835101  0.63072701  1
  O2-  O438  1  0.34111378  0.00047911  -0.00799576  1
  O2-  O439  1  0.34133881  -0.00135347  0.32310672  1
  O2-  O440  1  0.34707784  -0.00322850  0.63388401  1
  O2-  O441  1  0.33605916  0.48325066  -0.00849477  1
  O2-  O442  1  0.34156895  0.52759444  0.33204462  1
  O2-  O443  1  0.31731411  0.49588698  0.70692750  1
  O2-  O444  1  0.67929158  0.01449398  -0.00677168  1
  O2-  O445  1  0.67088784  0.00602271  0.33984603  1
  O2-  O446  1  0.66481898  -0.02196232  0.66589751  1
  O2-  O447  1  0.65799080  0.49005283  0.01875820  1
  O2-  O448  1  0.65509760  0.50450133  0.36038338  1
  O2-  O449  1  0.66784254  0.49928925  0.66725522  1
  O2-  O450  1  0.17649383  -0.01594015  0.01144652  1
  O2-  O451  1  0.15036137  0.00450348  0.31539013  1
  O2-  O452  1  0.18928036  -0.00193370  0.69284020  1
  O2-  O453  1  0.18360751  0.50222532  0.02515282  1
  O2-  O454  1  0.17538384  0.52430115  0.34509399  1
  O2-  O455  1  0.16476522  0.52333268  0.68192063  1
  O2-  O456  1  0.49576779  0.00398150  0.00303353  1
  O2-  O457  1  0.50154467  0.00278745  0.33961635  1
  O2-  O458  1  0.49940740  -0.01483253  0.65813500  1
  O2-  O459  1  0.49888002  0.48018268  -0.01592769  1
  O2-  O460  1  0.49496576  0.50785116  0.31858551  1
  O2-  O461  1  0.49239496  0.47751286  0.65586453  1
  O2-  O462  1  0.83958661  0.01078510  0.00983252  1
  O2-  O463  1  0.82966035  0.00876002  0.33761277  1
  O2-  O464  1  0.83112541  -0.01856823  0.66312032  1
  O2-  O465  1  0.83478205  0.49715283  -0.00198381  1
  O2-  O466  1  0.86309901  0.49500896  0.37229231  1
  O2-  O467  1  0.82534590  0.50540478  0.65037961  1
  O2-  O468  1  0.73321281  0.75332648  0.06186907  1
  O2-  O469  1  0.07981823  0.25303472  0.40225248  1
  O2-  O470  1  0.75389625  0.75102518  0.39417553  1
  O2-  O471  1  0.09285240  0.75437757  0.08101810  1
  O2-  O472  1  0.41565586  0.74905760  0.05938073  1
  O2-  O473  1  0.75252572  0.25044925  0.40757590  1
  O2-  O474  1  0.57647031  0.24351556  0.59813647  1
  O2-  O475  1  0.74530287  0.75826339  0.73176433  1
  O2-  O476  1  0.41606682  0.24268214  0.72292147  1
  O2-  O477  1  0.25931025  0.75025563  0.60824296  1
  O2-  O478  1  0.58385794  0.75079833  0.93897556  1
  O2-  O479  1  0.41513542  0.25246124  0.41103378  1
  O2-  O480  1  0.58751680  0.25087430  0.26284653  1
  O2-  O481  1  0.58146629  0.75940939  0.25576874  1
  O2-  O482  1  0.91715378  0.24968689  0.59222276  1
  O2-  O483  1  0.91631512  0.24853955  0.27128153  1
  O2-  O484  1  0.25051591  0.25543485  0.93894790  1
  O2-  O485  1  0.10067354  0.25097966  0.07137844  1
  O2-  O486  1  0.41349536  0.25084511  0.06263871  1
  O2-  O487  1  0.24691922  0.24574399  0.26213509  1
  O2-  O488  1  0.24143747  0.74859093  0.26152152  1
  O2-  O489  1  0.73653774  0.24724313  0.06480518  1
  O2-  O490  1  0.41212613  0.75211726  0.72825030  1
  O2-  O491  1  0.26396416  0.25195946  0.59224770  1
  O2-  O492  1  0.91066562  0.75291315  0.60399730  1
