# generated using pymatgen
data_Ca108Mn108O277
_symmetry_space_group_name_H-M   'P 1'
_cell_length_a   16.00598115
_cell_length_b   22.27673026
_cell_length_c   16.37264598
_cell_angle_alpha   89.99809242
_cell_angle_beta   90.00051398
_cell_angle_gamma   89.99952000
_symmetry_Int_Tables_number   1
_chemical_formula_structural   Ca108Mn108O277
_chemical_formula_sum   'Ca108 Mn108 O277'
_cell_volume   5837.84578667
_cell_formula_units_Z   1
loop_
 _symmetry_equiv_pos_site_id
 _symmetry_equiv_pos_as_xyz
  1  'x, y, z'
loop_
 _atom_type_symbol
 _atom_type_oxidation_number
  Ca2+  2.0
  Mn3.34+  3.34
  O2-  -2.0
loop_
 _atom_site_type_symbol
 _atom_site_label
 _atom_site_symmetry_multiplicity
 _atom_site_fract_x
 _atom_site_fract_y
 _atom_site_fract_z
 _atom_site_occupancy
  Ca2+  Ca0  1  0.07605900  0.23924876  0.23264898  1
  Ca2+  Ca1  1  0.06436387  0.25743093  0.58607977  1
  Ca2+  Ca2  1  0.09642634  0.24517545  0.93451451  1
  Ca2+  Ca3  1  0.08222522  0.75972271  0.25744828  1
  Ca2+  Ca4  1  0.09474036  0.75958003  0.58205128  1
  Ca2+  Ca5  1  0.08911685  0.75564167  0.91166680  1
  Ca2+  Ca6  1  0.41846725  0.24606814  0.24173276  1
  Ca2+  Ca7  1  0.41722824  0.25755109  0.58557845  1
  Ca2+  Ca8  1  0.42038346  0.24145226  0.91864000  1
  Ca2+  Ca9  1  0.41807999  0.75612008  0.25020732  1
  Ca2+  Ca10  1  0.41199000  0.75637596  0.58162457  1
  Ca2+  Ca11  1  0.41973963  0.75549129  0.91794699  1
  Ca2+  Ca12  1  0.75989741  0.24893227  0.25404513  1
  Ca2+  Ca13  1  0.77075444  0.24699389  0.58499185  1
  Ca2+  Ca14  1  0.73642248  0.25049654  0.90846138  1
  Ca2+  Ca15  1  0.74759639  0.75616228  0.23323863  1
  Ca2+  Ca16  1  0.74372857  0.75013369  0.59409272  1
  Ca2+  Ca17  1  0.74094660  0.74522331  0.92542518  1
  Ca2+  Ca18  1  0.24425251  0.24309614  0.07301816  1
  Ca2+  Ca19  1  0.25648826  0.24541358  0.40526815  1
  Ca2+  Ca20  1  0.25869656  0.24724362  0.77097128  1
  Ca2+  Ca21  1  0.25963360  0.75768047  0.07113213  1
  Ca2+  Ca22  1  0.25237322  0.75834856  0.42878002  1
  Ca2+  Ca23  1  0.24985913  0.75500081  0.74838632  1
  Ca2+  Ca24  1  0.57317715  0.24695153  0.06997618  1
  Ca2+  Ca25  1  0.58339517  0.25621525  0.40383268  1
  Ca2+  Ca26  1  0.58030073  0.24533101  0.77060513  1
  Ca2+  Ca27  1  0.59425762  0.74615005  0.07485163  1
  Ca2+  Ca28  1  0.57612971  0.75134272  0.42331032  1
  Ca2+  Ca29  1  0.58849253  0.75108196  0.75418341  1
  Ca2+  Ca30  1  0.93310161  0.24665453  0.09383298  1
  Ca2+  Ca31  1  0.91217959  0.24146903  0.41668824  1
  Ca2+  Ca32  1  0.90913625  0.24841405  0.74059543  1
  Ca2+  Ca33  1  0.89593518  0.74930681  0.07606076  1
  Ca2+  Ca34  1  0.92342741  0.75902261  0.42054080  1
  Ca2+  Ca35  1  0.91055714  0.75834155  0.75389873  1
  Ca2+  Ca36  1  0.44244074  0.58956093  0.24471567  1
  Ca2+  Ca37  1  0.75976595  0.09954331  0.25547093  1
  Ca2+  Ca38  1  0.56952070  0.10664943  0.76643426  1
  Ca2+  Ca39  1  0.60458813  0.59419890  0.07960700  1
  Ca2+  Ca40  1  0.72858356  0.58987598  0.23302414  1
  Ca2+  Ca41  1  0.71131869  0.59271278  0.58514361  1
  Ca2+  Ca42  1  0.89942039  0.10559272  0.74850935  1
  Ca2+  Ca43  1  0.23928046  0.10955909  0.09070119  1
  Ca2+  Ca44  1  0.77188209  0.10540814  0.59244806  1
  Ca2+  Ca45  1  0.43000691  0.58793002  0.24458924  1
  Ca2+  Ca46  1  0.09956759  0.10057807  0.93052607  1
  Ca2+  Ca47  1  0.58163915  0.09153400  0.40995392  1
  Ca2+  Ca48  1  0.25376909  0.09250534  0.40473407  1
  Ca2+  Ca49  1  0.41160553  0.10539784  0.90702145  1
  Ca2+  Ca50  1  0.06776856  0.09073347  0.57475118  1
  Ca2+  Ca51  1  0.41944007  0.59325299  0.91581897  1
  Ca2+  Ca52  1  0.08035949  0.08907506  0.57581988  1
  Ca2+  Ca53  1  0.09135655  0.58814636  0.59362920  1
  Ca2+  Ca54  1  0.72360373  0.59151480  0.58706804  1
  Ca2+  Ca55  1  0.92056821  0.58593450  0.41198744  1
  Ca2+  Ca56  1  0.24805565  0.10625651  0.08719662  1
  Ca2+  Ca57  1  0.73330192  0.10963671  0.89768360  1
  Ca2+  Ca58  1  0.94177022  0.10513341  0.09319979  1
  Ca2+  Ca59  1  0.58527765  0.59025676  0.73999035  1
  Ca2+  Ca60  1  0.58416838  0.59891714  0.43065833  1
  Ca2+  Ca61  1  0.56884918  0.09156477  0.41018245  1
  Ca2+  Ca62  1  0.07852106  0.58327301  0.90144639  1
  Ca2+  Ca63  1  0.24367217  0.59020568  0.42393350  1
  Ca2+  Ca64  1  0.73741693  0.58907254  0.22749888  1
  Ca2+  Ca65  1  0.23116727  0.59097413  0.42223009  1
  Ca2+  Ca66  1  0.07954116  0.57625905  0.25725407  1
  Ca2+  Ca67  1  0.44803981  0.59139171  0.58770479  1
  Ca2+  Ca68  1  0.24909860  0.58666178  0.07502238  1
  Ca2+  Ca69  1  0.08443711  0.10817319  0.24124105  1
  Ca2+  Ca70  1  0.91892254  0.10574905  0.41919491  1
  Ca2+  Ca71  1  0.40649697  0.10115753  0.24487459  1
  Ca2+  Ca72  1  0.58222104  0.90250666  0.08339388  1
  Ca2+  Ca73  1  0.74539591  0.41194624  0.23900689  1
  Ca2+  Ca74  1  0.58500695  0.40610918  0.42525887  1
  Ca2+  Ca75  1  0.22875601  0.40305595  0.42270790  1
  Ca2+  Ca76  1  0.41854492  0.40073603  0.90618350  1
  Ca2+  Ca77  1  0.25186391  0.90913863  0.07519260  1
  Ca2+  Ca78  1  0.92711067  0.40796638  0.75936212  1
  Ca2+  Ca79  1  0.41543787  0.90904108  0.25350890  1
  Ca2+  Ca80  1  0.43001351  0.40439255  0.24626942  1
  Ca2+  Ca81  1  0.25168293  0.91116856  0.43939730  1
  Ca2+  Ca82  1  0.92308489  0.40643853  0.41738356  1
  Ca2+  Ca83  1  0.42810202  0.90831147  0.25366701  1
  Ca2+  Ca84  1  0.75504260  0.90189788  0.58079759  1
  Ca2+  Ca85  1  0.93456694  0.40579352  0.41720847  1
  Ca2+  Ca86  1  0.74214880  0.90051618  0.57889344  1
  Ca2+  Ca87  1  0.92287264  0.90622731  0.08151329  1
  Ca2+  Ca88  1  0.75066995  0.90048746  0.91340845  1
  Ca2+  Ca89  1  0.91978429  0.41119697  0.08030233  1
  Ca2+  Ca90  1  0.92332988  0.90456518  0.42130687  1
  Ca2+  Ca91  1  0.23340929  0.40539191  0.08878489  1
  Ca2+  Ca92  1  0.57391203  0.90543078  0.75267573  1
  Ca2+  Ca93  1  0.91066815  0.90603713  0.08207866  1
  Ca2+  Ca94  1  0.08154204  0.90691943  0.90833324  1
  Ca2+  Ca95  1  0.59261744  0.40901994  0.08765280  1
  Ca2+  Ca96  1  0.07487930  0.40750793  0.91324637  1
  Ca2+  Ca97  1  0.73548119  0.40720775  0.58845607  1
  Ca2+  Ca98  1  0.41501728  0.90844144  0.91182037  1
  Ca2+  Ca99  1  0.24306023  0.40361035  0.75150894  1
  Ca2+  Ca100  1  0.25174636  0.91370611  0.73830135  1
  Ca2+  Ca101  1  0.24602204  0.40685703  0.08835860  1
  Ca2+  Ca102  1  0.08020672  0.40730437  0.24527611  1
  Ca2+  Ca103  1  0.58076000  0.40848944  0.74232724  1
  Ca2+  Ca104  1  0.07824134  0.91128910  0.25462474  1
  Ca2+  Ca105  1  0.73584952  0.41011322  0.24340187  1
  Ca2+  Ca106  1  0.08991169  0.91108161  0.25440998  1
  Ca2+  Ca107  1  0.24135973  0.40426224  0.42174902  1
  Mn3.34+  Mn108  1  0.08071751  0.33170246  0.08360367  1
  Mn3.34+  Mn109  1  0.08290642  0.32877432  0.41894268  1
  Mn3.34+  Mn110  1  0.08316833  0.33808030  0.75161246  1
  Mn3.34+  Mn111  1  0.08511173  0.83269065  0.08181204  1
  Mn3.34+  Mn112  1  0.08513614  0.83278104  0.42307045  1
  Mn3.34+  Mn113  1  0.08195572  0.83764782  0.74662124  1
  Mn3.34+  Mn114  1  0.41809684  0.33208404  0.08165685  1
  Mn3.34+  Mn115  1  0.41813847  0.32948610  0.42076604  1
  Mn3.34+  Mn116  1  0.41772605  0.34017102  0.74735747  1
  Mn3.34+  Mn117  1  0.41914205  0.83347106  0.08220726  1
  Mn3.34+  Mn118  1  0.41956008  0.83424400  0.42340866  1
  Mn3.34+  Mn119  1  0.41619764  0.83741396  0.74666771  1
  Mn3.34+  Mn120  1  0.75205582  0.33861319  0.07676399  1
  Mn3.34+  Mn121  1  0.74889635  0.33320747  0.42067849  1
  Mn3.34+  Mn122  1  0.74964239  0.33496592  0.75333362  1
  Mn3.34+  Mn123  1  0.74676363  0.82890503  0.08424493  1
  Mn3.34+  Mn124  1  0.74568755  0.82696170  0.41472642  1
  Mn3.34+  Mn125  1  0.75075858  0.83059750  0.75230213  1
  Mn3.34+  Mn126  1  0.25049608  0.32635263  0.24959564  1
  Mn3.34+  Mn127  1  0.24959463  0.32831405  0.58784742  1
  Mn3.34+  Mn128  1  0.25123324  0.32787589  0.91392079  1
  Mn3.34+  Mn129  1  0.25090010  0.83686359  0.24991142  1
  Mn3.34+  Mn130  1  0.25107832  0.84009929  0.58621170  1
  Mn3.34+  Mn131  1  0.25039536  0.83538276  0.91103570  1
  Mn3.34+  Mn132  1  0.58300030  0.33413391  0.24685477  1
  Mn3.34+  Mn133  1  0.58104950  0.33809086  0.58570130  1
  Mn3.34+  Mn134  1  0.58508564  0.32963022  0.91483066  1
  Mn3.34+  Mn135  1  0.58925996  0.83493384  0.25359887  1
  Mn3.34+  Mn136  1  0.57803504  0.83379794  0.58154734  1
  Mn3.34+  Mn137  1  0.58258860  0.83427196  0.91411732  1
  Mn3.34+  Mn138  1  0.91663407  0.32833975  0.24727471  1
  Mn3.34+  Mn139  1  0.91634311  0.32908172  0.58693234  1
  Mn3.34+  Mn140  1  0.91244103  0.33367212  0.91492718  1
  Mn3.34+  Mn141  1  0.90976990  0.83771871  0.25288722  1
  Mn3.34+  Mn142  1  0.92366976  0.83752296  0.58831135  1
  Mn3.34+  Mn143  1  0.91755258  0.83349589  0.91027219  1
  Mn3.34+  Mn144  1  0.07379892  0.65597701  0.07920423  1
  Mn3.34+  Mn145  1  0.42014520  0.67050621  0.42460977  1
  Mn3.34+  Mn146  1  0.74404025  0.66541939  0.75326560  1
  Mn3.34+  Mn147  1  0.58505882  0.17298421  0.58683276  1
  Mn3.34+  Mn148  1  0.75236772  0.17093666  0.08350735  1
  Mn3.34+  Mn149  1  0.91204790  0.66978140  0.58862705  1
  Mn3.34+  Mn150  1  0.90900855  0.66951249  0.24906405  1
  Mn3.34+  Mn151  1  0.08639699  0.66293752  0.07901480  1
  Mn3.34+  Mn152  1  0.24880330  0.67073446  0.58646613  1
  Mn3.34+  Mn153  1  0.58380674  0.66989504  0.24917043  1
  Mn3.34+  Mn154  1  0.91485335  0.16578926  0.91616844  1
  Mn3.34+  Mn155  1  0.41232465  0.65946992  0.74888309  1
  Mn3.34+  Mn156  1  0.08139605  0.16755790  0.75303243  1
  Mn3.34+  Mn157  1  0.41333085  0.16730359  0.41380945  1
  Mn3.34+  Mn158  1  0.24970725  0.66992251  0.91141707  1
  Mn3.34+  Mn159  1  0.57611227  0.16696662  0.58746085  1
  Mn3.34+  Mn160  1  0.90398204  0.65858335  0.91243979  1
  Mn3.34+  Mn161  1  0.41940797  0.66741368  0.07812606  1
  Mn3.34+  Mn162  1  0.25526717  0.16347014  0.58683962  1
  Mn3.34+  Mn163  1  0.24690658  0.66543112  0.24936952  1
  Mn3.34+  Mn164  1  0.74551443  0.67235095  0.41894579  1
  Mn3.34+  Mn165  1  0.26379260  0.15669328  0.58846710  1
  Mn3.34+  Mn166  1  0.92273191  0.66492220  0.58965807  1
  Mn3.34+  Mn167  1  0.58978112  0.66682585  0.91903225  1
  Mn3.34+  Mn168  1  0.42101293  0.66559385  0.74884895  1
  Mn3.34+  Mn169  1  0.08086219  0.66535211  0.42125549  1
  Mn3.34+  Mn170  1  0.91377062  0.66389308  0.91078178  1
  Mn3.34+  Mn171  1  0.08607851  0.16859390  0.41347106  1
  Mn3.34+  Mn172  1  0.75271288  0.16923924  0.41656467  1
  Mn3.34+  Mn173  1  0.42018228  0.16600324  0.08085243  1
  Mn3.34+  Mn174  1  0.91782087  0.66314535  0.24876578  1
  Mn3.34+  Mn175  1  0.08773348  0.65707015  0.75280043  1
  Mn3.34+  Mn176  1  0.09162710  0.16330888  0.75565386  1
  Mn3.34+  Mn177  1  0.25750138  0.67050817  0.25037253  1
  Mn3.34+  Mn178  1  0.58121417  0.16792946  0.24557374  1
  Mn3.34+  Mn179  1  0.74199394  0.16674664  0.08185472  1
  Mn3.34+  Mn180  1  0.74354915  0.00350936  0.75073075  1
  Mn3.34+  Mn181  1  0.25077979  0.00303253  0.25319927  1
  Mn3.34+  Mn182  1  0.92058524  -0.00067081  0.58350870  1
  Mn3.34+  Mn183  1  0.26170369  0.50012275  0.60439837  1
  Mn3.34+  Mn184  1  0.91189454  0.49991005  0.93924825  1
  Mn3.34+  Mn185  1  0.42805731  0.50055126  0.42045515  1
  Mn3.34+  Mn186  1  0.93272434  0.49963260  0.59332040  1
  Mn3.34+  Mn187  1  0.57287740  -0.00190824  0.58485541  1
  Mn3.34+  Mn188  1  0.74421444  0.50060285  0.40980569  1
  Mn3.34+  Mn189  1  0.08832305  -0.00070713  0.73387518  1
  Mn3.34+  Mn190  1  0.41707608  0.49701188  0.41921286  1
  Mn3.34+  Mn191  1  0.74500889  0.50116269  0.74677326  1
  Mn3.34+  Mn192  1  0.91737093  0.00507797  0.25183093  1
  Mn3.34+  Mn193  1  0.42002220  0.00287956  0.07611481  1
  Mn3.34+  Mn194  1  0.75032957  -0.00272248  0.08741921  1
  Mn3.34+  Mn195  1  0.24686895  0.49853539  0.59829104  1
  Mn3.34+  Mn196  1  0.91825844  0.00055894  0.91507325  1
  Mn3.34+  Mn197  1  0.73964561  0.00104946  0.08511984  1
  Mn3.34+  Mn198  1  0.08483815  0.00308205  0.07860205  1
  Mn3.34+  Mn199  1  0.58317054  0.00367871  0.24658766  1
  Mn3.34+  Mn200  1  0.60223613  0.50290388  0.92195299  1
  Mn3.34+  Mn201  1  0.59039911  0.49584369  0.92113889  1
  Mn3.34+  Mn202  1  0.92267448  0.49798243  0.25310495  1
  Mn3.34+  Mn203  1  0.91882639  0.49487885  0.59028584  1
  Mn3.34+  Mn204  1  0.40958462  0.00407681  0.72890391  1
  Mn3.34+  Mn205  1  0.24103024  0.49898427  0.25276250  1
  Mn3.34+  Mn206  1  0.41837706  -0.00136959  0.41841421  1
  Mn3.34+  Mn207  1  0.75627011  0.00234433  0.41907192  1
  Mn3.34+  Mn208  1  0.75825462  -0.00229887  0.75119754  1
  Mn3.34+  Mn209  1  0.24170944  0.49871996  0.91126713  1
  Mn3.34+  Mn210  1  0.74249556  -0.00370309  0.41607458  1
  Mn3.34+  Mn211  1  0.41971254  0.49868375  0.08328622  1
  Mn3.34+  Mn212  1  0.25229527  0.50358046  0.91082390  1
  Mn3.34+  Mn213  1  0.57993712  0.00216292  0.91922099  1
  Mn3.34+  Mn214  1  0.25189684  0.00381073  0.92030668  1
  Mn3.34+  Mn215  1  0.08346708  -0.00166389  0.41612758  1
  O2-  O216  1  -0.00467297  0.17138954  -0.00685512  1
  O2-  O217  1  0.00394743  0.16993640  0.33981809  1
  O2-  O218  1  0.00845940  0.15897274  0.66808633  1
  O2-  O219  1  0.00013531  0.66359367  -0.01024766  1
  O2-  O220  1  -0.00192828  0.65981014  0.33229854  1
  O2-  O221  1  0.00524659  0.67252916  0.67108359  1
  O2-  O222  1  0.33458553  0.16091522  0.00774563  1
  O2-  O223  1  0.33511071  0.16604285  0.33565940  1
  O2-  O224  1  0.33381968  0.18742822  0.66713494  1
  O2-  O225  1  0.33182343  0.65978142  0.00085265  1
  O2-  O226  1  0.33657819  0.65411063  0.33810515  1
  O2-  O227  1  0.33648171  0.66403115  0.66063351  1
  O2-  O228  1  0.67065833  0.16772951  -0.00126165  1
  O2-  O229  1  0.66079672  0.15917066  0.33858279  1
  O2-  O230  1  0.66854296  0.17354669  0.66274863  1
  O2-  O231  1  0.66044447  0.66917906  0.00105985  1
  O2-  O232  1  0.66549583  0.67064790  0.33271451  1
  O2-  O233  1  0.66861504  0.66619367  0.66577254  1
  O2-  O234  1  0.16992413  0.16259456  0.00511809  1
  O2-  O235  1  0.16788075  0.17705520  0.33838768  1
  O2-  O236  1  0.16528042  0.16644820  0.65983878  1
  O2-  O237  1  0.16851512  0.66132142  -0.00312764  1
  O2-  O238  1  0.16491561  0.65921258  0.33737675  1
  O2-  O239  1  0.16100742  0.67260130  0.66416346  1
  O2-  O240  1  0.49463670  0.16814688  0.00039535  1
  O2-  O241  1  0.50286011  0.16092407  0.33695993  1
  O2-  O242  1  0.50171058  0.18008316  0.67002838  1
  O2-  O243  1  0.49946322  0.66069841  -0.00284435  1
  O2-  O244  1  0.49532136  0.66419942  0.32912795  1
  O2-  O245  1  0.50229831  0.66822311  0.66711119  1
  O2-  O246  1  0.83360938  0.16519454  0.00127541  1
  O2-  O247  1  0.82840094  0.16338674  0.33674051  1
  O2-  O248  1  0.83367787  0.17152908  0.66918892  1
  O2-  O249  1  0.83458329  0.67090729  -0.00274745  1
  O2-  O250  1  0.83093642  0.66571560  0.33881008  1
  O2-  O251  1  0.82601814  0.66160484  0.66502196  1
  O2-  O252  1  0.00043529  0.33409345  -0.00057015  1
  O2-  O253  1  -0.00235264  0.33628101  0.33606178  1
  O2-  O254  1  -0.00458866  0.33406039  0.67090918  1
  O2-  O255  1  -0.00350262  0.83987648  0.00298694  1
  O2-  O256  1  0.00323217  0.83964179  0.32997703  1
  O2-  O257  1  0.00215188  0.81731998  0.66990125  1
  O2-  O258  1  0.32894875  0.34238102  0.00368175  1
  O2-  O259  1  0.32831875  0.33492157  0.33592000  1
  O2-  O260  1  0.33330750  0.31872824  0.67046406  1
  O2-  O261  1  0.33178137  0.83875383  -0.00030021  1
  O2-  O262  1  0.33680845  0.83936010  0.32914747  1
  O2-  O263  1  0.32934750  0.83148597  0.67038672  1
  O2-  O264  1  0.66070790  0.33390970  0.00482120  1
  O2-  O265  1  0.66958757  0.34054116  0.33149106  1
  O2-  O266  1  0.66709649  0.32498198  0.66534784  1
  O2-  O267  1  0.66664655  0.83784852  -0.00147554  1
  O2-  O268  1  0.66561359  0.80797406  0.33355275  1
  O2-  O269  1  0.66705238  0.83192464  0.66295605  1
  O2-  O270  1  0.16925378  0.33974414  0.00284294  1
  O2-  O271  1  0.16844556  0.32695001  0.33599304  1
  O2-  O272  1  0.16976732  0.32692747  0.66998507  1
  O2-  O273  1  0.16820737  0.83708501  -0.00123471  1
  O2-  O274  1  0.16263765  0.83897853  0.33024545  1
  O2-  O275  1  0.16879028  0.82476797  0.67060838  1
  O2-  O276  1  0.49898324  0.33882029  -0.00127100  1
  O2-  O277  1  0.50204193  0.33869493  0.33329890  1
  O2-  O278  1  0.50233984  0.31884450  0.66943680  1
  O2-  O279  1  0.50177892  0.83770990  -0.00070588  1
  O2-  O280  1  0.49626073  0.82989864  0.32609793  1
  O2-  O281  1  0.50575673  0.82478771  0.66985598  1
  O2-  O282  1  0.84010247  0.32606695  0.00371546  1
  O2-  O283  1  0.83433615  0.34352152  0.33464235  1
  O2-  O284  1  0.82962232  0.33122850  0.66598215  1
  O2-  O285  1  0.83636068  0.83955906  0.00329072  1
  O2-  O286  1  0.83572745  0.82428817  0.34128937  1
  O2-  O287  1  0.82632269  0.83660325  0.65971165  1
  O2-  O288  1  0.00295116  0.17132154  0.16777994  1
  O2-  O289  1  0.01261010  0.17295900  0.49974676  1
  O2-  O290  1  -0.00338474  0.17399199  0.83294944  1
  O2-  O291  1  0.00354765  0.67011241  0.17061147  1
  O2-  O292  1  -0.00422154  0.66819841  0.49884586  1
  O2-  O293  1  0.00149171  0.67440243  0.83475865  1
  O2-  O294  1  0.33462042  0.17179325  0.16366599  1
  O2-  O295  1  0.33355950  0.17402268  0.49857283  1
  O2-  O296  1  0.34706576  0.17886292  0.83286528  1
  O2-  O297  1  0.33902473  0.66633384  0.16471141  1
  O2-  O298  1  0.32664108  0.66514266  0.49509867  1
  O2-  O299  1  0.33737410  0.67012811  0.83530686  1
  O2-  O300  1  0.67142318  0.17082682  0.17334002  1
  O2-  O301  1  0.66064757  0.17245126  0.49877087  1
  O2-  O302  1  0.66328097  0.17634593  0.82901527  1
  O2-  O303  1  0.66422659  0.67557508  0.17451877  1
  O2-  O304  1  0.66934127  0.67825534  0.50036968  1
  O2-  O305  1  0.66076136  0.67372581  0.82914843  1
  O2-  O306  1  0.17029529  0.17236439  0.16721603  1
  O2-  O307  1  0.17202265  0.17931049  0.50307431  1
  O2-  O308  1  0.16462091  0.17184660  0.83601794  1
  O2-  O309  1  0.16484800  0.66871030  0.16582294  1
  O2-  O310  1  0.16902931  0.66901398  0.50015719  1
  O2-  O311  1  0.16119522  0.67970616  0.83420656  1
  O2-  O312  1  0.49526551  0.17252596  0.17322251  1
  O2-  O313  1  0.50361550  0.17410401  0.49768675  1
  O2-  O314  1  0.48902550  0.17537859  0.83251183  1
  O2-  O315  1  0.49664500  0.67424817  0.17077617  1
  O2-  O316  1  0.50025729  0.67407534  0.49876262  1
  O2-  O317  1  0.49951522  0.67040572  0.83566512  1
  O2-  O318  1  0.82991032  0.16935111  0.16207196  1
  O2-  O319  1  0.82962263  0.16961059  0.49583229  1
  O2-  O320  1  0.83555833  0.18144242  0.84018146  1
  O2-  O321  1  0.82583509  0.66902752  0.17261808  1
  O2-  O322  1  0.83343395  0.67295823  0.49822252  1
  O2-  O323  1  0.83095739  0.67495062  0.82730162  1
  O2-  O324  1  0.00011874  0.33339374  0.16704075  1
  O2-  O325  1  -0.00608392  0.32548134  0.49304666  1
  O2-  O326  1  -0.00152954  0.32618084  0.83576342  1
  O2-  O327  1  0.00189432  0.83586616  0.16796686  1
  O2-  O328  1  -0.00400184  0.82907460  0.49551836  1
  O2-  O329  1  0.00582142  0.82219167  0.83518153  1
  O2-  O330  1  0.33117450  0.32821326  0.16629494  1
  O2-  O331  1  0.32453705  0.32527838  0.49622596  1
  O2-  O332  1  0.33586502  0.32686675  0.83092276  1
  O2-  O333  1  0.33554401  0.83509917  0.16886247  1
  O2-  O334  1  0.32991260  0.82843315  0.49676384  1
  O2-  O335  1  0.33427362  0.83153982  0.83396311  1
  O2-  O336  1  0.67060524  0.33196884  0.17090341  1
  O2-  O337  1  0.66547652  0.32591317  0.50186812  1
  O2-  O338  1  0.66352728  0.32279837  0.82756728  1
  O2-  O339  1  0.66065450  0.82324924  0.16361020  1
  O2-  O340  1  0.67000195  0.81743208  0.50621438  1
  O2-  O341  1  0.66466207  0.83041054  0.83304667  1
  O2-  O342  1  0.16908598  0.32622840  0.16663345  1
  O2-  O343  1  0.17006110  0.31786265  0.49597214  1
  O2-  O344  1  0.16755279  0.33027932  0.83417444  1
  O2-  O345  1  0.16343261  0.83415871  0.17046912  1
  O2-  O346  1  0.17075043  0.82737911  0.49703316  1
  O2-  O347  1  0.16548215  0.82441228  0.83229672  1
  O2-  O348  1  0.49959581  0.33137205  0.16704876  1
  O2-  O349  1  0.50624960  0.32167939  0.50010190  1
  O2-  O350  1  0.49753518  0.32604995  0.83063664  1
  O2-  O351  1  0.49845309  0.82729054  0.17194724  1
  O2-  O352  1  0.50062863  0.81596479  0.50151186  1
  O2-  O353  1  0.49922918  0.83190284  0.83420466  1
  O2-  O354  1  0.82932646  0.33483223  0.17206951  1
  O2-  O355  1  0.83708973  0.33342918  0.49521929  1
  O2-  O356  1  0.83484704  0.31488506  0.82901788  1
  O2-  O357  1  0.83962535  0.83161308  0.15948054  1
  O2-  O358  1  0.82790005  0.82675045  0.49944334  1
  O2-  O359  1  0.82885875  0.82679450  0.83835510  1
  O2-  O360  1  0.08911067  0.07985821  0.10066699  1
  O2-  O361  1  0.08833267  0.08001229  0.43999172  1
  O2-  O362  1  0.07900819  0.07919199  0.77247774  1
  O2-  O363  1  0.09248427  0.57649135  0.10740778  1
  O2-  O364  1  0.09275930  0.58198755  0.43758161  1
  O2-  O365  1  0.08640186  0.58063601  0.76642690  1
  O2-  O366  1  0.40618539  0.08090198  0.10408484  1
  O2-  O367  1  0.42758090  0.08241596  0.43183701  1
  O2-  O368  1  0.42311358  0.07061200  0.77552641  1
  O2-  O369  1  0.41890600  0.58081310  0.10833378  1
  O2-  O370  1  0.41762965  0.58373930  0.43423047  1
  O2-  O371  1  0.42788060  0.57937841  0.76706928  1
  O2-  O372  1  0.75077689  0.08299127  0.10173704  1
  O2-  O373  1  0.73913963  0.08366282  0.43595183  1
  O2-  O374  1  0.75415877  0.08308957  0.76574013  1
  O2-  O375  1  0.73471278  0.57032652  0.11223337  1
  O2-  O376  1  0.74920620  0.58051708  0.44221578  1
  O2-  O377  1  0.73951529  0.58324334  0.75622266  1
  O2-  O378  1  0.24941288  0.07953969  0.22859352  1
  O2-  O379  1  0.22879612  0.07930586  0.55466870  1
  O2-  O380  1  0.24906968  0.07988144  0.90937736  1
  O2-  O381  1  0.25404231  0.57952758  0.22853760  1
  O2-  O382  1  0.24416322  0.58160338  0.56291222  1
  O2-  O383  1  0.24751433  0.58577950  0.90269119  1
  O2-  O384  1  0.58611891  0.08484922  0.24357132  1
  O2-  O385  1  0.58579736  0.08008844  0.55471210  1
  O2-  O386  1  0.58623418  0.07696461  0.89170102  1
  O2-  O387  1  0.58026792  0.58121791  0.22863366  1
  O2-  O388  1  0.58862067  0.57316356  0.55810532  1
  O2-  O389  1  0.57631995  0.58220744  0.89609938  1
  O2-  O390  1  0.91627229  0.08051362  0.22997066  1
  O2-  O391  1  0.92905162  0.07831931  0.55835499  1
  O2-  O392  1  0.91523785  0.08024352  0.89375168  1
  O2-  O393  1  0.91840385  0.57975637  0.23867029  1
  O2-  O394  1  0.91536338  0.58102903  0.55933887  1
  O2-  O395  1  0.92585471  0.57507294  0.89630005  1
  O2-  O396  1  0.09737766  0.41833651  0.10530320  1
  O2-  O397  1  0.08919150  0.41674070  0.42474972  1
  O2-  O398  1  0.08376704  0.41745406  0.77228843  1
  O2-  O399  1  0.07700395  0.92280789  0.10843697  1
  O2-  O400  1  0.08304522  0.91623079  0.41887343  1
  O2-  O401  1  0.09259140  0.92404109  0.77256280  1
  O2-  O402  1  0.40879669  0.41713374  0.10202121  1
  O2-  O403  1  0.41218719  0.41420212  0.42678869  1
  O2-  O404  1  0.41783797  0.41901244  0.76714547  1
  O2-  O405  1  0.41933703  0.92158579  0.10866525  1
  O2-  O406  1  0.40943707  0.91691755  0.41466152  1
  O2-  O407  1  0.41709378  0.92913708  0.77173955  1
  O2-  O408  1  0.75133037  0.42029852  0.10614296  1
  O2-  O409  1  0.75136217  0.41865518  0.43285985  1
  O2-  O410  1  0.74949310  0.42011549  0.75732448  1
  O2-  O411  1  0.75411607  0.91455681  0.09459537  1
  O2-  O412  1  0.75377605  0.91586761  0.43868233  1
  O2-  O413  1  0.74337973  0.91616785  0.76111044  1
  O2-  O414  1  0.24646663  0.41786254  0.23278611  1
  O2-  O415  1  0.24752994  0.41864657  0.55960586  1
  O2-  O416  1  0.25300111  0.41596070  0.89929416  1
  O2-  O417  1  0.24524366  0.92098110  0.23146546  1
  O2-  O418  1  0.24868741  0.91823039  0.57565772  1
  O2-  O419  1  0.24820999  0.92001554  0.89665424  1
  O2-  O420  1  0.59293707  0.41768487  0.23285637  1
  O2-  O421  1  0.59204480  0.41776264  0.57063485  1
  O2-  O422  1  0.57770227  0.41647707  0.89594860  1
  O2-  O423  1  0.56473857  0.92210082  0.22708140  1
  O2-  O424  1  0.60389878  0.91847758  0.57311928  1
  O2-  O425  1  0.58348299  0.91997805  0.89750874  1
  O2-  O426  1  0.91512475  0.41752192  0.23773713  1
  O2-  O427  1  0.91295174  0.41527682  0.56088274  1
  O2-  O428  1  0.92045328  0.42599569  0.89649543  1
  O2-  O429  1  0.93003344  0.92337870  0.22564984  1
  O2-  O430  1  0.89847845  0.91925251  0.56110773  1
  O2-  O431  1  0.91749117  0.91732305  0.91183937  1
  O2-  O432  1  -0.00403262  -0.00325726  0.00637655  1
  O2-  O433  1  0.00448756  -0.00400120  0.32728641  1
  O2-  O434  1  0.00123255  0.01144867  0.66509293  1
  O2-  O435  1  0.00457394  0.49720045  -0.01239819  1
  O2-  O436  1  -0.00245938  0.49921134  0.33425495  1
  O2-  O437  1  0.00575294  0.50514644  0.67302205  1
  O2-  O438  1  0.33055369  -0.00393007  0.00430288  1
  O2-  O439  1  0.33524954  0.00202687  0.33143473  1
  O2-  O440  1  0.32516458  -0.00109647  0.67329019  1
  O2-  O441  1  0.33304575  0.50370947  0.00091508  1
  O2-  O442  1  0.33316741  0.50578359  0.33446013  1
  O2-  O443  1  0.34856040  0.50383941  0.66484360  1
  O2-  O444  1  0.66627965  -0.00264055  -0.00362232  1
  O2-  O445  1  0.66273354  0.00850236  0.33451869  1
  O2-  O446  1  0.66786057  0.00122882  0.66234416  1
  O2-  O447  1  0.66180288  0.50201935  0.01532450  1
  O2-  O448  1  0.67634519  0.50255118  0.32313115  1
  O2-  O449  1  0.66698303  0.50383381  0.66890304  1
  O2-  O450  1  0.16609972  -0.00137513  -0.00009875  1
  O2-  O451  1  0.16451528  -0.00146785  0.32963623  1
  O2-  O452  1  0.16433334  0.00660640  0.66511546  1
  O2-  O453  1  0.17177493  0.50028972  0.00266859  1
  O2-  O454  1  0.17372436  0.50551714  0.34296330  1
  O2-  O455  1  0.16036659  0.50452212  0.66565481  1
  O2-  O456  1  0.49677022  -0.00445299  -0.00511485  1
  O2-  O457  1  0.49850032  0.00565565  0.33004429  1
  O2-  O458  1  0.50655536  0.00001280  0.68080176  1
  O2-  O459  1  0.49859483  0.50242791  -0.00330126  1
  O2-  O460  1  0.49573151  0.50727549  0.32729605  1
  O2-  O461  1  0.50906506  0.50988446  0.66963071  1
  O2-  O462  1  0.83658568  -0.00244107  0.00599141  1
  O2-  O463  1  0.83727112  0.00491203  0.33591133  1
  O2-  O464  1  0.83033352  0.00521020  0.65893110  1
  O2-  O465  1  0.83708801  0.49725342  0.00590151  1
  O2-  O466  1  0.83535560  0.50122469  0.33190651  1
  O2-  O467  1  0.82875134  0.50220039  0.66245414  1
  O2-  O468  1  0.25295647  0.75154775  0.92501982  1
  O2-  O469  1  0.08028622  0.74976078  0.40834141  1
  O2-  O470  1  0.41154019  0.75009786  0.07902732  1
  O2-  O471  1  0.91430714  0.25072372  0.25157150  1
  O2-  O472  1  0.41887109  0.24883616  0.41038843  1
  O2-  O473  1  0.91687279  0.25092830  0.58699012  1
  O2-  O474  1  0.08370048  0.25273757  0.08084900  1
  O2-  O475  1  0.58294474  0.25131103  0.92117522  1
  O2-  O476  1  0.58097813  0.75103295  0.92056815  1
  O2-  O477  1  0.91315735  0.75264643  0.58349368  1
  O2-  O478  1  0.75194240  0.74914097  0.74250343  1
  O2-  O479  1  0.08068292  0.74610452  0.07925313  1
  O2-  O480  1  0.75197442  0.75127155  0.07964541  1
  O2-  O481  1  0.24947469  0.75443702  0.25419271  1
  O2-  O482  1  0.74913768  0.25334388  0.08437924  1
  O2-  O483  1  0.74903190  0.25156109  0.40903446  1
  O2-  O484  1  0.25047402  0.25033548  0.92212619  1
  O2-  O485  1  0.58372741  0.25033257  0.25878399  1
  O2-  O486  1  0.25322760  0.75118261  0.58226001  1
  O2-  O487  1  0.40967327  0.75059487  0.40695027  1
  O2-  O488  1  0.41362209  0.74721555  0.74978867  1
  O2-  O489  1  0.92248927  0.75178193  0.25147790  1
  O2-  O490  1  0.08213856  0.25022843  0.74257602  1
  O2-  O491  1  0.91823474  0.74996841  0.92351501  1
  O2-  O492  1  0.41806586  0.25086886  0.08046237  1
