# generated using pymatgen
data_Ca108Mn108O277
_symmetry_space_group_name_H-M   'P 1'
_cell_length_a   16.02335015
_cell_length_b   22.30300455
_cell_length_c   16.38568633
_cell_angle_alpha   89.99955128
_cell_angle_beta   90.00245703
_cell_angle_gamma   90.00145200
_symmetry_Int_Tables_number   1
_chemical_formula_structural   Ca108Mn108O277
_chemical_formula_sum   'Ca108 Mn108 O277'
_cell_volume   5855.73389315
_cell_formula_units_Z   1
loop_
 _symmetry_equiv_pos_site_id
 _symmetry_equiv_pos_as_xyz
  1  'x, y, z'
loop_
 _atom_type_symbol
 _atom_type_oxidation_number
  Ca2+  2.0
  Mn3.34+  3.34
  O2-  -2.0
loop_
 _atom_site_type_symbol
 _atom_site_label
 _atom_site_symmetry_multiplicity
 _atom_site_fract_x
 _atom_site_fract_y
 _atom_site_fract_z
 _atom_site_occupancy
  Ca2+  Ca0  1  0.08505841  0.25261186  0.25391679  1
  Ca2+  Ca1  1  0.06433778  0.24674320  0.57045928  1
  Ca2+  Ca2  1  0.07416405  0.26051262  0.92009029  1
  Ca2+  Ca3  1  0.09603296  0.75320917  0.25430876  1
  Ca2+  Ca4  1  0.08689475  0.76310417  0.57783535  1
  Ca2+  Ca5  1  0.07378024  0.76679711  0.91832140  1
  Ca2+  Ca6  1  0.42022287  0.25286893  0.25390826  1
  Ca2+  Ca7  1  0.41755225  0.24687242  0.57333965  1
  Ca2+  Ca8  1  0.43615400  0.24743298  0.92708536  1
  Ca2+  Ca9  1  0.41591688  0.74016863  0.25752413  1
  Ca2+  Ca10  1  0.42939561  0.74443188  0.56934346  1
  Ca2+  Ca11  1  0.42656288  0.73979713  0.91832458  1
  Ca2+  Ca12  1  0.74812425  0.24848314  0.24718135  1
  Ca2+  Ca13  1  0.75985088  0.24020633  0.58043036  1
  Ca2+  Ca14  1  0.73627085  0.25417570  0.91053617  1
  Ca2+  Ca15  1  0.74066555  0.75177223  0.24712770  1
  Ca2+  Ca16  1  0.73845734  0.74294110  0.58877932  1
  Ca2+  Ca17  1  0.74183121  0.75054287  0.92149027  1
  Ca2+  Ca18  1  0.26213504  0.25369103  0.10221548  1
  Ca2+  Ca19  1  0.25937936  0.25056548  0.41150896  1
  Ca2+  Ca20  1  0.25833408  0.24782715  0.73227780  1
  Ca2+  Ca21  1  0.26544050  0.74582189  0.10824615  1
  Ca2+  Ca22  1  0.27243106  0.74698758  0.39547638  1
  Ca2+  Ca23  1  0.26047588  0.76145319  0.74881656  1
  Ca2+  Ca24  1  0.58596910  0.24301681  0.08470000  1
  Ca2+  Ca25  1  0.57998216  0.24616244  0.41945834  1
  Ca2+  Ca26  1  0.59383256  0.24377493  0.74247286  1
  Ca2+  Ca27  1  0.57949724  0.74954717  0.08228945  1
  Ca2+  Ca28  1  0.56595083  0.74923071  0.40972956  1
  Ca2+  Ca29  1  0.58133025  0.75118104  0.74871710  1
  Ca2+  Ca30  1  0.90524087  0.25063448  0.09234737  1
  Ca2+  Ca31  1  0.90564879  0.25994054  0.42465216  1
  Ca2+  Ca32  1  0.89681934  0.24068051  0.72257521  1
  Ca2+  Ca33  1  0.91164459  0.75416427  0.07680263  1
  Ca2+  Ca34  1  0.91198497  0.75154708  0.40876203  1
  Ca2+  Ca35  1  0.89872855  0.74765500  0.76466607  1
  Ca2+  Ca36  1  0.72873757  0.09229785  0.92704579  1
  Ca2+  Ca37  1  0.58200726  0.59657595  0.08564840  1
  Ca2+  Ca38  1  0.39505747  0.59123174  0.25354393  1
  Ca2+  Ca39  1  0.93166618  0.10646558  0.43062541  1
  Ca2+  Ca40  1  0.42577258  0.10357765  0.58112704  1
  Ca2+  Ca41  1  0.91171052  0.59940898  0.41941158  1
  Ca2+  Ca42  1  0.53919387  0.59390459  0.43159511  1
  Ca2+  Ca43  1  0.09209017  0.07841136  0.59054866  1
  Ca2+  Ca44  1  0.24807110  0.07127663  0.71081397  1
  Ca2+  Ca45  1  0.88584559  0.58460079  0.75309797  1
  Ca2+  Ca46  1  0.92439898  0.59995037  0.41841829  1
  Ca2+  Ca47  1  0.86712221  0.09979730  0.09169587  1
  Ca2+  Ca48  1  0.74671445  0.10016291  0.59364456  1
  Ca2+  Ca49  1  0.13008147  0.58887436  0.25624211  1
  Ca2+  Ca50  1  0.56066190  0.60260287  0.74553028  1
  Ca2+  Ca51  1  0.57379476  0.10418298  0.42679862  1
  Ca2+  Ca52  1  0.04688400  0.57623746  0.93080449  1
  Ca2+  Ca53  1  0.08347172  0.07913228  0.91714955  1
  Ca2+  Ca54  1  0.27803945  0.08007853  0.42336300  1
  Ca2+  Ca55  1  0.27674811  0.59400678  0.09640622  1
  Ca2+  Ca56  1  0.25566092  0.10027392  0.09155103  1
  Ca2+  Ca57  1  0.31129577  0.61538769  0.76463657  1
  Ca2+  Ca58  1  0.92080479  0.11077040  0.43277468  1
  Ca2+  Ca59  1  0.42254136  0.08586697  0.26906781  1
  Ca2+  Ca60  1  0.09532145  0.09860809  0.25340808  1
  Ca2+  Ca61  1  0.58199853  0.09880969  0.74421200  1
  Ca2+  Ca62  1  0.77127362  0.58144833  0.93438574  1
  Ca2+  Ca63  1  0.74088449  0.10229632  0.23543561  1
  Ca2+  Ca64  1  0.09639303  0.07904433  0.91731883  1
  Ca2+  Ca65  1  0.27786229  0.59570036  0.39825449  1
  Ca2+  Ca66  1  0.07312603  0.59412408  0.57970185  1
  Ca2+  Ca67  1  0.73154577  0.08832335  0.91743437  1
  Ca2+  Ca68  1  0.61095428  0.09399168  0.08537978  1
  Ca2+  Ca69  1  0.11820061  0.58801542  0.26058980  1
  Ca2+  Ca70  1  0.53417251  0.59592476  0.42297679  1
  Ca2+  Ca71  1  0.72634548  0.57479516  0.61561821  1
  Ca2+  Ca72  1  0.55601927  0.41573560  0.41718923  1
  Ca2+  Ca73  1  0.74399849  0.40528626  0.24881120  1
  Ca2+  Ca74  1  0.56482895  0.90690013  0.41040812  1
  Ca2+  Ca75  1  0.60568893  0.42127184  0.73268170  1
  Ca2+  Ca76  1  0.24885933  0.39618061  0.74831217  1
  Ca2+  Ca77  1  0.41372080  0.91397334  0.27125029  1
  Ca2+  Ca78  1  0.39327859  0.91254062  0.57284301  1
  Ca2+  Ca79  1  0.09112916  0.89888867  0.24777645  1
  Ca2+  Ca80  1  0.74839833  0.90874374  0.60419564  1
  Ca2+  Ca81  1  0.41145777  0.41162405  0.93144464  1
  Ca2+  Ca82  1  0.42380050  0.41091728  0.92915147  1
  Ca2+  Ca83  1  0.75045910  0.41372772  0.59614384  1
  Ca2+  Ca84  1  0.91967245  0.90547513  0.75111116  1
  Ca2+  Ca85  1  0.43044354  0.40354557  0.58453181  1
  Ca2+  Ca86  1  0.92904922  0.90139490  0.75212569  1
  Ca2+  Ca87  1  0.89691917  0.42336883  0.05216721  1
  Ca2+  Ca88  1  0.24596521  0.92128754  0.73285201  1
  Ca2+  Ca89  1  0.26450952  0.42905812  0.37871356  1
  Ca2+  Ca90  1  0.91867893  0.90084956  0.41831248  1
  Ca2+  Ca91  1  0.90131501  0.41148097  0.75013248  1
  Ca2+  Ca92  1  0.07144104  0.41092771  0.92619015  1
  Ca2+  Ca93  1  0.41885965  0.89401279  0.91066528  1
  Ca2+  Ca94  1  0.09491836  0.40475805  0.25965013  1
  Ca2+  Ca95  1  0.56704469  0.41238432  0.41409861  1
  Ca2+  Ca96  1  0.93102219  0.90198450  0.41986880  1
  Ca2+  Ca97  1  0.25271844  0.89309801  0.08410519  1
  Ca2+  Ca98  1  0.88977715  0.41469838  0.75347816  1
  Ca2+  Ca99  1  0.58444330  0.41393991  0.08696646  1
  Ca2+  Ca100  1  0.27912452  0.41996425  0.11200299  1
  Ca2+  Ca101  1  0.88757866  0.42548377  0.05573088  1
  Ca2+  Ca102  1  0.73853715  0.41351842  0.59578091  1
  Ca2+  Ca103  1  0.26174441  0.39670646  0.74896590  1
  Ca2+  Ca104  1  0.75963971  0.90812442  0.60584266  1
  Ca2+  Ca105  1  0.57249199  0.41137077  0.08870849  1
  Ca2+  Ca106  1  0.59652601  0.90539420  0.08009907  1
  Ca2+  Ca107  1  0.10835211  0.92521562  0.59821923  1
  Mn3.34+  Mn108  1  0.08381214  0.33338215  0.08991799  1
  Mn3.34+  Mn109  1  0.08317943  0.33790107  0.41967972  1
  Mn3.34+  Mn110  1  0.08078482  0.32841847  0.74752113  1
  Mn3.34+  Mn111  1  0.08140903  0.83243559  0.08129844  1
  Mn3.34+  Mn112  1  0.09354857  0.83465635  0.41878831  1
  Mn3.34+  Mn113  1  0.08881489  0.83696180  0.75310198  1
  Mn3.34+  Mn114  1  0.41883991  0.33291715  0.09060687  1
  Mn3.34+  Mn115  1  0.41035547  0.33388649  0.41688999  1
  Mn3.34+  Mn116  1  0.42319966  0.32938975  0.75262195  1
  Mn3.34+  Mn117  1  0.42114537  0.82975451  0.08594751  1
  Mn3.34+  Mn118  1  0.41391457  0.83582624  0.41884667  1
  Mn3.34+  Mn119  1  0.42057781  0.83667573  0.75098635  1
  Mn3.34+  Mn120  1  0.74881315  0.33667557  0.08783240  1
  Mn3.34+  Mn121  1  0.74930640  0.33279999  0.41711951  1
  Mn3.34+  Mn122  1  0.74654468  0.32977788  0.75267125  1
  Mn3.34+  Mn123  1  0.75320511  0.84503476  0.08640191  1
  Mn3.34+  Mn124  1  0.74441045  0.83118847  0.41525749  1
  Mn3.34+  Mn125  1  0.74352364  0.83364952  0.76045839  1
  Mn3.34+  Mn126  1  0.25109389  0.33346040  0.25298786  1
  Mn3.34+  Mn127  1  0.24400827  0.32680159  0.57162793  1
  Mn3.34+  Mn128  1  0.24811972  0.32398324  0.91768496  1
  Mn3.34+  Mn129  1  0.25394390  0.83367853  0.25195744  1
  Mn3.34+  Mn130  1  0.25175909  0.83753504  0.58132100  1
  Mn3.34+  Mn131  1  0.25126015  0.83548785  0.91296717  1
  Mn3.34+  Mn132  1  0.58124420  0.33245620  0.25255520  1
  Mn3.34+  Mn133  1  0.58408519  0.32876345  0.57883264  1
  Mn3.34+  Mn134  1  0.58674339  0.33393368  0.91234911  1
  Mn3.34+  Mn135  1  0.58505197  0.83390688  0.24741574  1
  Mn3.34+  Mn136  1  0.58014073  0.83011373  0.58427598  1
  Mn3.34+  Mn137  1  0.58480401  0.83384324  0.91641946  1
  Mn3.34+  Mn138  1  0.91584076  0.33146437  0.25201723  1
  Mn3.34+  Mn139  1  0.91798532  0.33302536  0.57795783  1
  Mn3.34+  Mn140  1  0.91484219  0.33527956  0.91274458  1
  Mn3.34+  Mn141  1  0.91340490  0.83015513  0.24116289  1
  Mn3.34+  Mn142  1  0.92024678  0.82634634  0.58044642  1
  Mn3.34+  Mn143  1  0.91109111  0.83089722  0.92424831  1
  Mn3.34+  Mn144  1  0.41802035  0.16532800  0.75064972  1
  Mn3.34+  Mn145  1  0.08610128  0.66661977  0.08214232  1
  Mn3.34+  Mn146  1  0.09338153  0.66612816  0.75626982  1
  Mn3.34+  Mn147  1  0.57610299  0.16652236  0.91534632  1
  Mn3.34+  Mn148  1  0.90828875  0.66995675  0.24282032  1
  Mn3.34+  Mn149  1  0.42276746  0.16703220  0.08911588  1
  Mn3.34+  Mn150  1  0.58610421  0.66485490  0.24827305  1
  Mn3.34+  Mn151  1  0.58373399  0.16817769  0.24901308  1
  Mn3.34+  Mn152  1  0.07598554  0.66148246  0.08383711  1
  Mn3.34+  Mn153  1  0.41874248  0.16645352  0.41817370  1
  Mn3.34+  Mn154  1  0.24913287  0.67004913  0.58177090  1
  Mn3.34+  Mn155  1  0.74318972  0.66783461  0.41826804  1
  Mn3.34+  Mn156  1  0.09153986  0.16706338  0.41666934  1
  Mn3.34+  Mn157  1  0.74514707  0.16922335  0.41741756  1
  Mn3.34+  Mn158  1  0.90950537  0.66396576  0.91708151  1
  Mn3.34+  Mn159  1  0.91903077  0.16203502  0.91264369  1
  Mn3.34+  Mn160  1  0.75099530  0.65692714  0.08820192  1
  Mn3.34+  Mn161  1  0.26529891  0.17045231  0.91164767  1
  Mn3.34+  Mn162  1  0.08300066  0.17271861  0.08773500  1
  Mn3.34+  Mn163  1  0.25290160  0.67182269  0.91968073  1
  Mn3.34+  Mn164  1  0.91585673  0.17038029  0.24771693  1
  Mn3.34+  Mn165  1  0.91023183  0.17218854  0.91512645  1
  Mn3.34+  Mn166  1  0.74666862  0.16047844  0.74815877  1
  Mn3.34+  Mn167  1  0.91185411  0.66903432  0.58554135  1
  Mn3.34+  Mn168  1  0.25093882  0.16513864  0.57599633  1
  Mn3.34+  Mn169  1  0.07607510  0.16272161  0.74866600  1
  Mn3.34+  Mn170  1  0.25579484  0.16793873  0.25153856  1
  Mn3.34+  Mn171  1  0.74286771  0.66462535  0.75673837  1
  Mn3.34+  Mn172  1  0.08444502  0.67075858  0.41921735  1
  Mn3.34+  Mn173  1  0.58212730  0.66963655  0.91354115  1
  Mn3.34+  Mn174  1  0.26052041  0.66629560  0.58128211  1
  Mn3.34+  Mn175  1  0.25433815  0.16812772  0.90855947  1
  Mn3.34+  Mn176  1  0.07977604  0.67241395  0.75338351  1
  Mn3.34+  Mn177  1  0.42215544  0.66264818  0.08594880  1
  Mn3.34+  Mn178  1  0.57918832  0.66476736  0.58364318  1
  Mn3.34+  Mn179  1  0.08885541  0.17014101  0.74790123  1
  Mn3.34+  Mn180  1  0.89739069  -0.00181144  0.92079617  1
  Mn3.34+  Mn181  1  0.42376471  -0.00154701  0.08304406  1
  Mn3.34+  Mn182  1  0.58279037  -0.00283105  0.91522399  1
  Mn3.34+  Mn183  1  0.26306237  0.00014933  0.91206803  1
  Mn3.34+  Mn184  1  0.41367763  0.00104411  0.75030429  1
  Mn3.34+  Mn185  1  0.08468380  0.49946583  0.41935284  1
  Mn3.34+  Mn186  1  0.90654700  0.50667549  0.23934106  1
  Mn3.34+  Mn187  1  0.57134247  -0.00390968  0.58368831  1
  Mn3.34+  Mn188  1  0.07928837  0.49644223  0.08472839  1
  Mn3.34+  Mn189  1  0.92010639  0.50083574  0.23909088  1
  Mn3.34+  Mn190  1  0.90758880  -0.00410016  0.24031362  1
  Mn3.34+  Mn191  1  0.91682991  0.49812593  0.58366185  1
  Mn3.34+  Mn192  1  0.74301566  0.50543482  0.41480306  1
  Mn3.34+  Mn193  1  0.57825516  0.50387329  0.25650833  1
  Mn3.34+  Mn194  1  0.09899640  0.49923351  0.75163701  1
  Mn3.34+  Mn195  1  0.09334937  0.00197575  0.08940832  1
  Mn3.34+  Mn196  1  0.73736149  0.00372497  0.41781009  1
  Mn3.34+  Mn197  1  0.90806578  -0.00676745  0.92566470  1
  Mn3.34+  Mn198  1  0.59708148  0.50045945  0.91921558  1
  Mn3.34+  Mn199  1  0.58318337  0.00229876  0.57866762  1
  Mn3.34+  Mn200  1  0.92196230  0.00133094  0.24165009  1
  Mn3.34+  Mn201  1  0.75588957  0.49838086  0.41682332  1
  Mn3.34+  Mn202  1  0.24561878  0.49437287  0.57132738  1
  Mn3.34+  Mn203  1  0.75179758  -0.00087985  0.41368693  1
  Mn3.34+  Mn204  1  0.24450860  0.50149686  0.91531607  1
  Mn3.34+  Mn205  1  0.58011269  -0.00018456  0.25046450  1
  Mn3.34+  Mn206  1  0.58693879  0.50602652  0.91936773  1
  Mn3.34+  Mn207  1  0.08365763  0.50367264  0.75354285  1
  Mn3.34+  Mn208  1  0.25777694  0.50002187  0.57235567  1
  Mn3.34+  Mn209  1  0.09366036  -0.00233169  0.41208906  1
  Mn3.34+  Mn210  1  0.92097297  0.00052510  0.59499412  1
  Mn3.34+  Mn211  1  0.41350351  0.00333855  0.08151378  1
  Mn3.34+  Mn212  1  0.07924951  -0.00402518  0.08971765  1
  Mn3.34+  Mn213  1  0.25830138  0.50765253  0.91831794  1
  Mn3.34+  Mn214  1  0.42065557  0.49787805  0.74396557  1
  Mn3.34+  Mn215  1  0.25020643  0.00103828  0.25663176  1
  O2-  O216  1  0.00374437  0.15239122  -0.00422136  1
  O2-  O217  1  0.00589230  0.15441174  0.32916067  1
  O2-  O218  1  0.00735940  0.17183860  0.66031860  1
  O2-  O219  1  -0.00324101  0.65430763  0.00134602  1
  O2-  O220  1  0.00505274  0.65095844  0.33199774  1
  O2-  O221  1  0.00188952  0.65491400  0.66620571  1
  O2-  O222  1  0.33188374  0.16208252  0.00734583  1
  O2-  O223  1  0.33182484  0.14973990  0.33552615  1
  O2-  O224  1  0.33277814  0.15810877  0.66738886  1
  O2-  O225  1  0.32696489  0.67019976  0.00754107  1
  O2-  O226  1  0.33592391  0.66897011  0.32443043  1
  O2-  O227  1  0.33848570  0.67758695  0.66269413  1
  O2-  O228  1  0.66299071  0.16121937  -0.00662826  1
  O2-  O229  1  0.66412852  0.15226307  0.33389892  1
  O2-  O230  1  0.66308861  0.16171675  0.67331730  1
  O2-  O231  1  0.67167292  0.66310946  0.00254514  1
  O2-  O232  1  0.65722564  0.64695418  0.34561255  1
  O2-  O233  1  0.66424009  0.65594092  0.67088310  1
  O2-  O234  1  0.16447802  0.16287404  -0.00731034  1
  O2-  O235  1  0.16999202  0.16651552  0.33161093  1
  O2-  O236  1  0.16966348  0.15915478  0.66755454  1
  O2-  O237  1  0.16209898  0.65032825  -0.00395525  1
  O2-  O238  1  0.16916302  0.65626156  0.34707427  1
  O2-  O239  1  0.17453729  0.64518731  0.66878799  1
  O2-  O240  1  0.50388108  0.15715094  0.00767443  1
  O2-  O241  1  0.49920791  0.15673075  0.33359963  1
  O2-  O242  1  0.49294388  0.17974570  0.67025371  1
  O2-  O243  1  0.50561983  0.65653731  -0.00015068  1
  O2-  O244  1  0.50033685  0.65531095  0.32296260  1
  O2-  O245  1  0.50357322  0.67212217  0.66282157  1
  O2-  O246  1  0.82669535  0.16500006  -0.00431453  1
  O2-  O247  1  0.83705322  0.14457141  0.33278155  1
  O2-  O248  1  0.82460259  0.15968451  0.66922599  1
  O2-  O249  1  0.82783439  0.67053820  0.00082543  1
  O2-  O250  1  0.83877132  0.65755131  0.34064239  1
  O2-  O251  1  0.83279042  0.66222424  0.66948630  1
  O2-  O252  1  -0.00262816  0.34962339  0.00644915  1
  O2-  O253  1  0.00711061  0.33485512  0.32743798  1
  O2-  O254  1  -0.01166633  0.34454801  0.67743907  1
  O2-  O255  1  -0.00310909  0.83620495  0.00187164  1
  O2-  O256  1  0.00302334  0.84643096  0.33505791  1
  O2-  O257  1  0.00094775  0.84123953  0.66182593  1
  O2-  O258  1  0.33506860  0.34183172  -0.00201998  1
  O2-  O259  1  0.32867827  0.34459978  0.33830765  1
  O2-  O260  1  0.33933781  0.34094557  0.66924332  1
  O2-  O261  1  0.33502349  0.83754175  -0.00039521  1
  O2-  O262  1  0.33478186  0.84171942  0.33261327  1
  O2-  O263  1  0.33098805  0.83761512  0.67256229  1
  O2-  O264  1  0.66079530  0.34105201  0.00975909  1
  O2-  O265  1  0.65907831  0.35459123  0.34214672  1
  O2-  O266  1  0.66869587  0.33751746  0.66116459  1
  O2-  O267  1  0.66749139  0.83215100  0.00750047  1
  O2-  O268  1  0.65960950  0.84648781  0.34094103  1
  O2-  O269  1  0.66791545  0.84478873  0.66819397  1
  O2-  O270  1  0.16237082  0.31517139  -0.00021489  1
  O2-  O271  1  0.16489963  0.32505222  0.33293039  1
  O2-  O272  1  0.17077708  0.33099067  0.66968250  1
  O2-  O273  1  0.17261845  0.82633194  0.00048387  1
  O2-  O274  1  0.16659308  0.84290642  0.33077974  1
  O2-  O275  1  0.16850606  0.84785097  0.66946002  1
  O2-  O276  1  0.50197555  0.34642785  -0.00112153  1
  O2-  O277  1  0.49847773  0.34534122  0.33601315  1
  O2-  O278  1  0.50528397  0.32593278  0.66830014  1
  O2-  O279  1  0.50248673  0.84647925  0.00404676  1
  O2-  O280  1  0.49795507  0.84305277  0.32931799  1
  O2-  O281  1  0.49327794  0.82180017  0.66193173  1
  O2-  O282  1  0.83049783  0.33531924  0.00414536  1
  O2-  O283  1  0.82777889  0.34944583  0.33076948  1
  O2-  O284  1  0.83048459  0.34233880  0.66873403  1
  O2-  O285  1  0.82606348  0.82133551  0.00352894  1
  O2-  O286  1  0.83885359  0.84210554  0.34033116  1
  O2-  O287  1  0.84028865  0.83414744  0.66376953  1
  O2-  O288  1  -0.00133208  0.18886268  0.16716353  1
  O2-  O289  1  -0.00071804  0.18739028  0.47791985  1
  O2-  O290  1  -0.00072775  0.18666308  0.82896334  1
  O2-  O291  1  0.00780105  0.67653016  0.17561763  1
  O2-  O292  1  -0.00574153  0.68244960  0.49933501  1
  O2-  O293  1  -0.00270431  0.67605034  0.83499401  1
  O2-  O294  1  0.33552114  0.17727040  0.16797878  1
  O2-  O295  1  0.33309820  0.17613968  0.49701598  1
  O2-  O296  1  0.33891095  0.19933614  0.82893992  1
  O2-  O297  1  0.34332922  0.67274684  0.16567236  1
  O2-  O298  1  0.32676762  0.67894999  0.49271855  1
  O2-  O299  1  0.32629450  0.69466891  0.84007310  1
  O2-  O300  1  0.66257618  0.18170898  0.17116083  1
  O2-  O301  1  0.66881973  0.18119688  0.49516382  1
  O2-  O302  1  0.66467396  0.17785387  0.83900521  1
  O2-  O303  1  0.66878517  0.68141998  0.16184013  1
  O2-  O304  1  0.67101584  0.67364969  0.50237871  1
  O2-  O305  1  0.66756877  0.68486070  0.83613588  1
  O2-  O306  1  0.17208916  0.18372443  0.16672130  1
  O2-  O307  1  0.16497800  0.18371908  0.50205019  1
  O2-  O308  1  0.16174521  0.19524063  0.83456037  1
  O2-  O309  1  0.16784683  0.67184342  0.16472008  1
  O2-  O310  1  0.15543065  0.67393889  0.51367563  1
  O2-  O311  1  0.16529165  0.69090746  0.83981326  1
  O2-  O312  1  0.49917474  0.18277530  0.17197941  1
  O2-  O313  1  0.49690344  0.18193489  0.49546309  1
  O2-  O314  1  0.50184888  0.18536254  0.82810041  1
  O2-  O315  1  0.50842812  0.67939742  0.16376948  1
  O2-  O316  1  0.50678486  0.67760781  0.49838281  1
  O2-  O317  1  0.50898265  0.68127722  0.83177337  1
  O2-  O318  1  0.83283572  0.18052228  0.17306255  1
  O2-  O319  1  0.83330224  0.17471853  0.48977048  1
  O2-  O320  1  0.82561130  0.17322819  0.83602398  1
  O2-  O321  1  0.83033028  0.68911098  0.16146261  1
  O2-  O322  1  0.83766151  0.68565503  0.49785719  1
  O2-  O323  1  0.83009435  0.67613727  0.83487670  1
  O2-  O324  1  -0.00096308  0.31418132  0.16607284  1
  O2-  O325  1  -0.00136905  0.32161378  0.49636969  1
  O2-  O326  1  0.00778990  0.32340864  0.83646336  1
  O2-  O327  1  0.00832070  0.82220872  0.17369043  1
  O2-  O328  1  -0.00542073  0.81770427  0.49304854  1
  O2-  O329  1  -0.00629876  0.82248297  0.82113848  1
  O2-  O330  1  0.33175948  0.32958196  0.16570690  1
  O2-  O331  1  0.33688691  0.32141878  0.50305905  1
  O2-  O332  1  0.32806823  0.31855778  0.82646006  1
  O2-  O333  1  0.33509922  0.82449322  0.16558581  1
  O2-  O334  1  0.33893002  0.82141962  0.50787882  1
  O2-  O335  1  0.33944634  0.81490568  0.83822094  1
  O2-  O336  1  0.66857787  0.32189266  0.17086616  1
  O2-  O337  1  0.66434490  0.31099845  0.49925478  1
  O2-  O338  1  0.65997374  0.32033558  0.82618115  1
  O2-  O339  1  0.66822367  0.81919794  0.16225118  1
  O2-  O340  1  0.67752424  0.83589483  0.51243760  1
  O2-  O341  1  0.66580979  0.82033446  0.83766407  1
  O2-  O342  1  0.16672307  0.31512825  0.16958649  1
  O2-  O343  1  0.16281271  0.30744401  0.49487250  1
  O2-  O344  1  0.17097319  0.31281902  0.82647629  1
  O2-  O345  1  0.16922758  0.82420899  0.16641300  1
  O2-  O346  1  0.16377518  0.82818353  0.50638670  1
  O2-  O347  1  0.16851947  0.81724873  0.83291679  1
  O2-  O348  1  0.51060258  0.32107014  0.15994018  1
  O2-  O349  1  0.49931879  0.31770706  0.49945063  1
  O2-  O350  1  0.48771733  0.32331201  0.84603471  1
  O2-  O351  1  0.50480875  0.82257474  0.16456409  1
  O2-  O352  1  0.50744920  0.82197641  0.49489303  1
  O2-  O353  1  0.49835339  0.81730297  0.83617094  1
  O2-  O354  1  0.83001831  0.31447158  0.16724932  1
  O2-  O355  1  0.82233242  0.32436913  0.50622807  1
  O2-  O356  1  0.83725451  0.32262069  0.82579985  1
  O2-  O357  1  0.83055043  0.81442684  0.16383547  1
  O2-  O358  1  0.83672143  0.82243169  0.49959350  1
  O2-  O359  1  0.83759633  0.82583439  0.82937587  1
  O2-  O360  1  0.09168908  0.08303876  0.11479572  1
  O2-  O361  1  0.06994614  0.07953340  0.45050444  1
  O2-  O362  1  0.09685281  0.08154847  0.78404672  1
  O2-  O363  1  0.08659282  0.57705576  0.11750727  1
  O2-  O364  1  0.06220909  0.58148761  0.44685620  1
  O2-  O365  1  0.08147976  0.58310403  0.78943569  1
  O2-  O366  1  0.41234154  0.08228308  0.12337241  1
  O2-  O367  1  0.42148480  0.08455594  0.44466552  1
  O2-  O368  1  0.41554443  0.08166568  0.77453072  1
  O2-  O369  1  0.42117278  0.58221959  0.10861621  1
  O2-  O370  1  0.40674310  0.57092735  0.42187805  1
  O2-  O371  1  0.43040179  0.57162048  0.78285742  1
  O2-  O372  1  0.74125129  0.07305615  0.11297146  1
  O2-  O373  1  0.74863535  0.08264599  0.45484051  1
  O2-  O374  1  0.73303099  0.07964079  0.78271591  1
  O2-  O375  1  0.74036108  0.58160304  0.09252583  1
  O2-  O376  1  0.77491131  0.58224350  0.45413340  1
  O2-  O377  1  0.74745512  0.58350784  0.77405836  1
  O2-  O378  1  0.24369355  0.08248407  0.22367317  1
  O2-  O379  1  0.24555800  0.08438146  0.55940470  1
  O2-  O380  1  0.23291323  0.08343026  0.87511942  1
  O2-  O381  1  0.24849459  0.56449629  0.21724276  1
  O2-  O382  1  0.24687451  0.58139613  0.54469641  1
  O2-  O383  1  0.24684322  0.58500449  0.87953581  1
  O2-  O384  1  0.58179890  0.08161193  0.22108449  1
  O2-  O385  1  0.57601788  0.08279902  0.56370494  1
  O2-  O386  1  0.58573484  0.08001326  0.88285632  1
  O2-  O387  1  0.57866902  0.58195462  0.22097003  1
  O2-  O388  1  0.58506444  0.58224128  0.55541533  1
  O2-  O389  1  0.59987724  0.58531663  0.88610605  1
  O2-  O390  1  0.92812524  0.08286381  0.21516102  1
  O2-  O391  1  0.92796453  0.07373582  0.55723561  1
  O2-  O392  1  0.94891568  0.07318574  0.87421358  1
  O2-  O393  1  0.91008549  0.58722689  0.22130937  1
  O2-  O394  1  0.92519153  0.57900561  0.55241663  1
  O2-  O395  1  0.91262206  0.58250562  0.89086699  1
  O2-  O396  1  0.09273347  0.41939423  0.11869273  1
  O2-  O397  1  0.11346163  0.42078466  0.42181187  1
  O2-  O398  1  0.11066813  0.41796881  0.78068437  1
  O2-  O399  1  0.09839120  0.91519743  0.10375470  1
  O2-  O400  1  0.06480742  0.91836508  0.45332487  1
  O2-  O401  1  0.07057713  0.91626678  0.76547345  1
  O2-  O402  1  0.43153938  0.41488609  0.09840515  1
  O2-  O403  1  0.42221103  0.41582165  0.44972131  1
  O2-  O404  1  0.39322073  0.42281229  0.79423365  1
  O2-  O405  1  0.41097838  0.91728117  0.11077059  1
  O2-  O406  1  0.42743647  0.91845981  0.43981518  1
  O2-  O407  1  0.40839940  0.92233213  0.77865150  1
  O2-  O408  1  0.76458392  0.41883708  0.11604882  1
  O2-  O409  1  0.73553904  0.42074138  0.45787930  1
  O2-  O410  1  0.75334520  0.41470372  0.75755481  1
  O2-  O411  1  0.74316082  0.91976327  0.09894260  1
  O2-  O412  1  0.76865737  0.92015780  0.44841182  1
  O2-  O413  1  0.77784471  0.91465636  0.74727150  1
  O2-  O414  1  0.23426204  0.41486992  0.24110803  1
  O2-  O415  1  0.25066668  0.41220671  0.56577486  1
  O2-  O416  1  0.24820239  0.41867055  0.88200158  1
  O2-  O417  1  0.25043363  0.92216986  0.22148737  1
  O2-  O418  1  0.25445267  0.91748481  0.57474069  1
  O2-  O419  1  0.26414808  0.91861534  0.88260234  1
  O2-  O420  1  0.58931542  0.42133013  0.22071755  1
  O2-  O421  1  0.58764369  0.41484825  0.55030803  1
  O2-  O422  1  0.57109366  0.42285553  0.87124969  1
  O2-  O423  1  0.57521957  0.92007646  0.22020691  1
  O2-  O424  1  0.57552945  0.91595644  0.56294844  1
  O2-  O425  1  0.57069442  0.91797012  0.90083202  1
  O2-  O426  1  0.91603697  0.41919280  0.20997050  1
  O2-  O427  1  0.89370624  0.41780423  0.57139872  1
  O2-  O428  1  0.92590797  0.41909090  0.88383256  1
  O2-  O429  1  0.91957829  0.91440961  0.22941584  1
  O2-  O430  1  0.90653352  0.92441458  0.55050008  1
  O2-  O431  1  0.92180542  0.91446912  0.89049261  1
  O2-  O432  1  -0.00067425  0.01018829  0.00082160  1
  O2-  O433  1  -0.01668485  -0.00427153  0.34591501  1
  O2-  O434  1  0.00292242  -0.00931182  0.65917285  1
  O2-  O435  1  0.00031610  0.48459951  0.00495247  1
  O2-  O436  1  0.00136102  0.50944548  0.32678486  1
  O2-  O437  1  -0.00542469  0.49860124  0.67927617  1
  O2-  O438  1  0.31353860  0.00690898  0.02370776  1
  O2-  O439  1  0.33776401  0.00870884  0.31949533  1
  O2-  O440  1  0.33282061  -0.00386952  0.67798729  1
  O2-  O441  1  0.32718971  0.47872686  0.00349960  1
  O2-  O442  1  0.33622903  0.51129527  0.34441331  1
  O2-  O443  1  0.32447582  0.48840508  0.67288641  1
  O2-  O444  1  0.66821168  0.01091837  -0.01935365  1
  O2-  O445  1  0.65874043  0.00336159  0.33488429  1
  O2-  O446  1  0.68663568  -0.00103263  0.62979671  1
  O2-  O447  1  0.64956040  0.48741604  0.02242982  1
  O2-  O448  1  0.67899367  0.48772247  0.32174032  1
  O2-  O449  1  0.67689821  0.48678681  0.64407227  1
  O2-  O450  1  0.15688196  0.00952481  -0.01368213  1
  O2-  O451  1  0.14743835  0.00670623  0.30637984  1
  O2-  O452  1  0.16348416  0.00441669  0.65819627  1
  O2-  O453  1  0.15827908  0.50212520  -0.00509657  1
  O2-  O454  1  0.16798823  0.51749480  0.34747936  1
  O2-  O455  1  0.15738619  0.51088792  0.65158036  1
  O2-  O456  1  0.50953533  0.00391383  0.00716472  1
  O2-  O457  1  0.49623379  0.00028506  0.31631285  1
  O2-  O458  1  0.49474597  0.01020949  0.66463820  1
  O2-  O459  1  0.49389949  0.48438359  -0.01373573  1
  O2-  O460  1  0.52857689  0.50106709  0.36374500  1
  O2-  O461  1  0.50778165  0.48337836  0.68735672  1
  O2-  O462  1  0.82660945  0.03666400  -0.00888779  1
  O2-  O463  1  0.82642587  0.01110682  0.32543527  1
  O2-  O464  1  0.83677457  -0.00794581  0.65775252  1
  O2-  O465  1  0.83674017  0.50184675  0.00822951  1
  O2-  O466  1  0.83985808  0.50175871  0.33630332  1
  O2-  O467  1  0.83817320  0.50017722  0.66855788  1
  O2-  O468  1  0.26942664  0.24944663  0.26749438  1
  O2-  O469  1  0.23148924  0.75216043  0.60493572  1
  O2-  O470  1  0.58342826  0.75116228  0.94093861  1
  O2-  O471  1  0.92386587  0.74828839  0.92675855  1
  O2-  O472  1  0.58363621  0.24957321  0.93971177  1
  O2-  O473  1  0.26321972  0.24822797  0.59907964  1
  O2-  O474  1  0.74529381  0.74954231  0.39246127  1
  O2-  O475  1  0.08580149  0.75093563  0.39537239  1
  O2-  O476  1  0.07589178  0.74949492  0.06673461  1
  O2-  O477  1  0.75511508  0.25044068  0.38669463  1
  O2-  O478  1  0.58286942  0.25090927  0.27881051  1
  O2-  O479  1  0.58999196  0.74928642  0.27187725  1
  O2-  O480  1  0.92271467  0.74957856  0.27113244  1
  O2-  O481  1  0.41880587  0.75456877  0.40167881  1
  O2-  O482  1  0.91197853  0.25459807  0.59080447  1
  O2-  O483  1  0.24869548  0.75415578  0.25905693  1
  O2-  O484  1  0.41746210  0.25019669  0.06587950  1
  O2-  O485  1  0.74814472  0.75103005  0.73315025  1
  O2-  O486  1  0.90850445  0.24864630  0.28225524  1
  O2-  O487  1  0.08947409  0.75128566  0.71917207  1
  O2-  O488  1  0.92755259  0.25376954  0.94420701  1
  O2-  O489  1  0.74972478  0.24826555  0.73626519  1
  O2-  O490  1  0.42441515  0.75013394  0.06548675  1
  O2-  O491  1  0.41003406  0.25050988  0.39213267  1
  O2-  O492  1  0.59802756  0.75031666  0.59357663  1
