# generated using pymatgen
data_Ca108Mn108O277
_symmetry_space_group_name_H-M   'P 1'
_cell_length_a   16.02736940
_cell_length_b   22.30684833
_cell_length_c   16.39101972
_cell_angle_alpha   90.00155836
_cell_angle_beta   90.00014759
_cell_angle_gamma   90.00164964
_symmetry_Int_Tables_number   1
_chemical_formula_structural   Ca108Mn108O277
_chemical_formula_sum   'Ca108 Mn108 O277'
_cell_volume   5860.11898053
_cell_formula_units_Z   1
loop_
 _symmetry_equiv_pos_site_id
 _symmetry_equiv_pos_as_xyz
  1  'x, y, z'
loop_
 _atom_type_symbol
 _atom_type_oxidation_number
  Ca2+  2.0
  Mn3.34+  3.34
  O2-  -2.0
loop_
 _atom_site_type_symbol
 _atom_site_label
 _atom_site_symmetry_multiplicity
 _atom_site_fract_x
 _atom_site_fract_y
 _atom_site_fract_z
 _atom_site_occupancy
  Ca2+  Ca0  1  0.09329186  0.25902781  0.24501074  1
  Ca2+  Ca1  1  0.09063257  0.25670788  0.58271307  1
  Ca2+  Ca2  1  0.08093359  0.25527253  0.92233227  1
  Ca2+  Ca3  1  0.09309126  0.75095512  0.25697297  1
  Ca2+  Ca4  1  0.08341984  0.73097453  0.58350276  1
  Ca2+  Ca5  1  0.09314014  0.74806372  0.91324855  1
  Ca2+  Ca6  1  0.41840201  0.26359846  0.26157611  1
  Ca2+  Ca7  1  0.42334574  0.25183487  0.59430258  1
  Ca2+  Ca8  1  0.42047322  0.24623380  0.87992790  1
  Ca2+  Ca9  1  0.41011976  0.73444874  0.24041696  1
  Ca2+  Ca10  1  0.40228665  0.75839183  0.58044339  1
  Ca2+  Ca11  1  0.39826196  0.75557091  0.92338692  1
  Ca2+  Ca12  1  0.73999669  0.25310282  0.25089952  1
  Ca2+  Ca13  1  0.74645042  0.24089366  0.59070520  1
  Ca2+  Ca14  1  0.75461036  0.24561735  0.90003029  1
  Ca2+  Ca15  1  0.75463978  0.74093243  0.27721919  1
  Ca2+  Ca16  1  0.76727157  0.74071509  0.58510441  1
  Ca2+  Ca17  1  0.75768753  0.76435252  0.90010842  1
  Ca2+  Ca18  1  0.23637303  0.25671444  0.08353999  1
  Ca2+  Ca19  1  0.25491423  0.26241418  0.43345387  1
  Ca2+  Ca20  1  0.27476713  0.25225010  0.73664512  1
  Ca2+  Ca21  1  0.23490305  0.72355695  0.07878540  1
  Ca2+  Ca22  1  0.23958369  0.74367817  0.41651704  1
  Ca2+  Ca23  1  0.23294079  0.75044931  0.74737565  1
  Ca2+  Ca24  1  0.59145147  0.25163401  0.07803915  1
  Ca2+  Ca25  1  0.57640080  0.25718275  0.42683717  1
  Ca2+  Ca26  1  0.57346699  0.24728080  0.73589643  1
  Ca2+  Ca27  1  0.56787434  0.75463246  0.09374299  1
  Ca2+  Ca28  1  0.58306632  0.74684466  0.41067351  1
  Ca2+  Ca29  1  0.59929940  0.74907472  0.74460984  1
  Ca2+  Ca30  1  0.92319358  0.24742251  0.06511217  1
  Ca2+  Ca31  1  0.91944817  0.26049930  0.42557206  1
  Ca2+  Ca32  1  0.90283498  0.24593547  0.74555734  1
  Ca2+  Ca33  1  0.94871878  0.74396887  0.08763855  1
  Ca2+  Ca34  1  0.92224331  0.74115798  0.41767348  1
  Ca2+  Ca35  1  0.92545103  0.74119276  0.74063979  1
  Ca2+  Ca36  1  0.57422767  0.59288998  0.74544212  1
  Ca2+  Ca37  1  0.90410236  0.10547684  0.46510308  1
  Ca2+  Ca38  1  0.59507242  0.59446143  0.40866296  1
  Ca2+  Ca39  1  0.76730566  0.60115131  0.57033755  1
  Ca2+  Ca40  1  0.05858474  0.08646651  0.92153728  1
  Ca2+  Ca41  1  0.79389424  0.10903809  0.91116810  1
  Ca2+  Ca42  1  0.23816346  0.08390841  0.07474767  1
  Ca2+  Ca43  1  0.93949087  0.60900623  0.42106047  1
  Ca2+  Ca44  1  0.21314947  0.59810472  0.75159873  1
  Ca2+  Ca45  1  0.04938135  0.61183208  0.23896732  1
  Ca2+  Ca46  1  0.07520311  0.08736832  0.24560208  1
  Ca2+  Ca47  1  0.89939397  0.10918294  0.45743284  1
  Ca2+  Ca48  1  0.80270694  0.59888385  0.27640833  1
  Ca2+  Ca49  1  0.97950881  0.58808907  0.73821877  1
  Ca2+  Ca50  1  0.73017655  0.08412736  0.24967700  1
  Ca2+  Ca51  1  0.08806086  0.08829872  0.24474450  1
  Ca2+  Ca52  1  0.04587684  0.08789090  0.91964099  1
  Ca2+  Ca53  1  0.06213845  0.05732087  0.61459548  1
  Ca2+  Ca54  1  0.41142463  0.08705966  0.61807053  1
  Ca2+  Ca55  1  0.89934632  0.08228254  0.71490328  1
  Ca2+  Ca56  1  0.22476801  0.59971807  0.41701714  1
  Ca2+  Ca57  1  0.55713002  0.59786578  0.09210741  1
  Ca2+  Ca58  1  0.58763555  0.09671128  0.39674670  1
  Ca2+  Ca59  1  0.39706277  0.59315422  0.58568164  1
  Ca2+  Ca60  1  0.09130553  0.59578211  0.92496650  1
  Ca2+  Ca61  1  0.25624835  0.08497565  0.42156289  1
  Ca2+  Ca62  1  0.22030941  0.60050757  0.74487510  1
  Ca2+  Ca63  1  0.27609949  0.08393586  0.74202800  1
  Ca2+  Ca64  1  0.39781422  0.59682868  0.91584870  1
  Ca2+  Ca65  1  0.75490848  0.59360933  0.90416808  1
  Ca2+  Ca66  1  0.39462654  0.60184164  0.92273477  1
  Ca2+  Ca67  1  0.79683029  0.59307214  0.27351138  1
  Ca2+  Ca68  1  0.05867298  0.61342076  0.23527925  1
  Ca2+  Ca69  1  0.54456513  0.59830947  0.09415211  1
  Ca2+  Ca70  1  0.40481813  0.58888645  0.58187522  1
  Ca2+  Ca71  1  0.55384722  0.09615204  0.74923989  1
  Ca2+  Ca72  1  0.94888388  0.92255625  0.73868227  1
  Ca2+  Ca73  1  0.56605468  0.40439925  0.42169500  1
  Ca2+  Ca74  1  0.94007278  0.92561627  0.73492920  1
  Ca2+  Ca75  1  0.42576308  0.90428276  0.26069952  1
  Ca2+  Ca76  1  0.23585275  0.41363545  0.73882335  1
  Ca2+  Ca77  1  0.08300470  0.41240464  0.59518150  1
  Ca2+  Ca78  1  0.23994504  0.40701937  0.07673990  1
  Ca2+  Ca79  1  0.58556928  0.91026089  0.08223013  1
  Ca2+  Ca80  1  0.92913821  0.89856785  0.42197664  1
  Ca2+  Ca81  1  0.25117686  0.91219058  0.74430068  1
  Ca2+  Ca82  1  0.76023880  0.91088528  0.59042921  1
  Ca2+  Ca83  1  0.76950382  0.90802908  0.58704787  1
  Ca2+  Ca84  1  0.08171167  0.41091398  0.91292928  1
  Ca2+  Ca85  1  0.07489741  0.89758859  0.25033822  1
  Ca2+  Ca86  1  0.76073080  0.90254457  0.24863547  1
  Ca2+  Ca87  1  0.24356542  0.89759299  0.08341267  1
  Ca2+  Ca88  1  0.57516987  0.90542809  0.41152694  1
  Ca2+  Ca89  1  0.43673027  0.90853446  0.25840298  1
  Ca2+  Ca90  1  0.77157459  0.41563642  0.25604405  1
  Ca2+  Ca91  1  0.41759064  0.40539924  0.91390647  1
  Ca2+  Ca92  1  0.40639262  0.40449934  0.91531307  1
  Ca2+  Ca93  1  0.57716940  0.90805477  0.75438009  1
  Ca2+  Ca94  1  0.93423643  0.40915962  0.74267866  1
  Ca2+  Ca95  1  0.56502489  0.90602766  0.75536456  1
  Ca2+  Ca96  1  0.75313393  0.39946728  0.57387194  1
  Ca2+  Ca97  1  0.08338499  0.90547744  0.91111029  1
  Ca2+  Ca98  1  0.59005365  0.41385854  0.07792766  1
  Ca2+  Ca99  1  0.76745450  0.39846699  0.91706800  1
  Ca2+  Ca100  1  0.74804372  0.90384488  0.24938308  1
  Ca2+  Ca101  1  0.06599455  0.41246249  0.25509521  1
  Ca2+  Ca102  1  0.75589004  0.39962025  0.91687049  1
  Ca2+  Ca103  1  0.05456997  0.41563822  0.25185031  1
  Ca2+  Ca104  1  0.24917472  0.89829173  0.42694819  1
  Ca2+  Ca105  1  0.59693522  0.91067526  0.08329099  1
  Ca2+  Ca106  1  0.57755613  0.41171405  0.07796868  1
  Ca2+  Ca107  1  0.91562890  0.41892604  0.40593449  1
  Mn3.34+  Mn108  1  0.07875783  0.33551825  0.08284144  1
  Mn3.34+  Mn109  1  0.08746701  0.33825195  0.42193187  1
  Mn3.34+  Mn110  1  0.08353811  0.33144858  0.75253759  1
  Mn3.34+  Mn111  1  0.08375398  0.83188363  0.08092451  1
  Mn3.34+  Mn112  1  0.08592748  0.82874826  0.41887073  1
  Mn3.34+  Mn113  1  0.08578804  0.83312210  0.74900564  1
  Mn3.34+  Mn114  1  0.41326967  0.33239916  0.09096866  1
  Mn3.34+  Mn115  1  0.41063592  0.34081552  0.42105978  1
  Mn3.34+  Mn116  1  0.41935552  0.33880015  0.74156481  1
  Mn3.34+  Mn117  1  0.41197866  0.83012501  0.08123665  1
  Mn3.34+  Mn118  1  0.41338103  0.82779004  0.42153247  1
  Mn3.34+  Mn119  1  0.41139467  0.83631147  0.75520631  1
  Mn3.34+  Mn120  1  0.75708656  0.33117946  0.09104006  1
  Mn3.34+  Mn121  1  0.74993925  0.32890752  0.41882972  1
  Mn3.34+  Mn122  1  0.74751733  0.33153842  0.74492487  1
  Mn3.34+  Mn123  1  0.76054839  0.83287560  0.07611184  1
  Mn3.34+  Mn124  1  0.74898127  0.82844870  0.42325005  1
  Mn3.34+  Mn125  1  0.75234550  0.83478826  0.75357781  1
  Mn3.34+  Mn126  1  0.25396744  0.34047511  0.24969045  1
  Mn3.34+  Mn127  1  0.25389433  0.33725062  0.58292056  1
  Mn3.34+  Mn128  1  0.24525163  0.33241430  0.91204109  1
  Mn3.34+  Mn129  1  0.25093028  0.82832512  0.24901496  1
  Mn3.34+  Mn130  1  0.24500730  0.83383002  0.58614279  1
  Mn3.34+  Mn131  1  0.24973441  0.83631851  0.91351788  1
  Mn3.34+  Mn132  1  0.58240552  0.33142493  0.24867947  1
  Mn3.34+  Mn133  1  0.58299463  0.33662663  0.58363810  1
  Mn3.34+  Mn134  1  0.58338252  0.33233468  0.91106319  1
  Mn3.34+  Mn135  1  0.58650209  0.83068697  0.24894990  1
  Mn3.34+  Mn136  1  0.57763804  0.83458206  0.57989891  1
  Mn3.34+  Mn137  1  0.58150099  0.83466942  0.91753245  1
  Mn3.34+  Mn138  1  0.91334353  0.33012029  0.24703904  1
  Mn3.34+  Mn139  1  0.91793427  0.33392211  0.58174408  1
  Mn3.34+  Mn140  1  0.92072329  0.32903561  0.91070275  1
  Mn3.34+  Mn141  1  0.91857088  0.82673010  0.24648569  1
  Mn3.34+  Mn142  1  0.92587569  0.83290293  0.58070619  1
  Mn3.34+  Mn143  1  0.91945143  0.83705391  0.91595367  1
  Mn3.34+  Mn144  1  0.58115628  0.67406139  0.91243901  1
  Mn3.34+  Mn145  1  0.91276422  0.16925558  0.24452870  1
  Mn3.34+  Mn146  1  0.24609012  0.67238387  0.91348130  1
  Mn3.34+  Mn147  1  0.08060270  0.17464542  0.74606229  1
  Mn3.34+  Mn148  1  0.57903792  0.66815244  0.57969450  1
  Mn3.34+  Mn149  1  0.58889685  0.66293617  0.57978231  1
  Mn3.34+  Mn150  1  0.58747449  0.16643216  0.58169573  1
  Mn3.34+  Mn151  1  0.08006210  0.16314180  0.75135863  1
  Mn3.34+  Mn152  1  0.75308274  0.16495099  0.74454986  1
  Mn3.34+  Mn153  1  0.08097054  0.16895571  0.08212666  1
  Mn3.34+  Mn154  1  0.42292418  0.16148503  0.41559664  1
  Mn3.34+  Mn155  1  0.92366384  0.66261809  0.91274314  1
  Mn3.34+  Mn156  1  0.57760443  0.15834443  0.91629922  1
  Mn3.34+  Mn157  1  0.08064099  0.16988954  0.42374836  1
  Mn3.34+  Mn158  1  0.58801642  0.16326082  0.91757257  1
  Mn3.34+  Mn159  1  0.41472863  0.17330581  0.09284104  1
  Mn3.34+  Mn160  1  0.42387547  0.16772235  0.09591528  1
  Mn3.34+  Mn161  1  0.41242418  0.16639966  0.41581124  1
  Mn3.34+  Mn162  1  0.09060355  0.16392910  0.42473332  1
  Mn3.34+  Mn163  1  0.91348106  0.66697020  0.91491449  1
  Mn3.34+  Mn164  1  0.74771259  0.66745617  0.08646828  1
  Mn3.34+  Mn165  1  0.41217172  0.66230825  0.41201017  1
  Mn3.34+  Mn166  1  0.24817855  0.16641687  0.91101376  1
  Mn3.34+  Mn167  1  0.25243467  0.16483274  0.58698585  1
  Mn3.34+  Mn168  1  0.74343872  0.17988625  0.41840174  1
  Mn3.34+  Mn169  1  0.24460070  0.66750139  0.57893104  1
  Mn3.34+  Mn170  1  0.26222893  0.15986724  0.91151007  1
  Mn3.34+  Mn171  1  0.25095397  0.17205652  0.24797733  1
  Mn3.34+  Mn172  1  0.90160193  0.16956882  0.24225009  1
  Mn3.34+  Mn173  1  0.58431677  0.16355010  0.24156929  1
  Mn3.34+  Mn174  1  0.75105385  0.16553049  0.08176974  1
  Mn3.34+  Mn175  1  0.92273027  0.66617309  0.58261428  1
  Mn3.34+  Mn176  1  0.58239490  0.66524792  0.25192561  1
  Mn3.34+  Mn177  1  0.59232208  0.66867989  0.91011643  1
  Mn3.34+  Mn178  1  0.76245509  0.66278540  0.08841870  1
  Mn3.34+  Mn179  1  0.24860980  0.66274063  0.24383948  1
  Mn3.34+  Mn180  1  0.57066696  0.00176329  0.58328018  1
  Mn3.34+  Mn181  1  0.58930560  0.50226510  0.91959663  1
  Mn3.34+  Mn182  1  0.24750159  -0.00181962  0.25504495  1
  Mn3.34+  Mn183  1  0.42445575  -0.00545860  0.42173104  1
  Mn3.34+  Mn184  1  0.59509745  -0.00248829  0.92474304  1
  Mn3.34+  Mn185  1  0.91629286  0.00152584  0.24111568  1
  Mn3.34+  Mn186  1  0.74187654  0.49518445  0.73717437  1
  Mn3.34+  Mn187  1  0.74232935  0.00548539  0.41538414  1
  Mn3.34+  Mn188  1  0.25040850  -0.00293845  0.59964845  1
  Mn3.34+  Mn189  1  0.07860753  0.49968581  0.06933874  1
  Mn3.34+  Mn190  1  0.24024470  0.50039452  0.58933068  1
  Mn3.34+  Mn191  1  0.90422960  -0.00485521  0.92508417  1
  Mn3.34+  Mn192  1  0.08351084  0.49838006  0.41054154  1
  Mn3.34+  Mn193  1  0.75816202  0.00506535  0.07499616  1
  Mn3.34+  Mn194  1  0.41208801  0.00254037  0.08037644  1
  Mn3.34+  Mn195  1  0.40415234  0.49836101  0.07910802  1
  Mn3.34+  Mn196  1  0.75197565  0.49693572  0.40995080  1
  Mn3.34+  Mn197  1  0.56409076  0.49227783  0.26851092  1
  Mn3.34+  Mn198  1  0.91417929  0.49906916  0.92900320  1
  Mn3.34+  Mn199  1  0.28008349  0.50608260  0.26465504  1
  Mn3.34+  Mn200  1  0.26166906  0.00453260  0.25365569  1
  Mn3.34+  Mn201  1  0.74636079  0.00021597  0.75446881  1
  Mn3.34+  Mn202  1  0.25094567  -0.00108246  0.91663743  1
  Mn3.34+  Mn203  1  0.57415210  0.49624561  0.57920430  1
  Mn3.34+  Mn204  1  0.42361500  0.01009149  0.07842412  1
  Mn3.34+  Mn205  1  0.55272472  0.49942471  0.27250259  1
  Mn3.34+  Mn206  1  0.75395982  0.50268716  0.73721462  1
  Mn3.34+  Mn207  1  0.07607863  -0.00141030  0.41679888  1
  Mn3.34+  Mn208  1  0.42508380  0.49560378  0.73310669  1
  Mn3.34+  Mn209  1  0.23983563  0.49934885  0.91645070  1
  Mn3.34+  Mn210  1  0.58514298  0.00688847  0.58300465  1
  Mn3.34+  Mn211  1  0.07559269  -0.00427768  0.07542726  1
  Mn3.34+  Mn212  1  0.26883175  0.49796712  0.26458560  1
  Mn3.34+  Mn213  1  0.76528066  0.49978829  0.07821762  1
  Mn3.34+  Mn214  1  0.75742880  0.00033601  0.41701318  1
  Mn3.34+  Mn215  1  0.92790492  0.50094733  0.58537030  1
  O2-  O216  1  0.00502178  0.16392512  -0.00335117  1
  O2-  O217  1  -0.00654578  0.15304286  0.33624722  1
  O2-  O218  1  0.00171753  0.18596670  0.66614437  1
  O2-  O219  1  -0.00312031  0.65858616  -0.00326601  1
  O2-  O220  1  -0.00640257  0.67929016  0.32785468  1
  O2-  O221  1  0.00292534  0.66461310  0.66160725  1
  O2-  O222  1  0.33059733  0.15613555  0.01118361  1
  O2-  O223  1  0.32725331  0.15694635  0.33837521  1
  O2-  O224  1  0.32919694  0.15983054  0.66441200  1
  O2-  O225  1  0.33440506  0.66769844  -0.01216383  1
  O2-  O226  1  0.32472632  0.65550841  0.34131266  1
  O2-  O227  1  0.32238100  0.64419578  0.66783464  1
  O2-  O228  1  0.66422336  0.15966522  0.00113375  1
  O2-  O229  1  0.66575393  0.17847521  0.32961307  1
  O2-  O230  1  0.65924868  0.15415177  0.67003620  1
  O2-  O231  1  0.66487071  0.63729584  0.00385273  1
  O2-  O232  1  0.67617076  0.64567252  0.31230877  1
  O2-  O233  1  0.66327865  0.65050632  0.66245669  1
  O2-  O234  1  0.16844843  0.14741400  -0.00839517  1
  O2-  O235  1  0.15955675  0.14897682  0.32916414  1
  O2-  O236  1  0.16279119  0.15310110  0.66670709  1
  O2-  O237  1  0.16678106  0.66196080  -0.01028896  1
  O2-  O238  1  0.16076490  0.64935783  0.32040785  1
  O2-  O239  1  0.16654175  0.66179190  0.65823119  1
  O2-  O240  1  0.49856936  0.17183537  0.00312782  1
  O2-  O241  1  0.50319314  0.16990211  0.32987041  1
  O2-  O242  1  0.50184741  0.15866865  0.65281694  1
  O2-  O243  1  0.50203918  0.65376110  -0.00930321  1
  O2-  O244  1  0.50929207  0.66017446  0.34019780  1
  O2-  O245  1  0.49538926  0.65651045  0.65768612  1
  O2-  O246  1  0.82228377  0.19011342  -0.00087261  1
  O2-  O247  1  0.82946699  0.17344404  0.33557568  1
  O2-  O248  1  0.83118883  0.17034214  0.66674668  1
  O2-  O249  1  0.82922942  0.65056277  -0.00601109  1
  O2-  O250  1  0.84445906  0.67113490  0.33941877  1
  O2-  O251  1  0.84282935  0.65455499  0.66316967  1
  O2-  O252  1  -0.00071830  0.33163506  -0.00722003  1
  O2-  O253  1  -0.00433076  0.33968303  0.33479232  1
  O2-  O254  1  0.00136371  0.32560281  0.66695272  1
  O2-  O255  1  0.00302418  0.84463876  -0.00346198  1
  O2-  O256  1  -0.00178980  0.83304092  0.33125069  1
  O2-  O257  1  -0.00021942  0.84628180  0.66684558  1
  O2-  O258  1  0.33182013  0.34773274  0.00312636  1
  O2-  O259  1  0.32487115  0.32284915  0.33684840  1
  O2-  O260  1  0.32505167  0.34528332  0.67481547  1
  O2-  O261  1  0.33254727  0.84650912  0.00071536  1
  O2-  O262  1  0.33498762  0.84979997  0.33214712  1
  O2-  O263  1  0.33596296  0.83302851  0.66995637  1
  O2-  O264  1  0.66806800  0.34163344  0.00575595  1
  O2-  O265  1  0.66863960  0.32669144  0.33092409  1
  O2-  O266  1  0.67363614  0.34445998  0.66005562  1
  O2-  O267  1  0.66654244  0.85205279  -0.00091802  1
  O2-  O268  1  0.66974347  0.85153407  0.33346102  1
  O2-  O269  1  0.66449474  0.85676521  0.66398335  1
  O2-  O270  1  0.16210272  0.34765803  -0.00523406  1
  O2-  O271  1  0.15739374  0.35195023  0.31802400  1
  O2-  O272  1  0.16188253  0.33384712  0.66764567  1
  O2-  O273  1  0.16526551  0.84945980  -0.00449192  1
  O2-  O274  1  0.16820347  0.84657449  0.33021216  1
  O2-  O275  1  0.17456181  0.84542120  0.67472629  1
  O2-  O276  1  0.49753397  0.33864355  0.00245077  1
  O2-  O277  1  0.50424008  0.32930461  0.33416234  1
  O2-  O278  1  0.50449744  0.34125541  0.66665973  1
  O2-  O279  1  0.50638490  0.84711517  0.01001212  1
  O2-  O280  1  0.50317007  0.84055181  0.33287363  1
  O2-  O281  1  0.50400382  0.83100341  0.67614580  1
  O2-  O282  1  0.82966485  0.32566750  -0.00709918  1
  O2-  O283  1  0.83357611  0.31832281  0.33338369  1
  O2-  O284  1  0.83916741  0.33944907  0.66965985  1
  O2-  O285  1  0.83413318  0.83491927  -0.00756167  1
  O2-  O286  1  0.83270757  0.83528585  0.33783335  1
  O2-  O287  1  0.83716067  0.85122111  0.67157290  1
  O2-  O288  1  0.00375016  0.19051719  0.17678145  1
  O2-  O289  1  -0.01048701  0.18366604  0.49696710  1
  O2-  O290  1  0.00455682  0.18712700  0.83366288  1
  O2-  O291  1  -0.00266441  0.69466547  0.18939710  1
  O2-  O292  1  -0.00335000  0.67917639  0.49923286  1
  O2-  O293  1  0.00146824  0.67129400  0.83244114  1
  O2-  O294  1  0.33278131  0.19774454  0.16894206  1
  O2-  O295  1  0.33444920  0.17177729  0.50106949  1
  O2-  O296  1  0.33014804  0.17858892  0.82634218  1
  O2-  O297  1  0.32488300  0.68068075  0.16938556  1
  O2-  O298  1  0.34277724  0.67655500  0.50887164  1
  O2-  O299  1  0.33061747  0.67050212  0.83283133  1
  O2-  O300  1  0.66728146  0.18420374  0.16535480  1
  O2-  O301  1  0.66330245  0.18813485  0.49567204  1
  O2-  O302  1  0.67043339  0.17373698  0.83548025  1
  O2-  O303  1  0.65147753  0.67096650  0.15353555  1
  O2-  O304  1  0.66545630  0.67313746  0.49921040  1
  O2-  O305  1  0.67168640  0.68360919  0.83627064  1
  O2-  O306  1  0.16239307  0.18188178  0.16762795  1
  O2-  O307  1  0.17548152  0.17810893  0.50112844  1
  O2-  O308  1  0.16486614  0.19329018  0.82807344  1
  O2-  O309  1  0.15838526  0.67315138  0.17651474  1
  O2-  O310  1  0.17583553  0.67717051  0.49634950  1
  O2-  O311  1  0.16844276  0.67574054  0.83007971  1
  O2-  O312  1  0.50390343  0.19855420  0.17201332  1
  O2-  O313  1  0.50579655  0.17784617  0.49340158  1
  O2-  O314  1  0.50612029  0.17472321  0.83074285  1
  O2-  O315  1  0.50442236  0.67619470  0.16726515  1
  O2-  O316  1  0.50116893  0.68551013  0.50104515  1
  O2-  O317  1  0.50056162  0.68269622  0.83009890  1
  O2-  O318  1  0.82866391  0.19408758  0.15997688  1
  O2-  O319  1  0.83107918  0.18918488  0.49203178  1
  O2-  O320  1  0.83195085  0.18180103  0.82514223  1
  O2-  O321  1  0.82384270  0.68449861  0.17791907  1
  O2-  O322  1  0.83911745  0.67468990  0.50535908  1
  O2-  O323  1  0.83302691  0.67747370  0.83926660  1
  O2-  O324  1  0.00348386  0.31848525  0.17491742  1
  O2-  O325  1  0.00150857  0.31431413  0.50532624  1
  O2-  O326  1  -0.00111130  0.30970163  0.82834692  1
  O2-  O327  1  0.00623373  0.82074423  0.17048776  1
  O2-  O328  1  -0.00594919  0.82087486  0.49185960  1
  O2-  O329  1  0.00084846  0.82338313  0.83275922  1
  O2-  O330  1  0.33089703  0.31257869  0.16732448  1
  O2-  O331  1  0.33773754  0.32401239  0.50761880  1
  O2-  O332  1  0.33764549  0.32484218  0.84086366  1
  O2-  O333  1  0.34307850  0.82824630  0.17597860  1
  O2-  O334  1  0.32707427  0.82001602  0.49512259  1
  O2-  O335  1  0.32813210  0.81647724  0.82878626  1
  O2-  O336  1  0.66431437  0.31150994  0.16542365  1
  O2-  O337  1  0.66833669  0.31779839  0.49772824  1
  O2-  O338  1  0.67736696  0.33196442  0.84255445  1
  O2-  O339  1  0.66515248  0.83305811  0.16194846  1
  O2-  O340  1  0.67063326  0.83714316  0.50691848  1
  O2-  O341  1  0.65750146  0.82204714  0.82594305  1
  O2-  O342  1  0.17064382  0.32408280  0.16520670  1
  O2-  O343  1  0.16781095  0.32378872  0.50332783  1
  O2-  O344  1  0.16627623  0.31315784  0.82974610  1
  O2-  O345  1  0.17226593  0.82235720  0.16555818  1
  O2-  O346  1  0.17061717  0.82487369  0.49662956  1
  O2-  O347  1  0.16489017  0.82272590  0.83569548  1
  O2-  O348  1  0.50484089  0.31466523  0.16098242  1
  O2-  O349  1  0.50267011  0.32554574  0.49918217  1
  O2-  O350  1  0.49262489  0.33219730  0.83892505  1
  O2-  O351  1  0.49944042  0.82488639  0.17007627  1
  O2-  O352  1  0.50389940  0.81569489  0.49429307  1
  O2-  O353  1  0.49906087  0.81400361  0.83356547  1
  O2-  O354  1  0.83677714  0.30715739  0.16849044  1
  O2-  O355  1  0.83012685  0.31371165  0.50618960  1
  O2-  O356  1  0.83173608  0.31886257  0.83465878  1
  O2-  O357  1  0.82409651  0.81639525  0.17885488  1
  O2-  O358  1  0.82762227  0.82316829  0.50975265  1
  O2-  O359  1  0.83924345  0.82755307  0.82654851  1
  O2-  O360  1  0.08326514  0.08084436  0.11199028  1
  O2-  O361  1  0.07009690  0.08041609  0.46178035  1
  O2-  O362  1  0.08515155  0.08529448  0.78804854  1
  O2-  O363  1  0.07538191  0.57031293  0.11250122  1
  O2-  O364  1  0.07761409  0.57476785  0.42502663  1
  O2-  O365  1  0.10337933  0.56384417  0.79855705  1
  O2-  O366  1  0.40066808  0.08393957  0.13021507  1
  O2-  O367  1  0.42103444  0.07860351  0.44426723  1
  O2-  O368  1  0.41473641  0.07765391  0.76003900  1
  O2-  O369  1  0.41558339  0.57929925  0.08169238  1
  O2-  O370  1  0.42592884  0.58727839  0.45160947  1
  O2-  O371  1  0.43623585  0.56082559  0.80372507  1
  O2-  O372  1  0.76350450  0.08038829  0.11931828  1
  O2-  O373  1  0.75091443  0.08836024  0.43663578  1
  O2-  O374  1  0.76240721  0.08110199  0.77368179  1
  O2-  O375  1  0.76103466  0.58149509  0.12774752  1
  O2-  O376  1  0.74662162  0.57261429  0.43704871  1
  O2-  O377  1  0.72767191  0.57437435  0.78160148  1
  O2-  O378  1  0.23196046  0.08081760  0.20956333  1
  O2-  O379  1  0.25654339  0.07308565  0.55652823  1
  O2-  O380  1  0.24067490  0.08067525  0.87384933  1
  O2-  O381  1  0.24916701  0.57715302  0.21534071  1
  O2-  O382  1  0.25717466  0.57826517  0.54943423  1
  O2-  O383  1  0.25378711  0.58207491  0.89233901  1
  O2-  O384  1  0.59535271  0.08492068  0.25233604  1
  O2-  O385  1  0.58479047  0.08272800  0.53664367  1
  O2-  O386  1  0.59007375  0.07744136  0.88422231  1
  O2-  O387  1  0.57092397  0.57545443  0.22241536  1
  O2-  O388  1  0.58051561  0.58090429  0.54285994  1
  O2-  O389  1  0.58725962  0.58427253  0.88367600  1
  O2-  O390  1  0.93466674  0.08349965  0.21328550  1
  O2-  O391  1  0.92859206  0.06471275  0.56666466  1
  O2-  O392  1  0.92217188  0.07034531  0.87397817  1
  O2-  O393  1  0.92744134  0.57717912  0.24322650  1
  O2-  O394  1  0.91695409  0.57913585  0.55655444  1
  O2-  O395  1  0.91166672  0.57794794  0.88383306  1
  O2-  O396  1  0.08205206  0.42253034  0.11897759  1
  O2-  O397  1  0.06953590  0.42119157  0.45290342  1
  O2-  O398  1  0.07955910  0.41088844  0.77339746  1
  O2-  O399  1  0.09650324  0.91896700  0.11628528  1
  O2-  O400  1  0.07737737  0.91597374  0.42441052  1
  O2-  O401  1  0.07740310  0.91796297  0.77633823  1
  O2-  O402  1  0.43435857  0.41939303  0.10658409  1
  O2-  O403  1  0.42578725  0.41631573  0.42473200  1
  O2-  O404  1  0.39943827  0.42310896  0.78239178  1
  O2-  O405  1  0.42296287  0.92403052  0.12429876  1
  O2-  O406  1  0.41639878  0.91405441  0.43655691  1
  O2-  O407  1  0.42693561  0.91412383  0.77027762  1
  O2-  O408  1  0.73370507  0.41905054  0.12105553  1
  O2-  O409  1  0.76576817  0.41682318  0.43563846  1
  O2-  O410  1  0.76666716  0.42110849  0.78361851  1
  O2-  O411  1  0.74666865  0.92607429  0.11933388  1
  O2-  O412  1  0.76027074  0.91975965  0.44682445  1
  O2-  O413  1  0.71915303  0.92158906  0.77687850  1
  O2-  O414  1  0.25617173  0.42781787  0.20672276  1
  O2-  O415  1  0.22929938  0.41992174  0.57688568  1
  O2-  O416  1  0.24836685  0.41838129  0.88113150  1
  O2-  O417  1  0.25893548  0.91858834  0.22210383  1
  O2-  O418  1  0.25079659  0.92271499  0.56201414  1
  O2-  O419  1  0.24156241  0.91870984  0.88341138  1
  O2-  O420  1  0.58161749  0.42144231  0.21304814  1
  O2-  O421  1  0.60515018  0.41752599  0.55028033  1
  O2-  O422  1  0.58187573  0.41664402  0.91340896  1
  O2-  O423  1  0.57349111  0.91760126  0.21960660  1
  O2-  O424  1  0.57339990  0.92264180  0.54786637  1
  O2-  O425  1  0.57734367  0.91699229  0.88653817  1
  O2-  O426  1  0.91361384  0.41220384  0.23624852  1
  O2-  O427  1  0.92040966  0.42199543  0.54910624  1
  O2-  O428  1  0.90759055  0.41954990  0.88568852  1
  O2-  O429  1  0.89878259  0.91896308  0.23899299  1
  O2-  O430  1  0.90412188  0.91636765  0.55743837  1
  O2-  O431  1  0.92351695  0.92092336  0.88084104  1
  O2-  O432  1  0.00926227  -0.00100942  -0.02656907  1
  O2-  O433  1  0.01496529  0.00777988  0.30880964  1
  O2-  O434  1  -0.00944563  0.00961313  0.70132175  1
  O2-  O435  1  0.02451196  0.49753747  -0.03439263  1
  O2-  O436  1  0.00605869  0.48395637  0.33233828  1
  O2-  O437  1  -0.00442856  0.48859916  0.66958863  1
  O2-  O438  1  0.32056548  0.00773240  0.01165024  1
  O2-  O439  1  0.32605375  0.00056794  0.35161361  1
  O2-  O440  1  0.33181841  0.00210781  0.66795137  1
  O2-  O441  1  0.35198752  0.49346325  -0.03540047  1
  O2-  O442  1  0.33267647  0.51492917  0.35911837  1
  O2-  O443  1  0.33732368  0.51080383  0.65697648  1
  O2-  O444  1  0.65594812  -0.00846813  0.02932815  1
  O2-  O445  1  0.68190695  -0.01400110  0.31850907  1
  O2-  O446  1  0.68029458  -0.00746285  0.64907587  1
  O2-  O447  1  0.64950156  0.50159181  0.03393194  1
  O2-  O448  1  0.67219661  0.49469800  0.32035623  1
  O2-  O449  1  0.66240932  0.50861396  0.65739486  1
  O2-  O450  1  0.16071555  0.01747014  -0.00666168  1
  O2-  O451  1  0.16871102  0.02379204  0.33893909  1
  O2-  O452  1  0.17403921  0.00819236  0.67113913  1
  O2-  O453  1  0.17661955  0.48444901  0.01260234  1
  O2-  O454  1  0.16714883  0.49019806  0.32420447  1
  O2-  O455  1  0.17712072  0.50428193  0.67704814  1
  O2-  O456  1  0.50491251  -0.01328225  0.00532622  1
  O2-  O457  1  0.49767615  -0.01693411  0.33730787  1
  O2-  O458  1  0.51591887  0.00660822  0.68475179  1
  O2-  O459  1  0.50294244  0.49725584  0.00963665  1
  O2-  O460  1  0.52381636  0.50230452  0.37960342  1
  O2-  O461  1  0.49424552  0.53057532  0.65682113  1
  O2-  O462  1  0.80828120  0.01836762  -0.02660804  1
  O2-  O463  1  0.84116345  0.01705770  0.33275512  1
  O2-  O464  1  0.83617062  -0.02098374  0.68949648  1
  O2-  O465  1  0.79744702  0.49566740  -0.04574605  1
  O2-  O466  1  0.83049512  0.49975290  0.33161986  1
  O2-  O467  1  0.82851676  0.49152324  0.64968467  1
  O2-  O468  1  0.42104925  0.25772155  0.73520943  1
  O2-  O469  1  0.73207756  0.24999374  0.73429030  1
  O2-  O470  1  0.42111224  0.75347845  0.06498016  1
  O2-  O471  1  0.58079151  0.25097476  0.60034152  1
  O2-  O472  1  0.25264824  0.25074255  0.59800537  1
  O2-  O473  1  0.25407436  0.74953288  0.60363511  1
  O2-  O474  1  0.09208047  0.25193551  0.05989443  1
  O2-  O475  1  0.91761700  0.75048304  0.93312366  1
  O2-  O476  1  0.91428774  0.75206279  0.60395220  1
  O2-  O477  1  0.74874116  0.75841771  0.72741559  1
  O2-  O478  1  0.09285156  0.75192280  0.40054136  1
  O2-  O479  1  0.73085718  0.75297077  0.40939064  1
  O2-  O480  1  0.41470347  0.25009024  0.40818242  1
  O2-  O481  1  0.08359416  0.75505006  0.73097096  1
  O2-  O482  1  0.59844736  0.74985316  0.60494439  1
  O2-  O483  1  0.25045149  0.74875359  0.27501483  1
  O2-  O484  1  0.09741691  0.25234506  0.39024943  1
  O2-  O485  1  0.24703346  0.75482504  0.93584613  1
  O2-  O486  1  0.41531282  0.74855400  0.39039646  1
  O2-  O487  1  0.59622048  0.75210964  0.95311673  1
  O2-  O488  1  0.25479553  0.24781700  0.94471791  1
  O2-  O489  1  0.08827417  0.75459219  0.05938173  1
  O2-  O490  1  0.60030930  0.74873032  0.26923027  1
  O2-  O491  1  0.73735283  0.74554437  0.05354668  1
  O2-  O492  1  0.58534203  0.24976816  0.92966331  1
