# generated using pymatgen
data_Ca108Mn108O277
_symmetry_space_group_name_H-M   'P 1'
_cell_length_a   16.03172121
_cell_length_b   22.31285367
_cell_length_c   16.39327620
_cell_angle_alpha   90.00178721
_cell_angle_beta   90.00489448
_cell_angle_gamma   90.01172583
_symmetry_Int_Tables_number   1
_chemical_formula_structural   Ca108Mn108O277
_chemical_formula_sum   'Ca108 Mn108 O277'
_cell_volume   5864.09522839
_cell_formula_units_Z   1
loop_
 _symmetry_equiv_pos_site_id
 _symmetry_equiv_pos_as_xyz
  1  'x, y, z'
loop_
 _atom_type_symbol
 _atom_type_oxidation_number
  Ca2+  2.0
  Mn3.34+  3.34
  O2-  -2.0
loop_
 _atom_site_type_symbol
 _atom_site_label
 _atom_site_symmetry_multiplicity
 _atom_site_fract_x
 _atom_site_fract_y
 _atom_site_fract_z
 _atom_site_occupancy
  Ca2+  Ca0  1  0.07856935  0.25724848  0.23409407  1
  Ca2+  Ca1  1  0.09250582  0.25123478  0.59722540  1
  Ca2+  Ca2  1  0.10457154  0.24843217  0.92475972  1
  Ca2+  Ca3  1  0.08956264  0.73841285  0.23677687  1
  Ca2+  Ca4  1  0.07400411  0.75369734  0.57891569  1
  Ca2+  Ca5  1  0.08444637  0.73958130  0.92670546  1
  Ca2+  Ca6  1  0.41307695  0.25326392  0.23946603  1
  Ca2+  Ca7  1  0.42705873  0.25680070  0.59364560  1
  Ca2+  Ca8  1  0.40564706  0.25408727  0.91797295  1
  Ca2+  Ca9  1  0.42181137  0.75217861  0.24100878  1
  Ca2+  Ca10  1  0.41478065  0.75893605  0.59249626  1
  Ca2+  Ca11  1  0.41920618  0.74570110  0.91360703  1
  Ca2+  Ca12  1  0.75104985  0.25367420  0.25063957  1
  Ca2+  Ca13  1  0.73282254  0.25519803  0.58243842  1
  Ca2+  Ca14  1  0.74872068  0.25552960  0.91583907  1
  Ca2+  Ca15  1  0.73497471  0.73896819  0.25256562  1
  Ca2+  Ca16  1  0.75054368  0.74338516  0.58004842  1
  Ca2+  Ca17  1  0.74795457  0.74911592  0.90803171  1
  Ca2+  Ca18  1  0.25341204  0.24079629  0.06708825  1
  Ca2+  Ca19  1  0.25047387  0.26487228  0.41034585  1
  Ca2+  Ca20  1  0.25232979  0.25038580  0.77926729  1
  Ca2+  Ca21  1  0.23027021  0.74518538  0.08161316  1
  Ca2+  Ca22  1  0.22683761  0.75411934  0.41048261  1
  Ca2+  Ca23  1  0.25693678  0.75819307  0.75233112  1
  Ca2+  Ca24  1  0.56082357  0.24465729  0.07859814  1
  Ca2+  Ca25  1  0.57906919  0.25864122  0.41570551  1
  Ca2+  Ca26  1  0.57577281  0.25472934  0.75879208  1
  Ca2+  Ca27  1  0.57852707  0.75202888  0.08641674  1
  Ca2+  Ca28  1  0.59540860  0.74922604  0.40528582  1
  Ca2+  Ca29  1  0.58548658  0.75291715  0.75735344  1
  Ca2+  Ca30  1  0.92533123  0.25654102  0.08509171  1
  Ca2+  Ca31  1  0.92115511  0.26243059  0.40474936  1
  Ca2+  Ca32  1  0.92698279  0.25172881  0.77097662  1
  Ca2+  Ca33  1  0.93432761  0.73793399  0.07194511  1
  Ca2+  Ca34  1  0.92388744  0.74470884  0.41889291  1
  Ca2+  Ca35  1  0.91180251  0.73936720  0.74902859  1
  Ca2+  Ca36  1  0.63522402  0.60740846  0.39624455  1
  Ca2+  Ca37  1  0.40812510  0.10889135  0.20704456  1
  Ca2+  Ca38  1  0.58726658  0.59565746  0.75631420  1
  Ca2+  Ca39  1  0.74380743  0.08071726  0.58616862  1
  Ca2+  Ca40  1  0.92552841  0.07347120  0.05984022  1
  Ca2+  Ca41  1  0.38224331  0.59578817  0.91544665  1
  Ca2+  Ca42  1  0.22424960  0.59538017  0.04898317  1
  Ca2+  Ca43  1  0.41853125  0.08161867  0.59942751  1
  Ca2+  Ca44  1  0.24011959  0.60896605  0.78434147  1
  Ca2+  Ca45  1  0.11452852  0.09944836  0.92345519  1
  Ca2+  Ca46  1  0.06349580  0.59860022  0.92267934  1
  Ca2+  Ca47  1  0.40710735  0.08137749  0.59954710  1
  Ca2+  Ca48  1  0.92949757  0.06917451  0.38931862  1
  Ca2+  Ca49  1  0.07129215  0.59927099  0.57764229  1
  Ca2+  Ca50  1  0.21836131  0.60122340  0.04826895  1
  Ca2+  Ca51  1  0.93382648  0.07642600  0.06469405  1
  Ca2+  Ca52  1  0.23452080  0.06573229  0.39443529  1
  Ca2+  Ca53  1  0.92074337  0.07548123  0.39254856  1
  Ca2+  Ca54  1  0.22399102  0.06275458  0.39746306  1
  Ca2+  Ca55  1  0.92740587  0.08438278  0.76467101  1
  Ca2+  Ca56  1  0.25182438  0.10797775  0.76816631  1
  Ca2+  Ca57  1  0.41400121  0.58528571  0.61151523  1
  Ca2+  Ca58  1  0.62500787  0.60455813  0.39462247  1
  Ca2+  Ca59  1  0.56636275  0.08530947  0.75527028  1
  Ca2+  Ca60  1  0.59763919  0.09323279  0.41007523  1
  Ca2+  Ca61  1  0.60883178  0.09542589  0.41176595  1
  Ca2+  Ca62  1  0.43041549  0.59586791  0.24487519  1
  Ca2+  Ca63  1  0.57451398  0.59574682  0.75611050  1
  Ca2+  Ca64  1  0.75998485  0.07539004  0.92749506  1
  Ca2+  Ca65  1  0.58962204  0.61437093  0.10625889  1
  Ca2+  Ca66  1  0.40569678  0.58274485  0.60606181  1
  Ca2+  Ca67  1  0.08836611  0.08679645  0.23962372  1
  Ca2+  Ca68  1  0.80977808  0.60832357  0.91769453  1
  Ca2+  Ca69  1  0.41795073  0.59462884  0.24453896  1
  Ca2+  Ca70  1  0.06127008  0.60131132  0.57599636  1
  Ca2+  Ca71  1  0.38720526  0.10824097  0.94520822  1
  Ca2+  Ca72  1  0.91347116  0.40961968  0.75279125  1
  Ca2+  Ca73  1  0.40863794  0.41118266  0.24936982  1
  Ca2+  Ca74  1  0.75693786  0.40946827  0.59011941  1
  Ca2+  Ca75  1  0.08609613  0.41507289  0.25838397  1
  Ca2+  Ca76  1  0.07891425  0.91693584  0.28015673  1
  Ca2+  Ca77  1  0.58945781  0.89824235  0.42114243  1
  Ca2+  Ca78  1  0.59074103  0.41159437  0.40568496  1
  Ca2+  Ca79  1  0.07137960  0.91969433  0.27380932  1
  Ca2+  Ca80  1  0.27697215  0.41820694  0.76474557  1
  Ca2+  Ca81  1  0.76125430  0.89167546  0.24882459  1
  Ca2+  Ca82  1  0.08199611  0.40972811  0.58060940  1
  Ca2+  Ca83  1  0.57682953  0.89932875  0.42055687  1
  Ca2+  Ca84  1  0.40584920  0.90142418  0.25405312  1
  Ca2+  Ca85  1  0.41716532  0.41141908  0.60262901  1
  Ca2+  Ca86  1  0.58897529  0.90817129  0.75415046  1
  Ca2+  Ca87  1  0.08077732  0.90062147  0.55909813  1
  Ca2+  Ca88  1  0.24030448  0.41598925  0.40389196  1
  Ca2+  Ca89  1  0.58531766  0.90065997  0.08014174  1
  Ca2+  Ca90  1  0.07512006  0.90759331  0.92836002  1
  Ca2+  Ca91  1  0.42012005  0.41182865  0.25002631  1
  Ca2+  Ca92  1  0.92683650  0.41422843  0.07563061  1
  Ca2+  Ca93  1  0.92560826  0.41787467  0.40322663  1
  Ca2+  Ca94  1  0.06933981  0.40940874  0.58026095  1
  Ca2+  Ca95  1  0.41136424  0.90213521  0.91960171  1
  Ca2+  Ca96  1  0.06404192  0.91190840  0.92569823  1
  Ca2+  Ca97  1  0.40278992  0.90765553  0.58480870  1
  Ca2+  Ca98  1  0.91769966  0.89972223  0.74726586  1
  Ca2+  Ca99  1  0.75382338  0.40308143  0.25480870  1
  Ca2+  Ca100  1  0.25205502  0.89923427  0.08535226  1
  Ca2+  Ca101  1  0.75307726  0.41160176  0.91916570  1
  Ca2+  Ca102  1  0.76533642  0.90710454  0.92496949  1
  Ca2+  Ca103  1  0.57745253  0.90779509  0.75341908  1
  Ca2+  Ca104  1  0.57054372  0.40686140  0.74930971  1
  Ca2+  Ca105  1  0.76565791  0.41136933  0.91981352  1
  Ca2+  Ca106  1  0.92254913  0.41146761  0.75915686  1
  Ca2+  Ca107  1  0.10440433  0.41921101  0.92211010  1
  Mn3.34+  Mn108  1  0.09014689  0.33940151  0.08233233  1
  Mn3.34+  Mn109  1  0.08367143  0.33416272  0.41549472  1
  Mn3.34+  Mn110  1  0.08772975  0.33666199  0.75725353  1
  Mn3.34+  Mn111  1  0.07998166  0.83295920  0.09154414  1
  Mn3.34+  Mn112  1  0.07880070  0.83142107  0.41591100  1
  Mn3.34+  Mn113  1  0.08429305  0.82768892  0.75303794  1
  Mn3.34+  Mn114  1  0.41647493  0.34241203  0.07879222  1
  Mn3.34+  Mn115  1  0.41435493  0.33766382  0.42394799  1
  Mn3.34+  Mn116  1  0.41691106  0.33601122  0.75468155  1
  Mn3.34+  Mn117  1  0.41244318  0.83460303  0.08341827  1
  Mn3.34+  Mn118  1  0.40986385  0.83157230  0.41988583  1
  Mn3.34+  Mn119  1  0.41235832  0.83450566  0.75200009  1
  Mn3.34+  Mn120  1  0.74656561  0.33394771  0.08743226  1
  Mn3.34+  Mn121  1  0.75164653  0.33776813  0.42065030  1
  Mn3.34+  Mn122  1  0.74740617  0.33464455  0.74988656  1
  Mn3.34+  Mn123  1  0.75748800  0.83168884  0.08458040  1
  Mn3.34+  Mn124  1  0.76035654  0.83190636  0.42167130  1
  Mn3.34+  Mn125  1  0.75335571  0.83161773  0.74683639  1
  Mn3.34+  Mn126  1  0.24860372  0.33528693  0.24338954  1
  Mn3.34+  Mn127  1  0.25064966  0.33179700  0.58321152  1
  Mn3.34+  Mn128  1  0.25591928  0.34146352  0.92262297  1
  Mn3.34+  Mn129  1  0.24903477  0.82875281  0.24890304  1
  Mn3.34+  Mn130  1  0.24523080  0.83130366  0.58354948  1
  Mn3.34+  Mn131  1  0.24715294  0.83092667  0.91277784  1
  Mn3.34+  Mn132  1  0.58353009  0.33257931  0.24481048  1
  Mn3.34+  Mn133  1  0.58432284  0.33418450  0.58135233  1
  Mn3.34+  Mn134  1  0.57968394  0.33107085  0.92095982  1
  Mn3.34+  Mn135  1  0.58312282  0.82766182  0.24533767  1
  Mn3.34+  Mn136  1  0.58637681  0.82974027  0.58342417  1
  Mn3.34+  Mn137  1  0.58505353  0.83361679  0.91815200  1
  Mn3.34+  Mn138  1  0.91792668  0.33635599  0.24418103  1
  Mn3.34+  Mn139  1  0.91321421  0.33115104  0.57908790  1
  Mn3.34+  Mn140  1  0.92214231  0.33389611  0.92163765  1
  Mn3.34+  Mn141  1  0.91788453  0.82767950  0.24974001  1
  Mn3.34+  Mn142  1  0.91384113  0.83222920  0.58169602  1
  Mn3.34+  Mn143  1  0.91535995  0.83169325  0.91357877  1
  Mn3.34+  Mn144  1  0.57657066  0.16496996  0.91949829  1
  Mn3.34+  Mn145  1  0.24506891  0.67059742  0.58468701  1
  Mn3.34+  Mn146  1  0.74745715  0.16558831  0.08606619  1
  Mn3.34+  Mn147  1  0.24773849  0.16299329  0.58384559  1
  Mn3.34+  Mn148  1  0.41693468  0.16803920  0.75701397  1
  Mn3.34+  Mn149  1  0.41319373  0.66681712  0.08241409  1
  Mn3.34+  Mn150  1  0.91749345  0.16601479  0.58596855  1
  Mn3.34+  Mn151  1  0.41547847  0.67159841  0.42417113  1
  Mn3.34+  Mn152  1  0.24789036  0.16891923  0.24111605  1
  Mn3.34+  Mn153  1  0.91615235  0.16696206  0.24365966  1
  Mn3.34+  Mn154  1  0.91981831  0.65554790  0.25142103  1
  Mn3.34+  Mn155  1  0.08649431  0.16922425  0.08401196  1
  Mn3.34+  Mn156  1  0.90375737  0.66984361  0.57761627  1
  Mn3.34+  Mn157  1  0.58592492  0.67101037  0.57901110  1
  Mn3.34+  Mn158  1  0.07886199  0.66526867  0.75597734  1
  Mn3.34+  Mn159  1  0.09431695  0.17231235  0.41757274  1
  Mn3.34+  Mn160  1  0.58582809  0.16666503  0.58385490  1
  Mn3.34+  Mn161  1  0.40520488  0.16951342  0.41659002  1
  Mn3.34+  Mn162  1  0.40453436  0.66591456  0.42600330  1
  Mn3.34+  Mn163  1  0.24518169  0.66294467  0.24421873  1
  Mn3.34+  Mn164  1  0.08543266  0.17021554  0.75485232  1
  Mn3.34+  Mn165  1  0.75201975  0.66657446  0.74895523  1
  Mn3.34+  Mn166  1  0.57953343  0.17230749  0.24492425  1
  Mn3.34+  Mn167  1  0.75522861  0.67143944  0.07974628  1
  Mn3.34+  Mn168  1  0.75749949  0.17240571  0.41752054  1
  Mn3.34+  Mn169  1  0.75664201  0.15902037  0.75596235  1
  Mn3.34+  Mn170  1  0.08696989  0.65702366  0.40978537  1
  Mn3.34+  Mn171  1  0.74233250  0.16464538  0.75382658  1
  Mn3.34+  Mn172  1  0.91853229  0.16033236  0.57702599  1
  Mn3.34+  Mn173  1  0.58521835  0.66925297  0.92015197  1
  Mn3.34+  Mn174  1  0.41388488  0.66936533  0.75721635  1
  Mn3.34+  Mn175  1  0.41627413  0.16425281  0.41750142  1
  Mn3.34+  Mn176  1  0.08058219  0.16567466  0.42108488  1
  Mn3.34+  Mn177  1  0.73690419  0.16098526  0.08851268  1
  Mn3.34+  Mn178  1  0.91166903  0.66425817  0.24455532  1
  Mn3.34+  Mn179  1  0.92035375  0.16573653  0.91775881  1
  Mn3.34+  Mn180  1  0.75374201  -0.00320925  0.42293715  1
  Mn3.34+  Mn181  1  0.41372543  0.50166258  0.41377563  1
  Mn3.34+  Mn182  1  0.08111589  0.50629204  0.74826519  1
  Mn3.34+  Mn183  1  0.25140855  -0.00585846  0.91670590  1
  Mn3.34+  Mn184  1  0.58016927  0.00089902  0.93015428  1
  Mn3.34+  Mn185  1  0.61018291  0.50738804  0.57277851  1
  Mn3.34+  Mn186  1  0.41412289  -0.00240016  0.41369847  1
  Mn3.34+  Mn187  1  0.92105551  0.50095289  0.25781401  1
  Mn3.34+  Mn188  1  0.59222665  -0.00396530  0.59314586  1
  Mn3.34+  Mn189  1  0.07622271  0.49938464  0.06719236  1
  Mn3.34+  Mn190  1  0.59470541  0.00176008  0.23964712  1
  Mn3.34+  Mn191  1  0.41456825  -0.00285490  0.07234672  1
  Mn3.34+  Mn192  1  0.75571826  0.50868331  0.08918273  1
  Mn3.34+  Mn193  1  0.24956003  0.50010150  0.56714780  1
  Mn3.34+  Mn194  1  0.59926770  0.51051006  0.57385832  1
  Mn3.34+  Mn195  1  0.39690094  -0.00235201  0.75136181  1
  Mn3.34+  Mn196  1  0.09806518  -0.00393742  0.74327786  1
  Mn3.34+  Mn197  1  0.76771550  0.51175584  0.74228367  1
  Mn3.34+  Mn198  1  0.25862517  0.00020778  0.23368297  1
  Mn3.34+  Mn199  1  0.91438464  -0.00348803  0.58482784  1
  Mn3.34+  Mn200  1  0.58300243  0.00689017  0.23839411  1
  Mn3.34+  Mn201  1  0.76726853  0.50510804  0.08851891  1
  Mn3.34+  Mn202  1  0.76349539  0.50240966  0.41077527  1
  Mn3.34+  Mn203  1  0.08759152  0.00083342  0.74270615  1
  Mn3.34+  Mn204  1  0.23662351  0.50726189  0.57050779  1
  Mn3.34+  Mn205  1  0.24081895  0.50561823  0.25453102  1
  Mn3.34+  Mn206  1  0.09390187  -0.00024771  0.07744157  1
  Mn3.34+  Mn207  1  0.74724619  -0.00164115  0.08048810  1
  Mn3.34+  Mn208  1  0.75944544  -0.00385485  0.74630368  1
  Mn3.34+  Mn209  1  0.24374597  -0.00497283  0.57509589  1
  Mn3.34+  Mn210  1  0.57079912  0.49658739  0.92798060  1
  Mn3.34+  Mn211  1  0.90278723  -0.00352343  0.24028051  1
  Mn3.34+  Mn212  1  0.59097645  0.49865009  0.25020767  1
  Mn3.34+  Mn213  1  0.39715128  0.49960637  0.07086942  1
  Mn3.34+  Mn214  1  0.58077447  0.50225680  0.92898759  1
  Mn3.34+  Mn215  1  0.90866103  0.50288090  0.57552600  1
  O2-  O216  1  0.00267860  0.14973776  -0.00095980  1
  O2-  O217  1  0.00623185  0.14261198  0.33070229  1
  O2-  O218  1  -0.00536533  0.15884549  0.67520060  1
  O2-  O219  1  -0.01313620  0.67038467  -0.01797217  1
  O2-  O220  1  -0.00363576  0.64882369  0.33189990  1
  O2-  O221  1  0.00667859  0.66758469  0.66506869  1
  O2-  O222  1  0.34887783  0.18918781  0.00473637  1
  O2-  O223  1  0.32578023  0.14305970  0.33714316  1
  O2-  O224  1  0.33380788  0.15157036  0.66548166  1
  O2-  O225  1  0.32770251  0.67553182  0.00820797  1
  O2-  O226  1  0.33921093  0.65483261  0.33076424  1
  O2-  O227  1  0.33152138  0.65290465  0.67222477  1
  O2-  O228  1  0.66623370  0.14456077  0.00007007  1
  O2-  O229  1  0.66955023  0.16575319  0.33533537  1
  O2-  O230  1  0.66677475  0.13797150  0.67081908  1
  O2-  O231  1  0.67261488  0.65716164  -0.00761013  1
  O2-  O232  1  0.67452026  0.68269091  0.34109005  1
  O2-  O233  1  0.65871892  0.64600376  0.66448155  1
  O2-  O234  1  0.16620569  0.16566097  0.00914976  1
  O2-  O235  1  0.17075672  0.14285620  0.33328079  1
  O2-  O236  1  0.17208715  0.17398994  0.67086615  1
  O2-  O237  1  0.15506389  0.66869707  -0.00821737  1
  O2-  O238  1  0.17098996  0.65866707  0.33294479  1
  O2-  O239  1  0.16352384  0.64545570  0.66236520  1
  O2-  O240  1  0.49347824  0.17481284  -0.01071400  1
  O2-  O241  1  0.50176903  0.14187856  0.33419729  1
  O2-  O242  1  0.49722051  0.14824959  0.66093100  1
  O2-  O243  1  0.49707685  0.66320306  -0.00218814  1
  O2-  O244  1  0.49953835  0.64997712  0.34862599  1
  O2-  O245  1  0.49879674  0.64934050  0.66303308  1
  O2-  O246  1  0.83579840  0.14638077  0.00566290  1
  O2-  O247  1  0.85014478  0.15681285  0.34615801  1
  O2-  O248  1  0.82945969  0.14897847  0.66525799  1
  O2-  O249  1  0.82686988  0.69328962  -0.00074793  1
  O2-  O250  1  0.83509174  0.66829439  0.32590588  1
  O2-  O251  1  0.82974827  0.66366083  0.66561932  1
  O2-  O252  1  0.00590410  0.35417155  -0.00408538  1
  O2-  O253  1  -0.00201120  0.34864355  0.33301178  1
  O2-  O254  1  -0.00395366  0.34998297  0.66672599  1
  O2-  O255  1  0.00112271  0.83816275  -0.00207659  1
  O2-  O256  1  -0.00300740  0.84438184  0.33453766  1
  O2-  O257  1  0.00240118  0.83869815  0.66923784  1
  O2-  O258  1  0.33369361  0.32765846  0.00514148  1
  O2-  O259  1  0.33303248  0.35102756  0.33695362  1
  O2-  O260  1  0.33132241  0.33843435  0.66634481  1
  O2-  O261  1  0.32928179  0.82566174  0.00005660  1
  O2-  O262  1  0.33887613  0.82519724  0.32819450  1
  O2-  O263  1  0.33327994  0.84262435  0.66538391  1
  O2-  O264  1  0.67383995  0.34986261  -0.00539057  1
  O2-  O265  1  0.66815017  0.34080858  0.33559189  1
  O2-  O266  1  0.66793075  0.35222634  0.66394059  1
  O2-  O267  1  0.67006414  0.84254549  -0.00041737  1
  O2-  O268  1  0.66494142  0.83686731  0.33290923  1
  O2-  O269  1  0.66226896  0.85075160  0.67176010  1
  O2-  O270  1  0.16493809  0.34318134  -0.00411325  1
  O2-  O271  1  0.16969601  0.34671422  0.33482893  1
  O2-  O272  1  0.16030728  0.34647664  0.66188665  1
  O2-  O273  1  0.16229852  0.84536674  -0.00154723  1
  O2-  O274  1  0.16317820  0.84394683  0.32616880  1
  O2-  O275  1  0.16020880  0.83165243  0.66481607  1
  O2-  O276  1  0.49726976  0.31904186  0.00123663  1
  O2-  O277  1  0.49681985  0.35467359  0.33658212  1
  O2-  O278  1  0.50055860  0.34347813  0.66328362  1
  O2-  O279  1  0.49625333  0.84092116  -0.00123646  1
  O2-  O280  1  0.50006172  0.84682510  0.33332731  1
  O2-  O281  1  0.49771801  0.85229221  0.66476979  1
  O2-  O282  1  0.83635976  0.34981175  0.00381377  1
  O2-  O283  1  0.83370223  0.33721087  0.33592320  1
  O2-  O284  1  0.83783891  0.34381580  0.67028081  1
  O2-  O285  1  0.83057306  0.82263423  -0.00734928  1
  O2-  O286  1  0.82852675  0.82163744  0.32889037  1
  O2-  O287  1  0.83512930  0.84143013  0.66840496  1
  O2-  O288  1  -0.00860932  0.17628763  0.15829679  1
  O2-  O289  1  0.00079499  0.19400745  0.50187893  1
  O2-  O290  1  0.00035886  0.17913346  0.83786780  1
  O2-  O291  1  -0.00402503  0.66864131  0.16963572  1
  O2-  O292  1  0.00154628  0.67580415  0.50407307  1
  O2-  O293  1  0.00664062  0.68755038  0.82898259  1
  O2-  O294  1  0.32844367  0.18738288  0.17045374  1
  O2-  O295  1  0.33932017  0.18878228  0.51327016  1
  O2-  O296  1  0.33922825  0.17842853  0.83275083  1
  O2-  O297  1  0.34211938  0.68027807  0.17573237  1
  O2-  O298  1  0.32686735  0.69176185  0.50164177  1
  O2-  O299  1  0.33712825  0.68131281  0.83425663  1
  O2-  O300  1  0.66125592  0.19227928  0.16717489  1
  O2-  O301  1  0.66459472  0.18224915  0.49429237  1
  O2-  O302  1  0.66801597  0.17102949  0.83875134  1
  O2-  O303  1  0.66984621  0.69388894  0.14482463  1
  O2-  O304  1  0.65676851  0.68408834  0.49657621  1
  O2-  O305  1  0.65708679  0.67914643  0.82660359  1
  O2-  O306  1  0.15282526  0.17911205  0.17757704  1
  O2-  O307  1  0.17197215  0.19112080  0.50250574  1
  O2-  O308  1  0.16385720  0.17666783  0.83212922  1
  O2-  O309  1  0.17860034  0.66790728  0.15807318  1
  O2-  O310  1  0.15856967  0.68005573  0.51048046  1
  O2-  O311  1  0.16564570  0.69546136  0.81010345  1
  O2-  O312  1  0.49487446  0.18502338  0.17514616  1
  O2-  O313  1  0.50358281  0.18202818  0.49302646  1
  O2-  O314  1  0.51015870  0.17663181  0.82348236  1
  O2-  O315  1  0.49411149  0.67875888  0.16274554  1
  O2-  O316  1  0.48982545  0.69086539  0.50813211  1
  O2-  O317  1  0.50485360  0.67977298  0.82846171  1
  O2-  O318  1  0.82396891  0.18584717  0.16733780  1
  O2-  O319  1  0.82949945  0.19480024  0.50671057  1
  O2-  O320  1  0.83448936  0.18550414  0.83640753  1
  O2-  O321  1  0.83514277  0.68822611  0.16535807  1
  O2-  O322  1  0.83453355  0.68581404  0.50003735  1
  O2-  O323  1  0.82461843  0.68311639  0.82885348  1
  O2-  O324  1  -0.00258637  0.32941748  0.16098947  1
  O2-  O325  1  0.00369132  0.31472381  0.50847589  1
  O2-  O326  1  -0.00618042  0.32769790  0.82923883  1
  O2-  O327  1  0.01390927  0.83297941  0.18349873  1
  O2-  O328  1  0.00157463  0.82053584  0.50163771  1
  O2-  O329  1  -0.00156821  0.81131582  0.83400353  1
  O2-  O330  1  0.34147144  0.32592174  0.17335114  1
  O2-  O331  1  0.33378195  0.31362833  0.50408047  1
  O2-  O332  1  0.33294331  0.32757703  0.83100908  1
  O2-  O333  1  0.33344777  0.81410508  0.16421176  1
  O2-  O334  1  0.33336141  0.81554182  0.50307952  1
  O2-  O335  1  0.33847898  0.81547581  0.84080980  1
  O2-  O336  1  0.66886709  0.31686256  0.17248166  1
  O2-  O337  1  0.66534037  0.31736796  0.49570478  1
  O2-  O338  1  0.66913885  0.32825168  0.83304576  1
  O2-  O339  1  0.66624354  0.81859401  0.16446612  1
  O2-  O340  1  0.66420886  0.81598734  0.49285801  1
  O2-  O341  1  0.66416217  0.82834002  0.83023503  1
  O2-  O342  1  0.16080661  0.32780557  0.17248197  1
  O2-  O343  1  0.16482589  0.31309202  0.50462417  1
  O2-  O344  1  0.16722858  0.32648310  0.83366206  1
  O2-  O345  1  0.17434167  0.82421045  0.16103287  1
  O2-  O346  1  0.16059909  0.81810491  0.50202645  1
  O2-  O347  1  0.16163340  0.81152652  0.84086262  1
  O2-  O348  1  0.49573923  0.32177201  0.16994232  1
  O2-  O349  1  0.50008059  0.31991599  0.50013750  1
  O2-  O350  1  0.50415839  0.32360889  0.83057812  1
  O2-  O351  1  0.49893040  0.82310488  0.16174338  1
  O2-  O352  1  0.50387853  0.81428076  0.49252689  1
  O2-  O353  1  0.50597205  0.82495824  0.82910725  1
  O2-  O354  1  0.83109008  0.31757875  0.16837058  1
  O2-  O355  1  0.82978637  0.31217247  0.50261874  1
  O2-  O356  1  0.83334583  0.32168753  0.83575887  1
  O2-  O357  1  0.83429148  0.81486540  0.16918271  1
  O2-  O358  1  0.83504214  0.81112909  0.50140719  1
  O2-  O359  1  0.83349009  0.81578937  0.83116725  1
  O2-  O360  1  0.07125684  0.08029423  0.10396384  1
  O2-  O361  1  0.09210686  0.08204698  0.44759313  1
  O2-  O362  1  0.08266279  0.08091909  0.78503817  1
  O2-  O363  1  0.09396460  0.56467381  0.11504670  1
  O2-  O364  1  0.09378768  0.57899045  0.45009657  1
  O2-  O365  1  0.09501967  0.58639980  0.78711645  1
  O2-  O366  1  0.41364759  0.07438381  0.08248241  1
  O2-  O367  1  0.42231118  0.07954589  0.46301853  1
  O2-  O368  1  0.40846540  0.08262521  0.77445822  1
  O2-  O369  1  0.42855281  0.57524543  0.11522246  1
  O2-  O370  1  0.41637139  0.58069466  0.46967438  1
  O2-  O371  1  0.42890996  0.58493793  0.77472566  1
  O2-  O372  1  0.75104580  0.07899270  0.11827392  1
  O2-  O373  1  0.74511830  0.08045487  0.45099578  1
  O2-  O374  1  0.76067466  0.07748972  0.79137727  1
  O2-  O375  1  0.73849889  0.58872705  0.11071252  1
  O2-  O376  1  0.72569604  0.56064962  0.48028012  1
  O2-  O377  1  0.72757426  0.58350827  0.79237401  1
  O2-  O378  1  0.25405534  0.08344744  0.21550846  1
  O2-  O379  1  0.26502799  0.07572044  0.53010485  1
  O2-  O380  1  0.25689744  0.07304946  0.89403972  1
  O2-  O381  1  0.27405035  0.57855192  0.20741347  1
  O2-  O382  1  0.26688440  0.58730901  0.55421624  1
  O2-  O383  1  0.24214785  0.58246408  0.90919995  1
  O2-  O384  1  0.58615912  0.08804843  0.21807129  1
  O2-  O385  1  0.58949796  0.07779732  0.54357044  1
  O2-  O386  1  0.57233334  0.07904655  0.89400382  1
  O2-  O387  1  0.57137873  0.58025441  0.23755396  1
  O2-  O388  1  0.57327089  0.58872943  0.53100864  1
  O2-  O389  1  0.57588311  0.58217062  0.88989801  1
  O2-  O390  1  0.91424956  0.07826970  0.20621445  1
  O2-  O391  1  0.91064636  0.07720784  0.52746759  1
  O2-  O392  1  0.91242164  0.08368353  0.89858680  1
  O2-  O393  1  0.89715839  0.57734692  0.21983917  1
  O2-  O394  1  0.92546617  0.58475919  0.56752612  1
  O2-  O395  1  0.93410540  0.57856456  0.89818847  1
  O2-  O396  1  0.07571385  0.43124197  0.11935005  1
  O2-  O397  1  0.08396902  0.41400363  0.44734639  1
  O2-  O398  1  0.06362313  0.42291255  0.78286578  1
  O2-  O399  1  0.10236360  0.92297170  0.11958363  1
  O2-  O400  1  0.08239460  0.91568936  0.42145697  1
  O2-  O401  1  0.08117477  0.91838148  0.79017135  1
  O2-  O402  1  0.42789553  0.42873906  0.11775714  1
  O2-  O403  1  0.40301351  0.42135692  0.46113409  1
  O2-  O404  1  0.42120527  0.41704235  0.75492005  1
  O2-  O405  1  0.40819989  0.92284503  0.12160350  1
  O2-  O406  1  0.43965343  0.91849959  0.45057323  1
  O2-  O407  1  0.43440259  0.91903413  0.78368004  1
  O2-  O408  1  0.75996998  0.42349632  0.12200305  1
  O2-  O409  1  0.75384967  0.42483380  0.45587238  1
  O2-  O410  1  0.76588723  0.42714456  0.78759828  1
  O2-  O411  1  0.73512801  0.92131078  0.11580040  1
  O2-  O412  1  0.72669111  0.91685889  0.43056771  1
  O2-  O413  1  0.75594596  0.91666581  0.78518599  1
  O2-  O414  1  0.26782844  0.42335654  0.22415710  1
  O2-  O415  1  0.22636157  0.41955334  0.54439500  1
  O2-  O416  1  0.24365837  0.42074601  0.89212942  1
  O2-  O417  1  0.26238855  0.91584663  0.22549145  1
  O2-  O418  1  0.24308494  0.91327085  0.55672517  1
  O2-  O419  1  0.23997828  0.91578008  0.88725407  1
  O2-  O420  1  0.58560348  0.41669878  0.22797041  1
  O2-  O421  1  0.58896678  0.42338731  0.54563150  1
  O2-  O422  1  0.59445414  0.42009873  0.88443414  1
  O2-  O423  1  0.58797869  0.91837342  0.22368332  1
  O2-  O424  1  0.57875283  0.91469753  0.55281592  1
  O2-  O425  1  0.58241566  0.92103556  0.88924242  1
  O2-  O426  1  0.90989247  0.42303956  0.21397345  1
  O2-  O427  1  0.92873925  0.42121091  0.54039673  1
  O2-  O428  1  0.90212969  0.41694453  0.88847190  1
  O2-  O429  1  0.91281586  0.91413725  0.23703575  1
  O2-  O430  1  0.93291176  0.91554015  0.56874077  1
  O2-  O431  1  0.93147556  0.91698883  0.88489275  1
  O2-  O432  1  0.00073035  -0.00586922  0.01542923  1
  O2-  O433  1  0.00143765  0.01024482  0.31091682  1
  O2-  O434  1  -0.01415782  0.00446545  0.68449879  1
  O2-  O435  1  -0.00250650  0.49269000  0.00058636  1
  O2-  O436  1  0.00035274  0.48269780  0.32512838  1
  O2-  O437  1  0.01388686  0.49255786  0.64153965  1
  O2-  O438  1  0.33521022  -0.02110841  -0.00627468  1
  O2-  O439  1  0.32457731  0.00706562  0.33471852  1
  O2-  O440  1  0.34560871  -0.00199172  0.63706522  1
  O2-  O441  1  0.31782449  0.53094346  0.01285392  1
  O2-  O442  1  0.34294282  0.50518786  0.31169630  1
  O2-  O443  1  0.34412223  0.49753702  0.64183510  1
  O2-  O444  1  0.68852415  -0.00727705  -0.02626447  1
  O2-  O445  1  0.65757580  0.01294757  0.34480904  1
  O2-  O446  1  0.64702821  -0.00297865  0.70571536  1
  O2-  O447  1  0.66269666  0.48988618  0.01118380  1
  O2-  O448  1  0.65638577  0.50279963  0.35338883  1
  O2-  O449  1  0.66597106  0.49344257  0.67608227  1
  O2-  O450  1  0.14556437  -0.00584963  -0.03303376  1
  O2-  O451  1  0.15949800  0.00510432  0.30389094  1
  O2-  O452  1  0.17991742  0.01815814  0.66781071  1
  O2-  O453  1  0.15651630  0.50145826  -0.00044416  1
  O2-  O454  1  0.17027047  0.48255208  0.32906050  1
  O2-  O455  1  0.17457635  0.49038880  0.67002097  1
  O2-  O456  1  0.50395573  -0.02428266  0.00949263  1
  O2-  O457  1  0.50180649  0.00102969  0.32896642  1
  O2-  O458  1  0.49520188  0.01341257  0.66559766  1
  O2-  O459  1  0.47827028  0.51160276  -0.00882144  1
  O2-  O460  1  0.49181893  0.49126317  0.31701337  1
  O2-  O461  1  0.50697865  0.51783107  0.65289674  1
  O2-  O462  1  0.83874853  0.01044650  0.01546353  1
  O2-  O463  1  0.83601927  0.00662733  0.33946451  1
  O2-  O464  1  0.82562418  0.02171116  0.65715623  1
  O2-  O465  1  0.81967055  0.49151911  -0.01372489  1
  O2-  O466  1  0.82980497  0.47789479  0.32536864  1
  O2-  O467  1  0.84439480  0.47332510  0.66576612  1
  O2-  O468  1  0.74447488  0.24572572  0.72202289  1
  O2-  O469  1  0.58336185  0.75130284  0.93838277  1
  O2-  O470  1  0.91695315  0.25047724  0.94491092  1
  O2-  O471  1  0.60457015  0.24848499  0.93018387  1
  O2-  O472  1  0.58118671  0.74960029  0.61815818  1
  O2-  O473  1  0.56837671  0.75235535  0.26734903  1
  O2-  O474  1  0.94019910  0.74475809  0.26815523  1
  O2-  O475  1  0.08004083  0.74689093  0.39278311  1
  O2-  O476  1  0.57276560  0.25195694  0.28020142  1
  O2-  O477  1  0.41791110  0.25166750  0.38202599  1
  O2-  O478  1  0.23760813  0.74667624  0.26733484  1
  O2-  O479  1  0.92680820  0.25058751  0.26858990  1
  O2-  O480  1  0.25116984  0.74825934  0.61476038  1
  O2-  O481  1  0.58668375  0.24821028  0.61593258  1
  O2-  O482  1  0.42239396  0.24947305  0.73000550  1
  O2-  O483  1  0.07315094  0.25453293  0.73363441  1
  O2-  O484  1  0.07831648  0.25030281  0.37794931  1
  O2-  O485  1  0.24533530  0.24998911  0.27595887  1
  O2-  O486  1  0.24776602  0.25696818  0.92307382  1
  O2-  O487  1  0.92144611  0.75076818  0.60585209  1
  O2-  O488  1  0.42325842  0.75123641  0.72787567  1
  O2-  O489  1  0.75012091  0.24606717  0.05117972  1
  O2-  O490  1  0.07527460  0.25208114  0.06612915  1
  O2-  O491  1  0.07967471  0.75423270  0.07862011  1
  O2-  O492  1  0.73513329  0.75014934  0.72394004  1
