# generated using pymatgen
data_Ca108Mn108O277
_symmetry_space_group_name_H-M   'P 1'
_cell_length_a   16.01971211
_cell_length_b   22.29797281
_cell_length_c   16.38355020
_cell_angle_alpha   90.00018538
_cell_angle_beta   89.99925066
_cell_angle_gamma   90.00078307
_symmetry_Int_Tables_number   1
_chemical_formula_structural   Ca108Mn108O277
_chemical_formula_sum   'Ca108 Mn108 O277'
_cell_volume   5852.32053644
_cell_formula_units_Z   1
loop_
 _symmetry_equiv_pos_site_id
 _symmetry_equiv_pos_as_xyz
  1  'x, y, z'
loop_
 _atom_type_symbol
 _atom_type_oxidation_number
  Ca2+  2.0
  Mn3.34+  3.34
  O2-  -2.0
loop_
 _atom_site_type_symbol
 _atom_site_label
 _atom_site_symmetry_multiplicity
 _atom_site_fract_x
 _atom_site_fract_y
 _atom_site_fract_z
 _atom_site_occupancy
  Ca2+  Ca0  1  0.07848518  0.25336503  0.24374566  1
  Ca2+  Ca1  1  0.07971617  0.26142338  0.58568086  1
  Ca2+  Ca2  1  0.07429440  0.25295515  0.92390220  1
  Ca2+  Ca3  1  0.09189272  0.74665805  0.24920073  1
  Ca2+  Ca4  1  0.08050831  0.75326255  0.59368509  1
  Ca2+  Ca5  1  0.07988933  0.74608272  0.90590951  1
  Ca2+  Ca6  1  0.42266714  0.24306317  0.27138386  1
  Ca2+  Ca7  1  0.44069333  0.24450212  0.55843084  1
  Ca2+  Ca8  1  0.40956982  0.25924519  0.91989216  1
  Ca2+  Ca9  1  0.41697128  0.74232401  0.24123779  1
  Ca2+  Ca10  1  0.41703468  0.74814867  0.59962090  1
  Ca2+  Ca11  1  0.40475967  0.75191412  0.90073178  1
  Ca2+  Ca12  1  0.75253792  0.25178234  0.25595906  1
  Ca2+  Ca13  1  0.73445253  0.25107208  0.57831632  1
  Ca2+  Ca14  1  0.76467703  0.25509349  0.91760372  1
  Ca2+  Ca15  1  0.74414839  0.74906103  0.24887805  1
  Ca2+  Ca16  1  0.75473416  0.75054708  0.60103157  1
  Ca2+  Ca17  1  0.76019474  0.74542509  0.89939268  1
  Ca2+  Ca18  1  0.24513951  0.25470811  0.09675390  1
  Ca2+  Ca19  1  0.27116570  0.24901295  0.41165971  1
  Ca2+  Ca20  1  0.24243975  0.26239343  0.74917076  1
  Ca2+  Ca21  1  0.24766330  0.74759775  0.09112744  1
  Ca2+  Ca22  1  0.24179358  0.74875679  0.40623079  1
  Ca2+  Ca23  1  0.24583782  0.74094130  0.74457831  1
  Ca2+  Ca24  1  0.59065546  0.25881696  0.10736021  1
  Ca2+  Ca25  1  0.58393162  0.25063647  0.42943523  1
  Ca2+  Ca26  1  0.59393365  0.25581385  0.72654128  1
  Ca2+  Ca27  1  0.59435710  0.74181993  0.10459318  1
  Ca2+  Ca28  1  0.59407034  0.75490122  0.41184724  1
  Ca2+  Ca29  1  0.59844947  0.74160405  0.73753780  1
  Ca2+  Ca30  1  0.92081486  0.23725228  0.08771370  1
  Ca2+  Ca31  1  0.90363816  0.25583802  0.41160184  1
  Ca2+  Ca32  1  0.90780140  0.26437531  0.75216422  1
  Ca2+  Ca33  1  0.90804713  0.74622077  0.08108946  1
  Ca2+  Ca34  1  0.91497468  0.76012000  0.42054418  1
  Ca2+  Ca35  1  0.90665244  0.74491456  0.74583458  1
  Ca2+  Ca36  1  0.06771317  0.09241236  0.58951516  1
  Ca2+  Ca37  1  0.76632660  0.09235234  0.92137482  1
  Ca2+  Ca38  1  0.75405932  0.08973791  0.92431329  1
  Ca2+  Ca39  1  0.74440106  0.60943510  0.23171788  1
  Ca2+  Ca40  1  0.43034968  0.11151773  0.57067023  1
  Ca2+  Ca41  1  0.58510224  0.10284275  0.42811841  1
  Ca2+  Ca42  1  0.59734520  0.08851827  0.08820468  1
  Ca2+  Ca43  1  0.58955884  0.09003202  0.72932975  1
  Ca2+  Ca44  1  0.23425932  0.09603788  0.08071127  1
  Ca2+  Ca45  1  0.91482641  0.59482449  0.41222319  1
  Ca2+  Ca46  1  0.57838478  0.09021636  0.72994239  1
  Ca2+  Ca47  1  0.26098079  0.59819011  0.09479515  1
  Ca2+  Ca48  1  0.75892320  0.09377111  0.57221956  1
  Ca2+  Ca49  1  0.12931161  0.58646276  0.24487718  1
  Ca2+  Ca50  1  0.77551231  0.61187345  0.91518755  1
  Ca2+  Ca51  1  0.91093555  0.60888911  0.76761651  1
  Ca2+  Ca52  1  0.58446642  0.58007746  0.39197694  1
  Ca2+  Ca53  1  0.42093367  0.59992722  0.24117502  1
  Ca2+  Ca54  1  0.75505473  0.08919741  0.26037704  1
  Ca2+  Ca55  1  0.57765518  0.58275279  0.73002674  1
  Ca2+  Ca56  1  0.60001112  0.60593794  0.10767753  1
  Ca2+  Ca57  1  0.39921354  0.07489392  0.92656058  1
  Ca2+  Ca58  1  0.57634978  0.10639155  0.43117177  1
  Ca2+  Ca59  1  0.40659398  0.57335413  0.61757709  1
  Ca2+  Ca60  1  0.07520153  0.10092117  0.95118705  1
  Ca2+  Ca61  1  0.74507440  0.59146709  0.60204449  1
  Ca2+  Ca62  1  0.10460815  0.58335261  0.60503660  1
  Ca2+  Ca63  1  0.22359574  0.09862469  0.08225411  1
  Ca2+  Ca64  1  0.06866595  0.10417742  0.22389536  1
  Ca2+  Ca65  1  0.28284161  0.10132939  0.41721434  1
  Ca2+  Ca66  1  0.26676830  0.09124766  0.75711327  1
  Ca2+  Ca67  1  0.25409743  0.09114445  0.75779370  1
  Ca2+  Ca68  1  0.74745531  0.09392123  0.57254473  1
  Ca2+  Ca69  1  0.40692879  0.59328978  0.90436055  1
  Ca2+  Ca70  1  0.41886804  0.08972761  0.27398534  1
  Ca2+  Ca71  1  0.88443016  0.61604636  0.08192589  1
  Ca2+  Ca72  1  0.08050620  0.40925323  0.92023025  1
  Ca2+  Ca73  1  0.25168905  0.40282056  0.42188954  1
  Ca2+  Ca74  1  0.75293165  0.89589219  0.91145082  1
  Ca2+  Ca75  1  0.41978147  0.41200886  0.24642909  1
  Ca2+  Ca76  1  0.24887103  0.91513367  0.06348408  1
  Ca2+  Ca77  1  0.74249552  0.41149508  0.91330519  1
  Ca2+  Ca78  1  0.58543800  0.90046202  0.75022096  1
  Ca2+  Ca79  1  0.07107174  0.89953358  0.25061930  1
  Ca2+  Ca80  1  0.75540867  0.41132732  0.91307966  1
  Ca2+  Ca81  1  0.75846236  0.91298261  0.27572120  1
  Ca2+  Ca82  1  0.93433279  0.40653077  0.08235752  1
  Ca2+  Ca83  1  0.58490450  0.90703014  0.08000291  1
  Ca2+  Ca84  1  0.42082764  0.41146653  0.91456327  1
  Ca2+  Ca85  1  0.25121903  0.89654208  0.76167346  1
  Ca2+  Ca86  1  0.73150709  0.41300967  0.25894239  1
  Ca2+  Ca87  1  0.91824594  0.89394376  0.08670497  1
  Ca2+  Ca88  1  0.42542582  0.41686710  0.59711495  1
  Ca2+  Ca89  1  0.10281586  0.40982155  0.24853362  1
  Ca2+  Ca90  1  0.92271901  0.40654197  0.08216303  1
  Ca2+  Ca91  1  0.60376044  0.91103442  0.42126475  1
  Ca2+  Ca92  1  0.25022564  0.89693490  0.41825802  1
  Ca2+  Ca93  1  0.40824033  0.41180358  0.24655032  1
  Ca2+  Ca94  1  0.74121851  0.41080991  0.58451973  1
  Ca2+  Ca95  1  0.40995965  0.90739456  0.25390444  1
  Ca2+  Ca96  1  0.26367757  0.42648226  0.72138080  1
  Ca2+  Ca97  1  0.42267105  0.90832396  0.25477019  1
  Ca2+  Ca98  1  0.57015321  0.42484159  0.72424456  1
  Ca2+  Ca99  1  0.91268597  0.89324286  0.74322129  1
  Ca2+  Ca100  1  0.59727263  0.90528113  0.08210243  1
  Ca2+  Ca101  1  0.58846860  0.41158983  0.42307465  1
  Ca2+  Ca102  1  0.23766159  0.91552427  0.06141540  1
  Ca2+  Ca103  1  0.58359870  0.41100144  0.08503898  1
  Ca2+  Ca104  1  0.40768733  0.90393979  0.91216509  1
  Ca2+  Ca105  1  0.23465719  0.41500608  0.08636358  1
  Ca2+  Ca106  1  0.08354927  0.41140142  0.59607796  1
  Ca2+  Ca107  1  0.42010310  0.89547123  0.57877325  1
  Mn3.34+  Mn108  1  0.08572566  0.33392662  0.08582868  1
  Mn3.34+  Mn109  1  0.08139443  0.33337995  0.41818315  1
  Mn3.34+  Mn110  1  0.08290611  0.33945148  0.75177881  1
  Mn3.34+  Mn111  1  0.08009932  0.83104137  0.08176213  1
  Mn3.34+  Mn112  1  0.07916783  0.83260583  0.42150475  1
  Mn3.34+  Mn113  1  0.08205221  0.82795560  0.74910347  1
  Mn3.34+  Mn114  1  0.41559068  0.33537580  0.08239987  1
  Mn3.34+  Mn115  1  0.41760235  0.33333934  0.42154295  1
  Mn3.34+  Mn116  1  0.41691341  0.33352922  0.75214368  1
  Mn3.34+  Mn117  1  0.41760481  0.82722090  0.08269627  1
  Mn3.34+  Mn118  1  0.41841884  0.82826986  0.41970886  1
  Mn3.34+  Mn119  1  0.41745470  0.83129801  0.74888991  1
  Mn3.34+  Mn120  1  0.75075518  0.33357146  0.08779845  1
  Mn3.34+  Mn121  1  0.75137094  0.33455874  0.41829869  1
  Mn3.34+  Mn122  1  0.74906174  0.33545260  0.74600150  1
  Mn3.34+  Mn123  1  0.75364880  0.82770300  0.08494463  1
  Mn3.34+  Mn124  1  0.75671347  0.83994620  0.42457671  1
  Mn3.34+  Mn125  1  0.74979903  0.83032582  0.74681050  1
  Mn3.34+  Mn126  1  0.25065666  0.33424572  0.25029718  1
  Mn3.34+  Mn127  1  0.25349278  0.33677379  0.58046604  1
  Mn3.34+  Mn128  1  0.24861227  0.33426023  0.91304158  1
  Mn3.34+  Mn129  1  0.24780564  0.83044485  0.24639822  1
  Mn3.34+  Mn130  1  0.24649841  0.82792821  0.58372756  1
  Mn3.34+  Mn131  1  0.24326181  0.83294290  0.91324881  1
  Mn3.34+  Mn132  1  0.58124626  0.33774932  0.25337951  1
  Mn3.34+  Mn133  1  0.58285546  0.33696591  0.58129345  1
  Mn3.34+  Mn134  1  0.58167479  0.33256065  0.91069966  1
  Mn3.34+  Mn135  1  0.58625474  0.82817132  0.25209784  1
  Mn3.34+  Mn136  1  0.58745152  0.83010384  0.58116183  1
  Mn3.34+  Mn137  1  0.58256188  0.83336901  0.91267701  1
  Mn3.34+  Mn138  1  0.91720047  0.33276074  0.25331449  1
  Mn3.34+  Mn139  1  0.91428814  0.33933815  0.57788964  1
  Mn3.34+  Mn140  1  0.91872145  0.33740809  0.90957405  1
  Mn3.34+  Mn141  1  0.91475719  0.83352991  0.25160909  1
  Mn3.34+  Mn142  1  0.91765838  0.83398813  0.58141504  1
  Mn3.34+  Mn143  1  0.91996467  0.82669236  0.91312561  1
  Mn3.34+  Mn144  1  0.08074236  0.16895099  0.75144593  1
  Mn3.34+  Mn145  1  0.58795435  0.16793142  0.25256119  1
  Mn3.34+  Mn146  1  0.08635639  0.66442498  0.08196066  1
  Mn3.34+  Mn147  1  0.41012231  0.67436353  0.42122339  1
  Mn3.34+  Mn148  1  0.24805136  0.66941843  0.91265837  1
  Mn3.34+  Mn149  1  0.75465960  0.16636368  0.41523140  1
  Mn3.34+  Mn150  1  0.41368835  0.66176216  0.74934554  1
  Mn3.34+  Mn151  1  0.24585118  0.16747227  0.25047135  1
  Mn3.34+  Mn152  1  0.41599525  0.66668862  0.08088105  1
  Mn3.34+  Mn153  1  0.07998261  0.66668977  0.41908336  1
  Mn3.34+  Mn154  1  0.25059050  0.66012531  0.58709935  1
  Mn3.34+  Mn155  1  0.74546645  0.66303609  0.41958952  1
  Mn3.34+  Mn156  1  0.58850027  0.66348924  0.91537435  1
  Mn3.34+  Mn157  1  0.25107885  0.16945930  0.91348598  1
  Mn3.34+  Mn158  1  0.07269850  0.65745548  0.08134922  1
  Mn3.34+  Mn159  1  0.58816055  0.17754489  0.91585299  1
  Mn3.34+  Mn160  1  0.42529183  0.16413382  0.08743264  1
  Mn3.34+  Mn161  1  0.91897031  0.66346845  0.58723085  1
  Mn3.34+  Mn162  1  0.57821501  0.66791294  0.91411226  1
  Mn3.34+  Mn163  1  0.58075086  0.66115721  0.58196221  1
  Mn3.34+  Mn164  1  0.91538096  0.16636385  0.24749708  1
  Mn3.34+  Mn165  1  0.08357606  0.66396373  0.75603051  1
  Mn3.34+  Mn166  1  0.75546790  0.66788342  0.42006351  1
  Mn3.34+  Mn167  1  0.41485572  0.17687471  0.75158758  1
  Mn3.34+  Mn168  1  0.06944388  0.16461430  0.75150806  1
  Mn3.34+  Mn169  1  0.07351060  0.16369608  0.41786183  1
  Mn3.34+  Mn170  1  0.57803480  0.17896731  0.91082971  1
  Mn3.34+  Mn171  1  0.91847255  0.17186653  0.92299413  1
  Mn3.34+  Mn172  1  0.24996579  0.17172765  0.58232054  1
  Mn3.34+  Mn173  1  0.41849206  0.66829418  0.42284007  1
  Mn3.34+  Mn174  1  0.91423580  0.16545995  0.57658220  1
  Mn3.34+  Mn175  1  0.75380149  0.16823897  0.09114498  1
  Mn3.34+  Mn176  1  0.41464849  0.16927286  0.08650088  1
  Mn3.34+  Mn177  1  0.08983752  0.66151220  0.41957227  1
  Mn3.34+  Mn178  1  0.08715491  0.16954640  0.41660990  1
  Mn3.34+  Mn179  1  0.75816278  0.16694062  0.74993975  1
  Mn3.34+  Mn180  1  0.39943532  0.50523901  0.41608756  1
  Mn3.34+  Mn181  1  0.41881982  0.00015514  0.75315148  1
  Mn3.34+  Mn182  1  0.41998824  0.50264426  0.07644071  1
  Mn3.34+  Mn183  1  0.91820419  -0.00375931  0.91041542  1
  Mn3.34+  Mn184  1  0.08731821  0.50196392  0.74093043  1
  Mn3.34+  Mn185  1  0.24415947  0.00026324  0.25537307  1
  Mn3.34+  Mn186  1  0.92740416  0.50267034  0.24871705  1
  Mn3.34+  Mn187  1  0.07843790  -0.00274828  0.41959940  1
  Mn3.34+  Mn188  1  0.58841893  0.00078699  0.25568303  1
  Mn3.34+  Mn189  1  0.76102733  -0.00199002  0.74321445  1
  Mn3.34+  Mn190  1  0.91694647  0.50071807  0.58979341  1
  Mn3.34+  Mn191  1  0.23186002  0.50700771  0.91643351  1
  Mn3.34+  Mn192  1  0.58625907  -0.00671573  0.58990554  1
  Mn3.34+  Mn193  1  0.58378094  0.00158622  0.91677911  1
  Mn3.34+  Mn194  1  0.24126487  0.50131877  0.91337464  1
  Mn3.34+  Mn195  1  0.41798175  -0.00324292  0.41754293  1
  Mn3.34+  Mn196  1  0.91274062  0.50744456  0.24971020  1
  Mn3.34+  Mn197  1  0.74943629  0.50141038  0.73886682  1
  Mn3.34+  Mn198  1  0.10096491  0.50186999  0.41474821  1
  Mn3.34+  Mn199  1  0.91320824  -0.00243791  0.58067126  1
  Mn3.34+  Mn200  1  0.74898061  0.49787096  0.41362401  1
  Mn3.34+  Mn201  1  0.08938580  0.49677351  0.41657906  1
  Mn3.34+  Mn202  1  0.75862360  0.00167036  0.08643628  1
  Mn3.34+  Mn203  1  0.24186424  -0.00532778  0.58071808  1
  Mn3.34+  Mn204  1  0.92458310  0.50139008  0.92933909  1
  Mn3.34+  Mn205  1  0.06618268  -0.00080754  0.75399235  1
  Mn3.34+  Mn206  1  0.74786027  0.49990894  0.08150229  1
  Mn3.34+  Mn207  1  0.06735412  0.00156481  0.41748405  1
  Mn3.34+  Mn208  1  0.07768597  -0.00604734  0.75353827  1
  Mn3.34+  Mn209  1  0.41032860  0.50055689  0.41930520  1
  Mn3.34+  Mn210  1  0.58279535  0.49899048  0.91600022  1
  Mn3.34+  Mn211  1  0.41832529  0.00067864  0.08717314  1
  Mn3.34+  Mn212  1  0.92876443  0.00092141  0.90753777  1
  Mn3.34+  Mn213  1  0.07371935  0.00086959  0.08805978  1
  Mn3.34+  Mn214  1  0.25607205  0.00095147  0.57954447  1
  Mn3.34+  Mn215  1  0.91299394  0.00336367  0.25451249  1
  O2-  O216  1  0.00152106  0.17706504  -0.00274167  1
  O2-  O217  1  0.00010092  0.15701697  0.33141577  1
  O2-  O218  1  -0.00054863  0.16777223  0.65596572  1
  O2-  O219  1  -0.00416801  0.67023449  0.00365331  1
  O2-  O220  1  0.00137106  0.65784484  0.33752025  1
  O2-  O221  1  0.00519671  0.65344884  0.66228718  1
  O2-  O222  1  0.33544952  0.15534300  -0.00410443  1
  O2-  O223  1  0.33306608  0.16068939  0.32466484  1
  O2-  O224  1  0.32963969  0.16415110  0.67187664  1
  O2-  O225  1  0.33681291  0.66557315  -0.00517586  1
  O2-  O226  1  0.34059327  0.67618485  0.33295199  1
  O2-  O227  1  0.33919729  0.66310333  0.66196893  1
  O2-  O228  1  0.66999687  0.15360654  -0.00389454  1
  O2-  O229  1  0.66717249  0.15291473  0.33514994  1
  O2-  O230  1  0.67637496  0.14888012  0.66911283  1
  O2-  O231  1  0.66260672  0.66183586  -0.00138297  1
  O2-  O232  1  0.66807431  0.65395520  0.34007551  1
  O2-  O233  1  0.65792164  0.65439747  0.66215221  1
  O2-  O234  1  0.17454027  0.17208363  -0.00161823  1
  O2-  O235  1  0.16566574  0.14491221  0.33582988  1
  O2-  O236  1  0.16830817  0.15116290  0.66829097  1
  O2-  O237  1  0.16877409  0.65290947  0.00424388  1
  O2-  O238  1  0.16376001  0.65975616  0.33527269  1
  O2-  O239  1  0.16842277  0.65907687  0.66697849  1
  O2-  O240  1  0.50066010  0.15102041  -0.00525036  1
  O2-  O241  1  0.50790130  0.15505592  0.32951116  1
  O2-  O242  1  0.49979420  0.16195705  0.67689929  1
  O2-  O243  1  0.49908829  0.65698030  -0.00450169  1
  O2-  O244  1  0.49599836  0.66230306  0.33968155  1
  O2-  O245  1  0.49839478  0.65915941  0.66600404  1
  O2-  O246  1  0.83124580  0.15727900  0.00124734  1
  O2-  O247  1  0.82949324  0.16008803  0.32884294  1
  O2-  O248  1  0.83224400  0.16186904  0.65928075  1
  O2-  O249  1  0.83057956  0.68636205  -0.00515658  1
  O2-  O250  1  0.83174195  0.66173588  0.33557936  1
  O2-  O251  1  0.83769708  0.65648583  0.66145136  1
  O2-  O252  1  0.00244994  0.34028660  -0.00120275  1
  O2-  O253  1  0.00912649  0.34353056  0.32214030  1
  O2-  O254  1  -0.00072227  0.33264151  0.65969537  1
  O2-  O255  1  -0.00740385  0.82463048  0.00553388  1
  O2-  O256  1  0.00122173  0.82615906  0.32903131  1
  O2-  O257  1  -0.00214434  0.83232338  0.67074242  1
  O2-  O258  1  0.33116169  0.34017058  -0.00334590  1
  O2-  O259  1  0.33654242  0.34650543  0.33368481  1
  O2-  O260  1  0.33303421  0.32375786  0.66844875  1
  O2-  O261  1  0.33220820  0.83960332  0.00487767  1
  O2-  O262  1  0.33548694  0.83866712  0.33058243  1
  O2-  O263  1  0.33565104  0.84197561  0.66615238  1
  O2-  O264  1  0.66803273  0.34484713  -0.00240517  1
  O2-  O265  1  0.66136660  0.34817308  0.33781091  1
  O2-  O266  1  0.66280036  0.34789471  0.66817623  1
  O2-  O267  1  0.66627895  0.84019055  0.00247275  1
  O2-  O268  1  0.66476923  0.84389613  0.33212243  1
  O2-  O269  1  0.66260425  0.84108120  0.67066855  1
  O2-  O270  1  0.16710620  0.32089371  0.00243999  1
  O2-  O271  1  0.17134513  0.34812097  0.33680556  1
  O2-  O272  1  0.17028986  0.34050212  0.66537130  1
  O2-  O273  1  0.16654086  0.84357899  0.00211741  1
  O2-  O274  1  0.16690525  0.84781373  0.32827836  1
  O2-  O275  1  0.17061011  0.84368167  0.67102502  1
  O2-  O276  1  0.50124960  0.34064814  -0.00429921  1
  O2-  O277  1  0.49411721  0.35273382  0.33395236  1
  O2-  O278  1  0.49811744  0.33724668  0.66845062  1
  O2-  O279  1  0.50132611  0.84635388  0.00250977  1
  O2-  O280  1  0.49788464  0.84351967  0.33046438  1
  O2-  O281  1  0.49982787  0.84032039  0.66700171  1
  O2-  O282  1  0.83436526  0.35245807  -0.00235585  1
  O2-  O283  1  0.82493175  0.34367368  0.32504696  1
  O2-  O284  1  0.83149569  0.32927290  0.65950963  1
  O2-  O285  1  0.83159080  0.82703131  -0.00242682  1
  O2-  O286  1  0.83116103  0.82791575  0.33034356  1
  O2-  O287  1  0.83390035  0.83251932  0.66874318  1
  O2-  O288  1  -0.00073940  0.18377579  0.17616776  1
  O2-  O289  1  -0.00069890  0.18729766  0.50143680  1
  O2-  O290  1  -0.00242106  0.17815503  0.84034043  1
  O2-  O291  1  0.00074435  0.68203528  0.16159150  1
  O2-  O292  1  -0.00262185  0.67918182  0.49538347  1
  O2-  O293  1  -0.00010538  0.68141382  0.82321827  1
  O2-  O294  1  0.32423632  0.17629182  0.16226506  1
  O2-  O295  1  0.33011557  0.18108309  0.50704240  1
  O2-  O296  1  0.32871314  0.18924888  0.82980289  1
  O2-  O297  1  0.33790486  0.68263511  0.15518402  1
  O2-  O298  1  0.33001294  0.68682030  0.49917278  1
  O2-  O299  1  0.33612029  0.67824286  0.83466877  1
  O2-  O300  1  0.66431570  0.17995605  0.16352348  1
  O2-  O301  1  0.67398025  0.17210514  0.49668583  1
  O2-  O302  1  0.66714533  0.17995894  0.82827860  1
  O2-  O303  1  0.67884734  0.68155574  0.16555312  1
  O2-  O304  1  0.66632296  0.67579208  0.49976737  1
  O2-  O305  1  0.66769495  0.67214217  0.83683892  1
  O2-  O306  1  0.16835812  0.17697695  0.16556442  1
  O2-  O307  1  0.16102327  0.18241328  0.50439767  1
  O2-  O308  1  0.17051158  0.18183314  0.83153079  1
  O2-  O309  1  0.16446146  0.66749032  0.16224567  1
  O2-  O310  1  0.16449708  0.67542805  0.50374993  1
  O2-  O311  1  0.16679061  0.68137294  0.83478909  1
  O2-  O312  1  0.50401318  0.17946970  0.17184795  1
  O2-  O313  1  0.50901769  0.17072342  0.49659543  1
  O2-  O314  1  0.49324199  0.19141495  0.83468165  1
  O2-  O315  1  0.49637361  0.68057645  0.15594759  1
  O2-  O316  1  0.49916718  0.68992872  0.49849106  1
  O2-  O317  1  0.49988276  0.67746278  0.83461644  1
  O2-  O318  1  0.82987758  0.18198482  0.17124392  1
  O2-  O319  1  0.82958523  0.18267804  0.50225202  1
  O2-  O320  1  0.82495345  0.17500138  0.84430165  1
  O2-  O321  1  0.81960516  0.68920481  0.16104509  1
  O2-  O322  1  0.83527237  0.67713683  0.49768267  1
  O2-  O323  1  0.84377460  0.68134146  0.83961195  1
  O2-  O324  1  -0.00317384  0.31591727  0.15730491  1
  O2-  O325  1  -0.00271329  0.31459448  0.49855353  1
  O2-  O326  1  0.00259030  0.32464432  0.83624169  1
  O2-  O327  1  0.00147060  0.82026552  0.16919801  1
  O2-  O328  1  0.00117172  0.81708783  0.50209104  1
  O2-  O329  1  -0.00364507  0.81181941  0.82911479  1
  O2-  O330  1  0.33715164  0.32074582  0.17091355  1
  O2-  O331  1  0.33296996  0.31637682  0.50025371  1
  O2-  O332  1  0.33385763  0.31267075  0.83244927  1
  O2-  O333  1  0.34089131  0.81920330  0.16938656  1
  O2-  O334  1  0.33463652  0.81409893  0.49733409  1
  O2-  O335  1  0.33291355  0.82590610  0.83401155  1
  O2-  O336  1  0.66839132  0.32770128  0.17277393  1
  O2-  O337  1  0.66690034  0.32705005  0.49975821  1
  O2-  O338  1  0.67076061  0.31656616  0.84051088  1
  O2-  O339  1  0.66262009  0.82351259  0.16089638  1
  O2-  O340  1  0.66292411  0.82748314  0.49464640  1
  O2-  O341  1  0.66638723  0.82734988  0.83406809  1
  O2-  O342  1  0.16517270  0.32035845  0.16855873  1
  O2-  O343  1  0.17149295  0.31508223  0.50286577  1
  O2-  O344  1  0.16417312  0.31607414  0.84020442  1
  O2-  O345  1  0.17194373  0.83538720  0.15973862  1
  O2-  O346  1  0.17331174  0.82359847  0.49233451  1
  O2-  O347  1  0.16921204  0.82108288  0.82892847  1
  O2-  O348  1  0.49790309  0.32475638  0.16969901  1
  O2-  O349  1  0.50404080  0.32714749  0.49653627  1
  O2-  O350  1  0.49970996  0.30865332  0.83089459  1
  O2-  O351  1  0.50123931  0.82240198  0.16519304  1
  O2-  O352  1  0.50025370  0.81494249  0.49910413  1
  O2-  O353  1  0.49681676  0.82942622  0.83649042  1
  O2-  O354  1  0.84358626  0.32825318  0.15711758  1
  O2-  O355  1  0.82956007  0.31582400  0.50134694  1
  O2-  O356  1  0.82772126  0.32914916  0.83691791  1
  O2-  O357  1  0.83531739  0.81615980  0.16525072  1
  O2-  O358  1  0.83337680  0.81999720  0.50331202  1
  O2-  O359  1  0.83319274  0.82065778  0.83328268  1
  O2-  O360  1  0.08924914  0.08306975  0.09369252  1
  O2-  O361  1  0.08146952  0.08124476  0.45765728  1
  O2-  O362  1  0.10258065  0.07814346  0.79332199  1
  O2-  O363  1  0.07596339  0.57920515  0.10872838  1
  O2-  O364  1  0.07307177  0.57883665  0.46192486  1
  O2-  O365  1  0.07134373  0.57868885  0.77056726  1
  O2-  O366  1  0.41847398  0.08051937  0.11913653  1
  O2-  O367  1  0.42793527  0.07695198  0.43889582  1
  O2-  O368  1  0.40462909  0.08203621  0.78782615  1
  O2-  O369  1  0.41439149  0.58264702  0.10436581  1
  O2-  O370  1  0.42073099  0.58452807  0.45476627  1
  O2-  O371  1  0.42676046  0.58293313  0.76869255  1
  O2-  O372  1  0.74378838  0.08417504  0.11096076  1
  O2-  O373  1  0.73604908  0.08237091  0.43944854  1
  O2-  O374  1  0.74224660  0.07816728  0.78977774  1
  O2-  O375  1  0.74906611  0.57809375  0.09803349  1
  O2-  O376  1  0.75588432  0.57923502  0.45052827  1
  O2-  O377  1  0.75646341  0.57019504  0.78515301  1
  O2-  O378  1  0.24589554  0.08222186  0.21527305  1
  O2-  O379  1  0.24344402  0.08097012  0.55105472  1
  O2-  O380  1  0.25677114  0.07940370  0.88960463  1
  O2-  O381  1  0.26174698  0.56985961  0.21742944  1
  O2-  O382  1  0.25409187  0.58280372  0.56814847  1
  O2-  O383  1  0.25986946  0.58596395  0.89545429  1
  O2-  O384  1  0.58802715  0.08092850  0.22488607  1
  O2-  O385  1  0.60102876  0.07443881  0.56201989  1
  O2-  O386  1  0.58371134  0.08351027  0.87281201  1
  O2-  O387  1  0.58321011  0.57390462  0.22915644  1
  O2-  O388  1  0.57604411  0.58398336  0.55315811  1
  O2-  O389  1  0.57458321  0.58057836  0.88861665  1
  O2-  O390  1  0.92009950  0.08290859  0.22176571  1
  O2-  O391  1  0.90973289  0.07820389  0.54458416  1
  O2-  O392  1  0.91061665  0.08490587  0.89664457  1
  O2-  O393  1  0.90017324  0.58283023  0.21141922  1
  O2-  O394  1  0.91541472  0.57931120  0.55060836  1
  O2-  O395  1  0.90613891  0.57304340  0.89639848  1
  O2-  O396  1  0.07201248  0.41652508  0.11608338  1
  O2-  O397  1  0.09496889  0.41766990  0.45690015  1
  O2-  O398  1  0.09488999  0.42404610  0.78176834  1
  O2-  O399  1  0.07885425  0.91802016  0.10700908  1
  O2-  O400  1  0.08202721  0.91531565  0.43372228  1
  O2-  O401  1  0.07608819  0.91269889  0.77332386  1
  O2-  O402  1  0.41433555  0.42092024  0.10975080  1
  O2-  O403  1  0.40532896  0.41948292  0.45602798  1
  O2-  O404  1  0.41533797  0.41218415  0.77564557  1
  O2-  O405  1  0.42585856  0.92044731  0.11778084  1
  O2-  O406  1  0.40911464  0.91664146  0.43966330  1
  O2-  O407  1  0.41646907  0.91794894  0.77049486  1
  O2-  O408  1  0.75081922  0.42004862  0.11608204  1
  O2-  O409  1  0.74499070  0.41890972  0.44591984  1
  O2-  O410  1  0.74229940  0.42422998  0.77917374  1
  O2-  O411  1  0.73829972  0.91935408  0.10931356  1
  O2-  O412  1  0.74747138  0.91832373  0.42103164  1
  O2-  O413  1  0.75842750  0.91727703  0.77600736  1
  O2-  O414  1  0.26067217  0.41344680  0.21832393  1
  O2-  O415  1  0.25524013  0.41541930  0.56360281  1
  O2-  O416  1  0.25340320  0.42115537  0.87579839  1
  O2-  O417  1  0.27394632  0.92061533  0.21290853  1
  O2-  O418  1  0.26452099  0.91462775  0.55784926  1
  O2-  O419  1  0.25912765  0.91616120  0.90941564  1
  O2-  O420  1  0.56740154  0.41855180  0.22387400  1
  O2-  O421  1  0.58065007  0.41923294  0.56601509  1
  O2-  O422  1  0.59018256  0.42085607  0.87574279  1
  O2-  O423  1  0.57256787  0.92074028  0.21612646  1
  O2-  O424  1  0.56537268  0.91503068  0.55962214  1
  O2-  O425  1  0.58894650  0.91741474  0.89980493  1
  O2-  O426  1  0.92426237  0.42112357  0.21867787  1
  O2-  O427  1  0.91913989  0.42233853  0.55854251  1
  O2-  O428  1  0.90787267  0.42352503  0.89098357  1
  O2-  O429  1  0.91516013  0.92311923  0.21837784  1
  O2-  O430  1  0.92131642  0.91713777  0.58694953  1
  O2-  O431  1  0.91170343  0.91453621  0.89145849  1
  O2-  O432  1  0.00864494  0.00705935  -0.00819741  1
  O2-  O433  1  0.01498183  -0.00157465  0.31177411  1
  O2-  O434  1  0.00554938  0.01526683  0.65694913  1
  O2-  O435  1  -0.00615348  0.47947068  0.00513256  1
  O2-  O436  1  -0.00479590  0.51174545  0.34362524  1
  O2-  O437  1  0.01484984  0.49904534  0.64976807  1
  O2-  O438  1  0.33271960  -0.00003199  0.01665929  1
  O2-  O439  1  0.34100877  0.00184095  0.32692280  1
  O2-  O440  1  0.32680389  0.00992965  0.67640431  1
  O2-  O441  1  0.33696784  0.49762140  -0.01058118  1
  O2-  O442  1  0.34223219  0.48146630  0.32186928  1
  O2-  O443  1  0.34956802  0.48789690  0.65488898  1
  O2-  O444  1  0.66096633  0.00810881  0.01217579  1
  O2-  O445  1  0.65342736  0.00160599  0.33825031  1
  O2-  O446  1  0.65440408  0.00623229  0.68673428  1
  O2-  O447  1  0.67012115  0.48366263  -0.00563025  1
  O2-  O448  1  0.66232589  0.49555065  0.35146826  1
  O2-  O449  1  0.65748593  0.50375889  0.68207752  1
  O2-  O450  1  0.18498721  0.00380790  0.04519100  1
  O2-  O451  1  0.17651875  0.00256141  0.35464437  1
  O2-  O452  1  0.17180883  0.01151415  0.67840125  1
  O2-  O453  1  0.16591648  0.48060177  0.00263369  1
  O2-  O454  1  0.15677493  0.49255655  0.31653014  1
  O2-  O455  1  0.16823580  0.49377551  0.67047953  1
  O2-  O456  1  0.49637897  0.00419555  -0.00020396  1
  O2-  O457  1  0.49146508  -0.00810055  0.31949413  1
  O2-  O458  1  0.49887385  0.01754622  0.66857654  1
  O2-  O459  1  0.50200360  0.48575884  -0.00343258  1
  O2-  O460  1  0.50156460  0.50045755  0.34741999  1
  O2-  O461  1  0.49109933  0.49795735  0.66562513  1
  O2-  O462  1  0.81914122  0.00349245  -0.02071217  1
  O2-  O463  1  0.81074537  0.00326666  0.29355156  1
  O2-  O464  1  0.81675696  0.01607766  0.64260038  1
  O2-  O465  1  0.83151494  0.48841781  -0.00337668  1
  O2-  O466  1  0.82839824  0.50172646  0.32901117  1
  O2-  O467  1  0.81272122  0.50108029  0.64489362  1
  O2-  O468  1  0.74490312  0.75111378  0.73972874  1
  O2-  O469  1  0.58660000  0.75123062  0.26690595  1
  O2-  O470  1  0.42309216  0.25516659  0.40375405  1
  O2-  O471  1  0.74821453  0.24856272  0.73103865  1
  O2-  O472  1  0.91715960  0.74691263  0.59890160  1
  O2-  O473  1  0.74271992  0.75102621  0.40212047  1
  O2-  O474  1  0.90830249  0.25480933  0.92993348  1
  O2-  O475  1  0.09346315  0.74752531  0.72920059  1
  O2-  O476  1  0.58776705  0.25507991  0.59233079  1
  O2-  O477  1  0.23717677  0.75336139  0.25821002  1
  O2-  O478  1  0.59150014  0.74950666  0.60162297  1
  O2-  O479  1  0.24862039  0.24994036  0.27203543  1
  O2-  O480  1  0.24445208  0.74924568  0.60464299  1
  O2-  O481  1  0.08542467  0.25322138  0.73158680  1
  O2-  O482  1  0.57853943  0.75111102  0.93372816  1
  O2-  O483  1  0.74393868  0.25090646  0.39521166  1
  O2-  O484  1  0.08755781  0.25011186  0.38644808  1
  O2-  O485  1  0.42058456  0.25171683  0.06159278  1
  O2-  O486  1  0.10109643  0.74663286  0.07119548  1
  O2-  O487  1  0.74945068  0.25093318  0.06136794  1
  O2-  O488  1  0.09360740  0.75089426  0.39904273  1
  O2-  O489  1  0.41871168  0.74982620  0.73962258  1
  O2-  O490  1  0.90965833  0.25090805  0.27248828  1
  O2-  O491  1  0.24811136  0.75053032  0.93830614  1
  O2-  O492  1  0.58464178  0.25152071  0.27091345  1
