# generated using pymatgen
data_Ca108Mn108O277
_symmetry_space_group_name_H-M   'P 1'
_cell_length_a   16.03346269
_cell_length_b   22.31450952
_cell_length_c   16.39443038
_cell_angle_alpha   90.00218196
_cell_angle_beta   90.00155887
_cell_angle_gamma   90.00401288
_symmetry_Int_Tables_number   1
_chemical_formula_structural   Ca108Mn108O277
_chemical_formula_sum   'Ca108 Mn108 O277'
_cell_volume   5865.58052335
_cell_formula_units_Z   1
loop_
 _symmetry_equiv_pos_site_id
 _symmetry_equiv_pos_as_xyz
  1  'x, y, z'
loop_
 _atom_type_symbol
 _atom_type_oxidation_number
  Ca2+  2.0
  Mn3.34+  3.34
  O2-  -2.0
loop_
 _atom_site_type_symbol
 _atom_site_label
 _atom_site_symmetry_multiplicity
 _atom_site_fract_x
 _atom_site_fract_y
 _atom_site_fract_z
 _atom_site_occupancy
  Ca2+  Ca0  1  0.07774044  0.25070948  0.23828507  1
  Ca2+  Ca1  1  0.08506580  0.25298212  0.58270141  1
  Ca2+  Ca2  1  0.08403984  0.23704194  0.92349776  1
  Ca2+  Ca3  1  0.07553725  0.74757952  0.24730825  1
  Ca2+  Ca4  1  0.09526125  0.74740937  0.58103446  1
  Ca2+  Ca5  1  0.09097467  0.74291783  0.93288590  1
  Ca2+  Ca6  1  0.41533032  0.25636361  0.24814129  1
  Ca2+  Ca7  1  0.40609958  0.25165664  0.59138484  1
  Ca2+  Ca8  1  0.40166340  0.25180889  0.91136446  1
  Ca2+  Ca9  1  0.42762345  0.73894668  0.23159104  1
  Ca2+  Ca10  1  0.43599985  0.74377794  0.59088095  1
  Ca2+  Ca11  1  0.42180457  0.74559592  0.92100721  1
  Ca2+  Ca12  1  0.76085053  0.26003399  0.25436424  1
  Ca2+  Ca13  1  0.75543609  0.26149188  0.58618375  1
  Ca2+  Ca14  1  0.75211276  0.26091099  0.90652578  1
  Ca2+  Ca15  1  0.74877254  0.75627775  0.25308035  1
  Ca2+  Ca16  1  0.72528449  0.74064484  0.59954015  1
  Ca2+  Ca17  1  0.73406054  0.74908886  0.89698647  1
  Ca2+  Ca18  1  0.22733608  0.24929816  0.07710837  1
  Ca2+  Ca19  1  0.24708155  0.25102091  0.41791154  1
  Ca2+  Ca20  1  0.25966580  0.25164795  0.75260989  1
  Ca2+  Ca21  1  0.26045606  0.73427173  0.07335311  1
  Ca2+  Ca22  1  0.24258299  0.75225700  0.42192417  1
  Ca2+  Ca23  1  0.26057280  0.74794867  0.76505120  1
  Ca2+  Ca24  1  0.57750693  0.27431401  0.08236186  1
  Ca2+  Ca25  1  0.58575379  0.25777807  0.42112800  1
  Ca2+  Ca26  1  0.58648711  0.25965180  0.74942858  1
  Ca2+  Ca27  1  0.55685600  0.73732812  0.06336484  1
  Ca2+  Ca28  1  0.59199652  0.74835094  0.42850210  1
  Ca2+  Ca29  1  0.58934458  0.73673217  0.75958545  1
  Ca2+  Ca30  1  0.93953089  0.24674117  0.08495215  1
  Ca2+  Ca31  1  0.91954230  0.25769658  0.41525667  1
  Ca2+  Ca32  1  0.91167411  0.25730010  0.74957427  1
  Ca2+  Ca33  1  0.92319965  0.75877255  0.07930408  1
  Ca2+  Ca34  1  0.91645665  0.76016502  0.41408476  1
  Ca2+  Ca35  1  0.88447906  0.74061646  0.76174674  1
  Ca2+  Ca36  1  0.10375637  0.60816758  0.23648865  1
  Ca2+  Ca37  1  0.44110786  0.60348849  0.58074608  1
  Ca2+  Ca38  1  0.39924282  0.09720050  0.91386011  1
  Ca2+  Ca39  1  0.41554221  0.60329682  0.92181976  1
  Ca2+  Ca40  1  0.58360083  0.60568947  0.75066443  1
  Ca2+  Ca41  1  0.72386132  0.60178195  0.89985167  1
  Ca2+  Ca42  1  0.10278053  0.08969457  0.59020479  1
  Ca2+  Ca43  1  0.08223491  0.11215643  0.23564549  1
  Ca2+  Ca44  1  0.23792272  0.08777567  0.42358797  1
  Ca2+  Ca45  1  0.55267565  0.07925353  0.07708844  1
  Ca2+  Ca46  1  0.26161742  0.09959766  0.74989826  1
  Ca2+  Ca47  1  0.40714816  0.60056523  0.91751764  1
  Ca2+  Ca48  1  0.94007044  0.10662956  0.76379857  1
  Ca2+  Ca49  1  0.73193575  0.59870386  0.89471931  1
  Ca2+  Ca50  1  0.72939103  0.60275349  0.60411247  1
  Ca2+  Ca51  1  0.78588224  0.10064439  0.91027747  1
  Ca2+  Ca52  1  0.27224928  0.10168743  0.75168972  1
  Ca2+  Ca53  1  0.38971689  0.07630328  0.59351243  1
  Ca2+  Ca54  1  0.77327985  0.10002789  0.91210512  1
  Ca2+  Ca55  1  0.91312151  0.60263117  0.42627373  1
  Ca2+  Ca56  1  0.56393271  0.08235618  0.07351660  1
  Ca2+  Ca57  1  0.57956672  0.05938877  0.40595517  1
  Ca2+  Ca58  1  0.08778293  0.57238661  0.60909060  1
  Ca2+  Ca59  1  0.92584302  0.60195504  0.42558894  1
  Ca2+  Ca60  1  0.75863647  0.07275577  0.27120821  1
  Ca2+  Ca61  1  0.56907860  0.60680067  0.42873969  1
  Ca2+  Ca62  1  0.73673996  0.58836720  0.25447826  1
  Ca2+  Ca63  1  0.19116743  0.09374747  0.07654071  1
  Ca2+  Ca64  1  0.95714334  0.59656102  0.07246899  1
  Ca2+  Ca65  1  0.89904956  0.59544658  0.74588917  1
  Ca2+  Ca66  1  0.26958284  0.59952345  0.41011425  1
  Ca2+  Ca67  1  0.54618036  0.59650472  0.08796387  1
  Ca2+  Ca68  1  0.92987644  0.10480467  0.76023689  1
  Ca2+  Ca69  1  0.94667591  0.59630627  0.06847283  1
  Ca2+  Ca70  1  0.54562022  0.09141445  0.74571760  1
  Ca2+  Ca71  1  0.74811380  0.08009550  0.59507882  1
  Ca2+  Ca72  1  0.41425076  0.90680668  0.26122047  1
  Ca2+  Ca73  1  0.25553466  0.40342118  0.40720470  1
  Ca2+  Ca74  1  0.42538869  0.90710471  0.26120220  1
  Ca2+  Ca75  1  0.23872867  0.42469725  0.74759557  1
  Ca2+  Ca76  1  0.57676102  0.89993797  0.75266213  1
  Ca2+  Ca77  1  0.09846960  0.91644512  0.95309102  1
  Ca2+  Ca78  1  0.10394194  0.91282911  0.58523776  1
  Ca2+  Ca79  1  0.22712097  0.42123111  0.75135897  1
  Ca2+  Ca80  1  0.74443692  0.90554261  0.57682107  1
  Ca2+  Ca81  1  0.57522001  0.89974089  0.08713853  1
  Ca2+  Ca82  1  0.40148048  0.41168402  0.92583624  1
  Ca2+  Ca83  1  0.41142644  0.90997454  0.57882307  1
  Ca2+  Ca84  1  0.07864982  0.41057568  0.59316217  1
  Ca2+  Ca85  1  0.09117819  0.41461237  0.91918662  1
  Ca2+  Ca86  1  0.91686187  0.40803232  0.07729961  1
  Ca2+  Ca87  1  0.75941789  0.41162281  0.59262383  1
  Ca2+  Ca88  1  0.58116322  0.40753501  0.41507083  1
  Ca2+  Ca89  1  0.41183187  0.90379609  0.91549875  1
  Ca2+  Ca90  1  0.11586252  0.91032552  0.58313988  1
  Ca2+  Ca91  1  0.58314497  0.90891577  0.41353886  1
  Ca2+  Ca92  1  0.92896756  0.41621620  0.74290366  1
  Ca2+  Ca93  1  0.74326520  0.91083424  0.26469951  1
  Ca2+  Ca94  1  0.92553990  0.90052127  0.75940631  1
  Ca2+  Ca95  1  0.25546456  0.90862954  0.75158030  1
  Ca2+  Ca96  1  0.58161602  0.41114561  0.74933197  1
  Ca2+  Ca97  1  0.56975994  0.40887622  0.41543970  1
  Ca2+  Ca98  1  0.90306368  0.91318106  0.40393676  1
  Ca2+  Ca99  1  0.75110146  0.90042291  0.91269489  1
  Ca2+  Ca100  1  0.08678951  0.89952893  0.24150665  1
  Ca2+  Ca101  1  0.73720225  0.40733084  0.23368599  1
  Ca2+  Ca102  1  0.91493520  0.90087943  0.75964192  1
  Ca2+  Ca103  1  0.75763836  0.41654374  0.93909574  1
  Ca2+  Ca104  1  0.09792882  0.39758666  0.24496447  1
  Ca2+  Ca105  1  0.41256629  0.41007719  0.58926980  1
  Ca2+  Ca106  1  0.26161459  0.91105691  0.41482888  1
  Ca2+  Ca107  1  0.40650087  0.40404679  0.24421518  1
  Mn3.34+  Mn108  1  0.08530513  0.33615945  0.07933316  1
  Mn3.34+  Mn109  1  0.08277203  0.33260718  0.41774667  1
  Mn3.34+  Mn110  1  0.08217494  0.33433059  0.75713182  1
  Mn3.34+  Mn111  1  0.09014145  0.83453888  0.08830542  1
  Mn3.34+  Mn112  1  0.08176527  0.83386956  0.41571402  1
  Mn3.34+  Mn113  1  0.08661799  0.83078103  0.75721833  1
  Mn3.34+  Mn114  1  0.40889549  0.34024518  0.08297669  1
  Mn3.34+  Mn115  1  0.41393399  0.33092450  0.41762202  1
  Mn3.34+  Mn116  1  0.41591479  0.33875214  0.75561095  1
  Mn3.34+  Mn117  1  0.41014930  0.83346223  0.08477304  1
  Mn3.34+  Mn118  1  0.41767116  0.83299389  0.42353597  1
  Mn3.34+  Mn119  1  0.41713054  0.83199421  0.75032097  1
  Mn3.34+  Mn120  1  0.75463699  0.33705662  0.08319186  1
  Mn3.34+  Mn121  1  0.75548887  0.33606148  0.41566714  1
  Mn3.34+  Mn122  1  0.75223808  0.33642970  0.75360602  1
  Mn3.34+  Mn123  1  0.75145634  0.83194744  0.08357728  1
  Mn3.34+  Mn124  1  0.74961603  0.83504936  0.42076643  1
  Mn3.34+  Mn125  1  0.74710633  0.83461570  0.74859001  1
  Mn3.34+  Mn126  1  0.24986574  0.33145293  0.24285389  1
  Mn3.34+  Mn127  1  0.24835301  0.33457745  0.58029118  1
  Mn3.34+  Mn128  1  0.24703370  0.33312814  0.91603489  1
  Mn3.34+  Mn129  1  0.24908923  0.82657783  0.24683363  1
  Mn3.34+  Mn130  1  0.25851879  0.82873688  0.58460029  1
  Mn3.34+  Mn131  1  0.24963345  0.83262210  0.92079957  1
  Mn3.34+  Mn132  1  0.58140875  0.33610167  0.24404445  1
  Mn3.34+  Mn133  1  0.58512656  0.33559904  0.58486886  1
  Mn3.34+  Mn134  1  0.58103321  0.33621254  0.91829831  1
  Mn3.34+  Mn135  1  0.58676478  0.82748288  0.24924624  1
  Mn3.34+  Mn136  1  0.58125797  0.83266063  0.58482374  1
  Mn3.34+  Mn137  1  0.58190665  0.83354873  0.91863556  1
  Mn3.34+  Mn138  1  0.91697062  0.33273205  0.24861483  1
  Mn3.34+  Mn139  1  0.91857863  0.33320683  0.58034351  1
  Mn3.34+  Mn140  1  0.92165633  0.33378723  0.91400924  1
  Mn3.34+  Mn141  1  0.91662483  0.83211558  0.24348029  1
  Mn3.34+  Mn142  1  0.91751943  0.83214836  0.57894702  1
  Mn3.34+  Mn143  1  0.91825678  0.83090306  0.92507171  1
  Mn3.34+  Mn144  1  0.92278702  0.17115034  0.57757355  1
  Mn3.34+  Mn145  1  0.57344958  0.16258439  0.24589845  1
  Mn3.34+  Mn146  1  0.25453775  0.66513428  0.58372309  1
  Mn3.34+  Mn147  1  0.24939083  0.17149659  0.24507182  1
  Mn3.34+  Mn148  1  0.08916994  0.66994031  0.41975699  1
  Mn3.34+  Mn149  1  0.75590749  0.66462327  0.08640950  1
  Mn3.34+  Mn150  1  0.24374332  0.16824926  0.91743557  1
  Mn3.34+  Mn151  1  0.58423617  0.16789010  0.24889122  1
  Mn3.34+  Mn152  1  0.08939713  0.17573181  0.74908292  1
  Mn3.34+  Mn153  1  0.42219714  0.16008576  0.41450305  1
  Mn3.34+  Mn154  1  0.25827540  0.66720658  0.24647493  1
  Mn3.34+  Mn155  1  0.74300652  0.65791020  0.09046457  1
  Mn3.34+  Mn156  1  0.91958371  0.66834534  0.24622414  1
  Mn3.34+  Mn157  1  0.75046867  0.17627184  0.08453087  1
  Mn3.34+  Mn158  1  0.58926847  0.16655708  0.58470424  1
  Mn3.34+  Mn159  1  0.41105081  0.15580077  0.41539690  1
  Mn3.34+  Mn160  1  0.91762648  0.67230072  0.58146792  1
  Mn3.34+  Mn161  1  0.41409869  0.67439567  0.41355628  1
  Mn3.34+  Mn162  1  0.40064888  0.16490830  0.09137292  1
  Mn3.34+  Mn163  1  0.08148160  0.66473751  0.75162488  1
  Mn3.34+  Mn164  1  0.41323579  0.66708909  0.74958343  1
  Mn3.34+  Mn165  1  0.74823635  0.15937714  0.41984780  1
  Mn3.34+  Mn166  1  0.92004321  0.16956711  0.25061804  1
  Mn3.34+  Mn167  1  0.58171341  0.66623912  0.25276211  1
  Mn3.34+  Mn168  1  0.09046471  0.65893554  0.75351617  1
  Mn3.34+  Mn169  1  0.08047066  0.16556610  0.41977105  1
  Mn3.34+  Mn170  1  0.24986047  0.16971802  0.58021255  1
  Mn3.34+  Mn171  1  0.58348169  0.17070126  0.91212969  1
  Mn3.34+  Mn172  1  0.57177116  0.16695951  0.91034330  1
  Mn3.34+  Mn173  1  0.24437501  0.65959631  0.92340970  1
  Mn3.34+  Mn174  1  0.74841605  0.67089400  0.41959257  1
  Mn3.34+  Mn175  1  0.75346675  0.16680081  0.74398527  1
  Mn3.34+  Mn176  1  0.75961805  0.16988703  0.08791232  1
  Mn3.34+  Mn177  1  0.75950530  0.15498970  0.42155270  1
  Mn3.34+  Mn178  1  0.57553968  0.16075490  0.58244832  1
  Mn3.34+  Mn179  1  0.91743943  0.66808231  0.91427916  1
  Mn3.34+  Mn180  1  0.91537489  0.49845450  0.24553843  1
  Mn3.34+  Mn181  1  0.91466610  0.00304483  0.57099651  1
  Mn3.34+  Mn182  1  0.09549519  0.50498752  0.41335711  1
  Mn3.34+  Mn183  1  0.07709961  0.00221823  0.41287001  1
  Mn3.34+  Mn184  1  0.58221882  0.49971611  0.58946844  1
  Mn3.34+  Mn185  1  0.25190511  0.50067468  0.58203725  1
  Mn3.34+  Mn186  1  0.23880680  -0.00109512  0.23897200  1
  Mn3.34+  Mn187  1  0.76735218  0.00367734  0.08296048  1
  Mn3.34+  Mn188  1  0.91978409  0.49620714  0.58514967  1
  Mn3.34+  Mn189  1  0.57655307  -0.00145794  0.92091947  1
  Mn3.34+  Mn190  1  0.40610035  0.50001601  0.06668584  1
  Mn3.34+  Mn191  1  0.92065839  0.50174609  0.92059312  1
  Mn3.34+  Mn192  1  0.94096764  0.00166044  0.23053241  1
  Mn3.34+  Mn193  1  0.57612662  -0.00143165  0.58251163  1
  Mn3.34+  Mn194  1  0.75238993  -0.00130891  0.08401142  1
  Mn3.34+  Mn195  1  0.41149150  -0.00272192  0.75004718  1
  Mn3.34+  Mn196  1  0.41439475  0.50334638  0.40925450  1
  Mn3.34+  Mn197  1  0.74304081  0.50905143  0.41551803  1
  Mn3.34+  Mn198  1  0.39145428  -0.00303120  0.07471018  1
  Mn3.34+  Mn199  1  0.08282317  0.49765047  0.41535821  1
  Mn3.34+  Mn200  1  0.08703181  -0.00037180  0.75517497  1
  Mn3.34+  Mn201  1  0.92850314  -0.00323545  0.94125562  1
  Mn3.34+  Mn202  1  0.25033379  0.00134238  0.92764522  1
  Mn3.34+  Mn203  1  0.24963993  0.00334459  0.23829483  1
  Mn3.34+  Mn204  1  0.10071008  0.49505109  0.06668368  1
  Mn3.34+  Mn205  1  0.75601083  0.50179007  0.41633624  1
  Mn3.34+  Mn206  1  0.41389636  0.50220360  0.74791812  1
  Mn3.34+  Mn207  1  0.92525970  -0.00075561  0.22955927  1
  Mn3.34+  Mn208  1  0.92974422  0.50406025  0.24512535  1
  Mn3.34+  Mn209  1  0.58023000  -0.00232141  0.25369691  1
  Mn3.34+  Mn210  1  0.25449954  0.50256653  0.24898322  1
  Mn3.34+  Mn211  1  0.57264207  0.50225180  0.25104820  1
  Mn3.34+  Mn212  1  0.58653056  0.49647073  0.92939195  1
  Mn3.34+  Mn213  1  0.75146890  0.49370243  0.74838233  1
  Mn3.34+  Mn214  1  0.92636518  0.00769225  0.57356710  1
  Mn3.34+  Mn215  1  0.74278841  -0.00131304  0.74433429  1
  O2-  O216  1  -0.01198579  0.18093045  -0.00758449  1
  O2-  O217  1  0.00573985  0.17058528  0.33223712  1
  O2-  O218  1  0.01000077  0.16166750  0.65956888  1
  O2-  O219  1  -0.00331862  0.67220319  -0.00052457  1
  O2-  O220  1  0.00380685  0.64681405  0.32927429  1
  O2-  O221  1  0.00292875  0.66284903  0.66336841  1
  O2-  O222  1  0.32563263  0.15673889  0.00235106  1
  O2-  O223  1  0.33156237  0.16678783  0.32956330  1
  O2-  O224  1  0.33385175  0.15982772  0.65897160  1
  O2-  O225  1  0.33089401  0.66448717  -0.00582179  1
  O2-  O226  1  0.32826086  0.69200392  0.33459673  1
  O2-  O227  1  0.34238493  0.65232231  0.65421410  1
  O2-  O228  1  0.66139536  0.14134617  0.00631450  1
  O2-  O229  1  0.66636686  0.13701633  0.33556432  1
  O2-  O230  1  0.66094365  0.14073191  0.67277537  1
  O2-  O231  1  0.66303869  0.64049603  0.01207005  1
  O2-  O232  1  0.66577236  0.64471680  0.34395420  1
  O2-  O233  1  0.66105290  0.66625309  0.67368373  1
  O2-  O234  1  0.15931128  0.16240778  -0.01157100  1
  O2-  O235  1  0.17083983  0.17438384  0.33888214  1
  O2-  O236  1  0.17376556  0.15905263  0.66953176  1
  O2-  O237  1  0.16674286  0.67083846  -0.00172727  1
  O2-  O238  1  0.17342979  0.65586267  0.34322755  1
  O2-  O239  1  0.16719825  0.64662571  0.66567052  1
  O2-  O240  1  0.49168812  0.15456755  0.00151500  1
  O2-  O241  1  0.50321954  0.13155663  0.33834359  1
  O2-  O242  1  0.49355576  0.16018014  0.65937239  1
  O2-  O243  1  0.49139129  0.65326937  -0.00446878  1
  O2-  O244  1  0.49788948  0.66766044  0.33260821  1
  O2-  O245  1  0.49778899  0.66128983  0.67391895  1
  O2-  O246  1  0.82076099  0.17901513  -0.01453338  1
  O2-  O247  1  0.83426556  0.14921293  0.33144264  1
  O2-  O248  1  0.84428363  0.14299012  0.66349742  1
  O2-  O249  1  0.83425106  0.63935127  0.00314823  1
  O2-  O250  1  0.83442073  0.64799120  0.32961401  1
  O2-  O251  1  0.83627929  0.66809813  0.65742825  1
  O2-  O252  1  -0.00040286  0.35033865  -0.00091326  1
  O2-  O253  1  0.00711122  0.33693987  0.32813886  1
  O2-  O254  1  0.00224229  0.33740044  0.67049942  1
  O2-  O255  1  0.00962249  0.82623642  0.00035771  1
  O2-  O256  1  -0.00288106  0.85029646  0.33425193  1
  O2-  O257  1  0.00470417  0.85290763  0.66047296  1
  O2-  O258  1  0.33389854  0.33607216  -0.00587635  1
  O2-  O259  1  0.33245929  0.33155334  0.33016602  1
  O2-  O260  1  0.32832907  0.34945430  0.67304733  1
  O2-  O261  1  0.33243994  0.84870568  -0.00004673  1
  O2-  O262  1  0.33349059  0.83559383  0.33769002  1
  O2-  O263  1  0.33605423  0.85198630  0.66634380  1
  O2-  O264  1  0.67366370  0.34051646  -0.00033843  1
  O2-  O265  1  0.66312547  0.35077643  0.33684070  1
  O2-  O266  1  0.66914937  0.35377718  0.66770770  1
  O2-  O267  1  0.66547163  0.85162581  0.00127292  1
  O2-  O268  1  0.66388790  0.84846843  0.33753950  1
  O2-  O269  1  0.66658086  0.85397531  0.66634400  1
  O2-  O270  1  0.16330971  0.34603546  -0.00701977  1
  O2-  O271  1  0.17035089  0.32380028  0.33348166  1
  O2-  O272  1  0.16438655  0.34592407  0.66675510  1
  O2-  O273  1  0.16445725  0.82751502  0.00129119  1
  O2-  O274  1  0.16873413  0.84292891  0.33491043  1
  O2-  O275  1  0.17060348  0.84934826  0.67081629  1
  O2-  O276  1  0.49117663  0.33219189  -0.00160121  1
  O2-  O277  1  0.49556821  0.35175834  0.33263668  1
  O2-  O278  1  0.49554393  0.33859542  0.66751280  1
  O2-  O279  1  0.49606734  0.84868100  -0.00080775  1
  O2-  O280  1  0.49809933  0.84088672  0.33514871  1
  O2-  O281  1  0.49504041  0.85027535  0.66161534  1
  O2-  O282  1  0.83579078  0.32219345  -0.00264794  1
  O2-  O283  1  0.82538532  0.34765787  0.32182949  1
  O2-  O284  1  0.83791444  0.34970129  0.67042928  1
  O2-  O285  1  0.83314680  0.84854434  0.00069751  1
  O2-  O286  1  0.83167836  0.84479548  0.33111647  1
  O2-  O287  1  0.83982345  0.84492295  0.66797382  1
  O2-  O288  1  -0.00252934  0.18147188  0.17447124  1
  O2-  O289  1  -0.00109984  0.19411360  0.49677895  1
  O2-  O290  1  -0.00031081  0.18823284  0.81585620  1
  O2-  O291  1  -0.00189144  0.67517542  0.16423036  1
  O2-  O292  1  -0.00339975  0.68373762  0.49311710  1
  O2-  O293  1  -0.00414263  0.68550644  0.82767412  1
  O2-  O294  1  0.32818434  0.19979172  0.16544555  1
  O2-  O295  1  0.33211813  0.18317528  0.49557734  1
  O2-  O296  1  0.32978069  0.17516843  0.83378316  1
  O2-  O297  1  0.32956545  0.68535191  0.17354783  1
  O2-  O298  1  0.32806378  0.68274870  0.49488971  1
  O2-  O299  1  0.33510614  0.67629200  0.83561389  1
  O2-  O300  1  0.66242980  0.19314872  0.15935756  1
  O2-  O301  1  0.66169606  0.18113718  0.49892372  1
  O2-  O302  1  0.68251432  0.17430707  0.84538905  1
  O2-  O303  1  0.67931493  0.68009135  0.18131204  1
  O2-  O304  1  0.67358447  0.67629838  0.49937877  1
  O2-  O305  1  0.66385135  0.67134230  0.83862794  1
  O2-  O306  1  0.16683258  0.18365396  0.17233123  1
  O2-  O307  1  0.16364945  0.18555430  0.50277356  1
  O2-  O308  1  0.17568463  0.18226357  0.82325959  1
  O2-  O309  1  0.17090425  0.68850122  0.18545062  1
  O2-  O310  1  0.16661820  0.68171736  0.50323126  1
  O2-  O311  1  0.16602294  0.67714101  0.83441704  1
  O2-  O312  1  0.49742013  0.19025025  0.15610240  1
  O2-  O313  1  0.49936278  0.18771945  0.50040989  1
  O2-  O314  1  0.50327108  0.18884924  0.82167339  1
  O2-  O315  1  0.51558519  0.67844899  0.16671068  1
  O2-  O316  1  0.49434185  0.68248297  0.49249484  1
  O2-  O317  1  0.48943994  0.67472130  0.83240773  1
  O2-  O318  1  0.83336866  0.19025122  0.17219438  1
  O2-  O319  1  0.82531140  0.18166614  0.51124689  1
  O2-  O320  1  0.84006124  0.17478582  0.82272490  1
  O2-  O321  1  0.83689914  0.68617178  0.16285311  1
  O2-  O322  1  0.84408650  0.68519119  0.48855437  1
  O2-  O323  1  0.82921435  0.66668726  0.84205017  1
  O2-  O324  1  0.00069044  0.32500955  0.16565173  1
  O2-  O325  1  0.00377191  0.31570297  0.50210659  1
  O2-  O326  1  0.00408777  0.31083658  0.83649510  1
  O2-  O327  1  0.00775739  0.81376302  0.16670979  1
  O2-  O328  1  0.00309361  0.81422749  0.50421825  1
  O2-  O329  1  -0.01268193  0.81999774  0.82210055  1
  O2-  O330  1  0.33223346  0.31691424  0.16555355  1
  O2-  O331  1  0.33518289  0.31869108  0.50207851  1
  O2-  O332  1  0.33378720  0.31521671  0.83088814  1
  O2-  O333  1  0.34492159  0.82033362  0.18185818  1
  O2-  O334  1  0.33744338  0.81104724  0.50143707  1
  O2-  O335  1  0.33126843  0.83304426  0.83028258  1
  O2-  O336  1  0.67512037  0.31869654  0.16809447  1
  O2-  O337  1  0.66513251  0.32305448  0.49679174  1
  O2-  O338  1  0.66361466  0.32308829  0.82997711  1
  O2-  O339  1  0.66843520  0.82330770  0.17108419  1
  O2-  O340  1  0.66869172  0.82229739  0.50499392  1
  O2-  O341  1  0.66634389  0.83006590  0.83142156  1
  O2-  O342  1  0.16231884  0.32040145  0.16850891  1
  O2-  O343  1  0.16678605  0.31366519  0.49834241  1
  O2-  O344  1  0.17049105  0.31366568  0.82602047  1
  O2-  O345  1  0.16688007  0.80848317  0.16773591  1
  O2-  O346  1  0.16528706  0.82304475  0.50501771  1
  O2-  O347  1  0.16646577  0.82455652  0.83585677  1
  O2-  O348  1  0.49078194  0.32185917  0.16885990  1
  O2-  O349  1  0.50408763  0.32398653  0.49605775  1
  O2-  O350  1  0.49914325  0.31570315  0.83111026  1
  O2-  O351  1  0.50316515  0.82116001  0.16788680  1
  O2-  O352  1  0.50263011  0.81554537  0.49738707  1
  O2-  O353  1  0.49976319  0.82089687  0.83123939  1
  O2-  O354  1  0.83764265  0.31483382  0.15900451  1
  O2-  O355  1  0.83253343  0.32052623  0.50143955  1
  O2-  O356  1  0.83783130  0.31607727  0.83324814  1
  O2-  O357  1  0.83348847  0.81317368  0.16722814  1
  O2-  O358  1  0.83263976  0.81526775  0.50284639  1
  O2-  O359  1  0.83296827  0.82727884  0.83078466  1
  O2-  O360  1  0.08625073  0.04684925  0.14547661  1
  O2-  O361  1  0.09834177  0.08020496  0.45407588  1
  O2-  O362  1  0.07801426  0.08274870  0.76729072  1
  O2-  O363  1  0.06756427  0.55664956  0.13108069  1
  O2-  O364  1  0.06776447  0.58135254  0.45858911  1
  O2-  O365  1  0.06044083  0.58029812  0.75813692  1
  O2-  O366  1  0.42505130  0.07862962  0.11911159  1
  O2-  O367  1  0.41000365  0.07708368  0.45475314  1
  O2-  O368  1  0.40776175  0.07678101  0.78142610  1
  O2-  O369  1  0.40984436  0.56338876  0.11991508  1
  O2-  O370  1  0.41311076  0.58294341  0.44077469  1
  O2-  O371  1  0.42347941  0.58139408  0.77807937  1
  O2-  O372  1  0.76015543  0.08339829  0.12802199  1
  O2-  O373  1  0.74875084  0.07475256  0.45509388  1
  O2-  O374  1  0.76154347  0.07949834  0.78194155  1
  O2-  O375  1  0.76096008  0.57956882  0.12166911  1
  O2-  O376  1  0.77459459  0.58432039  0.46180444  1
  O2-  O377  1  0.75450287  0.57391536  0.76437698  1
  O2-  O378  1  0.24538326  0.08570466  0.21847773  1
  O2-  O379  1  0.24808333  0.08681016  0.56099071  1
  O2-  O380  1  0.24922445  0.08030898  0.88542000  1
  O2-  O381  1  0.24742903  0.58501582  0.23548417  1
  O2-  O382  1  0.24444559  0.57846586  0.54555155  1
  O2-  O383  1  0.27020770  0.58418004  0.90095260  1
  O2-  O384  1  0.59689304  0.07619344  0.20510899  1
  O2-  O385  1  0.58568250  0.07978145  0.54150464  1
  O2-  O386  1  0.56532202  0.08214188  0.88275953  1
  O2-  O387  1  0.59201728  0.58309974  0.22163626  1
  O2-  O388  1  0.58773337  0.57597461  0.55825876  1
  O2-  O389  1  0.58461000  0.56660110  0.87662783  1
  O2-  O390  1  0.91698156  0.08372588  0.22471863  1
  O2-  O391  1  0.93688480  0.08795752  0.54735879  1
  O2-  O392  1  0.91056139  0.07016252  0.88437661  1
  O2-  O393  1  0.91199894  0.58295654  0.20487729  1
  O2-  O394  1  0.92414990  0.57832373  0.55838268  1
  O2-  O395  1  0.92427152  0.58155098  0.89092699  1
  O2-  O396  1  0.07719889  0.42414995  0.11452283  1
  O2-  O397  1  0.10589705  0.41982008  0.44813281  1
  O2-  O398  1  0.09404329  0.42019906  0.78270109  1
  O2-  O399  1  0.09085166  0.91064705  0.10322363  1
  O2-  O400  1  0.07851180  0.91945226  0.45276459  1
  O2-  O401  1  0.06450571  0.91981992  0.78479814  1
  O2-  O402  1  0.40890251  0.42991711  0.11331116  1
  O2-  O403  1  0.42229676  0.42342682  0.44807135  1
  O2-  O404  1  0.41190778  0.42508389  0.79034290  1
  O2-  O405  1  0.41866345  0.92024752  0.12699591  1
  O2-  O406  1  0.41096863  0.91315119  0.44032302  1
  O2-  O407  1  0.42623203  0.91837272  0.77618521  1
  O2-  O408  1  0.77162570  0.41635307  0.09788393  1
  O2-  O409  1  0.72960037  0.42580361  0.45754344  1
  O2-  O410  1  0.75700022  0.41799347  0.79255384  1
  O2-  O411  1  0.74826887  0.92203991  0.12459895  1
  O2-  O412  1  0.75592171  0.91599413  0.44178253  1
  O2-  O413  1  0.77755265  0.92064778  0.77604982  1
  O2-  O414  1  0.25485505  0.41948812  0.23759810  1
  O2-  O415  1  0.25474436  0.41957497  0.54602880  1
  O2-  O416  1  0.25336935  0.41326299  0.88180358  1
  O2-  O417  1  0.24183778  0.91564242  0.22178043  1
  O2-  O418  1  0.25070230  0.91461608  0.55331375  1
  O2-  O419  1  0.23744683  0.92344488  0.89227519  1
  O2-  O420  1  0.58461984  0.41901680  0.22361216  1
  O2-  O421  1  0.57725299  0.42173273  0.54962253  1
  O2-  O422  1  0.57202400  0.41940069  0.89015426  1
  O2-  O423  1  0.57381312  0.91674069  0.22553664  1
  O2-  O424  1  0.57444250  0.91858777  0.55009178  1
  O2-  O425  1  0.58816165  0.91954775  0.88718963  1
  O2-  O426  1  0.91330925  0.41777160  0.21924965  1
  O2-  O427  1  0.92115447  0.41652863  0.55555609  1
  O2-  O428  1  0.92095508  0.42321433  0.88401233  1
  O2-  O429  1  0.93233330  0.91716589  0.20828301  1
  O2-  O430  1  0.91513446  0.92132966  0.54439410  1
  O2-  O431  1  0.91933485  0.92035615  0.89431472  1
  O2-  O432  1  0.02327412  -0.00397929  -0.01483819  1
  O2-  O433  1  -0.00524616  -0.01049089  0.32986176  1
  O2-  O434  1  -0.02293501  -0.00287830  0.68640885  1
  O2-  O435  1  -0.00304516  0.50127585  0.01312844  1
  O2-  O436  1  -0.01155400  0.51182087  0.34729185  1
  O2-  O437  1  0.00489183  0.49075386  0.65045383  1
  O2-  O438  1  0.36258716  0.00088344  -0.04759911  1
  O2-  O439  1  0.34002878  -0.01591488  0.31065379  1
  O2-  O440  1  0.31191409  0.00908152  0.69472121  1
  O2-  O441  1  0.35167901  0.50281346  -0.02329059  1
  O2-  O442  1  0.31053899  0.49710052  0.35807074  1
  O2-  O443  1  0.32699107  0.48154244  0.67294614  1
  O2-  O444  1  0.66509703  0.02401610  0.00930078  1
  O2-  O445  1  0.66545496  0.00205547  0.32171434  1
  O2-  O446  1  0.66341940  0.00058560  0.65702644  1
  O2-  O447  1  0.69656474  0.50486245  -0.05132307  1
  O2-  O448  1  0.68240353  0.49644161  0.31504711  1
  O2-  O449  1  0.66801599  0.48962298  0.66680693  1
  O2-  O450  1  0.18320078  0.00333201  0.00783599  1
  O2-  O451  1  0.17805553  0.00178347  0.34439754  1
  O2-  O452  1  0.14440161  -0.00727070  0.65438507  1
  O2-  O453  1  0.16256413  0.49042171  -0.01492498  1
  O2-  O454  1  0.14629813  0.49735722  0.30839561  1
  O2-  O455  1  0.16536283  0.48600816  0.65187201  1
  O2-  O456  1  0.51339792  -0.00417834  0.02723781  1
  O2-  O457  1  0.50606004  -0.01548424  0.33620527  1
  O2-  O458  1  0.48674564  0.01254075  0.66083333  1
  O2-  O459  1  0.50431425  0.50732885  0.01005820  1
  O2-  O460  1  0.52550818  0.49810702  0.36747125  1
  O2-  O461  1  0.49404684  0.48763224  0.66282947  1
  O2-  O462  1  0.81466542  0.00230882  -0.02812564  1
  O2-  O463  1  0.83011942  -0.01045398  0.29647077  1
  O2-  O464  1  0.82365165  0.00571639  0.64847820  1
  O2-  O465  1  0.84388282  0.50046192  -0.00693574  1
  O2-  O466  1  0.83776285  0.51842600  0.33257277  1
  O2-  O467  1  0.83998019  0.49366800  0.67009011  1
  O2-  O468  1  0.43282728  0.24139073  0.38856520  1
  O2-  O469  1  0.08341541  0.75114070  0.38809151  1
  O2-  O470  1  0.08144626  0.25708916  0.06206353  1
  O2-  O471  1  0.41465306  0.75597133  0.06311329  1
  O2-  O472  1  0.58693347  0.75566149  0.93291111  1
  O2-  O473  1  0.25581734  0.25289831  0.61060318  1
  O2-  O474  1  0.58272949  0.75668881  0.61241598  1
  O2-  O475  1  0.40546677  0.75142112  0.72786575  1
  O2-  O476  1  0.24426099  0.74807477  0.61573676  1
  O2-  O477  1  0.59544264  0.74895765  0.28163854  1
  O2-  O478  1  0.74461682  0.24124986  0.39098881  1
  O2-  O479  1  0.57927132  0.25149756  0.28410851  1
  O2-  O480  1  0.25108311  0.24993052  0.93882305  1
  O2-  O481  1  0.74336490  0.25122683  0.72333267  1
  O2-  O482  1  0.59788315  0.25023693  0.94728732  1
  O2-  O483  1  0.90845461  0.25178733  0.27830150  1
  O2-  O484  1  0.90602014  0.24992854  0.61106405  1
  O2-  O485  1  0.25786227  0.75257920  0.92318320  1
  O2-  O486  1  0.89422793  0.74878571  0.93551308  1
  O2-  O487  1  0.09684828  0.74542798  0.72545541  1
  O2-  O488  1  0.74437988  0.75621597  0.73762512  1
  O2-  O489  1  0.74319172  0.74165837  0.04801540  1
  O2-  O490  1  0.59490758  0.24913907  0.61024245  1
  O2-  O491  1  0.74504258  0.75017925  0.38908202  1
  O2-  O492  1  0.92075644  0.74813496  0.27783565  1
