# generated using pymatgen
data_Ca108Mn108O277
_symmetry_space_group_name_H-M   'P 1'
_cell_length_a   16.01664333
_cell_length_b   22.29032231
_cell_length_c   16.37990295
_cell_angle_alpha   89.99622797
_cell_angle_beta   90.00162424
_cell_angle_gamma   90.00271224
_symmetry_Int_Tables_number   1
_chemical_formula_structural   Ca108Mn108O277
_chemical_formula_sum   'Ca108 Mn108 O277'
_cell_volume   5847.88973811
_cell_formula_units_Z   1
loop_
 _symmetry_equiv_pos_site_id
 _symmetry_equiv_pos_as_xyz
  1  'x, y, z'
loop_
 _atom_type_symbol
 _atom_type_oxidation_number
  Ca2+  2.0
  Mn3.34+  3.34
  O2-  -2.0
loop_
 _atom_site_type_symbol
 _atom_site_label
 _atom_site_symmetry_multiplicity
 _atom_site_fract_x
 _atom_site_fract_y
 _atom_site_fract_z
 _atom_site_occupancy
  Ca2+  Ca0  1  0.09110728  0.24445359  0.25879563  1
  Ca2+  Ca1  1  0.10358464  0.24575420  0.58023424  1
  Ca2+  Ca2  1  0.08684168  0.25543984  0.90501522  1
  Ca2+  Ca3  1  0.09314820  0.75240875  0.24449849  1
  Ca2+  Ca4  1  0.06133789  0.75105769  0.58995476  1
  Ca2+  Ca5  1  0.07300167  0.75371628  0.91350172  1
  Ca2+  Ca6  1  0.40317561  0.25270026  0.24815640  1
  Ca2+  Ca7  1  0.40932637  0.23791712  0.60107286  1
  Ca2+  Ca8  1  0.41339062  0.24521654  0.88187002  1
  Ca2+  Ca9  1  0.40911558  0.74784476  0.24040566  1
  Ca2+  Ca10  1  0.41496234  0.76436063  0.60594069  1
  Ca2+  Ca11  1  0.42887285  0.75846343  0.90693331  1
  Ca2+  Ca12  1  0.76406256  0.24521016  0.24793486  1
  Ca2+  Ca13  1  0.73309009  0.24996425  0.58965816  1
  Ca2+  Ca14  1  0.74548584  0.25386787  0.91387088  1
  Ca2+  Ca15  1  0.75014418  0.75121079  0.23607534  1
  Ca2+  Ca16  1  0.76595634  0.75510121  0.58483098  1
  Ca2+  Ca17  1  0.74439836  0.74316181  0.93418325  1
  Ca2+  Ca18  1  0.23996855  0.25614794  0.09224182  1
  Ca2+  Ca19  1  0.22995280  0.24913879  0.41386200  1
  Ca2+  Ca20  1  0.26185682  0.24490078  0.73663884  1
  Ca2+  Ca21  1  0.25974512  0.73795060  0.10841003  1
  Ca2+  Ca22  1  0.25818557  0.76424813  0.40428956  1
  Ca2+  Ca23  1  0.27065699  0.75956983  0.75040295  1
  Ca2+  Ca24  1  0.58917611  0.25762866  0.08054713  1
  Ca2+  Ca25  1  0.58573254  0.25746506  0.42257237  1
  Ca2+  Ca26  1  0.56562913  0.22961485  0.73459324  1
  Ca2+  Ca27  1  0.59772630  0.73657161  0.07651245  1
  Ca2+  Ca28  1  0.59045315  0.75971724  0.40674108  1
  Ca2+  Ca29  1  0.56134990  0.74906622  0.76638302  1
  Ca2+  Ca30  1  0.92398930  0.25203577  0.10091934  1
  Ca2+  Ca31  1  0.93564947  0.24249077  0.40437860  1
  Ca2+  Ca32  1  0.92682668  0.25107693  0.75617576  1
  Ca2+  Ca33  1  0.89343648  0.74638053  0.08182605  1
  Ca2+  Ca34  1  0.90136374  0.74555084  0.42774503  1
  Ca2+  Ca35  1  0.91074361  0.74576780  0.74076937  1
  Ca2+  Ca36  1  0.07539453  0.58745415  0.92087703  1
  Ca2+  Ca37  1  0.09656694  0.10632592  0.57683134  1
  Ca2+  Ca38  1  0.06274523  0.10447885  0.27142115  1
  Ca2+  Ca39  1  0.44203094  0.09003945  0.59853299  1
  Ca2+  Ca40  1  0.74109645  0.09367273  0.90624155  1
  Ca2+  Ca41  1  0.26775006  0.09641353  0.72861747  1
  Ca2+  Ca42  1  0.91187200  0.59169059  0.08004960  1
  Ca2+  Ca43  1  0.42721405  0.59925057  0.91540461  1
  Ca2+  Ca44  1  0.41144465  0.09558008  0.25248057  1
  Ca2+  Ca45  1  0.25229200  0.59591343  0.75227800  1
  Ca2+  Ca46  1  0.91716736  0.58995560  0.74521405  1
  Ca2+  Ca47  1  0.09109228  0.09407641  0.91052064  1
  Ca2+  Ca48  1  0.59778931  0.09538341  0.07343072  1
  Ca2+  Ca49  1  0.23037746  0.10630603  0.43520709  1
  Ca2+  Ca50  1  0.90191031  0.59398902  0.08293794  1
  Ca2+  Ca51  1  0.43833949  0.60009572  0.91280929  1
  Ca2+  Ca52  1  0.27793896  0.09495087  0.72918903  1
  Ca2+  Ca53  1  0.07886936  0.59072285  0.24604518  1
  Ca2+  Ca54  1  0.57553770  0.57819822  0.39971665  1
  Ca2+  Ca55  1  0.24788030  0.09919098  0.08968052  1
  Ca2+  Ca56  1  0.71176460  0.08764320  0.60145590  1
  Ca2+  Ca57  1  0.91484471  0.09251015  0.73747947  1
  Ca2+  Ca58  1  0.91580539  0.58598791  0.41400477  1
  Ca2+  Ca59  1  0.74584966  0.59665993  0.24191371  1
  Ca2+  Ca60  1  0.78258189  0.59199030  0.58640192  1
  Ca2+  Ca61  1  0.04980658  0.59260319  0.58837810  1
  Ca2+  Ca62  1  0.75502299  0.59288010  0.24543518  1
  Ca2+  Ca63  1  0.24656589  0.58520404  0.39629838  1
  Ca2+  Ca64  1  0.40735836  0.59691340  0.24066470  1
  Ca2+  Ca65  1  0.90367627  0.09166878  0.73590405  1
  Ca2+  Ca66  1  0.72909190  0.09214956  0.90328943  1
  Ca2+  Ca67  1  0.58850956  0.57819595  0.40036068  1
  Ca2+  Ca68  1  0.08757500  0.59734036  0.24386462  1
  Ca2+  Ca69  1  0.22311261  0.11137153  0.43797070  1
  Ca2+  Ca70  1  0.58820261  0.08971912  0.43862206  1
  Ca2+  Ca71  1  0.58573635  0.09281940  0.07104827  1
  Ca2+  Ca72  1  0.58498461  0.90434341  0.07061751  1
  Ca2+  Ca73  1  0.25302026  0.40482017  0.07245545  1
  Ca2+  Ca74  1  0.73291136  0.90678198  0.90867232  1
  Ca2+  Ca75  1  0.08849866  0.40553342  0.91532991  1
  Ca2+  Ca76  1  0.92115417  0.89767185  0.08611394  1
  Ca2+  Ca77  1  0.90479394  0.90788766  0.41920989  1
  Ca2+  Ca78  1  0.10599418  0.91632463  0.58493629  1
  Ca2+  Ca79  1  0.43401918  0.90741061  0.25869428  1
  Ca2+  Ca80  1  0.41916361  0.39698403  0.57069150  1
  Ca2+  Ca81  1  0.05371471  0.41871413  0.27316688  1
  Ca2+  Ca82  1  0.91616239  0.40989247  0.08493726  1
  Ca2+  Ca83  1  0.91766106  0.90805087  0.41843485  1
  Ca2+  Ca84  1  0.74848885  0.90435948  0.25677336  1
  Ca2+  Ca85  1  0.76352773  0.41095223  0.26166894  1
  Ca2+  Ca86  1  0.09430837  0.91313761  0.58910123  1
  Ca2+  Ca87  1  0.42376295  0.90444815  0.26471320  1
  Ca2+  Ca88  1  0.58117810  0.40839218  0.07510583  1
  Ca2+  Ca89  1  0.89787354  0.40916905  0.73941006  1
  Ca2+  Ca90  1  0.24585940  0.90308836  0.07367454  1
  Ca2+  Ca91  1  0.74875928  0.40795601  0.91605562  1
  Ca2+  Ca92  1  0.90610690  0.91104016  0.74328385  1
  Ca2+  Ca93  1  0.43268462  0.41074199  0.26460636  1
  Ca2+  Ca94  1  0.05933907  0.41648283  0.26413643  1
  Ca2+  Ca95  1  0.07425602  0.90443528  0.25165064  1
  Ca2+  Ca96  1  0.60619854  0.40177347  0.75332335  1
  Ca2+  Ca97  1  0.77444602  0.41145121  0.26422153  1
  Ca2+  Ca98  1  0.58373768  0.92541663  0.74632869  1
  Ca2+  Ca99  1  0.24701219  0.39533362  0.75574769  1
  Ca2+  Ca100  1  0.89401076  0.91148337  0.74202962  1
  Ca2+  Ca101  1  0.59477474  0.40169209  0.75266972  1
  Ca2+  Ca102  1  0.08872579  0.90114603  0.91218117  1
  Ca2+  Ca103  1  0.24510653  0.39962858  0.41712522  1
  Ca2+  Ca104  1  0.23339524  0.90211603  0.07406437  1
  Ca2+  Ca105  1  0.58872799  0.91132469  0.43081499  1
  Ca2+  Ca106  1  0.42124585  0.41075615  0.26460811  1
  Ca2+  Ca107  1  0.91035347  0.40902453  0.73996991  1
  Mn3.34+  Mn108  1  0.08277814  0.33809949  0.08434750  1
  Mn3.34+  Mn109  1  0.07542677  0.34383140  0.42999802  1
  Mn3.34+  Mn110  1  0.08333050  0.33302575  0.74542742  1
  Mn3.34+  Mn111  1  0.08040465  0.82552946  0.08278370  1
  Mn3.34+  Mn112  1  0.08583782  0.83269396  0.41822307  1
  Mn3.34+  Mn113  1  0.08687139  0.83336279  0.75153160  1
  Mn3.34+  Mn114  1  0.41658727  0.33607203  0.08266937  1
  Mn3.34+  Mn115  1  0.41599482  0.33716539  0.42110112  1
  Mn3.34+  Mn116  1  0.41777481  0.33228882  0.74826559  1
  Mn3.34+  Mn117  1  0.41995376  0.82986996  0.07882759  1
  Mn3.34+  Mn118  1  0.41945227  0.83382230  0.42747600  1
  Mn3.34+  Mn119  1  0.41680720  0.84114832  0.75024662  1
  Mn3.34+  Mn120  1  0.75109356  0.33459381  0.08451398  1
  Mn3.34+  Mn121  1  0.75574254  0.33405207  0.42619523  1
  Mn3.34+  Mn122  1  0.75270664  0.32877574  0.74846051  1
  Mn3.34+  Mn123  1  0.74916581  0.83132516  0.08186957  1
  Mn3.34+  Mn124  1  0.74512901  0.83202197  0.42101836  1
  Mn3.34+  Mn125  1  0.74146556  0.83422318  0.74963389  1
  Mn3.34+  Mn126  1  0.24685746  0.32847329  0.24979287  1
  Mn3.34+  Mn127  1  0.24961481  0.32762895  0.58154495  1
  Mn3.34+  Mn128  1  0.25323694  0.33055541  0.91555016  1
  Mn3.34+  Mn129  1  0.25012154  0.83011055  0.25089883  1
  Mn3.34+  Mn130  1  0.25657299  0.83942151  0.58157048  1
  Mn3.34+  Mn131  1  0.25539334  0.83432771  0.90934631  1
  Mn3.34+  Mn132  1  0.58747249  0.32848550  0.25083059  1
  Mn3.34+  Mn133  1  0.58336260  0.32790266  0.57916028  1
  Mn3.34+  Mn134  1  0.57923611  0.33055485  0.91645913  1
  Mn3.34+  Mn135  1  0.58595094  0.83251105  0.24704801  1
  Mn3.34+  Mn136  1  0.58492842  0.84253776  0.58632593  1
  Mn3.34+  Mn137  1  0.58106594  0.83996546  0.91128493  1
  Mn3.34+  Mn138  1  0.91817187  0.32759707  0.25218653  1
  Mn3.34+  Mn139  1  0.91681408  0.32873823  0.57381293  1
  Mn3.34+  Mn140  1  0.91683043  0.33385533  0.91659246  1
  Mn3.34+  Mn141  1  0.91570061  0.83151104  0.24896085  1
  Mn3.34+  Mn142  1  0.91466238  0.83173712  0.58175176  1
  Mn3.34+  Mn143  1  0.91366929  0.82912568  0.91416647  1
  Mn3.34+  Mn144  1  0.41103701  0.65931565  0.41824741  1
  Mn3.34+  Mn145  1  0.76341021  0.16189403  0.41905128  1
  Mn3.34+  Mn146  1  0.59029168  0.16721546  0.24607193  1
  Mn3.34+  Mn147  1  0.58397487  0.66966073  0.58334082  1
  Mn3.34+  Mn148  1  0.75107588  0.16718770  0.41873344  1
  Mn3.34+  Mn149  1  0.91677007  0.66689240  0.91640890  1
  Mn3.34+  Mn150  1  0.08195006  0.67104550  0.08429837  1
  Mn3.34+  Mn151  1  0.42196066  0.66787375  0.41637127  1
  Mn3.34+  Mn152  1  0.91946739  0.17099470  0.57878918  1
  Mn3.34+  Mn153  1  0.42650997  0.16934382  0.42094350  1
  Mn3.34+  Mn154  1  0.07858543  0.67063501  0.41994325  1
  Mn3.34+  Mn155  1  0.41909692  0.17818729  0.07902550  1
  Mn3.34+  Mn156  1  0.75055781  0.66636040  0.42149644  1
  Mn3.34+  Mn157  1  0.07356555  0.16173793  0.08503193  1
  Mn3.34+  Mn158  1  0.40852975  0.17735965  0.07298304  1
  Mn3.34+  Mn159  1  0.74286105  0.65775314  0.75789640  1
  Mn3.34+  Mn160  1  0.25310966  0.66969187  0.91941698  1
  Mn3.34+  Mn161  1  0.91429301  0.17098612  0.91496370  1
  Mn3.34+  Mn162  1  0.75564386  0.17135707  0.08249151  1
  Mn3.34+  Mn163  1  0.58591378  0.66845470  0.24270793  1
  Mn3.34+  Mn164  1  0.08751932  0.66458716  0.42136931  1
  Mn3.34+  Mn165  1  0.57616341  0.16785666  0.90553054  1
  Mn3.34+  Mn166  1  0.41151539  0.17134008  0.41513602  1
  Mn3.34+  Mn167  1  0.74644050  0.16717180  0.74672582  1
  Mn3.34+  Mn168  1  0.24962501  0.16634292  0.90818218  1
  Mn3.34+  Mn169  1  0.58825342  0.66832912  0.92104649  1
  Mn3.34+  Mn170  1  0.08353564  0.16670025  0.08399515  1
  Mn3.34+  Mn171  1  0.08375702  0.16677335  0.75181833  1
  Mn3.34+  Mn172  1  0.07867373  0.66619711  0.75330749  1
  Mn3.34+  Mn173  1  0.25717802  0.66417347  0.58721486  1
  Mn3.34+  Mn174  1  0.91370874  0.66858135  0.24766267  1
  Mn3.34+  Mn175  1  0.41958402  0.66513414  0.08902298  1
  Mn3.34+  Mn176  1  0.75172440  0.66355103  0.75572782  1
  Mn3.34+  Mn177  1  0.24219675  0.66544004  0.91980998  1
  Mn3.34+  Mn178  1  0.24459436  0.67131742  0.58740185  1
  Mn3.34+  Mn179  1  0.57436710  0.66990440  0.58986290  1
  Mn3.34+  Mn180  1  0.24068322  0.49569253  0.57850677  1
  Mn3.34+  Mn181  1  0.58650982  0.50044902  0.58393525  1
  Mn3.34+  Mn182  1  0.08426367  0.50050608  0.75060867  1
  Mn3.34+  Mn183  1  0.25343375  0.00419629  0.25277167  1
  Mn3.34+  Mn184  1  0.59812205  0.49314448  0.58494207  1
  Mn3.34+  Mn185  1  0.75985941  -0.00037257  0.09341552  1
  Mn3.34+  Mn186  1  0.58756455  0.50168618  0.91835388  1
  Mn3.34+  Mn187  1  0.41785386  0.50270819  0.07482510  1
  Mn3.34+  Mn188  1  0.23806523  -0.00005274  0.24970258  1
  Mn3.34+  Mn189  1  0.74899304  0.00338857  0.09119415  1
  Mn3.34+  Mn190  1  0.42343298  -0.00192082  0.07328309  1
  Mn3.34+  Mn191  1  0.08892110  0.50187500  0.07668791  1
  Mn3.34+  Mn192  1  0.08304636  -0.00033650  0.08576185  1
  Mn3.34+  Mn193  1  0.25181489  0.49762831  0.91877941  1
  Mn3.34+  Mn194  1  0.74949926  -0.00103203  0.41769428  1
  Mn3.34+  Mn195  1  0.41307147  0.00273376  0.07605078  1
  Mn3.34+  Mn196  1  0.41871135  -0.00212266  0.42066138  1
  Mn3.34+  Mn197  1  0.42517545  0.50337606  0.74984507  1
  Mn3.34+  Mn198  1  0.58933686  0.00421063  0.25635420  1
  Mn3.34+  Mn199  1  0.91146978  0.50215430  0.91832552  1
  Mn3.34+  Mn200  1  0.41249502  0.49623117  0.75036164  1
  Mn3.34+  Mn201  1  0.91332817  0.00339283  0.25649140  1
  Mn3.34+  Mn202  1  0.58219642  0.50012143  0.24353693  1
  Mn3.34+  Mn203  1  0.75671957  0.49981365  0.41358045  1
  Mn3.34+  Mn204  1  0.91470731  0.49453094  0.59232888  1
  Mn3.34+  Mn205  1  0.92560500  0.00275530  0.91480205  1
  Mn3.34+  Mn206  1  0.25802261  0.49822413  0.24132661  1
  Mn3.34+  Mn207  1  0.25108359  0.50108067  0.57723298  1
  Mn3.34+  Mn208  1  0.41500227  -0.00366543  0.72892784  1
  Mn3.34+  Mn209  1  0.91502010  -0.00270466  0.91464582  1
  Mn3.34+  Mn210  1  0.09013538  0.00065116  0.74456514  1
  Mn3.34+  Mn211  1  0.07583368  0.00227413  0.41519072  1
  Mn3.34+  Mn212  1  0.24891997  -0.00060816  0.91325063  1
  Mn3.34+  Mn213  1  0.90535187  0.00284356  0.58559048  1
  Mn3.34+  Mn214  1  0.74141629  0.50163941  0.07412886  1
  Mn3.34+  Mn215  1  0.24371739  0.50218780  0.24765090  1
  O2-  O216  1  0.00334796  0.15611358  -0.00485112  1
  O2-  O217  1  0.02010593  0.18149962  0.33810996  1
  O2-  O218  1  -0.00149398  0.16055259  0.66957736  1
  O2-  O219  1  0.00197434  0.65944699  -0.00029448  1
  O2-  O220  1  0.00129857  0.65935429  0.33031157  1
  O2-  O221  1  0.00056831  0.66816839  0.67410066  1
  O2-  O222  1  0.32726911  0.16168327  -0.00133456  1
  O2-  O223  1  0.33216360  0.16403275  0.33789110  1
  O2-  O224  1  0.34571430  0.15675978  0.66306156  1
  O2-  O225  1  0.33743869  0.65286879  0.00008109  1
  O2-  O226  1  0.33354153  0.65233951  0.33541714  1
  O2-  O227  1  0.32460480  0.66211634  0.67623932  1
  O2-  O228  1  0.66867469  0.16505330  -0.00030379  1
  O2-  O229  1  0.66991834  0.16566978  0.33880621  1
  O2-  O230  1  0.67239329  0.17472207  0.66782813  1
  O2-  O231  1  0.66708820  0.66985877  -0.00387117  1
  O2-  O232  1  0.66429344  0.65050398  0.33737838  1
  O2-  O233  1  0.67250480  0.66224737  0.66055463  1
  O2-  O234  1  0.16487812  0.15352847  0.00137760  1
  O2-  O235  1  0.15923154  0.16766973  0.33937456  1
  O2-  O236  1  0.16868721  0.15759756  0.67925796  1
  O2-  O237  1  0.16162031  0.66783907  -0.00238213  1
  O2-  O238  1  0.16353162  0.66245231  0.33545588  1
  O2-  O239  1  0.15920003  0.65856526  0.66642316  1
  O2-  O240  1  0.50634373  0.16201137  0.00383972  1
  O2-  O241  1  0.49852185  0.15850680  0.33310141  1
  O2-  O242  1  0.49092322  0.16651375  0.66156796  1
  O2-  O243  1  0.50031454  0.66185311  0.00051142  1
  O2-  O244  1  0.50382586  0.65421955  0.33076736  1
  O2-  O245  1  0.49884919  0.68285030  0.66442640  1
  O2-  O246  1  0.82121703  0.16183700  -0.01549992  1
  O2-  O247  1  0.83531777  0.17899735  0.33848676  1
  O2-  O248  1  0.83835315  0.17356888  0.67102627  1
  O2-  O249  1  0.84466252  0.65969541  0.00223242  1
  O2-  O250  1  0.83248412  0.64917020  0.33323733  1
  O2-  O251  1  0.83297399  0.66021421  0.67371250  1
  O2-  O252  1  -0.00132877  0.34988624  0.00011679  1
  O2-  O253  1  0.00266506  0.33430151  0.33395560  1
  O2-  O254  1  -0.00950777  0.33320953  0.67308594  1
  O2-  O255  1  0.00182570  0.83582152  -0.00320078  1
  O2-  O256  1  -0.00307665  0.84361291  0.33795711  1
  O2-  O257  1  0.00046140  0.84480545  0.66425456  1
  O2-  O258  1  0.32834564  0.32828377  0.00799750  1
  O2-  O259  1  0.33722951  0.33828972  0.33014781  1
  O2-  O260  1  0.33680030  0.34444456  0.66267786  1
  O2-  O261  1  0.32759441  0.84307998  0.00597339  1
  O2-  O262  1  0.33827218  0.84352091  0.32856600  1
  O2-  O263  1  0.33270705  0.83802988  0.66871126  1
  O2-  O264  1  0.66878994  0.33590069  0.00012814  1
  O2-  O265  1  0.67518811  0.33303566  0.32681976  1
  O2-  O266  1  0.66503008  0.33373276  0.67122350  1
  O2-  O267  1  0.66892902  0.84105690  -0.00114196  1
  O2-  O268  1  0.66496618  0.84505634  0.33519537  1
  O2-  O269  1  0.66431120  0.82160663  0.66360224  1
  O2-  O270  1  0.16562438  0.34417790  0.00125733  1
  O2-  O271  1  0.16314335  0.33534889  0.33211175  1
  O2-  O272  1  0.17095465  0.33768560  0.67058994  1
  O2-  O273  1  0.16255344  0.83341105  0.00050894  1
  O2-  O274  1  0.15916761  0.82938128  0.32716703  1
  O2-  O275  1  0.15748538  0.83151060  0.65950131  1
  O2-  O276  1  0.50490530  0.33396522  0.00737110  1
  O2-  O277  1  0.49507958  0.33357022  0.33147019  1
  O2-  O278  1  0.50452273  0.34826504  0.66865953  1
  O2-  O279  1  0.50475422  0.83681071  0.00359538  1
  O2-  O280  1  0.50444546  0.83990922  0.33385723  1
  O2-  O281  1  0.50609630  0.83352668  0.66878060  1
  O2-  O282  1  0.83230225  0.33632784  -0.00052608  1
  O2-  O283  1  0.83061007  0.33059021  0.32854843  1
  O2-  O284  1  0.83635913  0.31940689  0.66867631  1
  O2-  O285  1  0.83431357  0.84481909  0.00037325  1
  O2-  O286  1  0.83397896  0.84726501  0.33505973  1
  O2-  O287  1  0.83613894  0.84082925  0.66843061  1
  O2-  O288  1  0.00373864  0.17531200  0.16986276  1
  O2-  O289  1  0.00211714  0.18712359  0.51329613  1
  O2-  O290  1  -0.00868176  0.16752844  0.82706423  1
  O2-  O291  1  -0.00571684  0.68194086  0.16339128  1
  O2-  O292  1  0.00061958  0.68059381  0.49986152  1
  O2-  O293  1  0.00166738  0.68412393  0.83569316  1
  O2-  O294  1  0.33413800  0.18438914  0.16109748  1
  O2-  O295  1  0.33407148  0.18169059  0.49405263  1
  O2-  O296  1  0.31966339  0.17313350  0.82443567  1
  O2-  O297  1  0.34408463  0.67259316  0.16867246  1
  O2-  O298  1  0.32694505  0.67330607  0.49490896  1
  O2-  O299  1  0.33140897  0.67141540  0.84030267  1
  O2-  O300  1  0.66204421  0.18348687  0.15303605  1
  O2-  O301  1  0.67038657  0.17831144  0.49449619  1
  O2-  O302  1  0.67172997  0.17674032  0.83631448  1
  O2-  O303  1  0.67544150  0.67328070  0.17928272  1
  O2-  O304  1  0.66060531  0.68385295  0.49752842  1
  O2-  O305  1  0.66231967  0.67712614  0.83198395  1
  O2-  O306  1  0.16629335  0.17541558  0.15945188  1
  O2-  O307  1  0.16618532  0.18048282  0.49765681  1
  O2-  O308  1  0.15470463  0.17283052  0.84102593  1
  O2-  O309  1  0.15252063  0.68196278  0.16833944  1
  O2-  O310  1  0.16892296  0.68351705  0.50099831  1
  O2-  O311  1  0.16717274  0.68229988  0.83011830  1
  O2-  O312  1  0.49719610  0.18270914  0.16137582  1
  O2-  O313  1  0.50670086  0.17784021  0.49378032  1
  O2-  O314  1  0.49927991  0.17400768  0.83405556  1
  O2-  O315  1  0.50154164  0.67827582  0.16884327  1
  O2-  O316  1  0.50111444  0.67976068  0.49664583  1
  O2-  O317  1  0.49428482  0.67491384  0.84903949  1
  O2-  O318  1  0.82977630  0.19442333  0.15312738  1
  O2-  O319  1  0.83305091  0.18616467  0.50364573  1
  O2-  O320  1  0.83092069  0.18054260  0.82941009  1
  O2-  O321  1  0.83383481  0.66999221  0.17039261  1
  O2-  O322  1  0.83020440  0.67071830  0.49623432  1
  O2-  O323  1  0.83717301  0.67465850  0.83470632  1
  O2-  O324  1  0.00168154  0.33310464  0.16929006  1
  O2-  O325  1  0.00313836  0.30697148  0.50139574  1
  O2-  O326  1  -0.00392117  0.33286304  0.83141233  1
  O2-  O327  1  0.00241172  0.81963114  0.16772110  1
  O2-  O328  1  -0.00209168  0.82113246  0.49759724  1
  O2-  O329  1  -0.00179699  0.81941211  0.82707778  1
  O2-  O330  1  0.33580513  0.32374823  0.16839551  1
  O2-  O331  1  0.33038598  0.31717501  0.49287914  1
  O2-  O332  1  0.32851083  0.32292304  0.82598116  1
  O2-  O333  1  0.33226101  0.83677586  0.16580342  1
  O2-  O334  1  0.33370428  0.82156867  0.49873503  1
  O2-  O335  1  0.33704668  0.82812520  0.83525154  1
  O2-  O336  1  0.66658360  0.32274698  0.16397862  1
  O2-  O337  1  0.66899919  0.31503134  0.49921041  1
  O2-  O338  1  0.66995809  0.32360531  0.83263525  1
  O2-  O339  1  0.66623534  0.82822540  0.16597296  1
  O2-  O340  1  0.66413306  0.81811542  0.50182955  1
  O2-  O341  1  0.66855976  0.82359933  0.83473529  1
  O2-  O342  1  0.16928940  0.33166892  0.16409326  1
  O2-  O343  1  0.16789078  0.32163214  0.49486023  1
  O2-  O344  1  0.16159386  0.33009609  0.83542886  1
  O2-  O345  1  0.17149040  0.82102817  0.15900755  1
  O2-  O346  1  0.16160038  0.81788878  0.50159980  1
  O2-  O347  1  0.16359037  0.81703304  0.83608142  1
  O2-  O348  1  0.49600128  0.32319134  0.16947308  1
  O2-  O349  1  0.49334979  0.31772627  0.50081160  1
  O2-  O350  1  0.50944972  0.32794232  0.82406168  1
  O2-  O351  1  0.49193636  0.82836400  0.17541117  1
  O2-  O352  1  0.50625444  0.81639027  0.50337519  1
  O2-  O353  1  0.50327305  0.83033320  0.83002504  1
  O2-  O354  1  0.83281737  0.32577053  0.16822413  1
  O2-  O355  1  0.83578526  0.30304198  0.49796102  1
  O2-  O356  1  0.83554748  0.31843524  0.83043075  1
  O2-  O357  1  0.83293883  0.82678539  0.16699188  1
  O2-  O358  1  0.83958009  0.82695213  0.49289340  1
  O2-  O359  1  0.83685691  0.83024077  0.82787716  1
  O2-  O360  1  0.09220238  0.07981718  0.11448847  1
  O2-  O361  1  0.08930262  0.07868964  0.44230980  1
  O2-  O362  1  0.07020693  0.08002860  0.77258927  1
  O2-  O363  1  0.06898935  0.58139571  0.11195499  1
  O2-  O364  1  0.08316628  0.58024316  0.44468680  1
  O2-  O365  1  0.08627080  0.57974741  0.78311563  1
  O2-  O366  1  0.41662609  0.08387940  0.11162130  1
  O2-  O367  1  0.41939733  0.08050895  0.44434269  1
  O2-  O368  1  0.40114836  0.06005995  0.78405806  1
  O2-  O369  1  0.42123241  0.58101757  0.10449384  1
  O2-  O370  1  0.43800713  0.57913265  0.43659260  1
  O2-  O371  1  0.39996780  0.57943747  0.78467839  1
  O2-  O372  1  0.73585218  0.08526585  0.10849132  1
  O2-  O373  1  0.74426943  0.07921429  0.45173555  1
  O2-  O374  1  0.77113492  0.07967060  0.77680202  1
  O2-  O375  1  0.77083806  0.57428397  0.11489480  1
  O2-  O376  1  0.73463359  0.57947684  0.44921495  1
  O2-  O377  1  0.76354394  0.57843209  0.76250520  1
  O2-  O378  1  0.26397109  0.08242511  0.22341394  1
  O2-  O379  1  0.24036862  0.07316728  0.55554623  1
  O2-  O380  1  0.23889535  0.08007524  0.88197726  1
  O2-  O381  1  0.23324491  0.58277333  0.23492190  1
  O2-  O382  1  0.23802664  0.58205437  0.54734793  1
  O2-  O383  1  0.24071888  0.58036012  0.88978892  1
  O2-  O384  1  0.57459633  0.08373469  0.20856703  1
  O2-  O385  1  0.58548774  0.06679177  0.56251047  1
  O2-  O386  1  0.59696295  0.08619386  0.91511941  1
  O2-  O387  1  0.59448549  0.58270143  0.23490655  1
  O2-  O388  1  0.58765095  0.57957406  0.54435965  1
  O2-  O389  1  0.57329001  0.58266393  0.89883268  1
  O2-  O390  1  0.92941751  0.07463201  0.22526744  1
  O2-  O391  1  0.90862381  0.08454289  0.58317449  1
  O2-  O392  1  0.90887854  0.08371331  0.89032923  1
  O2-  O393  1  0.92217042  0.58595119  0.22026060  1
  O2-  O394  1  0.91612111  0.56941527  0.54711815  1
  O2-  O395  1  0.93110167  0.58316024  0.89102485  1
  O2-  O396  1  0.08355705  0.42308638  0.11612851  1
  O2-  O397  1  0.09276908  0.42168981  0.41040298  1
  O2-  O398  1  0.07392003  0.41894191  0.76911425  1
  O2-  O399  1  0.09718011  0.91796339  0.11059707  1
  O2-  O400  1  0.06297981  0.92287841  0.45411444  1
  O2-  O401  1  0.07138913  0.92187134  0.77502531  1
  O2-  O402  1  0.41600743  0.42581580  0.12317681  1
  O2-  O403  1  0.40429417  0.41721788  0.42905162  1
  O2-  O404  1  0.42261891  0.41662708  0.76919658  1
  O2-  O405  1  0.42151241  0.91746661  0.10688982  1
  O2-  O406  1  0.43662069  0.91689909  0.42019987  1
  O2-  O407  1  0.42996705  0.92757922  0.77241269  1
  O2-  O408  1  0.75005225  0.42477892  0.12200269  1
  O2-  O409  1  0.75595745  0.41916020  0.40590627  1
  O2-  O410  1  0.75631603  0.41660969  0.77620255  1
  O2-  O411  1  0.75443000  0.91695842  0.10853077  1
  O2-  O412  1  0.75787508  0.91711733  0.44056301  1
  O2-  O413  1  0.75652302  0.91767294  0.77150669  1
  O2-  O414  1  0.26461579  0.41728286  0.23065605  1
  O2-  O415  1  0.25857051  0.41465739  0.55548446  1
  O2-  O416  1  0.24661431  0.41738770  0.89644616  1
  O2-  O417  1  0.23979889  0.91775468  0.22561941  1
  O2-  O418  1  0.23390517  0.91724429  0.56327627  1
  O2-  O419  1  0.23300616  0.91635889  0.91608651  1
  O2-  O420  1  0.57280101  0.41638826  0.22700968  1
  O2-  O421  1  0.57568374  0.41397257  0.56169835  1
  O2-  O422  1  0.59392637  0.41875692  0.88777057  1
  O2-  O423  1  0.57464209  0.91949533  0.22286520  1
  O2-  O424  1  0.58694405  0.91877591  0.57021707  1
  O2-  O425  1  0.59414461  0.91921960  0.89599921  1
  O2-  O426  1  0.91114405  0.41692725  0.23316115  1
  O2-  O427  1  0.91433628  0.41508136  0.58763456  1
  O2-  O428  1  0.90345229  0.42028087  0.88606877  1
  O2-  O429  1  0.92114576  0.92259967  0.21971753  1
  O2-  O430  1  0.92380953  0.92123990  0.55590744  1
  O2-  O431  1  0.92643642  0.91543573  0.89159336  1
  O2-  O432  1  0.00341217  -0.00796750  0.00017733  1
  O2-  O433  1  0.00171646  -0.01285118  0.32801477  1
  O2-  O434  1  -0.00164571  -0.00502219  0.66827751  1
  O2-  O435  1  -0.00530190  0.50430017  0.00541576  1
  O2-  O436  1  0.02497585  0.51004559  0.28253964  1
  O2-  O437  1  -0.00091530  0.51149671  0.66975544  1
  O2-  O438  1  0.32094636  -0.00030027  0.00886523  1
  O2-  O439  1  0.33433958  -0.00273839  0.33488151  1
  O2-  O440  1  0.33222485  0.00828753  0.66762715  1
  O2-  O441  1  0.33329646  0.50233504  -0.00306463  1
  O2-  O442  1  0.34088618  0.50385284  0.31991460  1
  O2-  O443  1  0.33086892  0.50322245  0.66516468  1
  O2-  O444  1  0.68167021  0.00680920  -0.00412316  1
  O2-  O445  1  0.65361438  -0.00636487  0.35464520  1
  O2-  O446  1  0.65872647  0.00501654  0.66083026  1
  O2-  O447  1  0.66770382  0.47938863  -0.00234664  1
  O2-  O448  1  0.66038519  0.50845557  0.33712448  1
  O2-  O449  1  0.65867645  0.48884111  0.67985380  1
  O2-  O450  1  0.16650911  0.00096223  0.00254188  1
  O2-  O451  1  0.16261926  0.00113941  0.33712013  1
  O2-  O452  1  0.15672405  0.00289208  0.66195884  1
  O2-  O453  1  0.15496956  0.49651991  -0.01929389  1
  O2-  O454  1  0.17234476  0.50319005  0.33075754  1
  O2-  O455  1  0.17039948  0.50896706  0.67053349  1
  O2-  O456  1  0.52958041  0.00632777  0.03342716  1
  O2-  O457  1  0.48648443  0.00252701  0.31948461  1
  O2-  O458  1  0.49854846  0.00494455  0.67115655  1
  O2-  O459  1  0.49924861  0.49886834  -0.00513433  1
  O2-  O460  1  0.49545310  0.50432236  0.31331424  1
  O2-  O461  1  0.49497535  0.49702927  0.65817707  1
  O2-  O462  1  0.83838457  0.00158481  0.00388825  1
  O2-  O463  1  0.83964908  -0.01540898  0.34096573  1
  O2-  O464  1  0.84897070  -0.00082367  0.68763843  1
  O2-  O465  1  0.84133891  0.49968439  0.01549150  1
  O2-  O466  1  0.81674610  0.51267498  0.31238116  1
  O2-  O467  1  0.84532391  0.50167858  0.67537914  1
  O2-  O468  1  0.57901135  0.24809708  0.26670843  1
  O2-  O469  1  0.91206504  0.75370777  0.59555852  1
  O2-  O470  1  0.25967868  0.75214728  0.93442385  1
  O2-  O471  1  0.57651341  0.25175904  0.59713169  1
  O2-  O472  1  0.41168141  0.74970623  0.39529890  1
  O2-  O473  1  0.91145081  0.74938304  0.93552047  1
  O2-  O474  1  0.92550593  0.25027346  0.25495864  1
  O2-  O475  1  0.24705966  0.25178306  0.26023778  1
  O2-  O476  1  0.07930589  0.24947511  0.74577392  1
  O2-  O477  1  0.92987587  0.25147692  0.92858438  1
  O2-  O478  1  0.08131499  0.25174467  0.06650200  1
  O2-  O479  1  0.41011852  0.74908771  0.07215835  1
  O2-  O480  1  0.25174356  0.25139042  0.60037295  1
  O2-  O481  1  0.75068158  0.75267227  0.07551834  1
  O2-  O482  1  0.75714693  0.74622397  0.74016869  1
  O2-  O483  1  0.26040492  0.75220787  0.25903555  1
  O2-  O484  1  0.41312349  0.75971776  0.74847663  1
  O2-  O485  1  0.41656974  0.25362677  0.73974262  1
  O2-  O486  1  0.26009813  0.75299072  0.59716907  1
  O2-  O487  1  0.23851952  0.24803270  0.93137464  1
  O2-  O488  1  0.90736976  0.74926604  0.27327342  1
  O2-  O489  1  0.58326524  0.24952232  0.93101085  1
  O2-  O490  1  0.58273046  0.75224657  0.92606383  1
  O2-  O491  1  0.58733884  0.74969179  0.26744164  1
  O2-  O492  1  0.75231235  0.74891052  0.39419957  1
