# generated using pymatgen
data_Ca108Mn108O277
_symmetry_space_group_name_H-M   'P 1'
_cell_length_a   16.02733912
_cell_length_b   22.30608867
_cell_length_c   16.38950750
_cell_angle_alpha   90.00586938
_cell_angle_beta   90.00193065
_cell_angle_gamma   90.00053563
_symmetry_Int_Tables_number   1
_chemical_formula_structural   Ca108Mn108O277
_chemical_formula_sum   'Ca108 Mn108 O277'
_cell_volume   5859.36768121
_cell_formula_units_Z   1
loop_
 _symmetry_equiv_pos_site_id
 _symmetry_equiv_pos_as_xyz
  1  'x, y, z'
loop_
 _atom_type_symbol
 _atom_type_oxidation_number
  Ca2+  2.0
  Mn3.34+  3.34
  O2-  -2.0
loop_
 _atom_site_type_symbol
 _atom_site_label
 _atom_site_symmetry_multiplicity
 _atom_site_fract_x
 _atom_site_fract_y
 _atom_site_fract_z
 _atom_site_occupancy
  Ca2+  Ca0  1  0.09068797  0.23853111  0.25912827  1
  Ca2+  Ca1  1  0.06946809  0.24772732  0.56523143  1
  Ca2+  Ca2  1  0.08432631  0.25070810  0.92184019  1
  Ca2+  Ca3  1  0.07502155  0.74561200  0.24802099  1
  Ca2+  Ca4  1  0.06742858  0.74526460  0.59348210  1
  Ca2+  Ca5  1  0.07512208  0.74442138  0.89636518  1
  Ca2+  Ca6  1  0.40445128  0.25159290  0.24010754  1
  Ca2+  Ca7  1  0.42090255  0.25743773  0.59112274  1
  Ca2+  Ca8  1  0.43185211  0.24939111  0.92361747  1
  Ca2+  Ca9  1  0.41902160  0.74986711  0.25009193  1
  Ca2+  Ca10  1  0.41920050  0.75521297  0.58302448  1
  Ca2+  Ca11  1  0.41414887  0.75201183  0.91868280  1
  Ca2+  Ca12  1  0.76213638  0.25157751  0.25396135  1
  Ca2+  Ca13  1  0.76421606  0.25655674  0.57039565  1
  Ca2+  Ca14  1  0.73241572  0.24958226  0.92206217  1
  Ca2+  Ca15  1  0.75135653  0.73961383  0.26212013  1
  Ca2+  Ca16  1  0.77219306  0.74013959  0.57924883  1
  Ca2+  Ca17  1  0.75707658  0.75745797  0.91737568  1
  Ca2+  Ca18  1  0.25188769  0.23927080  0.10258319  1
  Ca2+  Ca19  1  0.21895055  0.24397216  0.39611998  1
  Ca2+  Ca20  1  0.24081352  0.25352975  0.75618721  1
  Ca2+  Ca21  1  0.24937016  0.75300458  0.09379178  1
  Ca2+  Ca22  1  0.24432674  0.75193940  0.40875109  1
  Ca2+  Ca23  1  0.22818687  0.75691875  0.74773188  1
  Ca2+  Ca24  1  0.58174763  0.24524294  0.06589577  1
  Ca2+  Ca25  1  0.60425067  0.26081090  0.41332987  1
  Ca2+  Ca26  1  0.58055675  0.25292605  0.77374622  1
  Ca2+  Ca27  1  0.59134963  0.74852695  0.08871995  1
  Ca2+  Ca28  1  0.60001144  0.75072840  0.41027230  1
  Ca2+  Ca29  1  0.59813484  0.75403854  0.75103933  1
  Ca2+  Ca30  1  0.92226736  0.25889662  0.09599353  1
  Ca2+  Ca31  1  0.93050849  0.24357180  0.41233986  1
  Ca2+  Ca32  1  0.92509209  0.25971108  0.74452363  1
  Ca2+  Ca33  1  0.91315917  0.76138778  0.07964827  1
  Ca2+  Ca34  1  0.89923181  0.74163299  0.42298023  1
  Ca2+  Ca35  1  0.92364009  0.75593337  0.74036439  1
  Ca2+  Ca36  1  0.23433543  0.56980296  0.38534637  1
  Ca2+  Ca37  1  0.92790212  0.09367842  0.07576356  1
  Ca2+  Ca38  1  0.91646410  0.09359048  0.07561384  1
  Ca2+  Ca39  1  0.23063196  0.08656895  0.37397061  1
  Ca2+  Ca40  1  0.58013749  0.59477704  0.75628935  1
  Ca2+  Ca41  1  0.92902339  0.09841018  0.41600308  1
  Ca2+  Ca42  1  0.43050768  0.60013975  0.25798902  1
  Ca2+  Ca43  1  0.91620358  0.60137180  0.08991309  1
  Ca2+  Ca44  1  0.07812402  0.08589547  0.91614367  1
  Ca2+  Ca45  1  0.43159839  0.10605366  0.94111644  1
  Ca2+  Ca46  1  0.57568704  0.08529289  0.75883554  1
  Ca2+  Ca47  1  0.22470681  0.61447163  0.75472584  1
  Ca2+  Ca48  1  0.73039091  0.59116777  0.92413345  1
  Ca2+  Ca49  1  0.23645026  0.08094295  0.75206837  1
  Ca2+  Ca50  1  0.23176328  0.61012029  0.75945789  1
  Ca2+  Ca51  1  0.62002569  0.60704928  0.37777665  1
  Ca2+  Ca52  1  0.73981157  0.59508999  0.92546840  1
  Ca2+  Ca53  1  0.06734119  0.08793849  0.59355288  1
  Ca2+  Ca54  1  0.23430731  0.08010758  0.37758137  1
  Ca2+  Ca55  1  0.07362314  0.08589071  0.58491459  1
  Ca2+  Ca56  1  0.92754426  0.60109405  0.09028919  1
  Ca2+  Ca57  1  0.10452683  0.10018428  0.24129493  1
  Ca2+  Ca58  1  0.06831828  0.08203043  0.91381436  1
  Ca2+  Ca59  1  0.74374166  0.08603159  0.92590849  1
  Ca2+  Ca60  1  0.73155229  0.08820982  0.92299352  1
  Ca2+  Ca61  1  0.42105368  0.10523706  0.94370182  1
  Ca2+  Ca62  1  0.56865488  0.10282188  0.07455326  1
  Ca2+  Ca63  1  0.43608337  0.06473681  0.59509868  1
  Ca2+  Ca64  1  0.42573782  0.06729938  0.59732672  1
  Ca2+  Ca65  1  0.09208771  0.57930391  0.25468870  1
  Ca2+  Ca66  1  0.76094544  0.08491020  0.57284349  1
  Ca2+  Ca67  1  0.36367163  0.10476043  0.20915853  1
  Ca2+  Ca68  1  0.23571849  0.57612344  0.07169212  1
  Ca2+  Ca69  1  0.94178414  0.61376372  0.73449428  1
  Ca2+  Ca70  1  0.59633375  0.60041447  0.10917859  1
  Ca2+  Ca71  1  0.41147039  0.59868990  0.58408957  1
  Ca2+  Ca72  1  0.07868696  0.90831399  0.59711446  1
  Ca2+  Ca73  1  0.23522976  0.90786355  0.74803421  1
  Ca2+  Ca74  1  0.09366117  0.40751946  0.93322813  1
  Ca2+  Ca75  1  0.10094350  0.90789430  0.24886989  1
  Ca2+  Ca76  1  0.72297571  0.41018430  0.92605820  1
  Ca2+  Ca77  1  0.25322902  0.90290345  0.09074146  1
  Ca2+  Ca78  1  0.42843092  0.40713383  0.58420181  1
  Ca2+  Ca79  1  0.41586662  0.40648691  0.58391180  1
  Ca2+  Ca80  1  0.58301614  0.89481907  0.08690928  1
  Ca2+  Ca81  1  0.91313226  0.90062514  0.42403939  1
  Ca2+  Ca82  1  0.25395347  0.91065397  0.41071452  1
  Ca2+  Ca83  1  0.10484889  0.41172194  0.93055088  1
  Ca2+  Ca84  1  0.92125456  0.41025239  0.40556170  1
  Ca2+  Ca85  1  0.75137093  0.40311594  0.58161159  1
  Ca2+  Ca86  1  0.59114441  0.40911230  0.40870243  1
  Ca2+  Ca87  1  0.43915496  0.41129939  0.92811196  1
  Ca2+  Ca88  1  0.10056332  0.40733059  0.56587921  1
  Ca2+  Ca89  1  0.25590497  0.41085859  0.08337945  1
  Ca2+  Ca90  1  0.58653153  0.91959541  0.73299125  1
  Ca2+  Ca91  1  0.73472937  0.41213082  0.92967866  1
  Ca2+  Ca92  1  0.77811342  0.91104939  0.91688709  1
  Ca2+  Ca93  1  0.08962809  0.90639810  0.24805224  1
  Ca2+  Ca94  1  0.59073380  0.90642628  0.42474719  1
  Ca2+  Ca95  1  0.08821406  0.40735180  0.56729322  1
  Ca2+  Ca96  1  0.75607648  0.40598187  0.24460165  1
  Ca2+  Ca97  1  0.41989683  0.90236894  0.58085818  1
  Ca2+  Ca98  1  0.25460822  0.40791556  0.75551281  1
  Ca2+  Ca99  1  0.57542551  0.91943738  0.73147845  1
  Ca2+  Ca100  1  0.40082179  0.40811052  0.24811618  1
  Ca2+  Ca101  1  0.41219281  0.90569858  0.91925088  1
  Ca2+  Ca102  1  0.41721103  0.90598644  0.25157687  1
  Ca2+  Ca103  1  0.75287657  0.90387630  0.57871004  1
  Ca2+  Ca104  1  0.11466624  0.42277437  0.26643986  1
  Ca2+  Ca105  1  0.57994132  0.40871041  0.07745494  1
  Ca2+  Ca106  1  0.10425079  0.42194935  0.26613775  1
  Ca2+  Ca107  1  0.05894483  0.91454302  0.89976633  1
  Mn3.34+  Mn108  1  0.08365010  0.33116454  0.09084151  1
  Mn3.34+  Mn109  1  0.08239537  0.33451159  0.41359928  1
  Mn3.34+  Mn110  1  0.08138657  0.33136820  0.75105099  1
  Mn3.34+  Mn111  1  0.08213526  0.83359767  0.08066533  1
  Mn3.34+  Mn112  1  0.08130630  0.82978887  0.42275087  1
  Mn3.34+  Mn113  1  0.07819678  0.83678410  0.75148209  1
  Mn3.34+  Mn114  1  0.41674565  0.33195236  0.08561827  1
  Mn3.34+  Mn115  1  0.41691001  0.33025197  0.41543327  1
  Mn3.34+  Mn116  1  0.41748852  0.33162236  0.75580799  1
  Mn3.34+  Mn117  1  0.41758718  0.83303836  0.08469687  1
  Mn3.34+  Mn118  1  0.41935156  0.83196051  0.41746184  1
  Mn3.34+  Mn119  1  0.41341300  0.82667556  0.75440899  1
  Mn3.34+  Mn120  1  0.75169552  0.33184073  0.08733583  1
  Mn3.34+  Mn121  1  0.75536637  0.33719884  0.41455736  1
  Mn3.34+  Mn122  1  0.75249048  0.33441966  0.75010337  1
  Mn3.34+  Mn123  1  0.75313143  0.82954592  0.08820439  1
  Mn3.34+  Mn124  1  0.75254654  0.83318813  0.41443799  1
  Mn3.34+  Mn125  1  0.75513246  0.83542686  0.75253319  1
  Mn3.34+  Mn126  1  0.25128711  0.33062455  0.24870548  1
  Mn3.34+  Mn127  1  0.25114003  0.33303158  0.58140254  1
  Mn3.34+  Mn128  1  0.25692178  0.33500798  0.91571674  1
  Mn3.34+  Mn129  1  0.25259748  0.83139065  0.25080207  1
  Mn3.34+  Mn130  1  0.24926440  0.83010684  0.57895410  1
  Mn3.34+  Mn131  1  0.24594539  0.83403442  0.91637770  1
  Mn3.34+  Mn132  1  0.58305313  0.33310985  0.24546113  1
  Mn3.34+  Mn133  1  0.58868675  0.33272605  0.58655278  1
  Mn3.34+  Mn134  1  0.58152288  0.33189227  0.91545642  1
  Mn3.34+  Mn135  1  0.58907662  0.83445932  0.24984012  1
  Mn3.34+  Mn136  1  0.58579039  0.83478004  0.58018780  1
  Mn3.34+  Mn137  1  0.58385624  0.83343065  0.91284659  1
  Mn3.34+  Mn138  1  0.92062968  0.33729611  0.24656091  1
  Mn3.34+  Mn139  1  0.91720767  0.33707743  0.58453006  1
  Mn3.34+  Mn140  1  0.91482291  0.33217680  0.91342435  1
  Mn3.34+  Mn141  1  0.91391206  0.83072966  0.24850279  1
  Mn3.34+  Mn142  1  0.91543893  0.83401455  0.58615967  1
  Mn3.34+  Mn143  1  0.91783878  0.83609114  0.91691716  1
  Mn3.34+  Mn144  1  0.75227107  0.67091390  0.75316773  1
  Mn3.34+  Mn145  1  0.57770391  0.66354170  0.91111948  1
  Mn3.34+  Mn146  1  0.76474566  0.16131399  0.74957139  1
  Mn3.34+  Mn147  1  0.07218955  0.66198570  0.42088753  1
  Mn3.34+  Mn148  1  0.41242349  0.67086790  0.41731911  1
  Mn3.34+  Mn149  1  0.59385438  0.16522228  0.25017176  1
  Mn3.34+  Mn150  1  0.75515426  0.16412824  0.41276236  1
  Mn3.34+  Mn151  1  0.59388939  0.15907152  0.57958821  1
  Mn3.34+  Mn152  1  0.24664024  0.66169524  0.91943298  1
  Mn3.34+  Mn153  1  0.24668188  0.16846896  0.91349080  1
  Mn3.34+  Mn154  1  0.42483100  0.16614908  0.41824564  1
  Mn3.34+  Mn155  1  0.25211026  0.66905964  0.57476311  1
  Mn3.34+  Mn156  1  0.58369487  0.66892253  0.58003685  1
  Mn3.34+  Mn157  1  0.58418613  0.15993593  0.24869501  1
  Mn3.34+  Mn158  1  0.25829971  0.16761009  0.58458429  1
  Mn3.34+  Mn159  1  0.24667877  0.66342463  0.24620229  1
  Mn3.34+  Mn160  1  0.91751989  0.16769581  0.24892271  1
  Mn3.34+  Mn161  1  0.41681709  0.67554531  0.75563320  1
  Mn3.34+  Mn162  1  0.42108428  0.66507272  0.07963678  1
  Mn3.34+  Mn163  1  0.41377353  0.16558811  0.75700660  1
  Mn3.34+  Mn164  1  0.59308630  0.66292033  0.57930504  1
  Mn3.34+  Mn165  1  0.08738388  0.67026641  0.08117082  1
  Mn3.34+  Mn166  1  0.08290993  0.65851930  0.42447527  1
  Mn3.34+  Mn167  1  0.74823195  0.67027279  0.09198009  1
  Mn3.34+  Mn168  1  0.75340439  0.16920577  0.08673163  1
  Mn3.34+  Mn169  1  0.41409767  0.17270028  0.41594390  1
  Mn3.34+  Mn170  1  0.91233802  0.66623190  0.25752623  1
  Mn3.34+  Mn171  1  0.91734141  0.16621380  0.90840811  1
  Mn3.34+  Mn172  1  0.07896425  0.16793868  0.75353963  1
  Mn3.34+  Mn173  1  0.91635465  0.16584523  0.58224466  1
  Mn3.34+  Mn174  1  0.75018170  0.16601057  0.74802568  1
  Mn3.34+  Mn175  1  0.24838678  0.16182470  0.58222667  1
  Mn3.34+  Mn176  1  0.58186687  0.16599648  0.58401058  1
  Mn3.34+  Mn177  1  0.41122248  0.65968748  0.08132234  1
  Mn3.34+  Mn178  1  0.08783562  0.16844011  0.08522863  1
  Mn3.34+  Mn179  1  0.91702998  0.66987296  0.91137868  1
  Mn3.34+  Mn180  1  0.75177988  0.50336170  0.40669649  1
  Mn3.34+  Mn181  1  0.74753868  0.49665867  0.73913841  1
  Mn3.34+  Mn182  1  0.92378879  0.51212239  0.56719270  1
  Mn3.34+  Mn183  1  0.92830656  0.50483981  0.90798113  1
  Mn3.34+  Mn184  1  0.75958703  0.50395237  0.73767098  1
  Mn3.34+  Mn185  1  0.42448916  0.49941889  0.75652659  1
  Mn3.34+  Mn186  1  0.91146341  -0.00044142  0.25068560  1
  Mn3.34+  Mn187  1  0.91340869  0.49924984  0.25570816  1
  Mn3.34+  Mn188  1  0.40302529  0.50437988  0.41064991  1
  Mn3.34+  Mn189  1  0.24654503  -0.00054333  0.57905192  1
  Mn3.34+  Mn190  1  0.41792120  -0.00033100  0.07969250  1
  Mn3.34+  Mn191  1  0.41968828  0.50000639  0.06862609  1
  Mn3.34+  Mn192  1  0.08319677  0.49548957  0.74997429  1
  Mn3.34+  Mn193  1  0.08354494  0.00038038  0.07228804  1
  Mn3.34+  Mn194  1  0.41742856  0.49867584  0.40904340  1
  Mn3.34+  Mn195  1  0.91406677  0.49864043  0.90932616  1
  Mn3.34+  Mn196  1  0.75137652  0.50130272  0.08382100  1
  Mn3.34+  Mn197  1  0.08179765  0.49725644  0.08419866  1
  Mn3.34+  Mn198  1  0.58348208  -0.00426830  0.91682076  1
  Mn3.34+  Mn199  1  0.58910466  0.50223566  0.57210034  1
  Mn3.34+  Mn200  1  0.74648191  0.00062164  0.09587335  1
  Mn3.34+  Mn201  1  0.40679151  -0.00196938  0.76241584  1
  Mn3.34+  Mn202  1  0.58380180  -0.00118419  0.25805048  1
  Mn3.34+  Mn203  1  0.06967203  0.50182859  0.75126755  1
  Mn3.34+  Mn204  1  0.74402631  0.00074355  0.40413792  1
  Mn3.34+  Mn205  1  0.08070640  -0.00831254  0.41851272  1
  Mn3.34+  Mn206  1  0.90049599  -0.00570867  0.25393718  1
  Mn3.34+  Mn207  1  0.91099270  0.51800329  0.56903101  1
  Mn3.34+  Mn208  1  0.42342623  0.00224087  0.40535140  1
  Mn3.34+  Mn209  1  0.58545409  0.49727596  0.25014364  1
  Mn3.34+  Mn210  1  0.25025275  -0.00135440  0.92202066  1
  Mn3.34+  Mn211  1  0.41419447  0.50454710  0.75677785  1
  Mn3.34+  Mn212  1  0.24899322  0.50377201  0.57742497  1
  Mn3.34+  Mn213  1  0.91242163  -0.00393726  0.60519067  1
  Mn3.34+  Mn214  1  0.76295932  -0.00301223  0.74187112  1
  Mn3.34+  Mn215  1  0.75705273  -0.00506372  0.09317247  1
  O2-  O216  1  -0.00186496  0.15935090  -0.00511630  1
  O2-  O217  1  -0.00028864  0.15205768  0.31893582  1
  O2-  O218  1  -0.00108754  0.15207669  0.66924694  1
  O2-  O219  1  -0.00231396  0.65943790  -0.00017717  1
  O2-  O220  1  0.00748761  0.64903704  0.32658316  1
  O2-  O221  1  0.00481619  0.68375622  0.67377768  1
  O2-  O222  1  0.33384133  0.17814315  -0.01609733  1
  O2-  O223  1  0.33392162  0.15497382  0.33850451  1
  O2-  O224  1  0.33921529  0.13955959  0.66170344  1
  O2-  O225  1  0.33038805  0.65528792  0.00188612  1
  O2-  O226  1  0.33010225  0.65300236  0.33340050  1
  O2-  O227  1  0.33517372  0.66872445  0.66790171  1
  O2-  O228  1  0.67620324  0.15114423  0.00590198  1
  O2-  O229  1  0.66754473  0.15385886  0.33252030  1
  O2-  O230  1  0.66819278  0.13306189  0.67040726  1
  O2-  O231  1  0.66241226  0.65959734  0.00287548  1
  O2-  O232  1  0.65327013  0.68852684  0.32181943  1
  O2-  O233  1  0.66325749  0.65173324  0.67485675  1
  O2-  O234  1  0.15598488  0.15452299  -0.01045651  1
  O2-  O235  1  0.16396009  0.15988287  0.33893375  1
  O2-  O236  1  0.16595563  0.14752794  0.66983933  1
  O2-  O237  1  0.17281987  0.68523405  0.00420067  1
  O2-  O238  1  0.16502111  0.65524392  0.33875419  1
  O2-  O239  1  0.17893231  0.67369256  0.66153906  1
  O2-  O240  1  0.50004088  0.17128077  0.00232109  1
  O2-  O241  1  0.50103506  0.16017898  0.33288030  1
  O2-  O242  1  0.49644798  0.14281049  0.66538432  1
  O2-  O243  1  0.50081045  0.67156263  -0.00375895  1
  O2-  O244  1  0.49127484  0.67865420  0.33871079  1
  O2-  O245  1  0.50104390  0.66252479  0.66388892  1
  O2-  O246  1  0.83522072  0.15409487  -0.00441520  1
  O2-  O247  1  0.84053577  0.15856823  0.33460693  1
  O2-  O248  1  0.82837952  0.15145357  0.65877868  1
  O2-  O249  1  0.83271412  0.64510182  0.00115347  1
  O2-  O250  1  0.83423265  0.66501197  0.33092269  1
  O2-  O251  1  0.83466490  0.66620996  0.68433219  1
  O2-  O252  1  0.00701654  0.34143339  -0.00494094  1
  O2-  O253  1  0.00567426  0.35421109  0.32616756  1
  O2-  O254  1  0.00939986  0.35488278  0.65825014  1
  O2-  O255  1  0.00684402  0.82821872  -0.00456293  1
  O2-  O256  1  0.00744273  0.85252917  0.33091833  1
  O2-  O257  1  0.00195701  0.84071239  0.66363136  1
  O2-  O258  1  0.34084473  0.32686553  -0.00449409  1
  O2-  O259  1  0.33993851  0.33358077  0.32755454  1
  O2-  O260  1  0.33692425  0.35146142  0.66746780  1
  O2-  O261  1  0.33201930  0.84278195  -0.00088977  1
  O2-  O262  1  0.33527574  0.84281758  0.33405320  1
  O2-  O263  1  0.33394354  0.81901423  0.66583536  1
  O2-  O264  1  0.66343959  0.34072173  0.00345414  1
  O2-  O265  1  0.67054785  0.34966375  0.33054082  1
  O2-  O266  1  0.66956388  0.35170559  0.66656884  1
  O2-  O267  1  0.66261320  0.83236186  -0.00066866  1
  O2-  O268  1  0.66152232  0.83540105  0.33983176  1
  O2-  O269  1  0.66330066  0.85103720  0.66980898  1
  O2-  O270  1  0.17156315  0.34153055  0.00282809  1
  O2-  O271  1  0.16794389  0.34246914  0.33331402  1
  O2-  O272  1  0.16893540  0.35462892  0.67076492  1
  O2-  O273  1  0.17349163  0.82268195  0.00792365  1
  O2-  O274  1  0.16793662  0.84362981  0.33569517  1
  O2-  O275  1  0.16978287  0.83798968  0.66637220  1
  O2-  O276  1  0.50119179  0.33545315  0.00366841  1
  O2-  O277  1  0.50301213  0.34257715  0.33427244  1
  O2-  O278  1  0.49470160  0.34458109  0.66304561  1
  O2-  O279  1  0.49843204  0.83836612  -0.00308488  1
  O2-  O280  1  0.49850739  0.82340812  0.33074149  1
  O2-  O281  1  0.49928171  0.83861458  0.67015683  1
  O2-  O282  1  0.82467945  0.34319751  -0.00792780  1
  O2-  O283  1  0.83723233  0.34787972  0.33033139  1
  O2-  O284  1  0.83343429  0.34462404  0.66497074  1
  O2-  O285  1  0.83167121  0.84254274  0.00168576  1
  O2-  O286  1  0.83969038  0.84252794  0.33706983  1
  O2-  O287  1  0.82923097  0.84472951  0.66510249  1
  O2-  O288  1  -0.00602272  0.17587583  0.15642365  1
  O2-  O289  1  -0.00072101  0.16823705  0.50781676  1
  O2-  O290  1  0.00104874  0.18981207  0.83753761  1
  O2-  O291  1  -0.00331710  0.67871406  0.15642413  1
  O2-  O292  1  -0.00461961  0.68043084  0.49651436  1
  O2-  O293  1  -0.01523937  0.68350729  0.82910939  1
  O2-  O294  1  0.34676099  0.19072567  0.16060300  1
  O2-  O295  1  0.33757186  0.19482344  0.49901382  1
  O2-  O296  1  0.32425452  0.18363141  0.82491492  1
  O2-  O297  1  0.33707299  0.67558011  0.16845771  1
  O2-  O298  1  0.33417539  0.69560614  0.49995621  1
  O2-  O299  1  0.32896340  0.68695752  0.83208868  1
  O2-  O300  1  0.66629100  0.18077628  0.15998388  1
  O2-  O301  1  0.67236928  0.18049812  0.50082956  1
  O2-  O302  1  0.67378160  0.17100829  0.83171937  1
  O2-  O303  1  0.66714809  0.68295620  0.16281878  1
  O2-  O304  1  0.66616986  0.67598357  0.49648456  1
  O2-  O305  1  0.66537265  0.68474057  0.84163736  1
  O2-  O306  1  0.16028345  0.17684388  0.16423184  1
  O2-  O307  1  0.16425553  0.17804950  0.50929180  1
  O2-  O308  1  0.16305245  0.18634303  0.83320106  1
  O2-  O309  1  0.16288851  0.68837170  0.16710017  1
  O2-  O310  1  0.16465333  0.68645744  0.49847953  1
  O2-  O311  1  0.17481672  0.68352007  0.83870768  1
  O2-  O312  1  0.50682072  0.17970164  0.17156743  1
  O2-  O313  1  0.50280965  0.19086080  0.49727298  1
  O2-  O314  1  0.49107171  0.17204286  0.83512162  1
  O2-  O315  1  0.49923889  0.67734469  0.16137885  1
  O2-  O316  1  0.49587956  0.68867056  0.50348344  1
  O2-  O317  1  0.50400572  0.69171831  0.82875312  1
  O2-  O318  1  0.84140591  0.18386469  0.15712311  1
  O2-  O319  1  0.83694455  0.17838212  0.49850627  1
  O2-  O320  1  0.83286577  0.19127751  0.83870054  1
  O2-  O321  1  0.84230959  0.67601145  0.15950709  1
  O2-  O322  1  0.83058851  0.66744566  0.49650311  1
  O2-  O323  1  0.81657089  0.67352322  0.85043359  1
  O2-  O324  1  0.00558238  0.31869670  0.17250469  1
  O2-  O325  1  0.00060463  0.32849578  0.49866014  1
  O2-  O326  1  0.00229044  0.31297424  0.83727271  1
  O2-  O327  1  0.00726498  0.81938687  0.16916077  1
  O2-  O328  1  -0.00439063  0.82238716  0.49663905  1
  O2-  O329  1  0.00026189  0.82434991  0.83572089  1
  O2-  O330  1  0.33197350  0.32403051  0.16290885  1
  O2-  O331  1  0.34448923  0.32211825  0.51005408  1
  O2-  O332  1  0.32866081  0.31432453  0.83007336  1
  O2-  O333  1  0.33342534  0.82677844  0.16804886  1
  O2-  O334  1  0.33489146  0.81717620  0.49816807  1
  O2-  O335  1  0.33015148  0.81198069  0.83496445  1
  O2-  O336  1  0.66948193  0.32106257  0.16741409  1
  O2-  O337  1  0.67059503  0.32707582  0.50033065  1
  O2-  O338  1  0.67222638  0.32661609  0.84015290  1
  O2-  O339  1  0.66506361  0.81381734  0.16553972  1
  O2-  O340  1  0.66636296  0.82889262  0.50094971  1
  O2-  O341  1  0.66595419  0.81912538  0.83323742  1
  O2-  O342  1  0.16672610  0.31990316  0.16679710  1
  O2-  O343  1  0.15852753  0.32117492  0.50610110  1
  O2-  O344  1  0.16458369  0.31705298  0.84152540  1
  O2-  O345  1  0.16476188  0.81970786  0.17157793  1
  O2-  O346  1  0.16730690  0.81311526  0.49963200  1
  O2-  O347  1  0.16417643  0.82183296  0.83586093  1
  O2-  O348  1  0.49876977  0.31269481  0.16483229  1
  O2-  O349  1  0.50157361  0.31313141  0.49903092  1
  O2-  O350  1  0.49504235  0.32281079  0.84024058  1
  O2-  O351  1  0.50326117  0.81511696  0.16667206  1
  O2-  O352  1  0.50017090  0.81807482  0.50178647  1
  O2-  O353  1  0.49773036  0.81093662  0.83453592  1
  O2-  O354  1  0.83230312  0.32118350  0.16993835  1
  O2-  O355  1  0.83603493  0.32927903  0.49811055  1
  O2-  O356  1  0.83226849  0.31106476  0.83588414  1
  O2-  O357  1  0.83243973  0.81362420  0.17106759  1
  O2-  O358  1  0.83206803  0.82970231  0.50156089  1
  O2-  O359  1  0.83121875  0.82230554  0.83629175  1
  O2-  O360  1  0.06973907  0.08294677  0.10966825  1
  O2-  O361  1  0.09327104  0.06975582  0.45385338  1
  O2-  O362  1  0.08921931  0.08524675  0.78320448  1
  O2-  O363  1  0.07818060  0.57921079  0.10746207  1
  O2-  O364  1  0.09527057  0.57844568  0.44145127  1
  O2-  O365  1  0.09279153  0.58303826  0.76896295  1
  O2-  O366  1  0.42148333  0.08016612  0.08677640  1
  O2-  O367  1  0.41895223  0.07998320  0.46061553  1
  O2-  O368  1  0.40894208  0.08026207  0.79370683  1
  O2-  O369  1  0.42574963  0.57549214  0.11842450  1
  O2-  O370  1  0.41664980  0.58231625  0.44876803  1
  O2-  O371  1  0.42817784  0.58694066  0.77121546  1
  O2-  O372  1  0.76627003  0.08324556  0.11667158  1
  O2-  O373  1  0.76022458  0.07972655  0.43974576  1
  O2-  O374  1  0.76640399  0.07916669  0.79217082  1
  O2-  O375  1  0.74539545  0.58373315  0.10646125  1
  O2-  O376  1  0.73526709  0.56808819  0.45629281  1
  O2-  O377  1  0.74304272  0.58080497  0.78558059  1
  O2-  O378  1  0.24034204  0.07077094  0.24516397  1
  O2-  O379  1  0.26932372  0.08113244  0.53320810  1
  O2-  O380  1  0.24409843  0.07875058  0.88962630  1
  O2-  O381  1  0.23631159  0.58692858  0.21361944  1
  O2-  O382  1  0.27242307  0.58358118  0.54595841  1
  O2-  O383  1  0.25051910  0.58188664  0.88531416  1
  O2-  O384  1  0.58622626  0.07815959  0.21165118  1
  O2-  O385  1  0.56870479  0.07945169  0.55337119  1
  O2-  O386  1  0.59529510  0.07623097  0.89267185  1
  O2-  O387  1  0.57294610  0.57656666  0.23789975  1
  O2-  O388  1  0.56286157  0.58479816  0.54556132  1
  O2-  O389  1  0.60006303  0.58093379  0.88532844  1
  O2-  O390  1  0.90823365  0.07880445  0.21175587  1
  O2-  O391  1  0.91893875  0.07702663  0.55867830  1
  O2-  O392  1  0.92622976  0.08853509  0.89113845  1
  O2-  O393  1  0.91975035  0.57969103  0.22157877  1
  O2-  O394  1  0.91621264  0.59465674  0.58988135  1
  O2-  O395  1  0.91199361  0.58396832  0.87657435  1
  O2-  O396  1  0.08768221  0.41655901  0.11533700  1
  O2-  O397  1  0.07460924  0.42100126  0.43697869  1
  O2-  O398  1  0.08031202  0.41848331  0.79599928  1
  O2-  O399  1  0.10615421  0.92194027  0.11321022  1
  O2-  O400  1  0.08721042  0.91349399  0.45215430  1
  O2-  O401  1  0.09824041  0.91930799  0.76729261  1
  O2-  O402  1  0.41633721  0.42380013  0.11130337  1
  O2-  O403  1  0.41926619  0.42077817  0.45059641  1
  O2-  O404  1  0.40639677  0.42022629  0.79470809  1
  O2-  O405  1  0.41970990  0.91843725  0.10925460  1
  O2-  O406  1  0.42534009  0.92283595  0.44283237  1
  O2-  O407  1  0.42186028  0.91574018  0.77590950  1
  O2-  O408  1  0.73822962  0.41825856  0.10033960  1
  O2-  O409  1  0.74719541  0.42858242  0.45042718  1
  O2-  O410  1  0.76391507  0.42625792  0.79953590  1
  O2-  O411  1  0.73189674  0.91360929  0.10076145  1
  O2-  O412  1  0.74657467  0.92232278  0.44202219  1
  O2-  O413  1  0.73601969  0.91799184  0.78382657  1
  O2-  O414  1  0.24593631  0.41530114  0.22152070  1
  O2-  O415  1  0.24271456  0.41841915  0.54997051  1
  O2-  O416  1  0.23388201  0.41993363  0.88841585  1
  O2-  O417  1  0.23883392  0.91481659  0.22940109  1
  O2-  O418  1  0.26017402  0.91825839  0.55810560  1
  O2-  O419  1  0.26194710  0.92102824  0.88408616  1
  O2-  O420  1  0.57826438  0.41768154  0.21520419  1
  O2-  O421  1  0.56104840  0.41996310  0.54483588  1
  O2-  O422  1  0.58703804  0.41554100  0.90847467  1
  O2-  O423  1  0.57250540  0.92078655  0.21962048  1
  O2-  O424  1  0.57249853  0.91695375  0.57049838  1
  O2-  O425  1  0.56750149  0.91942703  0.87515288  1
  O2-  O426  1  0.90962407  0.42073562  0.21967580  1
  O2-  O427  1  0.92340846  0.43203330  0.54073886  1
  O2-  O428  1  0.92842389  0.41823330  0.88853338  1
  O2-  O429  1  0.93189034  0.91622599  0.21796014  1
  O2-  O430  1  0.91752758  0.92064610  0.55854542  1
  O2-  O431  1  0.91824933  0.91585677  0.90332897  1
  O2-  O432  1  -0.00675276  0.02450335  0.00352378  1
  O2-  O433  1  0.01259610  0.00116886  0.31558521  1
  O2-  O434  1  0.02405903  -0.00202014  0.62161100  1
  O2-  O435  1  0.00804724  0.49665310  -0.00809539  1
  O2-  O436  1  0.01277288  0.49501485  0.29938797  1
  O2-  O437  1  -0.00347203  0.50110617  0.65885087  1
  O2-  O438  1  0.34552790  -0.00175839  -0.01557130  1
  O2-  O439  1  0.32101012  0.00118895  0.37392586  1
  O2-  O440  1  0.33603539  0.00505081  0.66410972  1
  O2-  O441  1  0.32196501  0.49859553  0.02637193  1
  O2-  O442  1  0.33583502  0.51146975  0.32152105  1
  O2-  O443  1  0.32837631  0.48972544  0.67441072  1
  O2-  O444  1  0.66607360  0.00845296  0.00372965  1
  O2-  O445  1  0.63855687  -0.00827493  0.36009345  1
  O2-  O446  1  0.64689752  0.00468692  0.71693010  1
  O2-  O447  1  0.69240904  0.50114162  -0.02201728  1
  O2-  O448  1  0.65958894  0.49537765  0.34293552  1
  O2-  O449  1  0.66023337  0.50494322  0.66607740  1
  O2-  O450  1  0.13999922  -0.00300886  -0.03871925  1
  O2-  O451  1  0.16580249  -0.01087096  0.35149270  1
  O2-  O452  1  0.17003093  0.02477077  0.65274260  1
  O2-  O453  1  0.16653769  0.48761912  0.01532324  1
  O2-  O454  1  0.16237339  0.50445218  0.30926535  1
  O2-  O455  1  0.16012779  0.48895960  0.66109828  1
  O2-  O456  1  0.50116322  0.00814628  -0.00490130  1
  O2-  O457  1  0.47287987  -0.00587366  0.30347292  1
  O2-  O458  1  0.49559363  0.00228373  0.68052935  1
  O2-  O459  1  0.50955017  0.49024978  0.01397327  1
  O2-  O460  1  0.49546640  0.49001798  0.32530834  1
  O2-  O461  1  0.48722237  0.49712802  0.65381647  1
  O2-  O462  1  0.82370361  0.01770945  -0.00408771  1
  O2-  O463  1  0.85597266  -0.00172809  0.36314577  1
  O2-  O464  1  0.79618705  -0.00260837  0.62353277  1
  O2-  O465  1  0.84557884  0.51325879  0.00430273  1
  O2-  O466  1  0.83092014  0.48403601  0.33383192  1
  O2-  O467  1  0.82915243  0.49042517  0.64576955  1
  O2-  O468  1  0.40270643  0.75032047  0.06379633  1
  O2-  O469  1  0.07909319  0.25006906  0.06074196  1
  O2-  O470  1  0.74930722  0.24961304  0.05919054  1
  O2-  O471  1  0.24760263  0.25161571  0.26144086  1
  O2-  O472  1  0.42445911  0.24551764  0.72490486  1
  O2-  O473  1  0.08032495  0.75514867  0.73968869  1
  O2-  O474  1  0.07944991  0.74542680  0.38934343  1
  O2-  O475  1  0.25372710  0.24944600  0.61885800  1
  O2-  O476  1  0.08363572  0.24969298  0.71384156  1
  O2-  O477  1  0.25965061  0.74912003  0.27075391  1
  O2-  O478  1  0.59298418  0.24362732  0.61889722  1
  O2-  O479  1  0.75978818  0.74839019  0.05744381  1
  O2-  O480  1  0.73984400  0.24556130  0.71641852  1
  O2-  O481  1  0.90562868  0.74861430  0.93948063  1
  O2-  O482  1  0.74445632  0.75281287  0.72622912  1
  O2-  O483  1  0.75571306  0.75365343  0.41167815  1
  O2-  O484  1  0.91819633  0.24749475  0.60430731  1
  O2-  O485  1  0.07440832  0.25515536  0.39895198  1
  O2-  O486  1  0.59699467  0.24892600  0.27650131  1
  O2-  O487  1  0.59564485  0.75018756  0.60897373  1
  O2-  O488  1  0.58740353  0.25212402  0.92445576  1
  O2-  O489  1  0.91893170  0.25232164  0.27151170  1
  O2-  O490  1  0.92834104  0.74948210  0.27712482  1
  O2-  O491  1  0.91186876  0.75452902  0.59552419  1
  O2-  O492  1  0.75014928  0.25076496  0.39576953  1
