# generated using pymatgen
data_Ca108Mn108O277
_symmetry_space_group_name_H-M   'P 1'
_cell_length_a   16.03187441
_cell_length_b   22.31228920
_cell_length_c   16.39220324
_cell_angle_alpha   89.99817431
_cell_angle_beta   89.99940744
_cell_angle_gamma   90.00474932
_symmetry_Int_Tables_number   1
_chemical_formula_structural   Ca108Mn108O277
_chemical_formula_sum   'Ca108 Mn108 O277'
_cell_volume   5863.61923383
_cell_formula_units_Z   1
loop_
 _symmetry_equiv_pos_site_id
 _symmetry_equiv_pos_as_xyz
  1  'x, y, z'
loop_
 _atom_type_symbol
 _atom_type_oxidation_number
  Ca2+  2.0
  Mn3.34+  3.34
  O2-  -2.0
loop_
 _atom_site_type_symbol
 _atom_site_label
 _atom_site_symmetry_multiplicity
 _atom_site_fract_x
 _atom_site_fract_y
 _atom_site_fract_z
 _atom_site_occupancy
  Ca2+  Ca0  1  0.09803692  0.24568659  0.23307612  1
  Ca2+  Ca1  1  0.08081795  0.25038345  0.58538350  1
  Ca2+  Ca2  1  0.09824105  0.23259078  0.93376217  1
  Ca2+  Ca3  1  0.08661797  0.76405709  0.25125612  1
  Ca2+  Ca4  1  0.07257992  0.75701293  0.57036631  1
  Ca2+  Ca5  1  0.09705558  0.75422572  0.92700902  1
  Ca2+  Ca6  1  0.41427148  0.24622237  0.24535555  1
  Ca2+  Ca7  1  0.41926993  0.25211037  0.57416989  1
  Ca2+  Ca8  1  0.42233432  0.25001949  0.92729930  1
  Ca2+  Ca9  1  0.40485489  0.75015008  0.25027724  1
  Ca2+  Ca10  1  0.42490541  0.74934273  0.57364863  1
  Ca2+  Ca11  1  0.40751802  0.75785463  0.92721910  1
  Ca2+  Ca12  1  0.73924505  0.24366616  0.24455541  1
  Ca2+  Ca13  1  0.73903864  0.24265951  0.58293962  1
  Ca2+  Ca14  1  0.73188742  0.25338664  0.91892953  1
  Ca2+  Ca15  1  0.76097561  0.74797392  0.26144889  1
  Ca2+  Ca16  1  0.74623300  0.74149808  0.55415243  1
  Ca2+  Ca17  1  0.74579894  0.76472466  0.92389577  1
  Ca2+  Ca18  1  0.23726067  0.23702830  0.07413611  1
  Ca2+  Ca19  1  0.24115501  0.24738978  0.40620351  1
  Ca2+  Ca20  1  0.23266944  0.24288152  0.77901075  1
  Ca2+  Ca21  1  0.24900995  0.75029411  0.09207254  1
  Ca2+  Ca22  1  0.24548206  0.75630268  0.40363501  1
  Ca2+  Ca23  1  0.24445201  0.75993038  0.75723707  1
  Ca2+  Ca24  1  0.58821412  0.24530677  0.07197681  1
  Ca2+  Ca25  1  0.59233956  0.23944681  0.41658139  1
  Ca2+  Ca26  1  0.59597775  0.24208945  0.76256864  1
  Ca2+  Ca27  1  0.57919404  0.76965767  0.08812383  1
  Ca2+  Ca28  1  0.59406691  0.75173244  0.41799296  1
  Ca2+  Ca29  1  0.58581517  0.75809656  0.74047345  1
  Ca2+  Ca30  1  0.93873271  0.24353882  0.08122954  1
  Ca2+  Ca31  1  0.91761925  0.24249177  0.41810022  1
  Ca2+  Ca32  1  0.90991371  0.23563835  0.75019709  1
  Ca2+  Ca33  1  0.92017982  0.75749622  0.09655280  1
  Ca2+  Ca34  1  0.91285698  0.76523027  0.41002931  1
  Ca2+  Ca35  1  0.92482382  0.77400001  0.74417087  1
  Ca2+  Ca36  1  0.73996096  0.11224495  0.89424690  1
  Ca2+  Ca37  1  0.57205854  0.58949611  0.72286279  1
  Ca2+  Ca38  1  0.47130667  0.08529345  0.59166275  1
  Ca2+  Ca39  1  0.72247685  0.10900361  0.59063424  1
  Ca2+  Ca40  1  0.91938407  0.58443122  0.72591025  1
  Ca2+  Ca41  1  0.55247051  0.56628980  0.07667809  1
  Ca2+  Ca42  1  0.72583245  0.57756644  0.92608028  1
  Ca2+  Ca43  1  0.21753367  0.08217671  0.40443069  1
  Ca2+  Ca44  1  0.28806718  0.60880459  0.40936976  1
  Ca2+  Ca45  1  0.57369059  0.09144967  0.07392079  1
  Ca2+  Ca46  1  0.56474727  0.56783113  0.07511114  1
  Ca2+  Ca47  1  0.90185289  0.61269388  0.41939233  1
  Ca2+  Ca48  1  0.10448240  0.58650745  0.93169852  1
  Ca2+  Ca49  1  0.93791252  0.09460321  0.07502343  1
  Ca2+  Ca50  1  0.72948616  0.11227459  0.89475147  1
  Ca2+  Ca51  1  0.74176244  0.08240673  0.25577111  1
  Ca2+  Ca52  1  0.92942110  0.58032164  0.72844235  1
  Ca2+  Ca53  1  0.41921462  0.60638441  0.57103822  1
  Ca2+  Ca54  1  0.93622595  0.08641171  0.41207763  1
  Ca2+  Ca55  1  0.40909791  0.09380417  0.93790556  1
  Ca2+  Ca56  1  0.08567523  0.08526452  0.25575992  1
  Ca2+  Ca57  1  0.40315375  0.57489531  0.94150153  1
  Ca2+  Ca58  1  0.11528551  0.09880523  0.92169125  1
  Ca2+  Ca59  1  0.60490251  0.10743591  0.73505910  1
  Ca2+  Ca60  1  0.89346257  0.61051047  0.42505564  1
  Ca2+  Ca61  1  0.09515559  0.08696665  0.25917757  1
  Ca2+  Ca62  1  0.07076624  0.10455143  0.56251469  1
  Ca2+  Ca63  1  0.09785364  0.59319122  0.58032869  1
  Ca2+  Ca64  1  0.73698499  0.58071556  0.93047033  1
  Ca2+  Ca65  1  0.25676129  0.58533891  0.74584910  1
  Ca2+  Ca66  1  0.09696464  0.60294252  0.24759883  1
  Ca2+  Ca67  1  0.23922382  0.09789448  0.08596127  1
  Ca2+  Ca68  1  0.39867115  0.09349748  0.93950850  1
  Ca2+  Ca69  1  0.91987982  0.60080975  0.09309872  1
  Ca2+  Ca70  1  0.56693576  0.60935594  0.42962093  1
  Ca2+  Ca71  1  0.26943058  0.58450485  0.74535319  1
  Ca2+  Ca72  1  0.91334089  0.90876940  0.09542271  1
  Ca2+  Ca73  1  0.41970491  0.41419510  0.24467142  1
  Ca2+  Ca74  1  0.92613440  0.39973870  0.73454602  1
  Ca2+  Ca75  1  0.41626482  0.90517797  0.23629186  1
  Ca2+  Ca76  1  0.58176098  0.90840307  0.41665917  1
  Ca2+  Ca77  1  0.42127561  0.91199628  0.59402325  1
  Ca2+  Ca78  1  0.92128256  0.39244851  0.43138609  1
  Ca2+  Ca79  1  0.57650313  0.39548175  0.75561065  1
  Ca2+  Ca80  1  0.25017090  0.40669734  0.74318858  1
  Ca2+  Ca81  1  0.72941684  0.40027433  0.23709717  1
  Ca2+  Ca82  1  0.75172933  0.38956082  0.58824483  1
  Ca2+  Ca83  1  0.26756370  0.40790955  0.07811289  1
  Ca2+  Ca84  1  0.74059329  0.40056908  0.23963149  1
  Ca2+  Ca85  1  0.42482904  0.92184378  0.94568452  1
  Ca2+  Ca86  1  0.72983863  0.90749546  0.58370869  1
  Ca2+  Ca87  1  0.74120478  0.90729437  0.58334106  1
  Ca2+  Ca88  1  0.57543915  0.40143878  0.41874660  1
  Ca2+  Ca89  1  0.40871874  0.41471731  0.24498076  1
  Ca2+  Ca90  1  0.40714152  0.40899799  0.58935056  1
  Ca2+  Ca91  1  0.57787844  0.91588271  0.73965271  1
  Ca2+  Ca92  1  0.41966246  0.41070578  0.59141349  1
  Ca2+  Ca93  1  0.95253869  0.93603834  0.37064471  1
  Ca2+  Ca94  1  0.09839031  0.40034776  0.90841598  1
  Ca2+  Ca95  1  0.93690367  0.40435035  0.73692401  1
  Ca2+  Ca96  1  0.71821965  0.41360353  0.93056962  1
  Ca2+  Ca97  1  0.09289269  0.39658383  0.24828416  1
  Ca2+  Ca98  1  0.10108329  0.90806472  0.57834517  1
  Ca2+  Ca99  1  0.91945167  0.39490076  0.08664588  1
  Ca2+  Ca100  1  0.73728134  0.91244419  0.92856481  1
  Ca2+  Ca101  1  0.45738325  0.42895244  0.95188741  1
  Ca2+  Ca102  1  0.26105915  0.91115312  0.09207862  1
  Ca2+  Ca103  1  0.08549950  0.90815775  0.91706631  1
  Ca2+  Ca104  1  0.08824008  0.40348100  0.91150551  1
  Ca2+  Ca105  1  0.75554785  0.90939641  0.25053521  1
  Ca2+  Ca106  1  0.09673613  0.90911683  0.91729960  1
  Ca2+  Ca107  1  0.25259255  0.91002418  0.73970464  1
  Mn3.34+  Mn108  1  0.08742998  0.33395305  0.08561269  1
  Mn3.34+  Mn109  1  0.08650064  0.33026823  0.42062114  1
  Mn3.34+  Mn110  1  0.08801258  0.32768865  0.74617356  1
  Mn3.34+  Mn111  1  0.08499880  0.83493703  0.08890271  1
  Mn3.34+  Mn112  1  0.08592374  0.84232684  0.41442154  1
  Mn3.34+  Mn113  1  0.08259751  0.84184562  0.74624364  1
  Mn3.34+  Mn114  1  0.42092998  0.33753860  0.08409113  1
  Mn3.34+  Mn115  1  0.41037918  0.33381096  0.41673927  1
  Mn3.34+  Mn116  1  0.41534603  0.32931733  0.75589419  1
  Mn3.34+  Mn117  1  0.41725963  0.83557588  0.08618548  1
  Mn3.34+  Mn118  1  0.41325534  0.83629876  0.41781923  1
  Mn3.34+  Mn119  1  0.41650579  0.83431265  0.75410866  1
  Mn3.34+  Mn120  1  0.74944205  0.32812069  0.07886349  1
  Mn3.34+  Mn121  1  0.74794442  0.32771710  0.41719384  1
  Mn3.34+  Mn122  1  0.75142227  0.32259584  0.75379163  1
  Mn3.34+  Mn123  1  0.74792557  0.83491135  0.08683044  1
  Mn3.34+  Mn124  1  0.75099159  0.83665749  0.41398543  1
  Mn3.34+  Mn125  1  0.75126502  0.83855359  0.75672788  1
  Mn3.34+  Mn126  1  0.25303837  0.33053028  0.24951943  1
  Mn3.34+  Mn127  1  0.24259787  0.33320111  0.58017677  1
  Mn3.34+  Mn128  1  0.25836777  0.33050808  0.91721461  1
  Mn3.34+  Mn129  1  0.24874282  0.84196490  0.25198829  1
  Mn3.34+  Mn130  1  0.25457608  0.82961173  0.57616407  1
  Mn3.34+  Mn131  1  0.25497582  0.83462384  0.91651526  1
  Mn3.34+  Mn132  1  0.57734589  0.32811137  0.24615694  1
  Mn3.34+  Mn133  1  0.58311859  0.32648630  0.58136675  1
  Mn3.34+  Mn134  1  0.58039715  0.32935024  0.91654210  1
  Mn3.34+  Mn135  1  0.58398963  0.83831033  0.24925015  1
  Mn3.34+  Mn136  1  0.57871796  0.83381262  0.57922184  1
  Mn3.34+  Mn137  1  0.57938879  0.83560077  0.91555190  1
  Mn3.34+  Mn138  1  0.91664917  0.33087428  0.25312186  1
  Mn3.34+  Mn139  1  0.91862887  0.32323550  0.57944585  1
  Mn3.34+  Mn140  1  0.91584785  0.32491877  0.91301331  1
  Mn3.34+  Mn141  1  0.91955129  0.84126599  0.24983335  1
  Mn3.34+  Mn142  1  0.91685008  0.83603184  0.57861731  1
  Mn3.34+  Mn143  1  0.91532297  0.83669312  0.91643370  1
  Mn3.34+  Mn144  1  0.07569259  0.16328506  0.75680893  1
  Mn3.34+  Mn145  1  0.74642361  0.16369046  0.41942172  1
  Mn3.34+  Mn146  1  0.25161848  0.16260658  0.24691002  1
  Mn3.34+  Mn147  1  0.91764548  0.67200911  0.58166072  1
  Mn3.34+  Mn148  1  0.90869798  0.67380425  0.91870747  1
  Mn3.34+  Mn149  1  0.25584401  0.66820250  0.92302496  1
  Mn3.34+  Mn150  1  0.92030964  0.67299816  0.24905762  1
  Mn3.34+  Mn151  1  0.58606319  0.67132222  0.58113583  1
  Mn3.34+  Mn152  1  0.09115244  0.66938516  0.75154866  1
  Mn3.34+  Mn153  1  0.91578058  0.16813317  0.91410135  1
  Mn3.34+  Mn154  1  0.25446012  0.67069069  0.25044893  1
  Mn3.34+  Mn155  1  0.57386328  0.66603078  0.90874189  1
  Mn3.34+  Mn156  1  0.25239479  0.66993703  0.57553717  1
  Mn3.34+  Mn157  1  0.08063155  0.66393001  0.75234127  1
  Mn3.34+  Mn158  1  0.57191941  0.66400807  0.24954009  1
  Mn3.34+  Mn159  1  0.91744433  0.16507504  0.25036958  1
  Mn3.34+  Mn160  1  0.41409828  0.67260203  0.75035481  1
  Mn3.34+  Mn161  1  0.74998475  0.66757030  0.09255523  1
  Mn3.34+  Mn162  1  0.90776724  0.15973100  0.24807276  1
  Mn3.34+  Mn163  1  0.58399570  0.16297804  0.24637772  1
  Mn3.34+  Mn164  1  0.42432819  0.15819886  0.41507102  1
  Mn3.34+  Mn165  1  0.25196111  0.16412784  0.58655886  1
  Mn3.34+  Mn166  1  0.74788266  0.16189036  0.08357549  1
  Mn3.34+  Mn167  1  0.40882272  0.66446895  0.08895357  1
  Mn3.34+  Mn168  1  0.58744531  0.66819966  0.25023135  1
  Mn3.34+  Mn169  1  0.24080830  0.15992305  0.58451490  1
  Mn3.34+  Mn170  1  0.91213669  0.16784623  0.58226866  1
  Mn3.34+  Mn171  1  0.91902055  0.66867679  0.91574439  1
  Mn3.34+  Mn172  1  0.08845246  0.67122241  0.41660098  1
  Mn3.34+  Mn173  1  0.41390640  0.16291340  0.41387359  1
  Mn3.34+  Mn174  1  0.75050347  0.67175761  0.74758402  1
  Mn3.34+  Mn175  1  0.40522690  0.16693867  0.75113302  1
  Mn3.34+  Mn176  1  0.08910581  0.66706413  0.08798503  1
  Mn3.34+  Mn177  1  0.58410016  0.67140776  0.91163028  1
  Mn3.34+  Mn178  1  0.41827650  0.16782823  0.75227402  1
  Mn3.34+  Mn179  1  0.41743129  0.15929206  0.09495994  1
  Mn3.34+  Mn180  1  0.09460562  0.50116697  0.08366530  1
  Mn3.34+  Mn181  1  0.41048014  0.00383092  0.40209964  1
  Mn3.34+  Mn182  1  0.58245231  0.00011772  0.25037931  1
  Mn3.34+  Mn183  1  0.09616069  0.01113783  0.73738521  1
  Mn3.34+  Mn184  1  0.73891154  0.50149264  0.42120970  1
  Mn3.34+  Mn185  1  0.25478096  -0.00287724  0.58025248  1
  Mn3.34+  Mn186  1  0.08511613  -0.00168743  0.07728603  1
  Mn3.34+  Mn187  1  0.92444210  0.49682220  0.57926527  1
  Mn3.34+  Mn188  1  0.92356187  -0.00332364  0.58555604  1
  Mn3.34+  Mn189  1  0.25194660  0.50365639  0.24562508  1
  Mn3.34+  Mn190  1  0.23940857  0.50112330  0.58839417  1
  Mn3.34+  Mn191  1  0.39911817  -0.00408182  0.40252375  1
  Mn3.34+  Mn192  1  0.10334168  0.49873581  0.41463861  1
  Mn3.34+  Mn193  1  0.92682600  0.50041932  0.25158542  1
  Mn3.34+  Mn194  1  0.75198689  0.49458676  0.42391303  1
  Mn3.34+  Mn195  1  0.41616653  0.49859499  0.40965479  1
  Mn3.34+  Mn196  1  0.75039877  0.00619827  0.40808243  1
  Mn3.34+  Mn197  1  0.09073665  0.49571412  0.41727331  1
  Mn3.34+  Mn198  1  0.58652753  0.00125441  0.91319409  1
  Mn3.34+  Mn199  1  0.25523962  -0.00006582  0.91678629  1
  Mn3.34+  Mn200  1  0.91452979  0.50076824  0.91582966  1
  Mn3.34+  Mn201  1  0.42442069  0.49918002  0.75537953  1
  Mn3.34+  Mn202  1  0.91209365  0.50588540  0.25051630  1
  Mn3.34+  Mn203  1  0.90590356  -0.00031140  0.90645124  1
  Mn3.34+  Mn204  1  0.58098073  0.50068304  0.57855393  1
  Mn3.34+  Mn205  1  0.74810822  0.50249697  0.09043572  1
  Mn3.34+  Mn206  1  0.91424621  0.00258220  0.58680281  1
  Mn3.34+  Mn207  1  0.74372810  -0.00247206  0.74204841  1
  Mn3.34+  Mn208  1  0.91789933  0.00669588  0.90500941  1
  Mn3.34+  Mn209  1  0.74003849  0.49575688  0.75075811  1
  Mn3.34+  Mn210  1  0.41521607  0.00216074  0.74335343  1
  Mn3.34+  Mn211  1  0.25172014  0.49532241  0.92118716  1
  Mn3.34+  Mn212  1  0.58318325  0.49919641  0.25454902  1
  Mn3.34+  Mn213  1  0.74814670  0.00062276  0.07845869  1
  Mn3.34+  Mn214  1  0.74980631  0.50129972  0.74754498  1
  Mn3.34+  Mn215  1  0.92660215  0.49630143  0.91497039  1
  O2-  O216  1  -0.00585093  0.16722344  -0.00469073  1
  O2-  O217  1  -0.00006453  0.16241849  0.33143933  1
  O2-  O218  1  -0.00402873  0.16957741  0.66363124  1
  O2-  O219  1  0.00178263  0.64537105  -0.00393065  1
  O2-  O220  1  0.00103374  0.64671364  0.33803866  1
  O2-  O221  1  0.00690867  0.64704754  0.65950396  1
  O2-  O222  1  0.33949357  0.16932301  0.01248785  1
  O2-  O223  1  0.33012326  0.14495233  0.34166293  1
  O2-  O224  1  0.33600476  0.14515851  0.66524875  1
  O2-  O225  1  0.34348127  0.65857515  -0.00702407  1
  O2-  O226  1  0.33287861  0.67937263  0.32823945  1
  O2-  O227  1  0.33189383  0.65973957  0.66581880  1
  O2-  O228  1  0.66745494  0.14984406  0.00709424  1
  O2-  O229  1  0.67238766  0.15340391  0.32639784  1
  O2-  O230  1  0.66302730  0.18579934  0.66601932  1
  O2-  O231  1  0.65972002  0.64373574  0.00222319  1
  O2-  O232  1  0.65853490  0.65031727  0.33084420  1
  O2-  O233  1  0.66177784  0.66273527  0.67633197  1
  O2-  O234  1  0.17034916  0.15950890  0.00651171  1
  O2-  O235  1  0.16603060  0.16117248  0.32522664  1
  O2-  O236  1  0.15885186  0.14531230  0.66597674  1
  O2-  O237  1  0.16709590  0.65723096  0.00189951  1
  O2-  O238  1  0.17376685  0.65648740  0.34197854  1
  O2-  O239  1  0.17627985  0.65520719  0.66806265  1
  O2-  O240  1  0.49097677  0.16279167  0.00579457  1
  O2-  O241  1  0.50028508  0.15588457  0.32976831  1
  O2-  O242  1  0.49099828  0.18182317  0.66676778  1
  O2-  O243  1  0.50251621  0.64557159  -0.00165329  1
  O2-  O244  1  0.50028112  0.66856036  0.33399285  1
  O2-  O245  1  0.49460070  0.66650189  0.66747142  1
  O2-  O246  1  0.83081629  0.14807647  0.00167203  1
  O2-  O247  1  0.83571484  0.14115514  0.33479333  1
  O2-  O248  1  0.83281703  0.19080213  0.65476901  1
  O2-  O249  1  0.82700253  0.63921901  -0.00660917  1
  O2-  O250  1  0.83983641  0.66583132  0.32670880  1
  O2-  O251  1  0.84140960  0.65632877  0.67218364  1
  O2-  O252  1  0.00446668  0.34651644  -0.00713553  1
  O2-  O253  1  -0.00175719  0.33458198  0.33691788  1
  O2-  O254  1  -0.00060172  0.33122527  0.66609102  1
  O2-  O255  1  -0.00016833  0.85565473  -0.00202272  1
  O2-  O256  1  0.00084756  0.84435031  0.33274515  1
  O2-  O257  1  0.00431126  0.85098561  0.65773739  1
  O2-  O258  1  0.34065660  0.34077522  -0.00356644  1
  O2-  O259  1  0.33541524  0.35260229  0.32828057  1
  O2-  O260  1  0.33853482  0.34512386  0.66908769  1
  O2-  O261  1  0.33462653  0.84757000  -0.00315239  1
  O2-  O262  1  0.34077249  0.83078924  0.32806232  1
  O2-  O263  1  0.33611960  0.81634572  0.66605331  1
  O2-  O264  1  0.66598773  0.34052555  -0.00066085  1
  O2-  O265  1  0.66196996  0.34795843  0.33357515  1
  O2-  O266  1  0.66719499  0.32708666  0.66774468  1
  O2-  O267  1  0.66685703  0.84322049  -0.00218218  1
  O2-  O268  1  0.66733689  0.85285605  0.33407833  1
  O2-  O269  1  0.66342169  0.84496897  0.67088304  1
  O2-  O270  1  0.17237840  0.35369777  0.00167996  1
  O2-  O271  1  0.16143262  0.32855122  0.32866773  1
  O2-  O272  1  0.16752191  0.34814106  0.66812488  1
  O2-  O273  1  0.16741055  0.84812241  -0.00247425  1
  O2-  O274  1  0.16923140  0.83937419  0.33541049  1
  O2-  O275  1  0.17582733  0.83908046  0.66777413  1
  O2-  O276  1  0.49755795  0.33292816  -0.00150239  1
  O2-  O277  1  0.49344587  0.34972708  0.32713110  1
  O2-  O278  1  0.49550829  0.33100709  0.66240344  1
  O2-  O279  1  0.49632964  0.84227181  -0.00375882  1
  O2-  O280  1  0.50260474  0.84102496  0.33862869  1
  O2-  O281  1  0.49769508  0.84161954  0.66657295  1
  O2-  O282  1  0.83757250  0.33810889  -0.00160535  1
  O2-  O283  1  0.82689556  0.36089993  0.33489978  1
  O2-  O284  1  0.83956275  0.32892258  0.67233784  1
  O2-  O285  1  0.83175047  0.85085287  -0.00237715  1
  O2-  O286  1  0.83641763  0.84803860  0.33744332  1
  O2-  O287  1  0.82590261  0.84289076  0.66415872  1
  O2-  O288  1  -0.00071744  0.17915392  0.17166063  1
  O2-  O289  1  -0.00487051  0.18740969  0.50832123  1
  O2-  O290  1  -0.00235204  0.19171265  0.83707085  1
  O2-  O291  1  0.00304691  0.68188703  0.16596788  1
  O2-  O292  1  -0.00168665  0.67637074  0.49537998  1
  O2-  O293  1  -0.01326223  0.68683380  0.82132709  1
  O2-  O294  1  0.33552334  0.18151317  0.16759088  1
  O2-  O295  1  0.33405069  0.18116456  0.50144532  1
  O2-  O296  1  0.33536283  0.18325366  0.83642866  1
  O2-  O297  1  0.32888989  0.68371807  0.16434908  1
  O2-  O298  1  0.33244296  0.68344255  0.50270579  1
  O2-  O299  1  0.32619319  0.68520936  0.82391665  1
  O2-  O300  1  0.66639135  0.18003104  0.16453320  1
  O2-  O301  1  0.67089239  0.18019978  0.49519335  1
  O2-  O302  1  0.67214170  0.18174439  0.83108517  1
  O2-  O303  1  0.65554227  0.68217104  0.16347633  1
  O2-  O304  1  0.65739292  0.67564575  0.49884084  1
  O2-  O305  1  0.67248799  0.69037767  0.83784686  1
  O2-  O306  1  0.17337004  0.17638603  0.16962734  1
  O2-  O307  1  0.16699130  0.17967998  0.50071930  1
  O2-  O308  1  0.15387964  0.17190051  0.83414174  1
  O2-  O309  1  0.16149737  0.68103824  0.17233396  1
  O2-  O310  1  0.16191032  0.68825838  0.50641335  1
  O2-  O311  1  0.16601854  0.67545468  0.84156258  1
  O2-  O312  1  0.50417835  0.18466364  0.16240024  1
  O2-  O313  1  0.49643655  0.18007004  0.49694590  1
  O2-  O314  1  0.49436473  0.18335201  0.83072114  1
  O2-  O315  1  0.49877977  0.68345987  0.16682275  1
  O2-  O316  1  0.50187884  0.68077442  0.50584016  1
  O2-  O317  1  0.49919665  0.69152261  0.82565211  1
  O2-  O318  1  0.83551373  0.17923795  0.16202829  1
  O2-  O319  1  0.83345514  0.18278708  0.49546867  1
  O2-  O320  1  0.82648732  0.19107259  0.85230627  1
  O2-  O321  1  0.84515794  0.68283504  0.16064038  1
  O2-  O322  1  0.84396256  0.68366923  0.49993137  1
  O2-  O323  1  0.82781124  0.68856523  0.83399864  1
  O2-  O324  1  -0.00134033  0.31942681  0.16334753  1
  O2-  O325  1  -0.00355715  0.30968956  0.49577334  1
  O2-  O326  1  0.00127839  0.32030878  0.83192341  1
  O2-  O327  1  -0.00200074  0.82672758  0.16308304  1
  O2-  O328  1  -0.00583422  0.82043606  0.49657360  1
  O2-  O329  1  0.00829148  0.82633624  0.84279615  1
  O2-  O330  1  0.33650322  0.32058699  0.16341656  1
  O2-  O331  1  0.33868028  0.32343451  0.50918239  1
  O2-  O332  1  0.32889279  0.31351091  0.82851922  1
  O2-  O333  1  0.33203674  0.81971631  0.16308469  1
  O2-  O334  1  0.33445994  0.80721214  0.49652552  1
  O2-  O335  1  0.33157897  0.81798646  0.83178280  1
  O2-  O336  1  0.67109385  0.31952026  0.17317287  1
  O2-  O337  1  0.66456368  0.31295688  0.50063597  1
  O2-  O338  1  0.66761715  0.32278336  0.83293401  1
  O2-  O339  1  0.67230750  0.82167559  0.17379647  1
  O2-  O340  1  0.66747411  0.82682492  0.50275958  1
  O2-  O341  1  0.66576300  0.81605799  0.83181250  1
  O2-  O342  1  0.17014573  0.32484096  0.16728008  1
  O2-  O343  1  0.16647436  0.30583571  0.49673539  1
  O2-  O344  1  0.16301879  0.32711043  0.83757552  1
  O2-  O345  1  0.17148199  0.82750635  0.16036726  1
  O2-  O346  1  0.16241895  0.82050222  0.50490449  1
  O2-  O347  1  0.16442915  0.82504026  0.83789313  1
  O2-  O348  1  0.49533305  0.31424227  0.16801306  1
  O2-  O349  1  0.50154779  0.31575620  0.49614126  1
  O2-  O350  1  0.50206116  0.31267122  0.82861838  1
  O2-  O351  1  0.49378332  0.82169811  0.17529973  1
  O2-  O352  1  0.50117905  0.81612531  0.49694688  1
  O2-  O353  1  0.49978503  0.81336983  0.83029601  1
  O2-  O354  1  0.82852416  0.32844009  0.17307013  1
  O2-  O355  1  0.83237754  0.31513820  0.50049271  1
  O2-  O356  1  0.83606900  0.30844091  0.83124067  1
  O2-  O357  1  0.83477113  0.82176745  0.16834520  1
  O2-  O358  1  0.82313480  0.82418603  0.50785453  1
  O2-  O359  1  0.83391304  0.81370065  0.83509684  1
  O2-  O360  1  0.07804496  0.07289954  0.12031456  1
  O2-  O361  1  0.07818254  0.07021414  0.43687595  1
  O2-  O362  1  0.06173447  0.08029786  0.79079161  1
  O2-  O363  1  0.07528045  0.58319214  0.11368843  1
  O2-  O364  1  0.09549596  0.58150331  0.44681990  1
  O2-  O365  1  0.06401176  0.58255749  0.79121971  1
  O2-  O366  1  0.41493348  0.08082191  0.08699979  1
  O2-  O367  1  0.41682370  0.07501289  0.46694624  1
  O2-  O368  1  0.42082143  0.07890724  0.79287817  1
  O2-  O369  1  0.42356530  0.58304215  0.10411800  1
  O2-  O370  1  0.42124515  0.57508394  0.44335809  1
  O2-  O371  1  0.40951337  0.58099652  0.78441969  1
  O2-  O372  1  0.74926154  0.07914251  0.11810368  1
  O2-  O373  1  0.75417900  0.08030338  0.45550914  1
  O2-  O374  1  0.74227771  0.07645878  0.76276943  1
  O2-  O375  1  0.75096626  0.58417403  0.11832066  1
  O2-  O376  1  0.76658283  0.57949021  0.44797104  1
  O2-  O377  1  0.75177204  0.58032996  0.79145125  1
  O2-  O378  1  0.23138166  0.08226534  0.22290476  1
  O2-  O379  1  0.23871163  0.07859771  0.54642564  1
  O2-  O380  1  0.26720244  0.07771822  0.89947477  1
  O2-  O381  1  0.24219259  0.58461438  0.24073545  1
  O2-  O382  1  0.24974110  0.57951490  0.54587143  1
  O2-  O383  1  0.25384402  0.57583229  0.88255640  1
  O2-  O384  1  0.59053220  0.07934842  0.21168110  1
  O2-  O385  1  0.59920709  0.07858726  0.60224210  1
  O2-  O386  1  0.60129086  0.07465761  0.87126958  1
  O2-  O387  1  0.57531419  0.58201738  0.21620694  1
  O2-  O388  1  0.57073673  0.58424136  0.57136768  1
  O2-  O389  1  0.59881102  0.58733613  0.86473917  1
  O2-  O390  1  0.92369246  0.08001329  0.21459262  1
  O2-  O391  1  0.92478167  0.08257844  0.55158936  1
  O2-  O392  1  0.89068145  0.08451138  0.87831999  1
  O2-  O393  1  0.92337206  0.58622144  0.22514706  1
  O2-  O394  1  0.92897874  0.58241882  0.55521398  1
  O2-  O395  1  0.90507849  0.57807035  0.86312597  1
  O2-  O396  1  0.07804374  0.41921099  0.11521914  1
  O2-  O397  1  0.06651691  0.41754744  0.44840621  1
  O2-  O398  1  0.06885440  0.41539782  0.77815251  1
  O2-  O399  1  0.08462554  0.91890897  0.09745474  1
  O2-  O400  1  0.07321558  0.91800837  0.44658290  1
  O2-  O401  1  0.09526258  0.93152414  0.78617498  1
  O2-  O402  1  0.41236064  0.42251432  0.11134045  1
  O2-  O403  1  0.42419730  0.42187438  0.45715550  1
  O2-  O404  1  0.42525663  0.41805395  0.77774802  1
  O2-  O405  1  0.40798305  0.91612699  0.10082898  1
  O2-  O406  1  0.42567706  0.92457629  0.46007328  1
  O2-  O407  1  0.40497624  0.92402743  0.77948758  1
  O2-  O408  1  0.76054199  0.41702639  0.10346776  1
  O2-  O409  1  0.73648763  0.41690421  0.46032764  1
  O2-  O410  1  0.76777675  0.41459632  0.76806645  1
  O2-  O411  1  0.75854963  0.92061338  0.11056086  1
  O2-  O412  1  0.73729467  0.92721691  0.44875300  1
  O2-  O413  1  0.74176162  0.92393512  0.79183717  1
  O2-  O414  1  0.26123784  0.42093530  0.21530892  1
  O2-  O415  1  0.26906315  0.42132722  0.56995969  1
  O2-  O416  1  0.23897240  0.41826250  0.88076110  1
  O2-  O417  1  0.27188771  0.91803746  0.22763624  1
  O2-  O418  1  0.26669275  0.91621387  0.56623514  1
  O2-  O419  1  0.23973598  0.91966199  0.88389494  1
  O2-  O420  1  0.58776200  0.41535486  0.21427612  1
  O2-  O421  1  0.57504714  0.41716007  0.56013916  1
  O2-  O422  1  0.58605450  0.41475902  0.88667131  1
  O2-  O423  1  0.57664190  0.91987326  0.22255245  1
  O2-  O424  1  0.58690110  0.91502649  0.55806491  1
  O2-  O425  1  0.57814715  0.91990621  0.88385001  1
  O2-  O426  1  0.92635131  0.42051015  0.22194564  1
  O2-  O427  1  0.89726169  0.41362665  0.57086055  1
  O2-  O428  1  0.91487526  0.41666093  0.87360247  1
  O2-  O429  1  0.90660174  0.92089981  0.23161517  1
  O2-  O430  1  0.90282696  0.91964495  0.54398135  1
  O2-  O431  1  0.91934816  0.92014093  0.87981785  1
  O2-  O432  1  0.00265276  0.00623190  -0.00912203  1
  O2-  O433  1  0.00952416  0.02287175  0.33004037  1
  O2-  O434  1  0.02092553  0.00422887  0.64587202  1
  O2-  O435  1  -0.01031486  0.50061041  0.01189316  1
  O2-  O436  1  -0.00761592  0.51296712  0.34940186  1
  O2-  O437  1  -0.02628119  0.49373596  0.69574136  1
  O2-  O438  1  0.33268416  -0.00396178  -0.00832953  1
  O2-  O439  1  0.30368540  0.01089478  0.34938663  1
  O2-  O440  1  0.35103766  0.00002715  0.64882652  1
  O2-  O441  1  0.34107576  0.48592732  -0.01978842  1
  O2-  O442  1  0.34691194  0.49223603  0.31409730  1
  O2-  O443  1  0.32730967  0.50405762  0.68081166  1
  O2-  O444  1  0.68320336  0.00441089  -0.02305734  1
  O2-  O445  1  0.68862888  -0.00364936  0.30982977  1
  O2-  O446  1  0.66762101  -0.02175078  0.67007064  1
  O2-  O447  1  0.66549588  0.51241068  -0.00001743  1
  O2-  O448  1  0.67993189  0.47997856  0.32385561  1
  O2-  O449  1  0.64748058  0.49578975  0.67989973  1
  O2-  O450  1  0.15931323  -0.00045424  -0.01730843  1
  O2-  O451  1  0.14818102  0.01222441  0.33163160  1
  O2-  O452  1  0.17726483  -0.01659697  0.66569227  1
  O2-  O453  1  0.14366691  0.49194569  -0.03280824  1
  O2-  O454  1  0.14813603  0.48857457  0.30590753  1
  O2-  O455  1  0.16987079  0.52649872  0.67537235  1
  O2-  O456  1  0.48897663  0.01440792  -0.03487892  1
  O2-  O457  1  0.49987355  -0.01096796  0.33168664  1
  O2-  O458  1  0.50427415  -0.00250521  0.68494247  1
  O2-  O459  1  0.50226211  0.51652046  -0.01657631  1
  O2-  O460  1  0.50571930  0.47817172  0.34107283  1
  O2-  O461  1  0.48636436  0.49410290  0.65282625  1
  O2-  O462  1  0.84526049  -0.00144658  0.00931603  1
  O2-  O463  1  0.84655342  0.00723583  0.36074995  1
  O2-  O464  1  0.81823465  -0.00996902  0.64910187  1
  O2-  O465  1  0.82236941  0.50950434  -0.01334952  1
  O2-  O466  1  0.83841902  0.49593584  0.34159430  1
  O2-  O467  1  0.82559059  0.51856883  0.66281177  1
  O2-  O468  1  0.42094604  0.74920764  0.06214775  1
  O2-  O469  1  0.75328135  0.24730493  0.38296901  1
  O2-  O470  1  0.08065333  0.75128508  0.72451245  1
  O2-  O471  1  0.24772023  0.75395228  0.94296861  1
  O2-  O472  1  0.59290491  0.75047441  0.27302480  1
  O2-  O473  1  0.26269048  0.24905783  0.27185850  1
  O2-  O474  1  0.58598424  0.25148173  0.93507115  1
  O2-  O475  1  0.40408617  0.24856049  0.38920888  1
  O2-  O476  1  0.92661159  0.75545855  0.95395855  1
  O2-  O477  1  0.89451606  0.24521804  0.27654100  1
  O2-  O478  1  0.74927230  0.24577745  0.06046863  1
  O2-  O479  1  0.74670254  0.75784722  0.39947520  1
  O2-  O480  1  0.25673014  0.24512025  0.61889319  1
  O2-  O481  1  0.08005913  0.75134829  0.06112545  1
  O2-  O482  1  0.23608437  0.75287901  0.26143515  1
  O2-  O483  1  0.08765255  0.25606203  0.06783478  1
  O2-  O484  1  0.75074063  0.74843095  0.05851378  1
  O2-  O485  1  0.24126883  0.25472197  0.93526792  1
  O2-  O486  1  0.92584206  0.75200520  0.61025008  1
  O2-  O487  1  0.07703416  0.75000797  0.39153248  1
  O2-  O488  1  0.09925375  0.24728455  0.72543703  1
  O2-  O489  1  0.58203525  0.74905551  0.95156850  1
  O2-  O490  1  0.59094414  0.75282483  0.60435416  1
  O2-  O491  1  0.58511434  0.24857796  0.27772038  1
  O2-  O492  1  0.92396754  0.75365331  0.27101815  1
