# generated using pymatgen
data_Ca108Mn108O277
_symmetry_space_group_name_H-M   'P 1'
_cell_length_a   16.02887933
_cell_length_b   22.30832761
_cell_length_c   16.38958717
_cell_angle_alpha   90.00090386
_cell_angle_beta   90.00345857
_cell_angle_gamma   89.99966073
_symmetry_Int_Tables_number   1
_chemical_formula_structural   Ca108Mn108O277
_chemical_formula_sum   'Ca108 Mn108 O277'
_cell_volume   5860.54745231
_cell_formula_units_Z   1
loop_
 _symmetry_equiv_pos_site_id
 _symmetry_equiv_pos_as_xyz
  1  'x, y, z'
loop_
 _atom_type_symbol
 _atom_type_oxidation_number
  Ca2+  2.0
  Mn3.34+  3.34
  O2-  -2.0
loop_
 _atom_site_type_symbol
 _atom_site_label
 _atom_site_symmetry_multiplicity
 _atom_site_fract_x
 _atom_site_fract_y
 _atom_site_fract_z
 _atom_site_occupancy
  Ca2+  Ca0  1  0.08838452  0.25582181  0.24310689  1
  Ca2+  Ca1  1  0.07367447  0.25721883  0.59549141  1
  Ca2+  Ca2  1  0.08189539  0.24601691  0.90958942  1
  Ca2+  Ca3  1  0.09749124  0.73987106  0.24546272  1
  Ca2+  Ca4  1  0.09364232  0.75046071  0.58622558  1
  Ca2+  Ca5  1  0.06687097  0.73089629  0.91907659  1
  Ca2+  Ca6  1  0.41729136  0.22810860  0.25994293  1
  Ca2+  Ca7  1  0.42193707  0.25100505  0.57083622  1
  Ca2+  Ca8  1  0.39031035  0.22556432  0.92927651  1
  Ca2+  Ca9  1  0.40612968  0.75233516  0.25612278  1
  Ca2+  Ca10  1  0.41612705  0.75133386  0.58377823  1
  Ca2+  Ca11  1  0.40200121  0.75174811  0.91414585  1
  Ca2+  Ca12  1  0.74613403  0.24963680  0.26496585  1
  Ca2+  Ca13  1  0.75216419  0.24565541  0.55035779  1
  Ca2+  Ca14  1  0.77458415  0.24744608  0.92525703  1
  Ca2+  Ca15  1  0.75234818  0.77107768  0.25685287  1
  Ca2+  Ca16  1  0.74340813  0.75822257  0.57125720  1
  Ca2+  Ca17  1  0.76801143  0.76143687  0.91733531  1
  Ca2+  Ca18  1  0.26640669  0.24575421  0.07965706  1
  Ca2+  Ca19  1  0.27189178  0.24973761  0.40928840  1
  Ca2+  Ca20  1  0.24446687  0.24585502  0.76961168  1
  Ca2+  Ca21  1  0.23152273  0.75071053  0.08203531  1
  Ca2+  Ca22  1  0.24902362  0.75204880  0.41561706  1
  Ca2+  Ca23  1  0.24267539  0.75251601  0.75391485  1
  Ca2+  Ca24  1  0.57214433  0.24971644  0.09295674  1
  Ca2+  Ca25  1  0.58427823  0.26015707  0.41201262  1
  Ca2+  Ca26  1  0.56595142  0.24976677  0.73933436  1
  Ca2+  Ca27  1  0.58600123  0.76053346  0.08569510  1
  Ca2+  Ca28  1  0.59376317  0.74606678  0.41964790  1
  Ca2+  Ca29  1  0.58427965  0.75475723  0.74424360  1
  Ca2+  Ca30  1  0.91093662  0.24058041  0.07223481  1
  Ca2+  Ca31  1  0.89889477  0.25343556  0.41514938  1
  Ca2+  Ca32  1  0.93125784  0.25133505  0.75599905  1
  Ca2+  Ca33  1  0.93050169  0.74728500  0.06828577  1
  Ca2+  Ca34  1  0.90633219  0.75663470  0.41285924  1
  Ca2+  Ca35  1  0.92533189  0.75766501  0.76359068  1
  Ca2+  Ca36  1  0.73049267  0.11436511  0.56669197  1
  Ca2+  Ca37  1  0.73924623  0.10634966  0.25042817  1
  Ca2+  Ca38  1  0.24289625  0.10417716  0.76962884  1
  Ca2+  Ca39  1  0.24762689  0.59173995  0.73985421  1
  Ca2+  Ca40  1  0.57327030  0.59078048  0.74544752  1
  Ca2+  Ca41  1  0.74442266  0.57787349  0.92427598  1
  Ca2+  Ca42  1  0.28192403  0.09482758  0.40387758  1
  Ca2+  Ca43  1  0.93499429  0.08170207  0.73857471  1
  Ca2+  Ca44  1  0.76931234  0.09510279  0.92878687  1
  Ca2+  Ca45  1  0.40934853  0.59569371  0.58304750  1
  Ca2+  Ca46  1  0.88773967  0.56786520  0.40542346  1
  Ca2+  Ca47  1  0.75719847  0.57900151  0.92332095  1
  Ca2+  Ca48  1  0.74739199  0.10317012  0.24582128  1
  Ca2+  Ca49  1  0.26863460  0.10113969  0.08514037  1
  Ca2+  Ca50  1  0.27896396  0.10239082  0.08539448  1
  Ca2+  Ca51  1  0.73138114  0.58400446  0.56853432  1
  Ca2+  Ca52  1  0.57001055  0.09672396  0.73086388  1
  Ca2+  Ca53  1  0.22717389  0.60268033  0.11851063  1
  Ca2+  Ca54  1  0.89289164  0.09120509  0.42475392  1
  Ca2+  Ca55  1  0.09002076  0.10913247  0.91222895  1
  Ca2+  Ca56  1  0.07704774  0.07338204  0.62039573  1
  Ca2+  Ca57  1  0.94535378  0.59727166  0.77174878  1
  Ca2+  Ca58  1  0.41595712  0.11218789  0.57301997  1
  Ca2+  Ca59  1  0.59542188  0.57646915  0.06577361  1
  Ca2+  Ca60  1  0.88916684  0.09324406  0.41549196  1
  Ca2+  Ca61  1  0.92304781  0.09866474  0.08431508  1
  Ca2+  Ca62  1  0.58394224  0.57603481  0.06473557  1
  Ca2+  Ca63  1  0.23639018  0.59053202  0.73989708  1
  Ca2+  Ca64  1  0.57535115  0.12258492  0.41609382  1
  Ca2+  Ca65  1  0.93472047  0.59789452  0.76645995  1
  Ca2+  Ca66  1  0.23608003  0.59862394  0.39711088  1
  Ca2+  Ca67  1  0.54814289  0.10916609  0.11313123  1
  Ca2+  Ca68  1  0.42430017  0.11607817  0.56980142  1
  Ca2+  Ca69  1  0.40990780  0.58773405  0.91796218  1
  Ca2+  Ca70  1  0.24657400  0.59947142  0.39845354  1
  Ca2+  Ca71  1  0.58424744  0.12519879  0.42014654  1
  Ca2+  Ca72  1  0.93117270  0.39927919  0.09029363  1
  Ca2+  Ca73  1  0.75581259  0.40518896  0.91506894  1
  Ca2+  Ca74  1  0.59072969  0.90640610  0.74865292  1
  Ca2+  Ca75  1  0.23155168  0.91958335  0.74415707  1
  Ca2+  Ca76  1  0.91927933  0.90801124  0.09935999  1
  Ca2+  Ca77  1  0.91329992  0.40788971  0.41654077  1
  Ca2+  Ca78  1  0.91989269  0.39975370  0.08974358  1
  Ca2+  Ca79  1  0.58773518  0.40811648  0.07784969  1
  Ca2+  Ca80  1  0.74350996  0.40784246  0.91587824  1
  Ca2+  Ca81  1  0.22674621  0.39987714  0.09147718  1
  Ca2+  Ca82  1  0.08597350  0.90753604  0.91799159  1
  Ca2+  Ca83  1  0.57511740  0.90605648  0.40528550  1
  Ca2+  Ca84  1  0.75134937  0.41594257  0.27598518  1
  Ca2+  Ca85  1  0.90785968  0.91641556  0.40140112  1
  Ca2+  Ca86  1  0.25296107  0.91173578  0.09108878  1
  Ca2+  Ca87  1  0.40821096  0.39429600  0.58286861  1
  Ca2+  Ca88  1  0.58657788  0.90565261  0.40527458  1
  Ca2+  Ca89  1  0.40920184  0.90423244  0.58319646  1
  Ca2+  Ca90  1  0.41520667  0.91623096  0.92848059  1
  Ca2+  Ca91  1  0.75363947  0.40204053  0.56493331  1
  Ca2+  Ca92  1  0.58531823  0.39433272  0.74840122  1
  Ca2+  Ca93  1  0.23414160  0.40075553  0.74019440  1
  Ca2+  Ca94  1  0.08923682  0.90185173  0.25141854  1
  Ca2+  Ca95  1  0.58492155  0.90818720  0.08530165  1
  Ca2+  Ca96  1  0.41711936  0.39592676  0.25184673  1
  Ca2+  Ca97  1  0.42788638  0.91456337  0.92711658  1
  Ca2+  Ca98  1  0.90833171  0.90631818  0.10066602  1
  Ca2+  Ca99  1  0.25552342  0.90974082  0.39336546  1
  Ca2+  Ca100  1  0.23789220  0.40012279  0.08960266  1
  Ca2+  Ca101  1  0.06777619  0.92065151  0.59919121  1
  Ca2+  Ca102  1  0.92197956  0.92164225  0.73629995  1
  Ca2+  Ca103  1  0.41546204  0.39905378  0.91207784  1
  Ca2+  Ca104  1  0.24419728  0.40305863  0.73691599  1
  Ca2+  Ca105  1  0.05884438  0.92338854  0.59520293  1
  Ca2+  Ca106  1  0.24158298  0.91584459  0.74221066  1
  Ca2+  Ca107  1  0.77557627  0.91881259  0.59028399  1
  Mn3.34+  Mn108  1  0.08159768  0.32582743  0.08169886  1
  Mn3.34+  Mn109  1  0.08483027  0.33828856  0.42189767  1
  Mn3.34+  Mn110  1  0.07514771  0.33454796  0.74686742  1
  Mn3.34+  Mn111  1  0.08420532  0.83364729  0.08376158  1
  Mn3.34+  Mn112  1  0.08248498  0.83104872  0.41942234  1
  Mn3.34+  Mn113  1  0.08242870  0.83580215  0.75581466  1
  Mn3.34+  Mn114  1  0.41854981  0.33124722  0.08375460  1
  Mn3.34+  Mn115  1  0.41767939  0.33042622  0.41642696  1
  Mn3.34+  Mn116  1  0.41404100  0.32747854  0.74930905  1
  Mn3.34+  Mn117  1  0.41471191  0.83321273  0.08975126  1
  Mn3.34+  Mn118  1  0.41490666  0.83076844  0.41652778  1
  Mn3.34+  Mn119  1  0.41590390  0.83445944  0.75446259  1
  Mn3.34+  Mn120  1  0.74667149  0.33073113  0.09260904  1
  Mn3.34+  Mn121  1  0.74819524  0.33508657  0.41527019  1
  Mn3.34+  Mn122  1  0.75174317  0.32527985  0.74648969  1
  Mn3.34+  Mn123  1  0.74971534  0.83875174  0.08151870  1
  Mn3.34+  Mn124  1  0.75088346  0.83299450  0.41605336  1
  Mn3.34+  Mn125  1  0.75292291  0.83844378  0.74910368  1
  Mn3.34+  Mn126  1  0.24756874  0.33164930  0.25929831  1
  Mn3.34+  Mn127  1  0.23754698  0.34438459  0.56646876  1
  Mn3.34+  Mn128  1  0.24581523  0.33496509  0.91317273  1
  Mn3.34+  Mn129  1  0.25047776  0.83571215  0.24651345  1
  Mn3.34+  Mn130  1  0.24914051  0.83273933  0.57648495  1
  Mn3.34+  Mn131  1  0.24819332  0.83262130  0.91884049  1
  Mn3.34+  Mn132  1  0.58312402  0.33841492  0.24959975  1
  Mn3.34+  Mn133  1  0.58528854  0.33381817  0.57871185  1
  Mn3.34+  Mn134  1  0.58342453  0.33301440  0.91451621  1
  Mn3.34+  Mn135  1  0.58158950  0.83228632  0.24537764  1
  Mn3.34+  Mn136  1  0.58347548  0.83035549  0.58239664  1
  Mn3.34+  Mn137  1  0.58802822  0.83443087  0.91012569  1
  Mn3.34+  Mn138  1  0.92019841  0.32811284  0.25454172  1
  Mn3.34+  Mn139  1  0.91655189  0.33245329  0.58306545  1
  Mn3.34+  Mn140  1  0.92228927  0.33171051  0.90991655  1
  Mn3.34+  Mn141  1  0.91879303  0.83587483  0.25232309  1
  Mn3.34+  Mn142  1  0.91662574  0.83214077  0.58101835  1
  Mn3.34+  Mn143  1  0.91755662  0.83627076  0.91418711  1
  Mn3.34+  Mn144  1  0.41614050  0.66944192  0.42091098  1
  Mn3.34+  Mn145  1  0.41713722  0.67180395  0.08700150  1
  Mn3.34+  Mn146  1  0.08761730  0.67093356  0.74709459  1
  Mn3.34+  Mn147  1  0.08575366  0.16333339  0.08945428  1
  Mn3.34+  Mn148  1  0.57974694  0.66748198  0.90945339  1
  Mn3.34+  Mn149  1  0.74838800  0.65943175  0.41815298  1
  Mn3.34+  Mn150  1  0.08096337  0.16616213  0.75266577  1
  Mn3.34+  Mn151  1  0.58956270  0.65604995  0.25483171  1
  Mn3.34+  Mn152  1  0.75113710  0.67008596  0.08613542  1
  Mn3.34+  Mn153  1  0.92678485  0.66029639  0.25156939  1
  Mn3.34+  Mn154  1  0.57656513  0.66241076  0.25578329  1
  Mn3.34+  Mn155  1  0.58511012  0.16614829  0.91774675  1
  Mn3.34+  Mn156  1  0.07800530  0.66319080  0.07896007  1
  Mn3.34+  Mn157  1  0.24474757  0.66386212  0.91629253  1
  Mn3.34+  Mn158  1  0.07982991  0.17534874  0.41608013  1
  Mn3.34+  Mn159  1  0.91790372  0.16509462  0.24488997  1
  Mn3.34+  Mn160  1  0.40361347  0.66564415  0.08941452  1
  Mn3.34+  Mn161  1  0.24301364  0.16713651  0.58242641  1
  Mn3.34+  Mn162  1  0.41035500  0.16717367  0.75156680  1
  Mn3.34+  Mn163  1  0.76154294  0.66489086  0.08644020  1
  Mn3.34+  Mn164  1  0.75219075  0.16423578  0.74945909  1
  Mn3.34+  Mn165  1  0.74304685  0.66698112  0.74830991  1
  Mn3.34+  Mn166  1  0.57935009  0.66619854  0.57638267  1
  Mn3.34+  Mn167  1  0.08223861  0.66643578  0.42202078  1
  Mn3.34+  Mn168  1  0.91419927  0.66522880  0.57834352  1
  Mn3.34+  Mn169  1  0.74962069  0.17638196  0.74979101  1
  Mn3.34+  Mn170  1  0.25248209  0.16456277  0.24666508  1
  Mn3.34+  Mn171  1  0.09198145  0.16979499  0.41753503  1
  Mn3.34+  Mn172  1  0.57529403  0.16048541  0.91656016  1
  Mn3.34+  Mn173  1  0.75408830  0.67121911  0.74504412  1
  Mn3.34+  Mn174  1  0.74741949  0.16978722  0.08483269  1
  Mn3.34+  Mn175  1  0.24835477  0.66773217  0.57676529  1
  Mn3.34+  Mn176  1  0.91996578  0.16526948  0.58133289  1
  Mn3.34+  Mn177  1  0.91612521  0.66487007  0.25281724  1
  Mn3.34+  Mn178  1  0.92835284  0.66015503  0.57522745  1
  Mn3.34+  Mn179  1  0.41614688  0.67281760  0.75153904  1
  Mn3.34+  Mn180  1  0.76169885  0.49584140  0.73412156  1
  Mn3.34+  Mn181  1  0.41673187  0.49437616  0.41345067  1
  Mn3.34+  Mn182  1  0.74532288  -0.00368599  0.41324282  1
  Mn3.34+  Mn183  1  0.08144489  0.50347604  0.07692146  1
  Mn3.34+  Mn184  1  0.92427949  0.49681299  0.26166685  1
  Mn3.34+  Mn185  1  0.90900580  -0.00458044  0.92078971  1
  Mn3.34+  Mn186  1  0.76447283  0.49766299  0.09109384  1
  Mn3.34+  Mn187  1  0.41625956  -0.00149734  0.40292089  1
  Mn3.34+  Mn188  1  0.93276443  0.49418251  0.92751090  1
  Mn3.34+  Mn189  1  0.42355261  0.49818393  0.75255123  1
  Mn3.34+  Mn190  1  0.40024165  0.49684298  0.08589432  1
  Mn3.34+  Mn191  1  0.74739117  0.50153937  0.73379701  1
  Mn3.34+  Mn192  1  0.75393337  0.00011815  0.75260284  1
  Mn3.34+  Mn193  1  0.57775734  0.50061629  0.57402846  1
  Mn3.34+  Mn194  1  0.08480981  0.49890064  0.41902063  1
  Mn3.34+  Mn195  1  0.59202313  0.00071651  0.92205197  1
  Mn3.34+  Mn196  1  0.09371191  0.00833940  0.40464492  1
  Mn3.34+  Mn197  1  0.41377586  0.00135176  0.75276231  1
  Mn3.34+  Mn198  1  0.25768728  -0.00293274  0.57473036  1
  Mn3.34+  Mn199  1  0.57788163  -0.00415980  0.58114551  1
  Mn3.34+  Mn200  1  0.08803204  0.00043114  0.08957801  1
  Mn3.34+  Mn201  1  0.93650592  0.49477714  0.58950297  1
  Mn3.34+  Mn202  1  0.41334075  0.50308923  0.75155077  1
  Mn3.34+  Mn203  1  0.58876016  0.00070339  0.57882508  1
  Mn3.34+  Mn204  1  0.23971580  0.49741674  0.26335380  1
  Mn3.34+  Mn205  1  0.57892971  -0.00376790  0.25506590  1
  Mn3.34+  Mn206  1  0.92193299  0.00240978  0.92023088  1
  Mn3.34+  Mn207  1  0.08118149  0.49744203  0.74154797  1
  Mn3.34+  Mn208  1  0.08136149  0.00230669  0.40850307  1
  Mn3.34+  Mn209  1  0.59362593  0.49994405  0.26253380  1
  Mn3.34+  Mn210  1  0.23318461  0.50229141  0.92779034  1
  Mn3.34+  Mn211  1  0.74543130  0.00355044  0.08816341  1
  Mn3.34+  Mn212  1  0.24822419  0.00103116  0.92753514  1
  Mn3.34+  Mn213  1  0.40954279  0.50307879  0.08882858  1
  Mn3.34+  Mn214  1  0.42649157  0.49994516  0.41321662  1
  Mn3.34+  Mn215  1  0.42245851  -0.00256181  0.08759396  1
  O2-  O216  1  0.01076549  0.16892530  0.00749515  1
  O2-  O217  1  -0.00152256  0.15170176  0.33902284  1
  O2-  O218  1  0.00001551  0.15448655  0.66327083  1
  O2-  O219  1  -0.00218218  0.66495936  0.00519714  1
  O2-  O220  1  0.00557127  0.67321157  0.33520334  1
  O2-  O221  1  0.00156761  0.65332894  0.66488614  1
  O2-  O222  1  0.32518811  0.16621472  0.00760582  1
  O2-  O223  1  0.32952022  0.16232946  0.32718177  1
  O2-  O224  1  0.32959715  0.15938554  0.66564722  1
  O2-  O225  1  0.33378533  0.65021472  -0.00448674  1
  O2-  O226  1  0.32874273  0.67781998  0.34900265  1
  O2-  O227  1  0.33127634  0.65679519  0.66906092  1
  O2-  O228  1  0.66666113  0.14893110  -0.00178655  1
  O2-  O229  1  0.67295866  0.15878203  0.32818459  1
  O2-  O230  1  0.66298752  0.17238968  0.67351803  1
  O2-  O231  1  0.65876345  0.65709755  0.00362392  1
  O2-  O232  1  0.66543623  0.65503213  0.33574522  1
  O2-  O233  1  0.66231953  0.64704327  0.66747443  1
  O2-  O234  1  0.16741151  0.15981933  0.01469018  1
  O2-  O235  1  0.16682456  0.16878156  0.33357867  1
  O2-  O236  1  0.16519607  0.16121061  0.66518861  1
  O2-  O237  1  0.16737682  0.65500881  0.00084411  1
  O2-  O238  1  0.16603042  0.67946149  0.34552115  1
  O2-  O239  1  0.16800367  0.65487254  0.66294039  1
  O2-  O240  1  0.49796727  0.15494680  -0.00258900  1
  O2-  O241  1  0.51729667  0.18306317  0.33379938  1
  O2-  O242  1  0.49433771  0.16528357  0.66693336  1
  O2-  O243  1  0.49695378  0.64587158  0.00281779  1
  O2-  O244  1  0.49615887  0.67413437  0.33635624  1
  O2-  O245  1  0.49659890  0.66649489  0.66729817  1
  O2-  O246  1  0.83315537  0.15763975  0.01002451  1
  O2-  O247  1  0.83819777  0.15296899  0.32971429  1
  O2-  O248  1  0.83032930  0.14966524  0.66450590  1
  O2-  O249  1  0.81946525  0.65298408  -0.01070610  1
  O2-  O250  1  0.84438110  0.65463917  0.34163577  1
  O2-  O251  1  0.83731791  0.63142755  0.66735659  1
  O2-  O252  1  -0.00395769  0.33928783  0.00445398  1
  O2-  O253  1  -0.00027156  0.32520417  0.33858204  1
  O2-  O254  1  -0.00641257  0.33693980  0.66864642  1
  O2-  O255  1  -0.00366254  0.85648171  0.00410639  1
  O2-  O256  1  0.00103904  0.84172242  0.33842869  1
  O2-  O257  1  -0.00047284  0.84738629  0.67025879  1
  O2-  O258  1  0.32779288  0.35419229  0.00210863  1
  O2-  O259  1  0.33277662  0.34632243  0.33603408  1
  O2-  O260  1  0.32759946  0.33044319  0.67244077  1
  O2-  O261  1  0.33641116  0.85068359  -0.00165162  1
  O2-  O262  1  0.32982469  0.82131272  0.33399169  1
  O2-  O263  1  0.32620263  0.84937368  0.67487826  1
  O2-  O264  1  0.67098467  0.34672972  -0.00033661  1
  O2-  O265  1  0.66890797  0.33200423  0.32783910  1
  O2-  O266  1  0.65842088  0.31712340  0.67114074  1
  O2-  O267  1  0.66223229  0.82864517  -0.00124126  1
  O2-  O268  1  0.66515685  0.84443248  0.33256597  1
  O2-  O269  1  0.67102882  0.85323493  0.65881538  1
  O2-  O270  1  0.16480823  0.33800144  0.00037207  1
  O2-  O271  1  0.16224648  0.31979194  0.33730677  1
  O2-  O272  1  0.16600913  0.33202440  0.66148177  1
  O2-  O273  1  0.16964308  0.85214918  0.00478075  1
  O2-  O274  1  0.16692147  0.82810021  0.33344920  1
  O2-  O275  1  0.15979741  0.85604927  0.65752106  1
  O2-  O276  1  0.50143531  0.35108946  -0.00051466  1
  O2-  O277  1  0.49978473  0.33423359  0.33117236  1
  O2-  O278  1  0.49728638  0.33367481  0.66237961  1
  O2-  O279  1  0.50253357  0.84352283  -0.00392987  1
  O2-  O280  1  0.50371567  0.83100767  0.33863924  1
  O2-  O281  1  0.49567792  0.83775641  0.66784586  1
  O2-  O282  1  0.83159569  0.34842177  0.00487002  1
  O2-  O283  1  0.83598878  0.34495999  0.33235331  1
  O2-  O284  1  0.82143518  0.33388365  0.65673947  1
  O2-  O285  1  0.83849222  0.85141991  0.00179028  1
  O2-  O286  1  0.83585813  0.84351845  0.33749485  1
  O2-  O287  1  0.83872793  0.85298736  0.66786786  1
  O2-  O288  1  -0.00412798  0.18382136  0.16425878  1
  O2-  O289  1  0.00282188  0.18710305  0.49783280  1
  O2-  O290  1  0.00161658  0.17360703  0.82650277  1
  O2-  O291  1  -0.00307183  0.68350866  0.16661887  1
  O2-  O292  1  0.00082606  0.69482152  0.49557905  1
  O2-  O293  1  0.00174935  0.67831702  0.82015802  1
  O2-  O294  1  0.32725427  0.17606995  0.16547494  1
  O2-  O295  1  0.32941092  0.18109884  0.51108968  1
  O2-  O296  1  0.32938866  0.17332607  0.82507512  1
  O2-  O297  1  0.32855366  0.68895760  0.16737359  1
  O2-  O298  1  0.33722712  0.68844487  0.50658962  1
  O2-  O299  1  0.33169252  0.68466051  0.82877854  1
  O2-  O300  1  0.66774327  0.17887894  0.16437319  1
  O2-  O301  1  0.65944816  0.17962390  0.49530488  1
  O2-  O302  1  0.66835200  0.18685848  0.83628283  1
  O2-  O303  1  0.66267282  0.67684374  0.16060734  1
  O2-  O304  1  0.67152874  0.67678547  0.50550921  1
  O2-  O305  1  0.67297314  0.69441670  0.83978697  1
  O2-  O306  1  0.16562733  0.18970163  0.16412848  1
  O2-  O307  1  0.16723817  0.19135132  0.49750139  1
  O2-  O308  1  0.16073304  0.17667683  0.83139534  1
  O2-  O309  1  0.16231326  0.68413088  0.15700770  1
  O2-  O310  1  0.16876439  0.68734818  0.49890644  1
  O2-  O311  1  0.17181228  0.67775864  0.82480888  1
  O2-  O312  1  0.51279262  0.18812306  0.17939065  1
  O2-  O313  1  0.49614108  0.17580806  0.50521224  1
  O2-  O314  1  0.50314144  0.17593163  0.82799243  1
  O2-  O315  1  0.50422169  0.67754721  0.16837345  1
  O2-  O316  1  0.49754632  0.68897693  0.50149924  1
  O2-  O317  1  0.49790998  0.69194640  0.83210622  1
  O2-  O318  1  0.82528135  0.18145414  0.17244686  1
  O2-  O319  1  0.84063692  0.17035217  0.49951639  1
  O2-  O320  1  0.83162471  0.18783098  0.82617022  1
  O2-  O321  1  0.82638511  0.67981771  0.18097542  1
  O2-  O322  1  0.83245697  0.68201884  0.50213697  1
  O2-  O323  1  0.84143268  0.67486921  0.82148787  1
  O2-  O324  1  -0.00411151  0.31574499  0.16024218  1
  O2-  O325  1  -0.00281973  0.31466332  0.49802251  1
  O2-  O326  1  0.00628532  0.32003102  0.83585860  1
  O2-  O327  1  -0.00408410  0.82171856  0.16175927  1
  O2-  O328  1  0.00290865  0.81477133  0.50338312  1
  O2-  O329  1  0.01206910  0.81999120  0.84296933  1
  O2-  O330  1  0.32653983  0.33209592  0.15931221  1
  O2-  O331  1  0.33522943  0.32134297  0.50593715  1
  O2-  O332  1  0.33445600  0.32856421  0.83253459  1
  O2-  O333  1  0.32506936  0.81550410  0.16359523  1
  O2-  O334  1  0.33839605  0.81639510  0.50278794  1
  O2-  O335  1  0.33506678  0.81833634  0.83468130  1
  O2-  O336  1  0.66289212  0.31383294  0.16744461  1
  O2-  O337  1  0.66989451  0.32096054  0.50261330  1
  O2-  O338  1  0.67006413  0.31294948  0.83320354  1
  O2-  O339  1  0.66310481  0.82650797  0.15988279  1
  O2-  O340  1  0.65903040  0.82544834  0.48901522  1
  O2-  O341  1  0.66466694  0.81767303  0.82491738  1
  O2-  O342  1  0.16873335  0.31936523  0.15964157  1
  O2-  O343  1  0.16360006  0.30566791  0.49691608  1
  O2-  O344  1  0.17293309  0.32725496  0.82156525  1
  O2-  O345  1  0.16257891  0.81841093  0.17157989  1
  O2-  O346  1  0.16565467  0.81572150  0.49690704  1
  O2-  O347  1  0.17752151  0.82921924  0.82316144  1
  O2-  O348  1  0.49894594  0.32277542  0.16858605  1
  O2-  O349  1  0.50169412  0.31695321  0.50241296  1
  O2-  O350  1  0.50295648  0.32874437  0.82808329  1
  O2-  O351  1  0.49862904  0.81332126  0.16649081  1
  O2-  O352  1  0.49920148  0.81537694  0.49739575  1
  O2-  O353  1  0.49875108  0.81251949  0.83324959  1
  O2-  O354  1  0.83973758  0.32538641  0.16171703  1
  O2-  O355  1  0.83415115  0.32322306  0.49670048  1
  O2-  O356  1  0.82863394  0.31951757  0.83670879  1
  O2-  O357  1  0.83983980  0.82732979  0.16386224  1
  O2-  O358  1  0.82927656  0.82237340  0.50288664  1
  O2-  O359  1  0.83787936  0.82258128  0.82796170  1
  O2-  O360  1  0.07885803  0.08119947  0.10356979  1
  O2-  O361  1  0.09466202  0.08190633  0.45234290  1
  O2-  O362  1  0.08717896  0.08277052  0.76543746  1
  O2-  O363  1  0.08729531  0.58236733  0.10846916  1
  O2-  O364  1  0.10308870  0.58129120  0.44296949  1
  O2-  O365  1  0.08640743  0.58139268  0.77373753  1
  O2-  O366  1  0.41025201  0.07524003  0.11158390  1
  O2-  O367  1  0.42879110  0.07462952  0.44566915  1
  O2-  O368  1  0.41909296  0.08296605  0.75463733  1
  O2-  O369  1  0.41358588  0.58323730  0.12221543  1
  O2-  O370  1  0.40036341  0.57981301  0.44521849  1
  O2-  O371  1  0.43333643  0.58352576  0.78684309  1
  O2-  O372  1  0.74731352  0.08476617  0.11144163  1
  O2-  O373  1  0.74590634  0.07399289  0.44453879  1
  O2-  O374  1  0.74687095  0.08178779  0.78467388  1
  O2-  O375  1  0.73868696  0.58301858  0.10928536  1
  O2-  O376  1  0.75742546  0.58090486  0.44200724  1
  O2-  O377  1  0.74279395  0.57721333  0.78744871  1
  O2-  O378  1  0.24387084  0.08533146  0.21980609  1
  O2-  O379  1  0.26543388  0.07906807  0.55185012  1
  O2-  O380  1  0.22852264  0.07506227  0.90163719  1
  O2-  O381  1  0.24541781  0.57625266  0.24919653  1
  O2-  O382  1  0.25886812  0.58977466  0.54124683  1
  O2-  O383  1  0.26523359  0.57929157  0.87345870  1
  O2-  O384  1  0.60973189  0.06927348  0.22240184  1
  O2-  O385  1  0.58035001  0.08341236  0.56765008  1
  O2-  O386  1  0.59495284  0.08145890  0.87220197  1
  O2-  O387  1  0.57883179  0.57380324  0.20454705  1
  O2-  O388  1  0.56671862  0.58290090  0.55210150  1
  O2-  O389  1  0.60386153  0.58163013  0.88471297  1
  O2-  O390  1  0.88985383  0.08438640  0.21910307  1
  O2-  O391  1  0.93102078  0.08318195  0.54763993  1
  O2-  O392  1  0.90444984  0.07631660  0.87342169  1
  O2-  O393  1  0.91783445  0.57814209  0.22879674  1
  O2-  O394  1  0.92606513  0.57944543  0.53905239  1
  O2-  O395  1  0.88460867  0.56670476  0.87889885  1
  O2-  O396  1  0.08540778  0.42017729  0.10679859  1
  O2-  O397  1  0.06522326  0.42013381  0.44444311  1
  O2-  O398  1  0.09519880  0.41659672  0.76038317  1
  O2-  O399  1  0.07521777  0.91950664  0.11910384  1
  O2-  O400  1  0.08900513  0.92792291  0.45332742  1
  O2-  O401  1  0.09446197  0.91906531  0.77832603  1
  O2-  O402  1  0.42089329  0.41761806  0.11474132  1
  O2-  O403  1  0.42823789  0.41600201  0.45084655  1
  O2-  O404  1  0.41531515  0.41483582  0.75907467  1
  O2-  O405  1  0.42478450  0.91553526  0.10764103  1
  O2-  O406  1  0.43221199  0.91957584  0.44308789  1
  O2-  O407  1  0.41255511  0.92244988  0.79286517  1
  O2-  O408  1  0.74496722  0.41495020  0.11756334  1
  O2-  O409  1  0.75457678  0.41596774  0.43150017  1
  O2-  O410  1  0.74155323  0.41797991  0.77728713  1
  O2-  O411  1  0.76657404  0.92331606  0.10936759  1
  O2-  O412  1  0.74221177  0.91827676  0.45051238  1
  O2-  O413  1  0.73979923  0.92077131  0.77813938  1
  O2-  O414  1  0.24945982  0.41974518  0.22295006  1
  O2-  O415  1  0.26885334  0.42089202  0.59860207  1
  O2-  O416  1  0.25723047  0.42420191  0.87674518  1
  O2-  O417  1  0.23965539  0.91408262  0.23165804  1
  O2-  O418  1  0.26017203  0.91647698  0.53827119  1
  O2-  O419  1  0.26291589  0.92529281  0.87945979  1
  O2-  O420  1  0.58452935  0.42741901  0.21440989  1
  O2-  O421  1  0.59495885  0.41921735  0.57883513  1
  O2-  O422  1  0.60459177  0.41567046  0.88744792  1
  O2-  O423  1  0.57145253  0.91661565  0.22725405  1
  O2-  O424  1  0.57096341  0.91650634  0.54589388  1
  O2-  O425  1  0.56124621  0.92161368  0.87874573  1
  O2-  O426  1  0.92252805  0.41739551  0.22322979  1
  O2-  O427  1  0.90367792  0.41548574  0.55590004  1
  O2-  O428  1  0.89712208  0.41483865  0.89384039  1
  O2-  O429  1  0.93476313  0.91867996  0.23286990  1
  O2-  O430  1  0.92736657  0.91491592  0.54773814  1
  O2-  O431  1  0.92968259  0.92047228  0.87381333  1
  O2-  O432  1  -0.00219554  -0.00840348  0.00968126  1
  O2-  O433  1  -0.01667057  0.01011704  0.36509237  1
  O2-  O434  1  0.00214384  -0.00715793  0.66123892  1
  O2-  O435  1  -0.03027860  0.48995942  0.04340860  1
  O2-  O436  1  -0.01172805  0.50399357  0.35903751  1
  O2-  O437  1  -0.02718373  0.51142534  0.70483299  1
  O2-  O438  1  0.33147946  -0.01404575  0.00753705  1
  O2-  O439  1  0.30994949  -0.00120332  0.37707067  1
  O2-  O440  1  0.32772913  -0.01803237  0.67314980  1
  O2-  O441  1  0.35418043  0.50197684  -0.02276467  1
  O2-  O442  1  0.33807345  0.49626400  0.32837132  1
  O2-  O443  1  0.33732967  0.53042973  0.67281154  1
  O2-  O444  1  0.65721809  -0.00187909  0.01876751  1
  O2-  O445  1  0.66408959  -0.01465191  0.33802359  1
  O2-  O446  1  0.67082421  0.00115901  0.66397430  1
  O2-  O447  1  0.66792797  0.51063694  0.00836279  1
  O2-  O448  1  0.68308807  0.50186716  0.31276415  1
  O2-  O449  1  0.66454559  0.51377651  0.65548803  1
  O2-  O450  1  0.16680059  -0.01575603  0.00515718  1
  O2-  O451  1  0.16346900  -0.01286010  0.32954246  1
  O2-  O452  1  0.16632228  -0.01663371  0.64832156  1
  O2-  O453  1  0.19954314  0.49764919  0.04946950  1
  O2-  O454  1  0.18520932  0.50479034  0.36428042  1
  O2-  O455  1  0.19681181  0.49902787  0.72771654  1
  O2-  O456  1  0.49403156  -0.01080091  -0.00594211  1
  O2-  O457  1  0.52059447  -0.00286220  0.35785235  1
  O2-  O458  1  0.50205542  -0.01127061  0.67168411  1
  O2-  O459  1  0.51112396  0.50172672  0.02555147  1
  O2-  O460  1  0.50022407  0.49517777  0.32296756  1
  O2-  O461  1  0.50690908  0.50657062  0.67179815  1
  O2-  O462  1  0.83598874  0.01289888  0.01032398  1
  O2-  O463  1  0.83898483  0.00474889  0.35920496  1
  O2-  O464  1  0.84107602  -0.00338668  0.68678905  1
  O2-  O465  1  0.80755721  0.49206257  -0.02859714  1
  O2-  O466  1  0.83962951  0.48825223  0.32709731  1
  O2-  O467  1  0.82188163  0.50524119  0.63762218  1
  O2-  O468  1  0.42126704  0.75085096  0.05126266  1
  O2-  O469  1  0.24994131  0.74862821  0.94179512  1
  O2-  O470  1  0.41704567  0.25512113  0.06268324  1
  O2-  O471  1  0.08786978  0.75329493  0.72507737  1
  O2-  O472  1  0.26258744  0.25227665  0.26562297  1
  O2-  O473  1  0.24795057  0.75266077  0.61407475  1
  O2-  O474  1  0.90493226  0.24734485  0.27425069  1
  O2-  O475  1  0.08085500  0.75382422  0.05503203  1
  O2-  O476  1  0.75484737  0.75380429  0.71236685  1
  O2-  O477  1  0.75270435  0.25113578  0.05911475  1
  O2-  O478  1  0.59820714  0.74837533  0.26330701  1
  O2-  O479  1  0.41282014  0.25334664  0.40303989  1
  O2-  O480  1  0.91289330  0.24714227  0.60771961  1
  O2-  O481  1  0.91051907  0.74587856  0.61720642  1
  O2-  O482  1  0.59839856  0.74879931  0.60600866  1
  O2-  O483  1  0.91500074  0.75758568  0.93289610  1
  O2-  O484  1  0.91857067  0.25481364  0.93434155  1
  O2-  O485  1  0.57888284  0.24841905  0.94539194  1
  O2-  O486  1  0.76145337  0.75119854  0.06306027  1
  O2-  O487  1  0.08065551  0.25145437  0.73448298  1
  O2-  O488  1  0.90777311  0.74976199  0.27142342  1
  O2-  O489  1  0.74903649  0.74948386  0.39604984  1
  O2-  O490  1  0.41869661  0.24853351  0.73438274  1
  O2-  O491  1  0.75553265  0.25444377  0.40303349  1
  O2-  O492  1  0.24892591  0.25677414  0.92731367  1
