# generated using pymatgen
data_Ca108Mn108O277
_symmetry_space_group_name_H-M   'P 1'
_cell_length_a   16.02955133
_cell_length_b   22.30915488
_cell_length_c   16.38963383
_cell_angle_alpha   89.99442606
_cell_angle_beta   90.00006069
_cell_angle_gamma   90.00284060
_symmetry_Int_Tables_number   1
_chemical_formula_structural   Ca108Mn108O277
_chemical_formula_sum   'Ca108 Mn108 O277'
_cell_volume   5861.02715421
_cell_formula_units_Z   1
loop_
 _symmetry_equiv_pos_site_id
 _symmetry_equiv_pos_as_xyz
  1  'x, y, z'
loop_
 _atom_type_symbol
 _atom_type_oxidation_number
  Ca2+  2.0
  Mn3.34+  3.34
  O2-  -2.0
loop_
 _atom_site_type_symbol
 _atom_site_label
 _atom_site_symmetry_multiplicity
 _atom_site_fract_x
 _atom_site_fract_y
 _atom_site_fract_z
 _atom_site_occupancy
  Ca2+  Ca0  1  0.07056568  0.26760697  0.23973903  1
  Ca2+  Ca1  1  0.07947796  0.25818603  0.58248986  1
  Ca2+  Ca2  1  0.07042661  0.25168737  0.92414176  1
  Ca2+  Ca3  1  0.10735151  0.74888680  0.24297342  1
  Ca2+  Ca4  1  0.09201245  0.75594242  0.59367333  1
  Ca2+  Ca5  1  0.10215395  0.73839338  0.91217395  1
  Ca2+  Ca6  1  0.41904917  0.25724442  0.26536057  1
  Ca2+  Ca7  1  0.43303639  0.24013379  0.56315798  1
  Ca2+  Ca8  1  0.42993876  0.25197364  0.91562144  1
  Ca2+  Ca9  1  0.39424615  0.74173198  0.25870889  1
  Ca2+  Ca10  1  0.41872538  0.75196181  0.57764385  1
  Ca2+  Ca11  1  0.40075320  0.75188547  0.91389365  1
  Ca2+  Ca12  1  0.75302568  0.24204212  0.26648305  1
  Ca2+  Ca13  1  0.73776041  0.23826737  0.58341788  1
  Ca2+  Ca14  1  0.74381863  0.23758183  0.91000775  1
  Ca2+  Ca15  1  0.73639427  0.74925999  0.25670275  1
  Ca2+  Ca16  1  0.73943776  0.76035500  0.57957946  1
  Ca2+  Ca17  1  0.73620623  0.75851550  0.91144446  1
  Ca2+  Ca18  1  0.24102106  0.25491176  0.07139775  1
  Ca2+  Ca19  1  0.25837278  0.26261041  0.42202611  1
  Ca2+  Ca20  1  0.25183196  0.25457136  0.75282997  1
  Ca2+  Ca21  1  0.24386375  0.73868377  0.07581328  1
  Ca2+  Ca22  1  0.26684687  0.73884475  0.41645873  1
  Ca2+  Ca23  1  0.24185819  0.75388780  0.76306258  1
  Ca2+  Ca24  1  0.58862835  0.24242408  0.06622605  1
  Ca2+  Ca25  1  0.59335264  0.25938098  0.42581046  1
  Ca2+  Ca26  1  0.59322986  0.25421148  0.75118057  1
  Ca2+  Ca27  1  0.58658179  0.75317687  0.07886929  1
  Ca2+  Ca28  1  0.57854001  0.74011426  0.42036748  1
  Ca2+  Ca29  1  0.58045438  0.76119193  0.75059528  1
  Ca2+  Ca30  1  0.91670090  0.23797004  0.06827599  1
  Ca2+  Ca31  1  0.89523293  0.26117468  0.41731891  1
  Ca2+  Ca32  1  0.90624025  0.24538658  0.76486737  1
  Ca2+  Ca33  1  0.91769441  0.75567534  0.08327142  1
  Ca2+  Ca34  1  0.90302587  0.75135309  0.41451335  1
  Ca2+  Ca35  1  0.92476059  0.75769200  0.75125862  1
  Ca2+  Ca36  1  0.08884450  0.59925830  0.58421304  1
  Ca2+  Ca37  1  0.60592293  0.55846045  0.72213456  1
  Ca2+  Ca38  1  0.12654407  0.58591536  0.22782995  1
  Ca2+  Ca39  1  0.05704125  0.09632367  0.92380254  1
  Ca2+  Ca40  1  0.26885351  0.58370540  0.37365485  1
  Ca2+  Ca41  1  0.75948974  0.57671049  0.91204827  1
  Ca2+  Ca42  1  0.59110821  0.12260905  0.44723901  1
  Ca2+  Ca43  1  0.26897472  0.10138183  0.42197816  1
  Ca2+  Ca44  1  0.05258152  0.07719330  0.59481575  1
  Ca2+  Ca45  1  0.24508186  0.60519345  0.75849367  1
  Ca2+  Ca46  1  0.78671966  0.09179523  0.93461650  1
  Ca2+  Ca47  1  0.38488639  0.58240486  0.93168644  1
  Ca2+  Ca48  1  0.41997090  0.59072229  0.57640038  1
  Ca2+  Ca49  1  0.43169707  0.59034108  0.57665059  1
  Ca2+  Ca50  1  0.59773600  0.10217805  0.73530149  1
  Ca2+  Ca51  1  0.93923880  0.58633459  0.06204379  1
  Ca2+  Ca52  1  0.24301864  0.09730309  0.05252089  1
  Ca2+  Ca53  1  0.13858997  0.58644595  0.22579641  1
  Ca2+  Ca54  1  0.42782662  0.10319299  0.24046837  1
  Ca2+  Ca55  1  0.58935174  0.09848185  0.73915803  1
  Ca2+  Ca56  1  0.73201053  0.58111610  0.27811971  1
  Ca2+  Ca57  1  0.74364693  0.58134394  0.27958636  1
  Ca2+  Ca58  1  0.87742533  0.11060372  0.42149019  1
  Ca2+  Ca59  1  0.10334227  0.59951155  0.58325882  1
  Ca2+  Ca60  1  0.58284176  0.58152262  0.41407802  1
  Ca2+  Ca61  1  0.59649685  0.11840238  0.44085463  1
  Ca2+  Ca62  1  0.72911436  0.56972604  0.57490718  1
  Ca2+  Ca63  1  0.06294356  0.09486746  0.23282420  1
  Ca2+  Ca64  1  0.90968548  0.58163375  0.74526949  1
  Ca2+  Ca65  1  0.41853232  0.10022929  0.24432268  1
  Ca2+  Ca66  1  0.25168587  0.09539002  0.04700164  1
  Ca2+  Ca67  1  0.28157162  0.10250546  0.42425909  1
  Ca2+  Ca68  1  0.89774247  0.58018874  0.41564121  1
  Ca2+  Ca69  1  0.74638083  0.57726484  0.91121022  1
  Ca2+  Ca70  1  0.91055309  0.09551679  0.76418524  1
  Ca2+  Ca71  1  0.92169118  0.58340718  0.74712955  1
  Ca2+  Ca72  1  0.93563385  0.40854267  0.06094313  1
  Ca2+  Ca73  1  0.92348573  0.90051855  0.41916948  1
  Ca2+  Ca74  1  0.09134022  0.90854147  0.25141291  1
  Ca2+  Ca75  1  0.25547650  0.39580141  0.75753727  1
  Ca2+  Ca76  1  0.25320653  0.91005233  0.08553843  1
  Ca2+  Ca77  1  0.08483900  0.90858013  0.91417857  1
  Ca2+  Ca78  1  0.07313174  0.91130744  0.59519023  1
  Ca2+  Ca79  1  0.92444206  0.91492624  0.73850425  1
  Ca2+  Ca80  1  0.57788804  0.91345494  0.74166382  1
  Ca2+  Ca81  1  0.58319186  0.41089502  0.42451755  1
  Ca2+  Ca82  1  0.42593351  0.90627362  0.59688240  1
  Ca2+  Ca83  1  0.24108538  0.90373686  0.40508875  1
  Ca2+  Ca84  1  0.39960553  0.91178034  0.25045078  1
  Ca2+  Ca85  1  0.58158222  0.90996669  0.07242102  1
  Ca2+  Ca86  1  0.59298457  0.41137425  0.74468572  1
  Ca2+  Ca87  1  0.94246179  0.40369128  0.06525245  1
  Ca2+  Ca88  1  0.73534878  0.41524698  0.58525955  1
  Ca2+  Ca89  1  0.75075740  0.39852034  0.90819090  1
  Ca2+  Ca90  1  0.24185255  0.90939085  0.08528476  1
  Ca2+  Ca91  1  0.40756317  0.40817102  0.25418268  1
  Ca2+  Ca92  1  0.90860609  0.40359769  0.76414200  1
  Ca2+  Ca93  1  0.76888832  0.92248964  0.91918832  1
  Ca2+  Ca94  1  0.59300687  0.90952314  0.07254343  1
  Ca2+  Ca95  1  0.08207858  0.39641406  0.57691727  1
  Ca2+  Ca96  1  0.74138164  0.40691760  0.26752441  1
  Ca2+  Ca97  1  0.75781020  0.92189786  0.91978530  1
  Ca2+  Ca98  1  0.25121612  0.40953918  0.40431546  1
  Ca2+  Ca99  1  0.07268126  0.91066687  0.91567504  1
  Ca2+  Ca100  1  0.77171633  0.90496412  0.24438645  1
  Ca2+  Ca101  1  0.74519701  0.41330074  0.58257205  1
  Ca2+  Ca102  1  0.59370868  0.90206253  0.43414312  1
  Ca2+  Ca103  1  0.57424317  0.39488738  0.08059338  1
  Ca2+  Ca104  1  0.58084411  0.90208112  0.43315734  1
  Ca2+  Ca105  1  0.21903591  0.42352254  0.09654195  1
  Ca2+  Ca106  1  0.75921587  0.90581595  0.24590050  1
  Ca2+  Ca107  1  0.90229149  0.93814894  0.05967611  1
  Mn3.34+  Mn108  1  0.08859234  0.33386791  0.08188330  1
  Mn3.34+  Mn109  1  0.07934499  0.33946283  0.40958186  1
  Mn3.34+  Mn110  1  0.08341680  0.33187144  0.75425241  1
  Mn3.34+  Mn111  1  0.07868386  0.83276652  0.08608683  1
  Mn3.34+  Mn112  1  0.08408850  0.82422044  0.42060377  1
  Mn3.34+  Mn113  1  0.08659121  0.83362848  0.74978579  1
  Mn3.34+  Mn114  1  0.41170800  0.33069750  0.08393245  1
  Mn3.34+  Mn115  1  0.41844876  0.33265463  0.42039982  1
  Mn3.34+  Mn116  1  0.41971583  0.33658807  0.74910441  1
  Mn3.34+  Mn117  1  0.41599357  0.83271214  0.08264242  1
  Mn3.34+  Mn118  1  0.41521883  0.83113503  0.41748256  1
  Mn3.34+  Mn119  1  0.41149295  0.83148084  0.75137708  1
  Mn3.34+  Mn120  1  0.74842859  0.32799682  0.08948119  1
  Mn3.34+  Mn121  1  0.74872804  0.33751327  0.42200871  1
  Mn3.34+  Mn122  1  0.75058951  0.33595416  0.75116716  1
  Mn3.34+  Mn123  1  0.75392539  0.83371526  0.08366990  1
  Mn3.34+  Mn124  1  0.75308069  0.83195936  0.42208830  1
  Mn3.34+  Mn125  1  0.75249742  0.83655459  0.74556061  1
  Mn3.34+  Mn126  1  0.24797200  0.33841592  0.24667090  1
  Mn3.34+  Mn127  1  0.25332917  0.33076200  0.58415353  1
  Mn3.34+  Mn128  1  0.25453255  0.33802695  0.91763019  1
  Mn3.34+  Mn129  1  0.24939209  0.83170335  0.24974820  1
  Mn3.34+  Mn130  1  0.25106189  0.83156651  0.57834835  1
  Mn3.34+  Mn131  1  0.25262185  0.83459478  0.91256071  1
  Mn3.34+  Mn132  1  0.58163129  0.33291036  0.24620119  1
  Mn3.34+  Mn133  1  0.57672732  0.33618289  0.58517427  1
  Mn3.34+  Mn134  1  0.58143229  0.33048704  0.91446181  1
  Mn3.34+  Mn135  1  0.57785948  0.83162268  0.24982932  1
  Mn3.34+  Mn136  1  0.58341644  0.83339455  0.58910607  1
  Mn3.34+  Mn137  1  0.57834902  0.83601494  0.90853632  1
  Mn3.34+  Mn138  1  0.91217106  0.33211097  0.24905975  1
  Mn3.34+  Mn139  1  0.91516405  0.33242057  0.58598945  1
  Mn3.34+  Mn140  1  0.91618442  0.33097748  0.91376514  1
  Mn3.34+  Mn141  1  0.92476115  0.83043516  0.24676256  1
  Mn3.34+  Mn142  1  0.91667984  0.84016532  0.58014405  1
  Mn3.34+  Mn143  1  0.91650061  0.83259739  0.91201994  1
  Mn3.34+  Mn144  1  0.58686339  0.66477361  0.58065389  1
  Mn3.34+  Mn145  1  0.40330282  0.16610406  0.75569954  1
  Mn3.34+  Mn146  1  0.41396058  0.16870338  0.75173214  1
  Mn3.34+  Mn147  1  0.42199626  0.17140106  0.07808544  1
  Mn3.34+  Mn148  1  0.58915886  0.17193482  0.24170019  1
  Mn3.34+  Mn149  1  0.75373731  0.16886623  0.75041669  1
  Mn3.34+  Mn150  1  0.41107331  0.65793343  0.09104889  1
  Mn3.34+  Mn151  1  0.75048576  0.66731312  0.42310206  1
  Mn3.34+  Mn152  1  0.09605535  0.16304767  0.75261571  1
  Mn3.34+  Mn153  1  0.41693160  0.66528747  0.41580077  1
  Mn3.34+  Mn154  1  0.08190090  0.66587896  0.08080539  1
  Mn3.34+  Mn155  1  0.24958977  0.17121075  0.24373316  1
  Mn3.34+  Mn156  1  0.41640313  0.65810474  0.75626890  1
  Mn3.34+  Mn157  1  0.42734654  0.66294048  0.75586742  1
  Mn3.34+  Mn158  1  0.08483167  0.16753192  0.75092943  1
  Mn3.34+  Mn159  1  0.58224206  0.66221911  0.91982529  1
  Mn3.34+  Mn160  1  0.57472395  0.66683699  0.25245695  1
  Mn3.34+  Mn161  1  0.08407272  0.66941632  0.75610441  1
  Mn3.34+  Mn162  1  0.92041938  0.66806747  0.24340048  1
  Mn3.34+  Mn163  1  0.07599339  0.67249880  0.41807490  1
  Mn3.34+  Mn164  1  0.74042383  0.66749314  0.74854523  1
  Mn3.34+  Mn165  1  0.23983543  0.16566889  0.24292582  1
  Mn3.34+  Mn166  1  0.08099215  0.17065398  0.41683924  1
  Mn3.34+  Mn167  1  0.90721412  0.16805158  0.24164928  1
  Mn3.34+  Mn168  1  0.92287578  0.66273003  0.91511491  1
  Mn3.34+  Mn169  1  0.90923254  0.16584703  0.58456094  1
  Mn3.34+  Mn170  1  0.91553727  0.66625427  0.57803181  1
  Mn3.34+  Mn171  1  0.42308518  0.66291526  0.09012527  1
  Mn3.34+  Mn172  1  0.24956288  0.16909345  0.58525083  1
  Mn3.34+  Mn173  1  0.08745598  0.67761874  0.41661956  1
  Mn3.34+  Mn174  1  0.07433049  0.16938937  0.07973605  1
  Mn3.34+  Mn175  1  0.74683389  0.15460947  0.09095100  1
  Mn3.34+  Mn176  1  0.74249300  0.66200505  0.08869026  1
  Mn3.34+  Mn177  1  0.75225067  0.66399289  0.74964821  1
  Mn3.34+  Mn178  1  0.07011791  0.16592264  0.41934853  1
  Mn3.34+  Mn179  1  0.75286640  0.66743297  0.08647846  1
  Mn3.34+  Mn180  1  0.75366768  0.50046377  0.08819536  1
  Mn3.34+  Mn181  1  0.24911393  -0.00450507  0.58625545  1
  Mn3.34+  Mn182  1  0.91007395  0.00394706  0.24891142  1
  Mn3.34+  Mn183  1  0.23779293  0.49680805  0.93901041  1
  Mn3.34+  Mn184  1  0.41808100  0.49608952  0.08201421  1
  Mn3.34+  Mn185  1  0.93504344  0.49469705  0.24577371  1
  Mn3.34+  Mn186  1  0.25365756  -0.00153419  0.91586166  1
  Mn3.34+  Mn187  1  0.57421534  0.49721547  0.91781459  1
  Mn3.34+  Mn188  1  0.08374713  0.00033068  0.74625517  1
  Mn3.34+  Mn189  1  0.76072489  0.00596402  0.71072127  1
  Mn3.34+  Mn190  1  0.75250805  -0.00026151  0.71128634  1
  Mn3.34+  Mn191  1  0.08299033  0.00145944  0.41727449  1
  Mn3.34+  Mn192  1  0.07322174  0.00136101  0.07819074  1
  Mn3.34+  Mn193  1  0.07217723  -0.00340454  0.41762701  1
  Mn3.34+  Mn194  1  0.75416372  -0.00067315  0.43912326  1
  Mn3.34+  Mn195  1  0.73841679  0.49621106  0.08521256  1
  Mn3.34+  Mn196  1  0.08833759  0.50031443  0.77447489  1
  Mn3.34+  Mn197  1  0.92647018  0.50102972  0.24238561  1
  Mn3.34+  Mn198  1  0.92339262  0.49984115  0.58286725  1
  Mn3.34+  Mn199  1  0.39870220  0.00269639  0.76818710  1
  Mn3.34+  Mn200  1  0.41963142  -0.00036851  0.42380135  1
  Mn3.34+  Mn201  1  0.58422324  0.00309680  0.93021613  1
  Mn3.34+  Mn202  1  0.59348617  0.00291104  0.24397838  1
  Mn3.34+  Mn203  1  0.74252978  0.00430663  0.43693541  1
  Mn3.34+  Mn204  1  0.09957401  0.49757312  0.77435710  1
  Mn3.34+  Mn205  1  0.57530314  0.49966842  0.24685745  1
  Mn3.34+  Mn206  1  0.41807214  0.49565339  0.40480071  1
  Mn3.34+  Mn207  1  0.26302822  0.00141936  0.58529823  1
  Mn3.34+  Mn208  1  0.25863205  0.49611976  0.57773817  1
  Mn3.34+  Mn209  1  0.41941406  0.49704022  0.74290146  1
  Mn3.34+  Mn210  1  0.43447539  0.00574631  0.42470487  1
  Mn3.34+  Mn211  1  0.24690233  0.50052858  0.57885235  1
  Mn3.34+  Mn212  1  0.41849605  0.00316534  0.07375915  1
  Mn3.34+  Mn213  1  0.08703473  0.50224901  0.41245548  1
  Mn3.34+  Mn214  1  0.60234225  0.01042727  0.24530485  1
  Mn3.34+  Mn215  1  0.41255725  -0.00224862  0.76842007  1
  O2-  O216  1  -0.00194927  0.16235802  0.00505140  1
  O2-  O217  1  -0.00362522  0.14913225  0.33509870  1
  O2-  O218  1  0.00127916  0.14775757  0.67444738  1
  O2-  O219  1  -0.00521140  0.68825808  0.00252552  1
  O2-  O220  1  -0.00716396  0.68114741  0.33894446  1
  O2-  O221  1  -0.00154659  0.65370199  0.66565344  1
  O2-  O222  1  0.32638976  0.17585611  0.01750396  1
  O2-  O223  1  0.33236707  0.15440411  0.32542432  1
  O2-  O224  1  0.32656267  0.16042094  0.67284259  1
  O2-  O225  1  0.34141899  0.66653524  0.00125873  1
  O2-  O226  1  0.33720844  0.66569019  0.34114734  1
  O2-  O227  1  0.34170914  0.64775197  0.66819132  1
  O2-  O228  1  0.67711720  0.17236657  0.01191869  1
  O2-  O229  1  0.65290207  0.17611836  0.33160288  1
  O2-  O230  1  0.67032218  0.16148108  0.66911013  1
  O2-  O231  1  0.67006796  0.63897440  -0.00228748  1
  O2-  O232  1  0.66791783  0.65468801  0.34170613  1
  O2-  O233  1  0.66922675  0.63956238  0.66050054  1
  O2-  O234  1  0.16024133  0.16607022  0.00323995  1
  O2-  O235  1  0.16467101  0.13506020  0.33589176  1
  O2-  O236  1  0.15840993  0.14660275  0.65930614  1
  O2-  O237  1  0.15617599  0.67881980  0.00716646  1
  O2-  O238  1  0.15773982  0.65824240  0.32984030  1
  O2-  O239  1  0.16166827  0.65772353  0.66898593  1
  O2-  O240  1  0.49255308  0.18359601  0.00147160  1
  O2-  O241  1  0.50042421  0.15837650  0.31945853  1
  O2-  O242  1  0.48615594  0.14712739  0.67105430  1
  O2-  O243  1  0.49984155  0.66498890  0.00533831  1
  O2-  O244  1  0.50779799  0.65240829  0.34312712  1
  O2-  O245  1  0.50479016  0.64642813  0.67195133  1
  O2-  O246  1  0.82236082  0.17209009  0.01524266  1
  O2-  O247  1  0.83608024  0.16872268  0.32402369  1
  O2-  O248  1  0.84030530  0.15562534  0.67301609  1
  O2-  O249  1  0.83481018  0.65016877  -0.00096608  1
  O2-  O250  1  0.83317770  0.65642717  0.32948630  1
  O2-  O251  1  0.83967310  0.65859159  0.66882875  1
  O2-  O252  1  0.00639756  0.33570192  -0.00855879  1
  O2-  O253  1  -0.00120014  0.34160444  0.32763900  1
  O2-  O254  1  -0.00078099  0.35280289  0.66882656  1
  O2-  O255  1  -0.00140905  0.83307226  -0.00124851  1
  O2-  O256  1  -0.00157423  0.82322754  0.33875987  1
  O2-  O257  1  -0.00123054  0.83945499  0.66596111  1
  O2-  O258  1  0.33516375  0.31063613  -0.00147360  1
  O2-  O259  1  0.33250815  0.34105367  0.33329904  1
  O2-  O260  1  0.32765554  0.33709182  0.67319203  1
  O2-  O261  1  0.32807059  0.84574252  0.00553634  1
  O2-  O262  1  0.33277038  0.84901664  0.33393406  1
  O2-  O263  1  0.33857620  0.82935475  0.65529756  1
  O2-  O264  1  0.66829027  0.33599880  0.00111203  1
  O2-  O265  1  0.65945406  0.34090037  0.33866976  1
  O2-  O266  1  0.66912357  0.34698849  0.66752193  1
  O2-  O267  1  0.67027462  0.85401409  -0.00924109  1
  O2-  O268  1  0.67157513  0.85713049  0.33050181  1
  O2-  O269  1  0.66644858  0.84951749  0.66648135  1
  O2-  O270  1  0.17637370  0.33463460  0.00461616  1
  O2-  O271  1  0.16968434  0.34746338  0.33435304  1
  O2-  O272  1  0.16592878  0.34669014  0.66698977  1
  O2-  O273  1  0.16163997  0.84960101  0.00304478  1
  O2-  O274  1  0.15884177  0.84251019  0.32960482  1
  O2-  O275  1  0.16608949  0.83592857  0.65743629  1
  O2-  O276  1  0.50106673  0.32960086  0.00342272  1
  O2-  O277  1  0.49683979  0.33912468  0.32790512  1
  O2-  O278  1  0.50443475  0.35186372  0.67410211  1
  O2-  O279  1  0.50657646  0.83935015  0.00446417  1
  O2-  O280  1  0.50048038  0.85747272  0.33710943  1
  O2-  O281  1  0.50164737  0.84236513  0.67182757  1
  O2-  O282  1  0.83609926  0.34026128  0.00732559  1
  O2-  O283  1  0.82817074  0.34121974  0.33106422  1
  O2-  O284  1  0.83112033  0.35205822  0.66772885  1
  O2-  O285  1  0.83672167  0.84638206  -0.00164939  1
  O2-  O286  1  0.83949527  0.84494354  0.33256193  1
  O2-  O287  1  0.84129265  0.82533925  0.66737328  1
  O2-  O288  1  0.00594336  0.17731937  0.17363641  1
  O2-  O289  1  0.00386393  0.18631234  0.51014422  1
  O2-  O290  1  0.00471050  0.17442799  0.83033086  1
  O2-  O291  1  0.00095063  0.69114974  0.16487343  1
  O2-  O292  1  0.00365506  0.69221634  0.50506790  1
  O2-  O293  1  -0.00825514  0.68216035  0.82684827  1
  O2-  O294  1  0.34512682  0.18567025  0.17494324  1
  O2-  O295  1  0.31948228  0.17922208  0.49826119  1
  O2-  O296  1  0.33626032  0.19222425  0.83488950  1
  O2-  O297  1  0.33360404  0.69063189  0.15801067  1
  O2-  O298  1  0.34796048  0.67316157  0.50632622  1
  O2-  O299  1  0.33404921  0.67512720  0.83156618  1
  O2-  O300  1  0.67216694  0.19018363  0.16584460  1
  O2-  O301  1  0.66202131  0.19089667  0.49928107  1
  O2-  O302  1  0.66658257  0.17221193  0.82107188  1
  O2-  O303  1  0.66464396  0.68382353  0.17354010  1
  O2-  O304  1  0.66887789  0.68117769  0.50261311  1
  O2-  O305  1  0.67275327  0.67326666  0.84291350  1
  O2-  O306  1  0.16196352  0.17967430  0.16301864  1
  O2-  O307  1  0.16860958  0.17351781  0.49233910  1
  O2-  O308  1  0.16484983  0.18709424  0.83369275  1
  O2-  O309  1  0.15752781  0.67652325  0.16372482  1
  O2-  O310  1  0.16125031  0.68566810  0.50370866  1
  O2-  O311  1  0.16891613  0.67673137  0.82492771  1
  O2-  O312  1  0.49492576  0.18461665  0.16848620  1
  O2-  O313  1  0.51272899  0.18509343  0.49143677  1
  O2-  O314  1  0.50261591  0.17177431  0.82084657  1
  O2-  O315  1  0.49613997  0.69384308  0.16566016  1
  O2-  O316  1  0.49946097  0.67739549  0.50771274  1
  O2-  O317  1  0.50168019  0.68273072  0.83791743  1
  O2-  O318  1  0.82993202  0.18674725  0.16409983  1
  O2-  O319  1  0.84081473  0.18560116  0.50529773  1
  O2-  O320  1  0.82978832  0.17071767  0.83434364  1
  O2-  O321  1  0.83318866  0.69221930  0.16843128  1
  O2-  O322  1  0.83397689  0.68504795  0.49988001  1
  O2-  O323  1  0.83090291  0.68947908  0.83710150  1
  O2-  O324  1  -0.01026398  0.32806441  0.15192846  1
  O2-  O325  1  0.00052592  0.32422396  0.50304610  1
  O2-  O326  1  -0.00806247  0.32216837  0.82472214  1
  O2-  O327  1  0.00634728  0.80945095  0.16984716  1
  O2-  O328  1  0.00061120  0.80884307  0.50267802  1
  O2-  O329  1  0.00064985  0.81459795  0.84030750  1
  O2-  O330  1  0.33323947  0.31238676  0.16904358  1
  O2-  O331  1  0.33263684  0.32414934  0.50078544  1
  O2-  O332  1  0.33146394  0.32044073  0.83170309  1
  O2-  O333  1  0.33427274  0.82381972  0.16633851  1
  O2-  O334  1  0.33190271  0.81387121  0.49584473  1
  O2-  O335  1  0.33017420  0.81753279  0.82960153  1
  O2-  O336  1  0.66460158  0.31046359  0.17013376  1
  O2-  O337  1  0.66936249  0.32525078  0.50887875  1
  O2-  O338  1  0.66809778  0.32618254  0.83026439  1
  O2-  O339  1  0.66686017  0.82600495  0.16566786  1
  O2-  O340  1  0.65508549  0.82108162  0.49429844  1
  O2-  O341  1  0.66837978  0.83315628  0.83183706  1
  O2-  O342  1  0.16863358  0.32281595  0.16428241  1
  O2-  O343  1  0.16487315  0.32124944  0.50227919  1
  O2-  O344  1  0.16866553  0.31451567  0.83355699  1
  O2-  O345  1  0.17220551  0.81983140  0.15639552  1
  O2-  O346  1  0.17160137  0.80731491  0.49326212  1
  O2-  O347  1  0.15914372  0.82337790  0.84063767  1
  O2-  O348  1  0.50006239  0.31145113  0.16556106  1
  O2-  O349  1  0.50676851  0.32635027  0.49432564  1
  O2-  O350  1  0.50341878  0.32359629  0.82827839  1
  O2-  O351  1  0.50196353  0.82004013  0.15899301  1
  O2-  O352  1  0.50090924  0.82058837  0.50051960  1
  O2-  O353  1  0.49756572  0.81743859  0.83291596  1
  O2-  O354  1  0.83096046  0.31365775  0.16736705  1
  O2-  O355  1  0.82698343  0.32585821  0.51084243  1
  O2-  O356  1  0.83000131  0.32345722  0.83470479  1
  O2-  O357  1  0.83001162  0.81498596  0.17830634  1
  O2-  O358  1  0.83793599  0.81670878  0.50120696  1
  O2-  O359  1  0.83182975  0.81504519  0.83597101  1
  O2-  O360  1  0.10327729  0.08161725  0.09955906  1
  O2-  O361  1  0.07562267  0.08134428  0.45538808  1
  O2-  O362  1  0.08582541  0.07934983  0.78472043  1
  O2-  O363  1  0.07630132  0.58751317  0.10070673  1
  O2-  O364  1  0.08370207  0.58421121  0.44985839  1
  O2-  O365  1  0.06567249  0.58386063  0.78315463  1
  O2-  O366  1  0.40492068  0.08368576  0.10600694  1
  O2-  O367  1  0.41475694  0.08678740  0.44094655  1
  O2-  O368  1  0.39763253  0.08408535  0.78875578  1
  O2-  O369  1  0.41727693  0.57630234  0.11140036  1
  O2-  O370  1  0.41689437  0.57672115  0.44133609  1
  O2-  O371  1  0.41841276  0.57489345  0.79821778  1
  O2-  O372  1  0.74391526  0.08124700  0.10077843  1
  O2-  O373  1  0.73987629  0.08581885  0.43180511  1
  O2-  O374  1  0.75140093  0.07893706  0.76853372  1
  O2-  O375  1  0.75432580  0.57674049  0.14187188  1
  O2-  O376  1  0.75309517  0.58311068  0.43558272  1
  O2-  O377  1  0.76374808  0.57917899  0.77709841  1
  O2-  O378  1  0.26019226  0.08576270  0.20532336  1
  O2-  O379  1  0.24864717  0.08108223  0.55146222  1
  O2-  O380  1  0.23676300  0.07765278  0.91729328  1
  O2-  O381  1  0.25867820  0.57042719  0.23447443  1
  O2-  O382  1  0.22997439  0.57698531  0.53548625  1
  O2-  O383  1  0.25260864  0.55648640  0.87435708  1
  O2-  O384  1  0.56371438  0.08391904  0.20974788  1
  O2-  O385  1  0.58898227  0.04914876  0.53097788  1
  O2-  O386  1  0.59617460  0.06407481  0.86422862  1
  O2-  O387  1  0.59704928  0.58219767  0.22924774  1
  O2-  O388  1  0.57274156  0.58307889  0.54983271  1
  O2-  O389  1  0.60074816  0.57261277  0.87068521  1
  O2-  O390  1  0.92220433  0.08414312  0.22497043  1
  O2-  O391  1  0.92193560  0.08661062  0.54913827  1
  O2-  O392  1  0.91740872  0.06595213  0.89080409  1
  O2-  O393  1  0.92752662  0.58253136  0.20620358  1
  O2-  O394  1  0.95358019  0.57861565  0.54647358  1
  O2-  O395  1  0.89747136  0.57722012  0.87772928  1
  O2-  O396  1  0.08108394  0.41310262  0.09673506  1
  O2-  O397  1  0.10056341  0.42422748  0.44406578  1
  O2-  O398  1  0.09821294  0.41435449  0.77988129  1
  O2-  O399  1  0.08082157  0.92266015  0.12011417  1
  O2-  O400  1  0.08163896  0.91487550  0.44995624  1
  O2-  O401  1  0.07066090  0.91936957  0.77992715  1
  O2-  O402  1  0.42585434  0.41765381  0.11558740  1
  O2-  O403  1  0.42253617  0.41876383  0.43421034  1
  O2-  O404  1  0.40345797  0.41955095  0.77262179  1
  O2-  O405  1  0.41855016  0.92468850  0.11471654  1
  O2-  O406  1  0.42545131  0.91889291  0.45500296  1
  O2-  O407  1  0.41596216  0.91610410  0.76991178  1
  O2-  O408  1  0.73048973  0.41701255  0.11965114  1
  O2-  O409  1  0.73564753  0.42144053  0.44512029  1
  O2-  O410  1  0.75412454  0.41854363  0.77168237  1
  O2-  O411  1  0.75112476  0.91814465  0.11341185  1
  O2-  O412  1  0.74146905  0.91689838  0.45756298  1
  O2-  O413  1  0.76635174  0.92904783  0.77817008  1
  O2-  O414  1  0.26546151  0.41606978  0.22529496  1
  O2-  O415  1  0.24567258  0.41472679  0.55902046  1
  O2-  O416  1  0.24311745  0.42998788  0.88678553  1
  O2-  O417  1  0.24475418  0.91929932  0.22041166  1
  O2-  O418  1  0.24930861  0.91870006  0.53974038  1
  O2-  O419  1  0.22721192  0.91879765  0.89235336  1
  O2-  O420  1  0.57668225  0.41998788  0.21612660  1
  O2-  O421  1  0.59764535  0.41872500  0.56199376  1
  O2-  O422  1  0.59229514  0.41859928  0.89362413  1
  O2-  O423  1  0.58578990  0.92238456  0.20758682  1
  O2-  O424  1  0.56743690  0.91517208  0.56329162  1
  O2-  O425  1  0.57684517  0.92550047  0.88254239  1
  O2-  O426  1  0.90121012  0.41695542  0.21303373  1
  O2-  O427  1  0.90319558  0.42042803  0.56688124  1
  O2-  O428  1  0.90562654  0.41658523  0.91100208  1
  O2-  O429  1  0.90405755  0.92149161  0.20716352  1
  O2-  O430  1  0.93418604  0.91813867  0.55057764  1
  O2-  O431  1  0.91807838  0.91277027  0.88202467  1
  O2-  O432  1  0.00952630  -0.01978817  -0.01196585  1
  O2-  O433  1  0.01319692  -0.01482007  0.31594998  1
  O2-  O434  1  0.01191980  -0.00792781  0.66638249  1
  O2-  O435  1  -0.03565019  0.49684462  0.07329039  1
  O2-  O436  1  -0.00863465  0.51643441  0.34674942  1
  O2-  O437  1  -0.00241745  0.50115900  0.68924779  1
  O2-  O438  1  0.31125591  -0.00243286  0.03329460  1
  O2-  O439  1  0.34994459  0.01548442  0.32861826  1
  O2-  O440  1  0.33271416  -0.00848020  0.67427460  1
  O2-  O441  1  0.32763218  0.49894484  0.00217238  1
  O2-  O442  1  0.31873142  0.49157065  0.36223995  1
  O2-  O443  1  0.33680941  0.52347544  0.65824738  1
  O2-  O444  1  0.66700695  -0.02662390  -0.00503724  1
  O2-  O445  1  0.67217867  -0.01835975  0.33671397  1
  O2-  O446  1  0.63941842  0.00170951  0.70724325  1
  O2-  O447  1  0.67788526  0.50233184  -0.01684537  1
  O2-  O448  1  0.67616241  0.49591147  0.30271677  1
  O2-  O449  1  0.68016515  0.49459380  0.64663200  1
  O2-  O450  1  0.16807463  -0.01527683  0.00967490  1
  O2-  O451  1  0.18827631  0.00434049  0.36804886  1
  O2-  O452  1  0.16187721  -0.00129228  0.65865401  1
  O2-  O453  1  0.16240328  0.49839174  0.00684929  1
  O2-  O454  1  0.15573773  0.51729675  0.33326631  1
  O2-  O455  1  0.16620537  0.51535107  0.67192755  1
  O2-  O456  1  0.52305962  -0.00405535  0.02934332  1
  O2-  O457  1  0.50823636  -0.01167174  0.32861369  1
  O2-  O458  1  0.49577195  0.00494832  0.69395160  1
  O2-  O459  1  0.49757848  0.50565733  -0.00126457  1
  O2-  O460  1  0.52106105  0.49833755  0.35592173  1
  O2-  O461  1  0.49428880  0.51991267  0.66609740  1
  O2-  O462  1  0.82431124  -0.00605637  -0.02093562  1
  O2-  O463  1  0.83265153  -0.01391483  0.34424288  1
  O2-  O464  1  0.87242009  0.00417490  0.70028063  1
  O2-  O465  1  0.82484994  0.52377908  0.00492927  1
  O2-  O466  1  0.83317695  0.51414594  0.31569177  1
  O2-  O467  1  0.84190732  0.52952448  0.65178894  1
  O2-  O468  1  0.23456400  0.24888017  0.60783160  1
  O2-  O469  1  0.42618363  0.24952186  0.72240579  1
  O2-  O470  1  0.74801583  0.75061522  0.39313885  1
  O2-  O471  1  0.25110655  0.75675528  0.93325476  1
  O2-  O472  1  0.08220624  0.74984267  0.73055481  1
  O2-  O473  1  0.24898127  0.75488240  0.27662049  1
  O2-  O474  1  0.41145403  0.25434743  0.40530504  1
  O2-  O475  1  0.92716737  0.25122811  0.27119968  1
  O2-  O476  1  0.75545027  0.25191256  0.73046695  1
  O2-  O477  1  0.73921054  0.75173794  0.05036710  1
  O2-  O478  1  0.58759539  0.75182581  0.28256128  1
  O2-  O479  1  0.91576761  0.25168444  0.92607252  1
  O2-  O480  1  0.42742898  0.74937618  0.39392455  1
  O2-  O481  1  0.08090499  0.24951679  0.71929378  1
  O2-  O482  1  0.75133996  0.25711767  0.40679913  1
  O2-  O483  1  0.59497224  0.75229211  0.93568213  1
  O2-  O484  1  0.23417574  0.24865135  0.28143274  1
  O2-  O485  1  0.92389639  0.25246998  0.61731489  1
  O2-  O486  1  0.42479760  0.74596371  0.72436769  1
  O2-  O487  1  0.09242585  0.25061438  0.38694231  1
  O2-  O488  1  0.57652789  0.25642284  0.60768640  1
  O2-  O489  1  0.58835864  0.25219666  0.91870968  1
  O2-  O490  1  0.07984581  0.25087356  0.07063742  1
  O2-  O491  1  0.58661171  0.74745163  0.61164587  1
  O2-  O492  1  0.72784938  0.74866160  0.72342734  1
