# generated using pymatgen
data_Ca108Mn108O277
_symmetry_space_group_name_H-M   'P 1'
_cell_length_a   16.03281053
_cell_length_b   22.31471685
_cell_length_c   16.39327014
_cell_angle_alpha   89.99559538
_cell_angle_beta   90.00036141
_cell_angle_gamma   90.00209882
_symmetry_Int_Tables_number   1
_chemical_formula_structural   Ca108Mn108O277
_chemical_formula_sum   'Ca108 Mn108 O277'
_cell_volume   5864.98134175
_cell_formula_units_Z   1
loop_
 _symmetry_equiv_pos_site_id
 _symmetry_equiv_pos_as_xyz
  1  'x, y, z'
loop_
 _atom_type_symbol
 _atom_type_oxidation_number
  Ca2+  2.0
  Mn3.34+  3.34
  O2-  -2.0
loop_
 _atom_site_type_symbol
 _atom_site_label
 _atom_site_symmetry_multiplicity
 _atom_site_fract_x
 _atom_site_fract_y
 _atom_site_fract_z
 _atom_site_occupancy
  Ca2+  Ca0  1  0.07461483  0.25207386  0.26718968  1
  Ca2+  Ca1  1  0.09695527  0.25407754  0.57863495  1
  Ca2+  Ca2  1  0.08570929  0.25579105  0.91071045  1
  Ca2+  Ca3  1  0.07478098  0.76051459  0.24409332  1
  Ca2+  Ca4  1  0.06401392  0.76135664  0.58159145  1
  Ca2+  Ca5  1  0.10746493  0.75208158  0.92489409  1
  Ca2+  Ca6  1  0.43182364  0.24620990  0.25900737  1
  Ca2+  Ca7  1  0.39328361  0.24907477  0.58244644  1
  Ca2+  Ca8  1  0.41891714  0.25009203  0.90820041  1
  Ca2+  Ca9  1  0.41844895  0.75675943  0.25466632  1
  Ca2+  Ca10  1  0.42283752  0.75376760  0.56599523  1
  Ca2+  Ca11  1  0.40273443  0.74547315  0.92599782  1
  Ca2+  Ca12  1  0.74299648  0.22803093  0.26607942  1
  Ca2+  Ca13  1  0.75974188  0.25184595  0.55125790  1
  Ca2+  Ca14  1  0.74707961  0.25141839  0.92439857  1
  Ca2+  Ca15  1  0.75163963  0.74823375  0.24888995  1
  Ca2+  Ca16  1  0.76198265  0.74666120  0.57542239  1
  Ca2+  Ca17  1  0.75937920  0.76762758  0.92070078  1
  Ca2+  Ca18  1  0.25884257  0.26429803  0.08303540  1
  Ca2+  Ca19  1  0.24478464  0.24169513  0.43719711  1
  Ca2+  Ca20  1  0.25704203  0.24495558  0.72808563  1
  Ca2+  Ca21  1  0.26114400  0.73881613  0.07646161  1
  Ca2+  Ca22  1  0.26871147  0.76131501  0.41319591  1
  Ca2+  Ca23  1  0.26019689  0.75289274  0.76606173  1
  Ca2+  Ca24  1  0.57882038  0.24030703  0.10244247  1
  Ca2+  Ca25  1  0.58693950  0.23765958  0.40574896  1
  Ca2+  Ca26  1  0.56192921  0.25191366  0.75233568  1
  Ca2+  Ca27  1  0.56386354  0.74600004  0.08969364  1
  Ca2+  Ca28  1  0.56783020  0.74564078  0.41105374  1
  Ca2+  Ca29  1  0.58025456  0.75711581  0.74731458  1
  Ca2+  Ca30  1  0.90646107  0.24908708  0.08948912  1
  Ca2+  Ca31  1  0.90835487  0.24064053  0.41533955  1
  Ca2+  Ca32  1  0.92643620  0.26373428  0.73914096  1
  Ca2+  Ca33  1  0.91625261  0.75669534  0.09297366  1
  Ca2+  Ca34  1  0.90551435  0.74666643  0.42532932  1
  Ca2+  Ca35  1  0.91052885  0.74229252  0.72832459  1
  Ca2+  Ca36  1  0.57558764  0.60008196  0.76150663  1
  Ca2+  Ca37  1  0.25969397  0.07722816  0.09142686  1
  Ca2+  Ca38  1  0.44097651  0.08825639  0.89928634  1
  Ca2+  Ca39  1  0.04693283  0.60829148  0.58957650  1
  Ca2+  Ca40  1  0.71961277  0.60578248  0.24329802  1
  Ca2+  Ca41  1  0.25000830  0.61018293  0.77100291  1
  Ca2+  Ca42  1  0.90377857  0.07799833  0.08241677  1
  Ca2+  Ca43  1  0.77653298  0.61085233  0.56955014  1
  Ca2+  Ca44  1  0.09532530  0.10886480  0.55458720  1
  Ca2+  Ca45  1  0.10364056  0.11260971  0.55974391  1
  Ca2+  Ca46  1  0.37839970  0.10028537  0.58066575  1
  Ca2+  Ca47  1  0.89122462  0.08348835  0.38953247  1
  Ca2+  Ca48  1  0.75251450  0.08732700  0.94183571  1
  Ca2+  Ca49  1  0.62945819  0.08788919  0.38714221  1
  Ca2+  Ca50  1  0.03805311  0.06162402  0.91552355  1
  Ca2+  Ca51  1  0.90634133  0.59169829  0.08678065  1
  Ca2+  Ca52  1  0.43427844  0.08619482  0.26313346  1
  Ca2+  Ca53  1  0.08870243  0.08497840  0.27508956  1
  Ca2+  Ca54  1  0.56463308  0.60787453  0.39714591  1
  Ca2+  Ca55  1  0.12954368  0.60768136  0.92163313  1
  Ca2+  Ca56  1  0.58796750  0.60131107  0.75984248  1
  Ca2+  Ca57  1  0.24896438  0.07420695  0.08578732  1
  Ca2+  Ca58  1  0.44151383  0.08921933  0.26874542  1
  Ca2+  Ca59  1  0.75998213  0.09657695  0.56119531  1
  Ca2+  Ca60  1  0.39466764  0.60124036  0.94379307  1
  Ca2+  Ca61  1  0.26754483  0.57646799  0.39999675  1
  Ca2+  Ca62  1  0.56800534  0.61457422  0.10165018  1
  Ca2+  Ca63  1  0.43614534  0.61254372  0.24107567  1
  Ca2+  Ca64  1  0.88321581  0.08029986  0.39464906  1
  Ca2+  Ca65  1  0.76478252  0.09001973  0.56967216  1
  Ca2+  Ca66  1  0.10569587  0.56406498  0.28003884  1
  Ca2+  Ca67  1  0.25467498  0.09612680  0.40437957  1
  Ca2+  Ca68  1  0.07939478  0.08862640  0.27508549  1
  Ca2+  Ca69  1  0.74547761  0.58127873  0.94766699  1
  Ca2+  Ca70  1  0.73450713  0.58015729  0.94854877  1
  Ca2+  Ca71  1  0.42398840  0.60545812  0.56104521  1
  Ca2+  Ca72  1  0.74876358  0.90856243  0.57415262  1
  Ca2+  Ca73  1  0.58285558  0.90212969  0.07810957  1
  Ca2+  Ca74  1  0.42033581  0.90880220  0.91662012  1
  Ca2+  Ca75  1  0.94185900  0.90458359  0.76064791  1
  Ca2+  Ca76  1  0.08331287  0.39518171  0.92069136  1
  Ca2+  Ca77  1  0.59212066  0.90575045  0.07632555  1
  Ca2+  Ca78  1  0.58393708  0.39593011  0.76110830  1
  Ca2+  Ca79  1  0.56337187  0.90783775  0.75559854  1
  Ca2+  Ca80  1  0.22153803  0.42028905  0.39026018  1
  Ca2+  Ca81  1  0.08314197  0.91268498  0.92384869  1
  Ca2+  Ca82  1  0.90779286  0.40570487  0.07168590  1
  Ca2+  Ca83  1  0.57061599  0.40372611  0.41637622  1
  Ca2+  Ca84  1  0.93116817  0.90693857  0.76096331  1
  Ca2+  Ca85  1  0.92988962  0.91360012  0.39965865  1
  Ca2+  Ca86  1  0.25035545  0.90168002  0.75798865  1
  Ca2+  Ca87  1  0.76636156  0.92665992  0.26624857  1
  Ca2+  Ca88  1  0.76009400  0.90903478  0.57177642  1
  Ca2+  Ca89  1  0.74888710  0.40520832  0.93593931  1
  Ca2+  Ca90  1  0.23223455  0.41922515  0.39083808  1
  Ca2+  Ca91  1  0.75441099  0.39468160  0.58143720  1
  Ca2+  Ca92  1  0.74577968  0.41128140  0.23993901  1
  Ca2+  Ca93  1  0.09168317  0.40421102  0.57676876  1
  Ca2+  Ca94  1  0.92081568  0.91551500  0.07932845  1
  Ca2+  Ca95  1  0.58079545  0.91361591  0.40336673  1
  Ca2+  Ca96  1  0.92053722  0.40616234  0.07167154  1
  Ca2+  Ca97  1  0.93102548  0.40007573  0.41229656  1
  Ca2+  Ca98  1  0.09722028  0.91216386  0.25031668  1
  Ca2+  Ca99  1  0.57147757  0.91569501  0.40719270  1
  Ca2+  Ca100  1  0.92374753  0.91958431  0.40076532  1
  Ca2+  Ca101  1  0.39628750  0.40771655  0.24755692  1
  Ca2+  Ca102  1  0.40807342  0.90631010  0.58655867  1
  Ca2+  Ca103  1  0.42086043  0.40428322  0.92931089  1
  Ca2+  Ca104  1  0.40918425  0.40419696  0.92893064  1
  Ca2+  Ca105  1  0.73603286  0.40823322  0.23683026  1
  Ca2+  Ca106  1  0.58158090  0.40363104  0.41508768  1
  Ca2+  Ca107  1  0.25166366  0.90356866  0.09000904  1
  Mn3.34+  Mn108  1  0.08640640  0.32872165  0.09080426  1
  Mn3.34+  Mn109  1  0.08313279  0.33177046  0.41767833  1
  Mn3.34+  Mn110  1  0.08732423  0.33559588  0.74773544  1
  Mn3.34+  Mn111  1  0.08411003  0.83274928  0.08461678  1
  Mn3.34+  Mn112  1  0.09191524  0.83322655  0.41763031  1
  Mn3.34+  Mn113  1  0.09037571  0.83584903  0.75471167  1
  Mn3.34+  Mn114  1  0.41687447  0.33378162  0.09107335  1
  Mn3.34+  Mn115  1  0.41290128  0.33022661  0.41900867  1
  Mn3.34+  Mn116  1  0.41050002  0.33391849  0.74493371  1
  Mn3.34+  Mn117  1  0.41353437  0.83214759  0.08704048  1
  Mn3.34+  Mn118  1  0.41335342  0.84003103  0.41653952  1
  Mn3.34+  Mn119  1  0.41403143  0.83450434  0.75173662  1
  Mn3.34+  Mn120  1  0.74397310  0.32987215  0.08584812  1
  Mn3.34+  Mn121  1  0.75213460  0.33613521  0.41441745  1
  Mn3.34+  Mn122  1  0.75082035  0.33083623  0.75312988  1
  Mn3.34+  Mn123  1  0.75353163  0.83270830  0.08578307  1
  Mn3.34+  Mn124  1  0.74687645  0.83384163  0.41467092  1
  Mn3.34+  Mn125  1  0.74911947  0.83481341  0.75446020  1
  Mn3.34+  Mn126  1  0.24542760  0.33244465  0.24649374  1
  Mn3.34+  Mn127  1  0.25231752  0.33685962  0.58069229  1
  Mn3.34+  Mn128  1  0.24897069  0.33099139  0.91486086  1
  Mn3.34+  Mn129  1  0.25391237  0.84298865  0.25169397  1
  Mn3.34+  Mn130  1  0.24630245  0.82897884  0.58415094  1
  Mn3.34+  Mn131  1  0.25271768  0.83480138  0.92156665  1
  Mn3.34+  Mn132  1  0.57930555  0.33075260  0.24386464  1
  Mn3.34+  Mn133  1  0.57949189  0.33329763  0.58611729  1
  Mn3.34+  Mn134  1  0.58351724  0.32658422  0.92022324  1
  Mn3.34+  Mn135  1  0.58364468  0.83452155  0.24559207  1
  Mn3.34+  Mn136  1  0.58314768  0.83206695  0.58372963  1
  Mn3.34+  Mn137  1  0.58411443  0.83300993  0.91172492  1
  Mn3.34+  Mn138  1  0.91727971  0.32863345  0.24870823  1
  Mn3.34+  Mn139  1  0.92100004  0.33030698  0.58319799  1
  Mn3.34+  Mn140  1  0.91485801  0.32633349  0.90988421  1
  Mn3.34+  Mn141  1  0.91574863  0.83788606  0.24595380  1
  Mn3.34+  Mn142  1  0.92106987  0.83793783  0.57820290  1
  Mn3.34+  Mn143  1  0.91938496  0.83719128  0.92082238  1
  Mn3.34+  Mn144  1  0.91497874  0.66987798  0.91329300  1
  Mn3.34+  Mn145  1  0.58364795  0.16809367  0.92008153  1
  Mn3.34+  Mn146  1  0.91984227  0.16634016  0.57576630  1
  Mn3.34+  Mn147  1  0.42126292  0.16348174  0.08814450  1
  Mn3.34+  Mn148  1  0.24855176  0.15801805  0.90961410  1
  Mn3.34+  Mn149  1  0.08207300  0.66672593  0.41520644  1
  Mn3.34+  Mn150  1  0.75372947  0.67049512  0.74808697  1
  Mn3.34+  Mn151  1  0.57584501  0.15930661  0.58461516  1
  Mn3.34+  Mn152  1  0.07750910  0.17136918  0.08266513  1
  Mn3.34+  Mn153  1  0.91403627  0.66700988  0.24983698  1
  Mn3.34+  Mn154  1  0.91286742  0.16375506  0.24331892  1
  Mn3.34+  Mn155  1  0.92753629  0.66337400  0.90898923  1
  Mn3.34+  Mn156  1  0.07202024  0.66178445  0.41714185  1
  Mn3.34+  Mn157  1  0.08399502  0.15484076  0.75465810  1
  Mn3.34+  Mn158  1  0.58375571  0.67542111  0.91579977  1
  Mn3.34+  Mn159  1  0.24490448  0.66092680  0.24502041  1
  Mn3.34+  Mn160  1  0.41747323  0.67165711  0.74995915  1
  Mn3.34+  Mn161  1  0.74759351  0.66899603  0.41159611  1
  Mn3.34+  Mn162  1  0.24483330  0.66715240  0.58282696  1
  Mn3.34+  Mn163  1  0.75590752  0.17348226  0.75325273  1
  Mn3.34+  Mn164  1  0.41539728  0.16423076  0.41982941  1
  Mn3.34+  Mn165  1  0.25354839  0.66688084  0.24698733  1
  Mn3.34+  Mn166  1  0.08778392  0.17206061  0.08745515  1
  Mn3.34+  Mn167  1  0.25526848  0.66035198  0.58006432  1
  Mn3.34+  Mn168  1  0.74752825  0.67224425  0.08704290  1
  Mn3.34+  Mn169  1  0.58766893  0.66939216  0.57842131  1
  Mn3.34+  Mn170  1  0.08091493  0.66734672  0.08953262  1
  Mn3.34+  Mn171  1  0.58750843  0.16703534  0.58615111  1
  Mn3.34+  Mn172  1  0.74630530  0.16799292  0.75607855  1
  Mn3.34+  Mn173  1  0.41571640  0.15963440  0.74854499  1
  Mn3.34+  Mn174  1  0.91124715  0.16680969  0.91559288  1
  Mn3.34+  Mn175  1  0.07187069  0.16013070  0.75258482  1
  Mn3.34+  Mn176  1  0.74646412  0.16372554  0.08657598  1
  Mn3.34+  Mn177  1  0.25176664  0.17232687  0.24360018  1
  Mn3.34+  Mn178  1  0.08551337  0.67238129  0.75124654  1
  Mn3.34+  Mn179  1  0.25889616  0.16329786  0.91168138  1
  Mn3.34+  Mn180  1  0.74698748  0.50382032  0.41054430  1
  Mn3.34+  Mn181  1  0.41256266  0.50048334  0.07984525  1
  Mn3.34+  Mn182  1  0.24876224  0.49546082  0.91934940  1
  Mn3.34+  Mn183  1  0.93179650  0.49766655  0.26147146  1
  Mn3.34+  Mn184  1  0.56818454  0.00487097  0.59006872  1
  Mn3.34+  Mn185  1  0.42817901  0.00088765  0.07927541  1
  Mn3.34+  Mn186  1  0.59260021  0.50757844  0.58312297  1
  Mn3.34+  Mn187  1  0.25430620  -0.00099867  0.91952147  1
  Mn3.34+  Mn188  1  0.09980656  -0.00646918  0.40698695  1
  Mn3.34+  Mn189  1  0.93859164  0.00126756  0.59530554  1
  Mn3.34+  Mn190  1  0.92377403  0.49779913  0.56814656  1
  Mn3.34+  Mn191  1  0.57873823  0.50120796  0.58384324  1
  Mn3.34+  Mn192  1  0.24961066  0.49886989  0.57927621  1
  Mn3.34+  Mn193  1  0.92104898  0.50269756  0.26268152  1
  Mn3.34+  Mn194  1  0.75651599  0.49468542  0.75186373  1
  Mn3.34+  Mn195  1  0.08230087  0.00052033  0.08685377  1
  Mn3.34+  Mn196  1  0.24181605  -0.00073591  0.58997826  1
  Mn3.34+  Mn197  1  0.09120080  0.50499018  0.08430156  1
  Mn3.34+  Mn198  1  0.39599302  0.50073181  0.74818238  1
  Mn3.34+  Mn199  1  0.10162227  0.49716432  0.08052503  1
  Mn3.34+  Mn200  1  0.07502338  0.50469010  0.74915450  1
  Mn3.34+  Mn201  1  0.58896064  -0.00079638  0.25505700  1
  Mn3.34+  Mn202  1  0.74715647  0.00254168  0.76125198  1
  Mn3.34+  Mn203  1  0.75041357  0.00322960  0.74922733  1
  Mn3.34+  Mn204  1  0.40951561  0.50278483  0.74942381  1
  Mn3.34+  Mn205  1  0.91098294  0.50383728  0.56720698  1
  Mn3.34+  Mn206  1  0.76952713  0.50147823  0.75027793  1
  Mn3.34+  Mn207  1  0.55330361  0.00623021  0.59455636  1
  Mn3.34+  Mn208  1  0.58679878  0.00157310  0.91754160  1
  Mn3.34+  Mn209  1  0.23289461  -0.00613617  0.59754184  1
  Mn3.34+  Mn210  1  0.74568988  -0.00303010  0.08262974  1
  Mn3.34+  Mn211  1  0.08467973  0.49878061  0.74865803  1
  Mn3.34+  Mn212  1  0.42190534  0.49598677  0.41314149  1
  Mn3.34+  Mn213  1  0.57718973  0.49661946  0.24372452  1
  Mn3.34+  Mn214  1  0.58034573  0.49623087  0.92302107  1
  Mn3.34+  Mn215  1  0.92336904  0.50166951  0.91631100  1
  O2-  O216  1  -0.00323978  0.17827663  -0.00156746  1
  O2-  O217  1  -0.01282697  0.14940319  0.33470546  1
  O2-  O218  1  0.00199908  0.14537335  0.65717528  1
  O2-  O219  1  0.00267237  0.64096999  -0.00695858  1
  O2-  O220  1  0.00557699  0.64478313  0.32410579  1
  O2-  O221  1  0.01523212  0.68654261  0.66802646  1
  O2-  O222  1  0.33712582  0.14227181  0.00377325  1
  O2-  O223  1  0.33879707  0.16603884  0.32443774  1
  O2-  O224  1  0.33899872  0.16638454  0.66967676  1
  O2-  O225  1  0.32915780  0.67332269  -0.00109797  1
  O2-  O226  1  0.33135308  0.65183694  0.32636396  1
  O2-  O227  1  0.33801437  0.64269157  0.67033459  1
  O2-  O228  1  0.67166682  0.17671484  -0.00305962  1
  O2-  O229  1  0.66564427  0.17121992  0.34186407  1
  O2-  O230  1  0.67000297  0.14630658  0.66652318  1
  O2-  O231  1  0.66931702  0.66538466  -0.00444421  1
  O2-  O232  1  0.66009982  0.66858709  0.33758535  1
  O2-  O233  1  0.66954718  0.64150326  0.66594715  1
  O2-  O234  1  0.16856586  0.14698993  0.00095378  1
  O2-  O235  1  0.16220162  0.17003566  0.31727791  1
  O2-  O236  1  0.16427705  0.15122852  0.67225476  1
  O2-  O237  1  0.16523203  0.66738264  0.01658214  1
  O2-  O238  1  0.17146159  0.64963643  0.33825645  1
  O2-  O239  1  0.16752172  0.64812649  0.66459635  1
  O2-  O240  1  0.49697229  0.18839395  0.00240558  1
  O2-  O241  1  0.50426437  0.14884973  0.34570856  1
  O2-  O242  1  0.50355782  0.15109623  0.66970628  1
  O2-  O243  1  0.50318701  0.66855120  -0.00821557  1
  O2-  O244  1  0.50193560  0.68172134  0.32045363  1
  O2-  O245  1  0.50496145  0.64769422  0.66661227  1
  O2-  O246  1  0.83065344  0.18202887  -0.00380683  1
  O2-  O247  1  0.82960113  0.15133187  0.31675519  1
  O2-  O248  1  0.82902477  0.15571906  0.66038742  1
  O2-  O249  1  0.83602100  0.64893752  -0.00237131  1
  O2-  O250  1  0.82191361  0.65453087  0.32146625  1
  O2-  O251  1  0.83379279  0.65897234  0.67577367  1
  O2-  O252  1  -0.00286116  0.32230641  0.00198099  1
  O2-  O253  1  -0.00200857  0.32895285  0.33676531  1
  O2-  O254  1  0.00319361  0.34421908  0.66303779  1
  O2-  O255  1  0.00272673  0.85046415  0.00138522  1
  O2-  O256  1  0.00308832  0.85112668  0.32657990  1
  O2-  O257  1  0.00180101  0.83978946  0.66979676  1
  O2-  O258  1  0.33596528  0.33461278  0.00386568  1
  O2-  O259  1  0.32776539  0.34057722  0.33578006  1
  O2-  O260  1  0.33282263  0.34298939  0.66440052  1
  O2-  O261  1  0.33677300  0.85346588  0.00038786  1
  O2-  O262  1  0.33504016  0.84191098  0.33237788  1
  O2-  O263  1  0.32898467  0.84877249  0.67209149  1
  O2-  O264  1  0.66642832  0.31843924  0.00102893  1
  O2-  O265  1  0.66451565  0.35344744  0.33271873  1
  O2-  O266  1  0.66811671  0.34575964  0.67088181  1
  O2-  O267  1  0.66327442  0.83601374  0.00219529  1
  O2-  O268  1  0.66538468  0.85161060  0.33027408  1
  O2-  O269  1  0.66758883  0.85848871  0.66622798  1
  O2-  O270  1  0.16120570  0.32950830  -0.00038797  1
  O2-  O271  1  0.16809303  0.31852311  0.33628405  1
  O2-  O272  1  0.16476580  0.34446938  0.65858621  1
  O2-  O273  1  0.16612790  0.84859773  0.00061801  1
  O2-  O274  1  0.16467946  0.84098682  0.32990472  1
  O2-  O275  1  0.16796450  0.82031012  0.67477797  1
  O2-  O276  1  0.49173919  0.32736922  -0.00358845  1
  O2-  O277  1  0.49517546  0.35182893  0.32421099  1
  O2-  O278  1  0.50291032  0.34713620  0.67388392  1
  O2-  O279  1  0.50436741  0.83894299  -0.00048336  1
  O2-  O280  1  0.50824025  0.83984382  0.33538983  1
  O2-  O281  1  0.49834703  0.84547208  0.66527598  1
  O2-  O282  1  0.83127257  0.32492743  0.00091387  1
  O2-  O283  1  0.82976938  0.35744350  0.32571126  1
  O2-  O284  1  0.82783226  0.33010345  0.66361561  1
  O2-  O285  1  0.83550341  0.85000075  0.00384921  1
  O2-  O286  1  0.83639801  0.85142701  0.33883491  1
  O2-  O287  1  0.83853789  0.86251826  0.66755287  1
  O2-  O288  1  0.00448462  0.19182772  0.17134868  1
  O2-  O289  1  -0.00092429  0.17654799  0.50080352  1
  O2-  O290  1  -0.00157626  0.18066693  0.83799016  1
  O2-  O291  1  -0.01182867  0.67999376  0.16007706  1
  O2-  O292  1  0.00078275  0.68412889  0.49953323  1
  O2-  O293  1  0.00308212  0.69210913  0.83281361  1
  O2-  O294  1  0.32999894  0.19042957  0.15883981  1
  O2-  O295  1  0.33433815  0.17691899  0.49503641  1
  O2-  O296  1  0.33566229  0.18464083  0.83033597  1
  O2-  O297  1  0.33452208  0.67581867  0.17051233  1
  O2-  O298  1  0.33387742  0.67793659  0.50221301  1
  O2-  O299  1  0.34192043  0.67780078  0.82968928  1
  O2-  O300  1  0.67689044  0.18828611  0.15883951  1
  O2-  O301  1  0.67217606  0.17398972  0.50952067  1
  O2-  O302  1  0.66358817  0.19619815  0.83123300  1
  O2-  O303  1  0.66725648  0.68401381  0.16063712  1
  O2-  O304  1  0.67107603  0.68401290  0.50303893  1
  O2-  O305  1  0.66091093  0.67987799  0.82501612  1
  O2-  O306  1  0.17493116  0.19433434  0.15572236  1
  O2-  O307  1  0.15669202  0.18345296  0.49719818  1
  O2-  O308  1  0.16254504  0.18668285  0.83528020  1
  O2-  O309  1  0.15807062  0.68610586  0.18046753  1
  O2-  O310  1  0.16288375  0.68925218  0.49828062  1
  O2-  O311  1  0.16821324  0.68552031  0.82664789  1
  O2-  O312  1  0.48851605  0.17499435  0.17371307  1
  O2-  O313  1  0.49738323  0.17328260  0.50435711  1
  O2-  O314  1  0.49823637  0.17941946  0.84138743  1
  O2-  O315  1  0.50485395  0.68847965  0.18283071  1
  O2-  O316  1  0.50618825  0.68173866  0.50431355  1
  O2-  O317  1  0.50871653  0.68331614  0.82348836  1
  O2-  O318  1  0.84020397  0.17468634  0.15394642  1
  O2-  O319  1  0.83468763  0.17191649  0.49967580  1
  O2-  O320  1  0.83812033  0.19315234  0.83244839  1
  O2-  O321  1  0.83136731  0.67809174  0.16466264  1
  O2-  O322  1  0.82757997  0.67974756  0.49064214  1
  O2-  O323  1  0.82931948  0.68664907  0.83986994  1
  O2-  O324  1  -0.00514739  0.31482860  0.16092228  1
  O2-  O325  1  0.00316068  0.31582772  0.49689239  1
  O2-  O326  1  0.00256231  0.31509918  0.83649197  1
  O2-  O327  1  -0.00347296  0.82657897  0.16461676  1
  O2-  O328  1  -0.00920228  0.82518928  0.48610156  1
  O2-  O329  1  0.00342131  0.81737321  0.83025611  1
  O2-  O330  1  0.33643629  0.31584724  0.17653881  1
  O2-  O331  1  0.33161406  0.31975008  0.49577820  1
  O2-  O332  1  0.34312206  0.32479279  0.84421779  1
  O2-  O333  1  0.32721289  0.82490575  0.16163650  1
  O2-  O334  1  0.33872557  0.82873794  0.50794973  1
  O2-  O335  1  0.33507768  0.82139711  0.83739722  1
  O2-  O336  1  0.67685830  0.32192483  0.17799856  1
  O2-  O337  1  0.66835190  0.32425371  0.49802016  1
  O2-  O338  1  0.66263428  0.31568369  0.83227169  1
  O2-  O339  1  0.66110442  0.81332770  0.16249158  1
  O2-  O340  1  0.67044479  0.82166217  0.50356635  1
  O2-  O341  1  0.66475950  0.81190399  0.83316521  1
  O2-  O342  1  0.16410694  0.30631817  0.17228738  1
  O2-  O343  1  0.16517732  0.31915932  0.49592916  1
  O2-  O344  1  0.16642542  0.32004543  0.83538497  1
  O2-  O345  1  0.16349273  0.82091929  0.16637741  1
  O2-  O346  1  0.16769150  0.80972785  0.50093594  1
  O2-  O347  1  0.17102832  0.82002745  0.83493834  1
  O2-  O348  1  0.49867959  0.31250997  0.16547728  1
  O2-  O349  1  0.51137686  0.32407323  0.48640293  1
  O2-  O350  1  0.50042699  0.31970470  0.83815282  1
  O2-  O351  1  0.50214563  0.81989176  0.16500864  1
  O2-  O352  1  0.50798031  0.82260965  0.49786384  1
  O2-  O353  1  0.49868795  0.81520687  0.83354522  1
  O2-  O354  1  0.83498057  0.32250084  0.16206405  1
  O2-  O355  1  0.83887264  0.32751385  0.49254718  1
  O2-  O356  1  0.83128761  0.30836168  0.83273263  1
  O2-  O357  1  0.82853214  0.82155671  0.17309622  1
  O2-  O358  1  0.82466554  0.82888400  0.50436013  1
  O2-  O359  1  0.84398637  0.82372347  0.82570740  1
  O2-  O360  1  0.09166845  0.08226646  0.12473614  1
  O2-  O361  1  0.09719656  0.07304674  0.43152454  1
  O2-  O362  1  0.08084729  0.07787668  0.79099329  1
  O2-  O363  1  0.08729783  0.57941443  0.12809334  1
  O2-  O364  1  0.08717151  0.58628167  0.45718103  1
  O2-  O365  1  0.09239953  0.58323668  0.78878426  1
  O2-  O366  1  0.39249131  0.07609597  0.13313493  1
  O2-  O367  1  0.40393810  0.08196862  0.43832721  1
  O2-  O368  1  0.41648397  0.08243217  0.76959464  1
  O2-  O369  1  0.43902446  0.57367804  0.11113041  1
  O2-  O370  1  0.42454127  0.57398987  0.43302453  1
  O2-  O371  1  0.43861121  0.57920883  0.79745821  1
  O2-  O372  1  0.75663388  0.08047677  0.08313133  1
  O2-  O373  1  0.76159856  0.06781892  0.44291350  1
  O2-  O374  1  0.75579034  0.08422124  0.80123868  1
  O2-  O375  1  0.73823819  0.58713967  0.09372095  1
  O2-  O376  1  0.73061906  0.58431505  0.43649192  1
  O2-  O377  1  0.74234222  0.57735898  0.79788287  1
  O2-  O378  1  0.22351064  0.08614333  0.21694083  1
  O2-  O379  1  0.24095992  0.07408393  0.54099226  1
  O2-  O380  1  0.26549690  0.07859210  0.87913992  1
  O2-  O381  1  0.24160376  0.58088983  0.22916014  1
  O2-  O382  1  0.24770848  0.58232329  0.53943332  1
  O2-  O383  1  0.25894111  0.57337149  0.89199512  1
  O2-  O384  1  0.57628046  0.07116197  0.22157893  1
  O2-  O385  1  0.61086694  0.07378450  0.53776676  1
  O2-  O386  1  0.60072823  0.08216825  0.89830900  1
  O2-  O387  1  0.57864640  0.57674523  0.23382288  1
  O2-  O388  1  0.57597466  0.58445913  0.54072056  1
  O2-  O389  1  0.59821892  0.57851653  0.89309119  1
  O2-  O390  1  0.94343107  0.08357515  0.21840103  1
  O2-  O391  1  0.91088132  0.07992134  0.54337276  1
  O2-  O392  1  0.90126889  0.08596356  0.92005727  1
  O2-  O393  1  0.91184651  0.57954649  0.21799092  1
  O2-  O394  1  0.91463249  0.58378683  0.55432294  1
  O2-  O395  1  0.90964288  0.58306164  0.87706662  1
  O2-  O396  1  0.06422148  0.41715476  0.09889827  1
  O2-  O397  1  0.08697275  0.41227201  0.43675213  1
  O2-  O398  1  0.07325784  0.42194078  0.79263547  1
  O2-  O399  1  0.08699432  0.92012524  0.10901105  1
  O2-  O400  1  0.07208361  0.91988508  0.44211238  1
  O2-  O401  1  0.08322438  0.91635354  0.78217417  1
  O2-  O402  1  0.41228724  0.42145401  0.10945575  1
  O2-  O403  1  0.43230362  0.41608817  0.44480892  1
  O2-  O404  1  0.42877112  0.42179872  0.79094085  1
  O2-  O405  1  0.44521398  0.91879646  0.10017474  1
  O2-  O406  1  0.44928944  0.92229667  0.45303135  1
  O2-  O407  1  0.41076054  0.91309303  0.78093013  1
  O2-  O408  1  0.77492347  0.42096614  0.10334677  1
  O2-  O409  1  0.73302695  0.42431871  0.45180719  1
  O2-  O410  1  0.75068070  0.41978056  0.79821639  1
  O2-  O411  1  0.73292418  0.91718184  0.12017267  1
  O2-  O412  1  0.73293469  0.91648885  0.44171172  1
  O2-  O413  1  0.74461212  0.91968310  0.78894420  1
  O2-  O414  1  0.24581492  0.41207606  0.24588599  1
  O2-  O415  1  0.23695091  0.41951171  0.53454496  1
  O2-  O416  1  0.26440187  0.41442811  0.89876853  1
  O2-  O417  1  0.23844201  0.91951660  0.22358404  1
  O2-  O418  1  0.23731417  0.91485145  0.57006883  1
  O2-  O419  1  0.24407548  0.91857540  0.89038394  1
  O2-  O420  1  0.59516047  0.41685823  0.21325116  1
  O2-  O421  1  0.59361619  0.42042129  0.55551878  1
  O2-  O422  1  0.57036857  0.41610050  0.89630770  1
  O2-  O423  1  0.59113995  0.92571875  0.21038010  1
  O2-  O424  1  0.59964590  0.92737289  0.54565118  1
  O2-  O425  1  0.57202085  0.92140388  0.89063137  1
  O2-  O426  1  0.91711975  0.42119802  0.20635765  1
  O2-  O427  1  0.91841864  0.41656245  0.55081786  1
  O2-  O428  1  0.92042460  0.41586231  0.93124905  1
  O2-  O429  1  0.91092206  0.91928337  0.22692650  1
  O2-  O430  1  0.89876657  0.92574133  0.53909022  1
  O2-  O431  1  0.93520524  0.91898578  0.89316681  1
  O2-  O432  1  -0.00298442  0.00339214  0.02017054  1
  O2-  O433  1  0.00658472  0.00578407  0.34149859  1
  O2-  O434  1  -0.03345816  -0.01167932  0.70256099  1
  O2-  O435  1  -0.01879061  0.50497368  0.03404617  1
  O2-  O436  1  0.01251482  0.50174740  0.33985331  1
  O2-  O437  1  -0.00479177  0.50857779  0.66207326  1
  O2-  O438  1  0.31593904  -0.00398407  0.02985790  1
  O2-  O439  1  0.33822729  0.03870163  0.32845508  1
  O2-  O440  1  0.35177876  0.00091789  0.62046467  1
  O2-  O441  1  0.34644287  0.49572595  -0.02076263  1
  O2-  O442  1  0.33291509  0.48654472  0.35117802  1
  O2-  O443  1  0.34075720  0.51717186  0.65312655  1
  O2-  O444  1  0.65010439  -0.01253977  0.01779874  1
  O2-  O445  1  0.66076794  -0.01118126  0.33525780  1
  O2-  O446  1  0.65634059  0.00344570  0.67349849  1
  O2-  O447  1  0.68609323  0.48962378  -0.04319120  1
  O2-  O448  1  0.67688204  0.48793585  0.31175660  1
  O2-  O449  1  0.66529501  0.50569372  0.67750591  1
  O2-  O450  1  0.16051189  0.01930683  -0.00047844  1
  O2-  O451  1  0.16557356  0.00733835  0.32390417  1
  O2-  O452  1  0.12797456  0.01687362  0.62588424  1
  O2-  O453  1  0.13969335  0.49842880  -0.03247226  1
  O2-  O454  1  0.18081123  0.50636233  0.36394932  1
  O2-  O455  1  0.15847145  0.49851387  0.65806063  1
  O2-  O456  1  0.47896947  0.00449461  -0.02983673  1
  O2-  O457  1  0.50356666  -0.00315879  0.32388754  1
  O2-  O458  1  0.49843879  -0.02649837  0.67570910  1
  O2-  O459  1  0.48869845  0.49288835  -0.01316054  1
  O2-  O460  1  0.51670064  0.48907244  0.34747987  1
  O2-  O461  1  0.50924398  0.51034498  0.68045738  1
  O2-  O462  1  0.84223956  -0.00734922  0.03452757  1
  O2-  O463  1  0.85156507  -0.01050698  0.36288174  1
  O2-  O464  1  0.80661566  0.00711573  0.63715188  1
  O2-  O465  1  0.83217444  0.50946541  -0.01725210  1
  O2-  O466  1  0.83432339  0.47760450  0.33441571  1
  O2-  O467  1  0.82449858  0.49188753  0.64875338  1
  O2-  O468  1  0.75613385  0.75358050  0.38869456  1
  O2-  O469  1  0.58151984  0.24983090  0.61041346  1
  O2-  O470  1  0.41933858  0.25159711  0.72889539  1
  O2-  O471  1  0.75097094  0.75537523  0.71709374  1
  O2-  O472  1  0.91507413  0.24663202  0.60185312  1
  O2-  O473  1  0.76808148  0.75247669  0.05719059  1
  O2-  O474  1  0.41373657  0.74936412  0.71538711  1
  O2-  O475  1  0.07794602  0.24183320  0.72399125  1
  O2-  O476  1  0.90896781  0.76014566  0.59355472  1
  O2-  O477  1  0.91530041  0.74957906  0.94972747  1
  O2-  O478  1  0.58163980  0.25425601  0.27150673  1
  O2-  O479  1  0.07531038  0.74634752  0.38346861  1
  O2-  O480  1  0.26921177  0.74529831  0.61373003  1
  O2-  O481  1  0.42982880  0.24942765  0.39801056  1
  O2-  O482  1  0.25243284  0.74703218  0.27415861  1
  O2-  O483  1  0.41193134  0.75481017  0.06496314  1
  O2-  O484  1  0.25328216  0.75682186  0.93968236  1
  O2-  O485  1  0.75706009  0.25752004  0.40016579  1
  O2-  O486  1  0.90441369  0.24707100  0.27446637  1
  O2-  O487  1  0.91747675  0.75001928  0.27609823  1
  O2-  O488  1  0.06799418  0.75229301  0.06080295  1
  O2-  O489  1  0.41349101  0.75897827  0.40503122  1
  O2-  O490  1  0.24944462  0.25666067  0.59579035  1
  O2-  O491  1  0.25239781  0.24413038  0.94357871  1
  O2-  O492  1  0.58913714  0.74869427  0.61296643  1
