# generated using pymatgen
data_Ca108Mn108O277
_symmetry_space_group_name_H-M   'P 1'
_cell_length_a   16.01757106
_cell_length_b   22.29334918
_cell_length_c   16.38108192
_cell_angle_alpha   90.00276151
_cell_angle_beta   90.00379202
_cell_angle_gamma   89.99933190
_symmetry_Int_Tables_number   1
_chemical_formula_structural   Ca108Mn108O277
_chemical_formula_sum   'Ca108 Mn108 O277'
_cell_volume   5849.44360598
_cell_formula_units_Z   1
loop_
 _symmetry_equiv_pos_site_id
 _symmetry_equiv_pos_as_xyz
  1  'x, y, z'
loop_
 _atom_type_symbol
 _atom_type_oxidation_number
  Ca2+  2.0
  Mn3.34+  3.34
  O2-  -2.0
loop_
 _atom_site_type_symbol
 _atom_site_label
 _atom_site_symmetry_multiplicity
 _atom_site_fract_x
 _atom_site_fract_y
 _atom_site_fract_z
 _atom_site_occupancy
  Ca2+  Ca0  1  0.07255196  0.24466212  0.24418900  1
  Ca2+  Ca1  1  0.05816510  0.24572547  0.58741189  1
  Ca2+  Ca2  1  0.08661825  0.25183938  0.91554675  1
  Ca2+  Ca3  1  0.08678957  0.76450216  0.24442198  1
  Ca2+  Ca4  1  0.08839362  0.76481779  0.57769188  1
  Ca2+  Ca5  1  0.05847267  0.73995114  0.93388084  1
  Ca2+  Ca6  1  0.43244081  0.25463371  0.24613999  1
  Ca2+  Ca7  1  0.42525188  0.24402534  0.58824111  1
  Ca2+  Ca8  1  0.40683411  0.25341300  0.91763611  1
  Ca2+  Ca9  1  0.43061353  0.75803053  0.25834532  1
  Ca2+  Ca10  1  0.43493398  0.75451568  0.59892268  1
  Ca2+  Ca11  1  0.43826994  0.75025818  0.89060907  1
  Ca2+  Ca12  1  0.73033648  0.24446628  0.25052428  1
  Ca2+  Ca13  1  0.75683532  0.22609745  0.60671629  1
  Ca2+  Ca14  1  0.75848307  0.25968042  0.90056098  1
  Ca2+  Ca15  1  0.73452834  0.75723550  0.25292392  1
  Ca2+  Ca16  1  0.72635414  0.73785798  0.57894152  1
  Ca2+  Ca17  1  0.75171906  0.73524857  0.92504056  1
  Ca2+  Ca18  1  0.25359986  0.26470534  0.06954765  1
  Ca2+  Ca19  1  0.25144590  0.27298762  0.41662992  1
  Ca2+  Ca20  1  0.25095845  0.24994987  0.75984444  1
  Ca2+  Ca21  1  0.22320427  0.74740650  0.08644757  1
  Ca2+  Ca22  1  0.24952526  0.75878563  0.43201646  1
  Ca2+  Ca23  1  0.27079623  0.75834980  0.73724287  1
  Ca2+  Ca24  1  0.57973058  0.26707213  0.09061611  1
  Ca2+  Ca25  1  0.58241507  0.25060612  0.40834731  1
  Ca2+  Ca26  1  0.60100688  0.24589189  0.74756586  1
  Ca2+  Ca27  1  0.61023056  0.73697695  0.07351376  1
  Ca2+  Ca28  1  0.60012334  0.73902135  0.41948757  1
  Ca2+  Ca29  1  0.56604465  0.71686048  0.74721256  1
  Ca2+  Ca30  1  0.91292820  0.26494647  0.07730465  1
  Ca2+  Ca31  1  0.91185980  0.24469482  0.43812339  1
  Ca2+  Ca32  1  0.90031600  0.24054557  0.74362580  1
  Ca2+  Ca33  1  0.90308186  0.74120459  0.06542153  1
  Ca2+  Ca34  1  0.89814431  0.75396003  0.42494943  1
  Ca2+  Ca35  1  0.90566484  0.75629814  0.77066544  1
  Ca2+  Ca36  1  0.90800077  0.60150668  0.77362439  1
  Ca2+  Ca37  1  0.57873926  0.09231505  0.09898498  1
  Ca2+  Ca38  1  0.47000516  0.59603293  0.90281971  1
  Ca2+  Ca39  1  0.57879051  0.07896705  0.43348795  1
  Ca2+  Ca40  1  0.10041208  0.60365532  0.23573223  1
  Ca2+  Ca41  1  0.26047791  0.08377760  0.75694791  1
  Ca2+  Ca42  1  0.26135228  0.58593102  0.41423478  1
  Ca2+  Ca43  1  0.72528204  0.59711048  0.92337910  1
  Ca2+  Ca44  1  0.42876636  0.60464836  0.59463543  1
  Ca2+  Ca45  1  0.91647431  0.09170400  0.71233546  1
  Ca2+  Ca46  1  0.74519358  0.09100702  0.26002599  1
  Ca2+  Ca47  1  0.73514403  0.59513492  0.92577212  1
  Ca2+  Ca48  1  0.75711151  0.10692776  0.89223253  1
  Ca2+  Ca49  1  0.45807927  0.59553738  0.90660197  1
  Ca2+  Ca50  1  0.27158802  0.07155975  0.41212541  1
  Ca2+  Ca51  1  0.90113559  0.59548059  0.05883695  1
  Ca2+  Ca52  1  0.44149405  0.07427911  0.60574334  1
  Ca2+  Ca53  1  0.08756091  0.60340747  0.23590958  1
  Ca2+  Ca54  1  0.61167135  0.59245099  0.07648784  1
  Ca2+  Ca55  1  0.94070274  0.10487648  0.10091456  1
  Ca2+  Ca56  1  0.23677478  0.57869242  0.07003269  1
  Ca2+  Ca57  1  0.72839125  0.61019910  0.24219541  1
  Ca2+  Ca58  1  0.93026976  0.10475520  0.10229081  1
  Ca2+  Ca59  1  0.27069064  0.59630302  0.74780851  1
  Ca2+  Ca60  1  0.89552944  0.60054743  0.77356018  1
  Ca2+  Ca61  1  0.06411581  0.08330387  0.60592366  1
  Ca2+  Ca62  1  0.90588480  0.08698819  0.44220250  1
  Ca2+  Ca63  1  0.09045477  0.08976222  0.91700337  1
  Ca2+  Ca64  1  0.43852659  0.60681554  0.59197735  1
  Ca2+  Ca65  1  0.72523511  0.61540889  0.24859197  1
  Ca2+  Ca66  1  0.45300166  0.06759278  0.26119927  1
  Ca2+  Ca67  1  0.74612353  0.10901145  0.89298835  1
  Ca2+  Ca68  1  0.44113614  0.07038148  0.26335731  1
  Ca2+  Ca69  1  0.57378068  0.08677200  0.09060067  1
  Ca2+  Ca70  1  0.25372094  0.59340628  0.41680480  1
  Ca2+  Ca71  1  0.59093784  0.09603009  0.70616484  1
  Ca2+  Ca72  1  0.92439878  0.89833779  0.08939104  1
  Ca2+  Ca73  1  0.26433870  0.90487899  0.41697082  1
  Ca2+  Ca74  1  0.41660733  0.40108964  0.57765318  1
  Ca2+  Ca75  1  0.40216418  0.90501969  0.91024555  1
  Ca2+  Ca76  1  0.74415421  0.39781749  0.58971290  1
  Ca2+  Ca77  1  0.72839088  0.42140732  0.93239810  1
  Ca2+  Ca78  1  0.91537604  0.40098997  0.41711681  1
  Ca2+  Ca79  1  0.25087067  0.39783166  0.75625934  1
  Ca2+  Ca80  1  0.08933064  0.40335224  0.24184216  1
  Ca2+  Ca81  1  0.40429940  0.40183648  0.57493332  1
  Ca2+  Ca82  1  0.76217568  0.89958544  0.91770939  1
  Ca2+  Ca83  1  0.40845758  0.40682745  0.25189511  1
  Ca2+  Ca84  1  0.42219935  0.41035160  0.92643302  1
  Ca2+  Ca85  1  0.90245852  0.40117641  0.41741510  1
  Ca2+  Ca86  1  0.56563787  0.92139604  0.40817047  1
  Ca2+  Ca87  1  0.74972519  0.89996395  0.91798142  1
  Ca2+  Ca88  1  0.41666830  0.91725026  0.58184850  1
  Ca2+  Ca89  1  0.56435476  0.90329005  0.09205466  1
  Ca2+  Ca90  1  0.42525472  0.91927686  0.26643974  1
  Ca2+  Ca91  1  0.93521260  0.91744426  0.73915640  1
  Ca2+  Ca92  1  0.90994503  0.39907120  0.75779129  1
  Ca2+  Ca93  1  0.08968685  0.39595146  0.58853561  1
  Ca2+  Ca94  1  0.55607256  0.92047922  0.73141754  1
  Ca2+  Ca95  1  0.75197641  0.40500641  0.23349590  1
  Ca2+  Ca96  1  0.73933700  0.40497365  0.23386317  1
  Ca2+  Ca97  1  0.07902058  0.92008093  0.60773484  1
  Ca2+  Ca98  1  0.25020942  0.91006407  0.08151252  1
  Ca2+  Ca99  1  0.26268987  0.91242792  0.08157688  1
  Ca2+  Ca100  1  0.74471786  0.90853239  0.57282429  1
  Ca2+  Ca101  1  0.10179445  0.40211695  0.24088827  1
  Ca2+  Ca102  1  0.57134776  0.40781500  0.41273452  1
  Ca2+  Ca103  1  0.56694125  0.91743514  0.72742105  1
  Ca2+  Ca104  1  0.75615454  0.90820428  0.57310030  1
  Ca2+  Ca105  1  0.09388409  0.90727321  0.90891723  1
  Ca2+  Ca106  1  0.09854238  0.40723115  0.92467821  1
  Ca2+  Ca107  1  0.91290904  0.90157992  0.41732712  1
  Mn3.34+  Mn108  1  0.08267103  0.33428162  0.08026119  1
  Mn3.34+  Mn109  1  0.08711624  0.33423468  0.41888367  1
  Mn3.34+  Mn110  1  0.08097691  0.32683259  0.75383780  1
  Mn3.34+  Mn111  1  0.08205831  0.83116290  0.08441925  1
  Mn3.34+  Mn112  1  0.08254747  0.83008079  0.41493991  1
  Mn3.34+  Mn113  1  0.08831940  0.83874900  0.75349229  1
  Mn3.34+  Mn114  1  0.41724387  0.34020793  0.08186371  1
  Mn3.34+  Mn115  1  0.41570021  0.33793615  0.41458755  1
  Mn3.34+  Mn116  1  0.42430968  0.32548936  0.75415313  1
  Mn3.34+  Mn117  1  0.41619845  0.83123259  0.08834256  1
  Mn3.34+  Mn118  1  0.41843626  0.83686018  0.41998304  1
  Mn3.34+  Mn119  1  0.41339499  0.83648510  0.75113965  1
  Mn3.34+  Mn120  1  0.74948916  0.34060535  0.07533681  1
  Mn3.34+  Mn121  1  0.74327049  0.33601313  0.42010734  1
  Mn3.34+  Mn122  1  0.74582212  0.33260307  0.75331650  1
  Mn3.34+  Mn123  1  0.74984933  0.82626882  0.09045771  1
  Mn3.34+  Mn124  1  0.74550811  0.82930675  0.41159506  1
  Mn3.34+  Mn125  1  0.74747009  0.82999377  0.74855630  1
  Mn3.34+  Mn126  1  0.25473047  0.33228148  0.24497914  1
  Mn3.34+  Mn127  1  0.24892906  0.32999917  0.58550232  1
  Mn3.34+  Mn128  1  0.25207437  0.33665425  0.91478152  1
  Mn3.34+  Mn129  1  0.25284270  0.83287969  0.24918105  1
  Mn3.34+  Mn130  1  0.25079256  0.83817260  0.58532781  1
  Mn3.34+  Mn131  1  0.24866926  0.83149988  0.91259520  1
  Mn3.34+  Mn132  1  0.58108819  0.33257513  0.24729412  1
  Mn3.34+  Mn133  1  0.58526414  0.32799170  0.58404595  1
  Mn3.34+  Mn134  1  0.58144466  0.33947856  0.91169319  1
  Mn3.34+  Mn135  1  0.58388702  0.84068427  0.24767637  1
  Mn3.34+  Mn136  1  0.58327732  0.83427369  0.57671926  1
  Mn3.34+  Mn137  1  0.58144900  0.82959761  0.91606126  1
  Mn3.34+  Mn138  1  0.91489056  0.32279423  0.24693749  1
  Mn3.34+  Mn139  1  0.91273179  0.32876821  0.58713844  1
  Mn3.34+  Mn140  1  0.91695180  0.33321503  0.91617578  1
  Mn3.34+  Mn141  1  0.91479372  0.83488033  0.24890286  1
  Mn3.34+  Mn142  1  0.91736009  0.83862980  0.58226072  1
  Mn3.34+  Mn143  1  0.92145563  0.83316956  0.91577253  1
  Mn3.34+  Mn144  1  0.08434804  0.67034371  0.42304073  1
  Mn3.34+  Mn145  1  0.92156426  0.16878384  0.91016624  1
  Mn3.34+  Mn146  1  0.24953612  0.66755393  0.58118168  1
  Mn3.34+  Mn147  1  0.42265540  0.66719388  0.40936456  1
  Mn3.34+  Mn148  1  0.07751557  0.67368664  0.74661580  1
  Mn3.34+  Mn149  1  0.92498488  0.67977404  0.24765160  1
  Mn3.34+  Mn150  1  0.25037751  0.16755114  0.24622278  1
  Mn3.34+  Mn151  1  0.75141976  0.16697778  0.42022394  1
  Mn3.34+  Mn152  1  0.41560049  0.16742222  0.41879301  1
  Mn3.34+  Mn153  1  0.42350232  0.66698983  0.09510623  1
  Mn3.34+  Mn154  1  0.42213842  0.16194469  0.75770746  1
  Mn3.34+  Mn155  1  0.25569940  0.66712680  0.91820384  1
  Mn3.34+  Mn156  1  0.25368122  0.15747076  0.58536294  1
  Mn3.34+  Mn157  1  0.43285630  0.66165031  0.41025696  1
  Mn3.34+  Mn158  1  0.40525813  0.15812564  0.07987995  1
  Mn3.34+  Mn159  1  0.08403347  0.16767430  0.41318913  1
  Mn3.34+  Mn160  1  0.75479014  0.16780705  0.08633896  1
  Mn3.34+  Mn161  1  0.90427659  0.66542094  0.57903617  1
  Mn3.34+  Mn162  1  0.24667334  0.66107881  0.91729016  1
  Mn3.34+  Mn163  1  0.07231404  0.16148460  0.41321016  1
  Mn3.34+  Mn164  1  0.91123277  0.67824901  0.25116607  1
  Mn3.34+  Mn165  1  0.41518724  0.16369677  0.07879994  1
  Mn3.34+  Mn166  1  0.74109474  0.16342362  0.42326347  1
  Mn3.34+  Mn167  1  0.24915911  0.16769225  0.91183614  1
  Mn3.34+  Mn168  1  0.91477681  0.67006551  0.57932544  1
  Mn3.34+  Mn169  1  0.25493316  0.67024127  0.24894508  1
  Mn3.34+  Mn170  1  0.73794045  0.66654900  0.74897508  1
  Mn3.34+  Mn171  1  0.74387799  0.17290901  0.08575349  1
  Mn3.34+  Mn172  1  0.09047724  0.66734579  0.74720896  1
  Mn3.34+  Mn173  1  0.41421878  0.67251891  0.09301968  1
  Mn3.34+  Mn174  1  0.42557972  0.16204755  0.42027101  1
  Mn3.34+  Mn175  1  0.23754310  0.16136537  0.24386115  1
  Mn3.34+  Mn176  1  0.08169460  0.16042429  0.75733805  1
  Mn3.34+  Mn177  1  0.24296247  0.16273789  0.58533823  1
  Mn3.34+  Mn178  1  0.08947045  0.17068446  0.07824806  1
  Mn3.34+  Mn179  1  0.57880832  0.17245621  0.91091590  1
  Mn3.34+  Mn180  1  0.24390878  0.49877366  0.58099523  1
  Mn3.34+  Mn181  1  0.42925799  0.49479092  0.75351205  1
  Mn3.34+  Mn182  1  0.74100895  0.49630238  0.75239632  1
  Mn3.34+  Mn183  1  0.24832096  -0.00206032  0.60392818  1
  Mn3.34+  Mn184  1  0.76258996  0.00013359  0.74942129  1
  Mn3.34+  Mn185  1  0.56815038  0.49913604  0.24537083  1
  Mn3.34+  Mn186  1  0.91073901  0.49309914  0.93146509  1
  Mn3.34+  Mn187  1  0.41806527  0.49943764  0.75406572  1
  Mn3.34+  Mn188  1  0.25825996  0.00395779  0.93061024  1
  Mn3.34+  Mn189  1  0.56270625  0.00617405  0.92074167  1
  Mn3.34+  Mn190  1  0.26367436  0.49995035  0.25168751  1
  Mn3.34+  Mn191  1  0.24861466  -0.00023015  0.25039324  1
  Mn3.34+  Mn192  1  0.75526235  -0.00326826  0.09083142  1
  Mn3.34+  Mn193  1  0.74851830  0.50931628  0.41393646  1
  Mn3.34+  Mn194  1  0.07961168  -0.00041487  0.41559983  1
  Mn3.34+  Mn195  1  0.08252006  0.50149463  0.41906777  1
  Mn3.34+  Mn196  1  0.08917540  -0.00566039  0.41825601  1
  Mn3.34+  Mn197  1  0.92014103  0.49833260  0.58412096  1
  Mn3.34+  Mn198  1  0.74359832  -0.00104722  0.40297417  1
  Mn3.34+  Mn199  1  0.92222078  0.00244074  0.91732772  1
  Mn3.34+  Mn200  1  0.09202726  0.50308079  0.76004320  1
  Mn3.34+  Mn201  1  0.60152395  0.50994660  0.57623835  1
  Mn3.34+  Mn202  1  0.07642522  0.50496544  0.42814594  1
  Mn3.34+  Mn203  1  0.56797037  0.50588152  0.25794072  1
  Mn3.34+  Mn204  1  0.08607417  -0.00004186  0.08590769  1
  Mn3.34+  Mn205  1  0.41493774  0.50223255  0.06620638  1
  Mn3.34+  Mn206  1  0.90625643  0.50452080  0.58581325  1
  Mn3.34+  Mn207  1  0.08124358  0.49814802  0.76073813  1
  Mn3.34+  Mn208  1  0.57835304  0.00166459  0.92060536  1
  Mn3.34+  Mn209  1  0.74871524  0.00376392  0.74404827  1
  Mn3.34+  Mn210  1  0.58962800  0.50244331  0.57442489  1
  Mn3.34+  Mn211  1  0.91389696  -0.00225536  0.25739506  1
  Mn3.34+  Mn212  1  0.75019656  -0.00714059  0.10006126  1
  Mn3.34+  Mn213  1  0.08768499  0.49865184  0.06500989  1
  Mn3.34+  Mn214  1  0.90782395  0.50361626  0.23854795  1
  Mn3.34+  Mn215  1  0.91797046  0.49820153  0.23310933  1
  O2-  O216  1  -0.00006933  0.15761914  -0.00303285  1
  O2-  O217  1  -0.00671450  0.17727814  0.33319033  1
  O2-  O218  1  0.00709918  0.17132850  0.67655567  1
  O2-  O219  1  -0.01711038  0.66896166  0.00636509  1
  O2-  O220  1  0.00764972  0.66566584  0.32889925  1
  O2-  O221  1  -0.00830439  0.65108179  0.66368224  1
  O2-  O222  1  0.33074277  0.16009418  -0.00406409  1
  O2-  O223  1  0.33093730  0.14830529  0.33736055  1
  O2-  O224  1  0.33635516  0.16763440  0.67240613  1
  O2-  O225  1  0.33268691  0.66852918  0.00852197  1
  O2-  O226  1  0.33227562  0.65787216  0.33624653  1
  O2-  O227  1  0.32862073  0.65672172  0.65928850  1
  O2-  O228  1  0.66758901  0.15384666  -0.00312292  1
  O2-  O229  1  0.66557261  0.15571325  0.33954538  1
  O2-  O230  1  0.65370896  0.17737094  0.66479097  1
  O2-  O231  1  0.66965417  0.66109388  0.00159795  1
  O2-  O232  1  0.66550799  0.68199392  0.32038599  1
  O2-  O233  1  0.66967769  0.66717955  0.66731311  1
  O2-  O234  1  0.16009898  0.17054397  -0.01135594  1
  O2-  O235  1  0.16681304  0.15329507  0.33667724  1
  O2-  O236  1  0.16531290  0.16318855  0.67389806  1
  O2-  O237  1  0.17275065  0.66342439  0.00336515  1
  O2-  O238  1  0.17339462  0.65511921  0.33177760  1
  O2-  O239  1  0.16849029  0.65820749  0.66734755  1
  O2-  O240  1  0.50974128  0.16379733  0.00410524  1
  O2-  O241  1  0.49744300  0.15217912  0.33024959  1
  O2-  O242  1  0.49476528  0.17801035  0.67618617  1
  O2-  O243  1  0.49834481  0.66015864  0.00809010  1
  O2-  O244  1  0.50655625  0.67877818  0.32931181  1
  O2-  O245  1  0.48903027  0.67168482  0.65902288  1
  O2-  O246  1  0.83602056  0.14934046  -0.00033940  1
  O2-  O247  1  0.82718368  0.15933095  0.33945366  1
  O2-  O248  1  0.83987310  0.16556303  0.67307162  1
  O2-  O249  1  0.82819801  0.65742433  -0.00951916  1
  O2-  O250  1  0.83300920  0.67560805  0.32637353  1
  O2-  O251  1  0.83618915  0.65288045  0.67264634  1
  O2-  O252  1  0.00422091  0.32783218  -0.00381554  1
  O2-  O253  1  -0.00175759  0.34072070  0.33093243  1
  O2-  O254  1  0.00269441  0.33573306  0.66415765  1
  O2-  O255  1  0.00491883  0.84841919  -0.00332658  1
  O2-  O256  1  -0.00481152  0.82215177  0.33445960  1
  O2-  O257  1  -0.00033035  0.84627307  0.66360782  1
  O2-  O258  1  0.33872718  0.34178920  -0.00704514  1
  O2-  O259  1  0.33439296  0.34059622  0.32999072  1
  O2-  O260  1  0.33804606  0.33299042  0.66797240  1
  O2-  O261  1  0.32973809  0.82882574  0.00512761  1
  O2-  O262  1  0.33585558  0.83701071  0.33111982  1
  O2-  O263  1  0.33774159  0.84141786  0.66149110  1
  O2-  O264  1  0.66324340  0.32958176  -0.00731657  1
  O2-  O265  1  0.66898502  0.34854714  0.32876573  1
  O2-  O266  1  0.66927852  0.33026111  0.66264314  1
  O2-  O267  1  0.66802360  0.84597621  -0.00134348  1
  O2-  O268  1  0.65906823  0.82971764  0.33430949  1
  O2-  O269  1  0.66440923  0.85314251  0.66746798  1
  O2-  O270  1  0.16381517  0.33040282  -0.00336871  1
  O2-  O271  1  0.16266315  0.34059829  0.32575312  1
  O2-  O272  1  0.16727559  0.33051248  0.67246224  1
  O2-  O273  1  0.17185044  0.83891597  0.00307188  1
  O2-  O274  1  0.17345748  0.82683355  0.33463239  1
  O2-  O275  1  0.16316483  0.84075483  0.66191544  1
  O2-  O276  1  0.50058574  0.32632061  -0.00653613  1
  O2-  O277  1  0.50111967  0.34272683  0.33248836  1
  O2-  O278  1  0.49478462  0.32311241  0.65901803  1
  O2-  O279  1  0.49560161  0.83892408  -0.00002396  1
  O2-  O280  1  0.49952518  0.83645298  0.33039143  1
  O2-  O281  1  0.49796712  0.84680033  0.66125005  1
  O2-  O282  1  0.82999793  0.34330242  -0.00755760  1
  O2-  O283  1  0.83227948  0.34311442  0.33415308  1
  O2-  O284  1  0.83238012  0.34450079  0.66870539  1
  O2-  O285  1  0.83682363  0.84423661  0.00183296  1
  O2-  O286  1  0.83570909  0.82709490  0.33665734  1
  O2-  O287  1  0.83019579  0.85057674  0.66538669  1
  O2-  O288  1  -0.00163832  0.18949516  0.14753728  1
  O2-  O289  1  -0.00145256  0.17188636  0.49877019  1
  O2-  O290  1  0.00551519  0.18360598  0.83642297  1
  O2-  O291  1  0.00548467  0.67905564  0.17329037  1
  O2-  O292  1  -0.00345884  0.68122193  0.50069783  1
  O2-  O293  1  -0.00611796  0.67353138  0.82379714  1
  O2-  O294  1  0.33792968  0.17597443  0.17457887  1
  O2-  O295  1  0.33052911  0.17321802  0.49630578  1
  O2-  O296  1  0.33017135  0.17739815  0.82769669  1
  O2-  O297  1  0.33382891  0.68936071  0.16992961  1
  O2-  O298  1  0.33912577  0.67227174  0.49576901  1
  O2-  O299  1  0.32744252  0.68451764  0.83517522  1
  O2-  O300  1  0.65966687  0.16524877  0.16660538  1
  O2-  O301  1  0.66255927  0.17976610  0.49645821  1
  O2-  O302  1  0.66936932  0.18383608  0.84591220  1
  O2-  O303  1  0.66859901  0.68383672  0.17531216  1
  O2-  O304  1  0.66930957  0.66744195  0.49318908  1
  O2-  O305  1  0.67239872  0.67067412  0.83413914  1
  O2-  O306  1  0.16672901  0.19286064  0.15824195  1
  O2-  O307  1  0.16408314  0.17243115  0.49680767  1
  O2-  O308  1  0.16672834  0.18247443  0.82986331  1
  O2-  O309  1  0.16572659  0.68326504  0.18205409  1
  O2-  O310  1  0.18189177  0.67140686  0.48819056  1
  O2-  O311  1  0.16539915  0.68245744  0.83931505  1
  O2-  O312  1  0.49724815  0.17110144  0.16039572  1
  O2-  O313  1  0.50179642  0.18095121  0.50141525  1
  O2-  O314  1  0.49665996  0.19094423  0.83454462  1
  O2-  O315  1  0.50402949  0.69299874  0.16416795  1
  O2-  O316  1  0.50081248  0.67470579  0.49768447  1
  O2-  O317  1  0.49654910  0.67292650  0.84339568  1
  O2-  O318  1  0.83640367  0.17828311  0.16895005  1
  O2-  O319  1  0.83258374  0.17186270  0.49706616  1
  O2-  O320  1  0.83521550  0.17478566  0.83858948  1
  O2-  O321  1  0.83592608  0.67546689  0.16574908  1
  O2-  O322  1  0.82627917  0.68083957  0.50301964  1
  O2-  O323  1  0.82959236  0.67094554  0.82789910  1
  O2-  O324  1  0.00479277  0.31687697  0.16976350  1
  O2-  O325  1  -0.00665562  0.32792361  0.49680002  1
  O2-  O326  1  -0.00273054  0.31622173  0.83121512  1
  O2-  O327  1  -0.00399053  0.82114905  0.16352594  1
  O2-  O328  1  -0.00430273  0.82463460  0.49855963  1
  O2-  O329  1  -0.00170311  0.82782063  0.83154495  1
  O2-  O330  1  0.33652467  0.32367590  0.16881130  1
  O2-  O331  1  0.33876306  0.32617089  0.50454829  1
  O2-  O332  1  0.33369198  0.32009080  0.82830926  1
  O2-  O333  1  0.33243046  0.80717376  0.16495742  1
  O2-  O334  1  0.33156749  0.83007292  0.49787560  1
  O2-  O335  1  0.33681551  0.82099462  0.83899250  1
  O2-  O336  1  0.66993660  0.32638835  0.17015189  1
  O2-  O337  1  0.65902149  0.32507705  0.49564013  1
  O2-  O338  1  0.66494048  0.32042608  0.83596767  1
  O2-  O339  1  0.66006359  0.81938792  0.16425077  1
  O2-  O340  1  0.67422239  0.83227508  0.50464210  1
  O2-  O341  1  0.66895240  0.83826463  0.83555434  1
  O2-  O342  1  0.16183772  0.32128962  0.16744137  1
  O2-  O343  1  0.16255290  0.32915716  0.50896233  1
  O2-  O344  1  0.16605355  0.31736367  0.83266611  1
  O2-  O345  1  0.17143308  0.82186900  0.16452206  1
  O2-  O346  1  0.16811889  0.83129282  0.49864569  1
  O2-  O347  1  0.16269612  0.81515549  0.83962736  1
  O2-  O348  1  0.49642782  0.32799162  0.17032690  1
  O2-  O349  1  0.49810107  0.31961513  0.50360279  1
  O2-  O350  1  0.50223731  0.30997266  0.83657360  1
  O2-  O351  1  0.50105886  0.81744268  0.16681130  1
  O2-  O352  1  0.49976226  0.82994342  0.49911196  1
  O2-  O353  1  0.50385938  0.83038067  0.82960002  1
  O2-  O354  1  0.82496657  0.31986788  0.17427284  1
  O2-  O355  1  0.83504888  0.32949179  0.49622552  1
  O2-  O356  1  0.83792499  0.32731730  0.83040474  1
  O2-  O357  1  0.83704124  0.81350973  0.16658800  1
  O2-  O358  1  0.82963381  0.82952424  0.50155639  1
  O2-  O359  1  0.82805272  0.82814692  0.83921532  1
  O2-  O360  1  0.06968938  0.08199281  0.10685988  1
  O2-  O361  1  0.08840759  0.07919785  0.45118261  1
  O2-  O362  1  0.08283966  0.08257322  0.77452470  1
  O2-  O363  1  0.08914722  0.57087390  0.11173487  1
  O2-  O364  1  0.09236036  0.58722931  0.43182214  1
  O2-  O365  1  0.08128912  0.58522154  0.77400776  1
  O2-  O366  1  0.42598477  0.07771363  0.11697540  1
  O2-  O367  1  0.41747012  0.07968171  0.44532228  1
  O2-  O368  1  0.42019479  0.08485335  0.75757628  1
  O2-  O369  1  0.40946337  0.57878441  0.11070627  1
  O2-  O370  1  0.40976203  0.58141376  0.44797364  1
  O2-  O371  1  0.41233023  0.58103988  0.77655765  1
  O2-  O372  1  0.74550479  0.08006553  0.11093817  1
  O2-  O373  1  0.74938033  0.08011474  0.44069143  1
  O2-  O374  1  0.73538462  0.08291595  0.76167256  1
  O2-  O375  1  0.75477040  0.56512930  0.13497784  1
  O2-  O376  1  0.74328891  0.58526508  0.40356759  1
  O2-  O377  1  0.75970027  0.57769166  0.77972010  1
  O2-  O378  1  0.25045483  0.08094464  0.22375584  1
  O2-  O379  1  0.24724486  0.07294682  0.54906111  1
  O2-  O380  1  0.23636518  0.08120178  0.88946137  1
  O2-  O381  1  0.23627678  0.57909527  0.21406835  1
  O2-  O382  1  0.25920217  0.58002439  0.55021361  1
  O2-  O383  1  0.26929454  0.58101972  0.88794802  1
  O2-  O384  1  0.57700879  0.06246741  0.21464140  1
  O2-  O385  1  0.57143463  0.07141024  0.56876341  1
  O2-  O386  1  0.59522024  0.08383491  0.88196324  1
  O2-  O387  1  0.59134834  0.58096136  0.21625685  1
  O2-  O388  1  0.57026473  0.58597092  0.55976486  1
  O2-  O389  1  0.59253329  0.57368214  0.89779736  1
  O2-  O390  1  0.89297120  0.07320741  0.21827875  1
  O2-  O391  1  0.93552677  0.06735080  0.56902039  1
  O2-  O392  1  0.91101529  0.08325896  0.88347266  1
  O2-  O393  1  0.93003959  0.58644947  0.22963856  1
  O2-  O394  1  0.91881222  0.58257610  0.55508195  1
  O2-  O395  1  0.91374413  0.56896194  0.89611996  1
  O2-  O396  1  0.07976735  0.42416334  0.11087968  1
  O2-  O397  1  0.06890951  0.41797399  0.43817596  1
  O2-  O398  1  0.08570878  0.41554639  0.77539566  1
  O2-  O399  1  0.10500462  0.91825159  0.10044933  1
  O2-  O400  1  0.07324114  0.91305151  0.43151177  1
  O2-  O401  1  0.07771425  0.91850402  0.76987409  1
  O2-  O402  1  0.41932703  0.42969603  0.10981444  1
  O2-  O403  1  0.42892937  0.41850682  0.44747249  1
  O2-  O404  1  0.41658974  0.41311961  0.77237540  1
  O2-  O405  1  0.40358178  0.91201859  0.11366347  1
  O2-  O406  1  0.41497928  0.91800944  0.43233054  1
  O2-  O407  1  0.42892322  0.92060863  0.77757187  1
  O2-  O408  1  0.75156868  0.41944688  0.10300560  1
  O2-  O409  1  0.76684867  0.42782954  0.45183520  1
  O2-  O410  1  0.75510129  0.41766921  0.78175842  1
  O2-  O411  1  0.75319068  0.91089274  0.09988687  1
  O2-  O412  1  0.75587947  0.92013971  0.43477434  1
  O2-  O413  1  0.75814057  0.92211780  0.78023425  1
  O2-  O414  1  0.23972580  0.41833788  0.22715637  1
  O2-  O415  1  0.26468155  0.41469548  0.57748655  1
  O2-  O416  1  0.24250420  0.41567829  0.88851340  1
  O2-  O417  1  0.26075991  0.92039969  0.21628353  1
  O2-  O418  1  0.25085151  0.92520179  0.55595585  1
  O2-  O419  1  0.24969291  0.92241529  0.90191696  1
  O2-  O420  1  0.59515270  0.42004985  0.22498691  1
  O2-  O421  1  0.57690396  0.42115635  0.55562735  1
  O2-  O422  1  0.57526499  0.41586552  0.90109239  1
  O2-  O423  1  0.57084148  0.91783677  0.22805190  1
  O2-  O424  1  0.59831372  0.91977648  0.56169598  1
  O2-  O425  1  0.58103234  0.92075226  0.89520244  1
  O2-  O426  1  0.91385270  0.41538107  0.22985682  1
  O2-  O427  1  0.91605075  0.41702725  0.55967553  1
  O2-  O428  1  0.93414028  0.41757808  0.89323546  1
  O2-  O429  1  0.91628362  0.92054954  0.22491789  1
  O2-  O430  1  0.90458324  0.91837615  0.55550439  1
  O2-  O431  1  0.90222246  0.92111003  0.89174656  1
  O2-  O432  1  -0.00709259  0.00282058  0.01083764  1
  O2-  O433  1  -0.01076854  0.00702756  0.34761755  1
  O2-  O434  1  -0.00355509  0.00414785  0.66338855  1
  O2-  O435  1  -0.00407085  0.50403413  0.00564823  1
  O2-  O436  1  -0.00339095  0.49658128  0.33064583  1
  O2-  O437  1  0.00210922  0.49833066  0.67076670  1
  O2-  O438  1  0.33212037  -0.01689124  0.00632226  1
  O2-  O439  1  0.34386194  0.00703414  0.31229478  1
  O2-  O440  1  0.34193873  0.00613348  0.65154629  1
  O2-  O441  1  0.33449222  0.50618551  0.00190014  1
  O2-  O442  1  0.31510917  0.51440633  0.34832764  1
  O2-  O443  1  0.34297362  0.50432132  0.66035770  1
  O2-  O444  1  0.67237752  0.00142837  -0.00030605  1
  O2-  O445  1  0.64949037  0.00729571  0.35558816  1
  O2-  O446  1  0.66325656  -0.00312455  0.67535698  1
  O2-  O447  1  0.67046319  0.51440268  -0.01692497  1
  O2-  O448  1  0.66946208  0.49144195  0.32526488  1
  O2-  O449  1  0.67768557  0.49012214  0.65729452  1
  O2-  O450  1  0.16089356  -0.00105348  -0.00827953  1
  O2-  O451  1  0.18856530  -0.00152035  0.35700797  1
  O2-  O452  1  0.15521249  0.00698923  0.65302249  1
  O2-  O453  1  0.16842844  0.50065459  0.00081364  1
  O2-  O454  1  0.15137569  0.49923528  0.31800105  1
  O2-  O455  1  0.17510104  0.49761984  0.67905151  1
  O2-  O456  1  0.51770131  0.00583190  0.02786267  1
  O2-  O457  1  0.49752586  0.00036871  0.33573535  1
  O2-  O458  1  0.50488778  -0.00574089  0.66951324  1
  O2-  O459  1  0.49483011  0.50785716  -0.00372232  1
  O2-  O460  1  0.48911504  0.48386400  0.33047039  1
  O2-  O461  1  0.50028590  0.50447065  0.65766253  1
  O2-  O462  1  0.82598997  0.00635040  -0.00544811  1
  O2-  O463  1  0.83474846  0.00830398  0.34187733  1
  O2-  O464  1  0.83708732  -0.01004011  0.66736425  1
  O2-  O465  1  0.81251034  0.50510056  -0.02468395  1
  O2-  O466  1  0.83429106  0.48831009  0.33075957  1
  O2-  O467  1  0.84281424  0.49720330  0.68373413  1
  O2-  O468  1  0.74994148  0.25522247  0.06670393  1
  O2-  O469  1  0.58593909  0.75469633  0.58720634  1
  O2-  O470  1  0.75867567  0.74963646  0.73346947  1
  O2-  O471  1  0.58878785  0.75328068  0.92641759  1
  O2-  O472  1  0.74923421  0.24853136  0.39730905  1
  O2-  O473  1  0.75528428  0.25376733  0.74371886  1
  O2-  O474  1  0.07972266  0.75358482  0.06767221  1
  O2-  O475  1  0.40792968  0.75045423  0.40579528  1
  O2-  O476  1  0.25375851  0.24756630  0.58562739  1
  O2-  O477  1  0.91823021  0.75280799  0.60594620  1
  O2-  O478  1  0.90587911  0.24908066  0.93740309  1
  O2-  O479  1  0.09288400  0.74940072  0.41429697  1
  O2-  O480  1  0.74389658  0.75104170  0.41754440  1
  O2-  O481  1  0.09113158  0.25257044  0.40777720  1
  O2-  O482  1  0.41785224  0.75714765  0.73883046  1
  O2-  O483  1  0.41216324  0.24936968  0.39559620  1
  O2-  O484  1  0.91278792  0.25070123  0.59043613  1
  O2-  O485  1  0.58349453  0.25405435  0.26304828  1
  O2-  O486  1  0.41003390  0.24765427  0.07252961  1
  O2-  O487  1  0.24833529  0.24771838  0.27530159  1
  O2-  O488  1  0.91652657  0.75449023  0.92524270  1
  O2-  O489  1  0.07862490  0.75417171  0.72651132  1
  O2-  O490  1  0.25863772  0.25003760  0.92971814  1
  O2-  O491  1  0.75322064  0.75202596  0.06233116  1
  O2-  O492  1  0.24628314  0.75106757  0.59262248  1
