# generated using pymatgen
data_Ca108Mn108O277
_symmetry_space_group_name_H-M   'P 1'
_cell_length_a   16.02904419
_cell_length_b   22.30997328
_cell_length_c   16.38820512
_cell_angle_alpha   89.99667694
_cell_angle_beta   90.00164368
_cell_angle_gamma   89.99799663
_symmetry_Int_Tables_number   1
_chemical_formula_structural   Ca108Mn108O277
_chemical_formula_sum   'Ca108 Mn108 O277'
_cell_volume   5860.54582552
_cell_formula_units_Z   1
loop_
 _symmetry_equiv_pos_site_id
 _symmetry_equiv_pos_as_xyz
  1  'x, y, z'
loop_
 _atom_type_symbol
 _atom_type_oxidation_number
  Ca2+  2.0
  Mn3.34+  3.34
  O2-  -2.0
loop_
 _atom_site_type_symbol
 _atom_site_label
 _atom_site_symmetry_multiplicity
 _atom_site_fract_x
 _atom_site_fract_y
 _atom_site_fract_z
 _atom_site_occupancy
  Ca2+  Ca0  1  0.07295857  0.26154607  0.25771026  1
  Ca2+  Ca1  1  0.08892025  0.25328621  0.57858548  1
  Ca2+  Ca2  1  0.09852628  0.25589546  0.91608303  1
  Ca2+  Ca3  1  0.07955171  0.74620600  0.24288313  1
  Ca2+  Ca4  1  0.07812460  0.75672246  0.57582071  1
  Ca2+  Ca5  1  0.08459400  0.73288622  0.92535486  1
  Ca2+  Ca6  1  0.42795951  0.24984503  0.25653386  1
  Ca2+  Ca7  1  0.40994617  0.25328473  0.58577504  1
  Ca2+  Ca8  1  0.42424974  0.24640504  0.90485869  1
  Ca2+  Ca9  1  0.42553859  0.74780831  0.26279297  1
  Ca2+  Ca10  1  0.43746670  0.73650834  0.58274005  1
  Ca2+  Ca11  1  0.42031710  0.73927446  0.89181631  1
  Ca2+  Ca12  1  0.74651201  0.25544643  0.25113058  1
  Ca2+  Ca13  1  0.75466932  0.26051544  0.58300439  1
  Ca2+  Ca14  1  0.72441256  0.25006255  0.91840236  1
  Ca2+  Ca15  1  0.75041057  0.75257329  0.26142921  1
  Ca2+  Ca16  1  0.73354623  0.74752121  0.56716763  1
  Ca2+  Ca17  1  0.74793742  0.76662397  0.92037275  1
  Ca2+  Ca18  1  0.26481310  0.24489985  0.06960939  1
  Ca2+  Ca19  1  0.25468826  0.24023125  0.43927218  1
  Ca2+  Ca20  1  0.27734293  0.23939845  0.73948259  1
  Ca2+  Ca21  1  0.22981508  0.74540451  0.07851150  1
  Ca2+  Ca22  1  0.25427013  0.75412583  0.41385290  1
  Ca2+  Ca23  1  0.26540776  0.74705236  0.75669612  1
  Ca2+  Ca24  1  0.58225793  0.24725716  0.07044009  1
  Ca2+  Ca25  1  0.57823637  0.24975441  0.41169541  1
  Ca2+  Ca26  1  0.57107044  0.24720243  0.77431456  1
  Ca2+  Ca27  1  0.57899327  0.75672344  0.08277837  1
  Ca2+  Ca28  1  0.58140325  0.74752254  0.42967774  1
  Ca2+  Ca29  1  0.56235721  0.74699631  0.73632682  1
  Ca2+  Ca30  1  0.90232290  0.25102855  0.08763663  1
  Ca2+  Ca31  1  0.91680185  0.24685822  0.42524206  1
  Ca2+  Ca32  1  0.90589428  0.25065612  0.73648082  1
  Ca2+  Ca33  1  0.94245255  0.75096466  0.08293281  1
  Ca2+  Ca34  1  0.91645948  0.75205216  0.42046746  1
  Ca2+  Ca35  1  0.93227805  0.75950678  0.75008609  1
  Ca2+  Ca36  1  0.21736139  0.59672349  0.06703586  1
  Ca2+  Ca37  1  0.38840209  0.10898464  0.54341919  1
  Ca2+  Ca38  1  0.25534181  0.58988363  0.39793882  1
  Ca2+  Ca39  1  0.08715710  0.09079381  0.91510616  1
  Ca2+  Ca40  1  0.58642227  0.58900730  0.41443503  1
  Ca2+  Ca41  1  0.57274105  0.59074430  0.08584924  1
  Ca2+  Ca42  1  0.58139969  0.07384720  0.38566402  1
  Ca2+  Ca43  1  0.42502246  0.58614498  0.26277194  1
  Ca2+  Ca44  1  0.57908716  0.08021665  0.09096080  1
  Ca2+  Ca45  1  0.24709601  0.09796733  0.74148652  1
  Ca2+  Ca46  1  0.45153414  0.09729558  0.91778052  1
  Ca2+  Ca47  1  0.58778507  0.08259647  0.08622824  1
  Ca2+  Ca48  1  0.95420082  0.59898268  0.07979027  1
  Ca2+  Ca49  1  0.10032100  0.10532574  0.57764494  1
  Ca2+  Ca50  1  0.58477062  0.58828625  0.08523713  1
  Ca2+  Ca51  1  0.71749197  0.59732994  0.57043694  1
  Ca2+  Ca52  1  0.92397624  0.59521922  0.75755377  1
  Ca2+  Ca53  1  0.22842742  0.59504990  0.06444758  1
  Ca2+  Ca54  1  0.94616810  0.07634537  0.73163552  1
  Ca2+  Ca55  1  0.43580706  0.08857612  0.27274031  1
  Ca2+  Ca56  1  0.28677007  0.59695952  0.78024117  1
  Ca2+  Ca57  1  0.25776040  0.09833959  0.74455947  1
  Ca2+  Ca58  1  0.38343015  0.11307715  0.55056277  1
  Ca2+  Ca59  1  0.88051283  0.07847836  0.06948464  1
  Ca2+  Ca60  1  0.74876572  0.58265115  0.92683513  1
  Ca2+  Ca61  1  0.90080679  0.59347931  0.41262411  1
  Ca2+  Ca62  1  0.71545536  0.07594572  0.93570851  1
  Ca2+  Ca63  1  0.08626378  0.08711257  0.27290938  1
  Ca2+  Ca64  1  0.44374322  0.09941179  0.92412511  1
  Ca2+  Ca65  1  0.93584459  0.07983796  0.73079072  1
  Ca2+  Ca66  1  0.57369198  0.11290489  0.77071333  1
  Ca2+  Ca67  1  0.54901075  0.59855541  0.73556560  1
  Ca2+  Ca68  1  0.73235629  0.57735758  0.27613506  1
  Ca2+  Ca69  1  0.09163408  0.60328160  0.24306620  1
  Ca2+  Ca70  1  0.91115579  0.59489520  0.75637492  1
  Ca2+  Ca71  1  0.07330036  0.59688121  0.57732038  1
  Ca2+  Ca72  1  0.25354010  0.39308663  0.41440113  1
  Ca2+  Ca73  1  0.88286731  0.92378545  0.05155337  1
  Ca2+  Ca74  1  0.07511827  0.91321335  0.58827438  1
  Ca2+  Ca75  1  0.24489426  0.39833711  0.75772551  1
  Ca2+  Ca76  1  0.24044643  0.91234453  0.74151754  1
  Ca2+  Ca77  1  0.25147576  0.40301863  0.08043358  1
  Ca2+  Ca78  1  0.90466547  0.39765792  0.41958766  1
  Ca2+  Ca79  1  0.07366032  0.91163132  0.91472477  1
  Ca2+  Ca80  1  0.59038712  0.89292257  0.76629076  1
  Ca2+  Ca81  1  0.43249500  0.91371145  0.92908190  1
  Ca2+  Ca82  1  0.25693145  0.39868240  0.75693673  1
  Ca2+  Ca83  1  0.42696005  0.40199670  0.57374103  1
  Ca2+  Ca84  1  0.06200817  0.91447423  0.91117148  1
  Ca2+  Ca85  1  0.91979757  0.40199188  0.07181657  1
  Ca2+  Ca86  1  0.26104744  0.90317060  0.41895957  1
  Ca2+  Ca87  1  0.45439221  0.92638518  0.27171792  1
  Ca2+  Ca88  1  0.59938165  0.92773402  0.04927241  1
  Ca2+  Ca89  1  0.24010677  0.40407492  0.08007348  1
  Ca2+  Ca90  1  0.71115990  0.92723999  0.27320116  1
  Ca2+  Ca91  1  0.42197323  0.40992762  0.91561680  1
  Ca2+  Ca92  1  0.90294972  0.90809153  0.41868501  1
  Ca2+  Ca93  1  0.09326925  0.40870835  0.25760023  1
  Ca2+  Ca94  1  0.40933402  0.41101645  0.91713483  1
  Ca2+  Ca95  1  0.27666051  0.91275957  0.07976119  1
  Ca2+  Ca96  1  0.71687913  0.93212133  0.26770186  1
  Ca2+  Ca97  1  0.90733835  0.40138793  0.07321480  1
  Ca2+  Ca98  1  0.74864132  0.89798160  0.57387306  1
  Ca2+  Ca99  1  0.23022700  0.91750995  0.74358092  1
  Ca2+  Ca100  1  0.26528594  0.90988486  0.07596112  1
  Ca2+  Ca101  1  0.08538706  0.90036420  0.25956691  1
  Ca2+  Ca102  1  0.59445414  0.40554500  0.74763319  1
  Ca2+  Ca103  1  0.72160747  0.42187147  0.28187563  1
  Ca2+  Ca104  1  0.60829887  0.92995080  0.05374348  1
  Ca2+  Ca105  1  0.92082045  0.91269406  0.74559837  1
  Ca2+  Ca106  1  0.90280992  0.39657005  0.76282563  1
  Ca2+  Ca107  1  0.44853392  0.93091577  0.27734254  1
  Mn3.34+  Mn108  1  0.08244048  0.32496855  0.08468060  1
  Mn3.34+  Mn109  1  0.08178692  0.33337446  0.41937689  1
  Mn3.34+  Mn110  1  0.08098510  0.32905450  0.75037299  1
  Mn3.34+  Mn111  1  0.08213750  0.83743279  0.08796466  1
  Mn3.34+  Mn112  1  0.08197922  0.83410186  0.41725282  1
  Mn3.34+  Mn113  1  0.08299825  0.83227070  0.74861754  1
  Mn3.34+  Mn114  1  0.42419997  0.32799920  0.09093363  1
  Mn3.34+  Mn115  1  0.42313070  0.33603789  0.41379435  1
  Mn3.34+  Mn116  1  0.42308380  0.33161721  0.74548711  1
  Mn3.34+  Mn117  1  0.41935922  0.83417077  0.09302585  1
  Mn3.34+  Mn118  1  0.42119466  0.83457448  0.42146777  1
  Mn3.34+  Mn119  1  0.41724725  0.83356337  0.74772465  1
  Mn3.34+  Mn120  1  0.74056164  0.33372538  0.08676522  1
  Mn3.34+  Mn121  1  0.74160278  0.33938674  0.42088233  1
  Mn3.34+  Mn122  1  0.74632106  0.33146129  0.74927801  1
  Mn3.34+  Mn123  1  0.75190172  0.83585400  0.09271445  1
  Mn3.34+  Mn124  1  0.74604679  0.83631984  0.41687853  1
  Mn3.34+  Mn125  1  0.75002944  0.83031830  0.75006578  1
  Mn3.34+  Mn126  1  0.25447816  0.32915242  0.24965267  1
  Mn3.34+  Mn127  1  0.24920556  0.32949281  0.57988149  1
  Mn3.34+  Mn128  1  0.25085866  0.32948619  0.91415996  1
  Mn3.34+  Mn129  1  0.25318676  0.82867585  0.24539943  1
  Mn3.34+  Mn130  1  0.25297059  0.83529281  0.58001466  1
  Mn3.34+  Mn131  1  0.25277443  0.83433619  0.91238791  1
  Mn3.34+  Mn132  1  0.57904739  0.34206700  0.24718457  1
  Mn3.34+  Mn133  1  0.58822770  0.33450244  0.57939618  1
  Mn3.34+  Mn134  1  0.58582772  0.33766709  0.92053595  1
  Mn3.34+  Mn135  1  0.58318843  0.82639093  0.24656273  1
  Mn3.34+  Mn136  1  0.57969359  0.83186834  0.58231831  1
  Mn3.34+  Mn137  1  0.58299412  0.82921061  0.91651878  1
  Mn3.34+  Mn138  1  0.91160122  0.33598292  0.25143721  1
  Mn3.34+  Mn139  1  0.91517049  0.33039294  0.58295356  1
  Mn3.34+  Mn140  1  0.91632431  0.32823911  0.91125622  1
  Mn3.34+  Mn141  1  0.91350268  0.83469798  0.24624362  1
  Mn3.34+  Mn142  1  0.91422993  0.83307418  0.58333606  1
  Mn3.34+  Mn143  1  0.91033360  0.83431701  0.91425326  1
  Mn3.34+  Mn144  1  0.59927012  0.16293083  0.57972831  1
  Mn3.34+  Mn145  1  0.91806319  0.67021371  0.25003415  1
  Mn3.34+  Mn146  1  0.08452286  0.17071918  0.75602337  1
  Mn3.34+  Mn147  1  0.91912419  0.16998915  0.91470909  1
  Mn3.34+  Mn148  1  0.57996009  0.66614103  0.91146262  1
  Mn3.34+  Mn149  1  0.08798433  0.66880545  0.75196058  1
  Mn3.34+  Mn150  1  0.74908112  0.66661250  0.41538021  1
  Mn3.34+  Mn151  1  0.07970792  0.16815408  0.42356233  1
  Mn3.34+  Mn152  1  0.74524622  0.66818082  0.75881544  1
  Mn3.34+  Mn153  1  0.58935249  0.16755895  0.25092641  1
  Mn3.34+  Mn154  1  0.08257064  0.66725090  0.41326250  1
  Mn3.34+  Mn155  1  0.92091680  0.67065373  0.91730644  1
  Mn3.34+  Mn156  1  0.58485638  0.16843260  0.58248462  1
  Mn3.34+  Mn157  1  0.25200836  0.16522071  0.91732990  1
  Mn3.34+  Mn158  1  0.24855437  0.66790660  0.91718927  1
  Mn3.34+  Mn159  1  0.90727968  0.16012581  0.25213952  1
  Mn3.34+  Mn160  1  0.75046299  0.66627498  0.08954228  1
  Mn3.34+  Mn161  1  0.25719996  0.66351640  0.58333438  1
  Mn3.34+  Mn162  1  0.08576383  0.16931021  0.08745016  1
  Mn3.34+  Mn163  1  0.42107231  0.16427521  0.09300643  1
  Mn3.34+  Mn164  1  0.75912627  0.67220074  0.08675016  1
  Mn3.34+  Mn165  1  0.90864555  0.16432031  0.57760858  1
  Mn3.34+  Mn166  1  0.58343777  0.66823776  0.25104354  1
  Mn3.34+  Mn167  1  0.90974685  0.16457638  0.91162328  1
  Mn3.34+  Mn168  1  0.74201248  0.16625022  0.08921080  1
  Mn3.34+  Mn169  1  0.74464963  0.67292049  0.74862302  1
  Mn3.34+  Mn170  1  0.74790291  0.15396909  0.41919971  1
  Mn3.34+  Mn171  1  0.25748555  0.17673942  0.25236048  1
  Mn3.34+  Mn172  1  0.41518103  0.66984173  0.08559392  1
  Mn3.34+  Mn173  1  0.24437822  0.17362092  0.24797546  1
  Mn3.34+  Mn174  1  0.24706118  0.66839564  0.58579967  1
  Mn3.34+  Mn175  1  0.91462517  0.66933994  0.57847171  1
  Mn3.34+  Mn176  1  0.92037991  0.16685612  0.25270516  1
  Mn3.34+  Mn177  1  0.74992979  0.16726210  0.75371196  1
  Mn3.34+  Mn178  1  0.25747410  0.66750493  0.24516596  1
  Mn3.34+  Mn179  1  0.42124449  0.66458409  0.42009395  1
  Mn3.34+  Mn180  1  0.41709209  0.49473677  0.09457611  1
  Mn3.34+  Mn181  1  0.92351184  0.50114397  0.25250035  1
  Mn3.34+  Mn182  1  0.09042413  0.50021766  0.41486021  1
  Mn3.34+  Mn183  1  0.74581744  0.49865118  0.08344795  1
  Mn3.34+  Mn184  1  0.58952485  0.49210746  0.59366471  1
  Mn3.34+  Mn185  1  0.58024145  -0.00211921  0.55968681  1
  Mn3.34+  Mn186  1  0.24273431  0.00106667  0.24358827  1
  Mn3.34+  Mn187  1  0.41914950  0.49883250  0.74536421  1
  Mn3.34+  Mn188  1  0.09350802  0.50537562  0.76290444  1
  Mn3.34+  Mn189  1  0.42427761  0.00008636  0.73852683  1
  Mn3.34+  Mn190  1  0.90470855  0.49914171  0.58618956  1
  Mn3.34+  Mn191  1  0.24491741  -0.00047085  0.58401122  1
  Mn3.34+  Mn192  1  0.25349822  0.00585355  0.24506471  1
  Mn3.34+  Mn193  1  0.43852964  -0.00540840  0.74001451  1
  Mn3.34+  Mn194  1  0.08094373  0.49813514  0.76208263  1
  Mn3.34+  Mn195  1  0.25675289  0.50253894  0.58322156  1
  Mn3.34+  Mn196  1  0.08415029  0.00141626  0.42030384  1
  Mn3.34+  Mn197  1  0.24325674  0.49631114  0.58191492  1
  Mn3.34+  Mn198  1  0.91674121  -0.00379790  0.25177478  1
  Mn3.34+  Mn199  1  0.74472768  -0.00087222  0.75375064  1
  Mn3.34+  Mn200  1  0.91690110  0.00019724  0.58202869  1
  Mn3.34+  Mn201  1  0.58765343  0.50484966  0.91590679  1
  Mn3.34+  Mn202  1  0.91723149  0.49338479  0.58577698  1
  Mn3.34+  Mn203  1  0.90658754  0.00248190  0.25251825  1
  Mn3.34+  Mn204  1  0.42098644  0.50187968  0.40550562  1
  Mn3.34+  Mn205  1  0.42796954  0.48944208  0.09479789  1
  Mn3.34+  Mn206  1  0.73211330  0.00612756  0.75327519  1
  Mn3.34+  Mn207  1  0.08770453  0.00714741  0.08478289  1
  Mn3.34+  Mn208  1  0.25268053  0.50040847  0.24709447  1
  Mn3.34+  Mn209  1  0.07337082  0.00080720  0.08654832  1
  Mn3.34+  Mn210  1  0.08382801  0.49450382  0.06949994  1
  Mn3.34+  Mn211  1  0.91222874  0.50530695  0.25217542  1
  Mn3.34+  Mn212  1  0.74575007  0.49731447  0.75475480  1
  Mn3.34+  Mn213  1  0.59325188  0.00399624  0.55928549  1
  Mn3.34+  Mn214  1  0.91792917  0.50045043  0.92684115  1
  Mn3.34+  Mn215  1  0.26292699  0.00534973  0.92367134  1
  O2-  O216  1  -0.00660589  0.16966472  0.00472600  1
  O2-  O217  1  -0.00210957  0.14804508  0.33399252  1
  O2-  O218  1  0.00154074  0.16518040  0.67515607  1
  O2-  O219  1  -0.00149943  0.66210407  -0.00834669  1
  O2-  O220  1  -0.00343983  0.64561265  0.33298088  1
  O2-  O221  1  -0.00602684  0.64854329  0.66804214  1
  O2-  O222  1  0.34166530  0.14515903  -0.00370092  1
  O2-  O223  1  0.33714914  0.17762093  0.32667495  1
  O2-  O224  1  0.33570292  0.14675306  0.66594976  1
  O2-  O225  1  0.32416781  0.66433922  0.01367338  1
  O2-  O226  1  0.33617380  0.65887223  0.33024504  1
  O2-  O227  1  0.33004119  0.65227415  0.66674171  1
  O2-  O228  1  0.65988281  0.15363493  0.01375601  1
  O2-  O229  1  0.66911215  0.18278252  0.33500083  1
  O2-  O230  1  0.66766196  0.14503948  0.66833843  1
  O2-  O231  1  0.66522586  0.65385825  0.00701612  1
  O2-  O232  1  0.66556414  0.65565420  0.33115192  1
  O2-  O233  1  0.65962791  0.65803457  0.67616546  1
  O2-  O234  1  0.16080603  0.17021025  -0.00467133  1
  O2-  O235  1  0.16389460  0.16829482  0.32908603  1
  O2-  O236  1  0.16421778  0.16360492  0.67811451  1
  O2-  O237  1  0.16451272  0.66668241  -0.00268830  1
  O2-  O238  1  0.17189441  0.66261051  0.33166864  1
  O2-  O239  1  0.16673104  0.64106569  0.66572739  1
  O2-  O240  1  0.50577045  0.15293292  0.01857421  1
  O2-  O241  1  0.50866565  0.17079118  0.32733143  1
  O2-  O242  1  0.50178254  0.13817749  0.64934253  1
  O2-  O243  1  0.50015690  0.65211093  0.00234265  1
  O2-  O244  1  0.49956265  0.65320674  0.32984217  1
  O2-  O245  1  0.49731461  0.67148951  0.66482484  1
  O2-  O246  1  0.82689770  0.15720593  -0.00473288  1
  O2-  O247  1  0.82974112  0.16924314  0.33725162  1
  O2-  O248  1  0.84465024  0.14786489  0.68170722  1
  O2-  O249  1  0.82990456  0.65704684  -0.00396171  1
  O2-  O250  1  0.82901067  0.65398210  0.32525593  1
  O2-  O251  1  0.82424115  0.65086191  0.66557727  1
  O2-  O252  1  -0.00227440  0.31416436  0.00267612  1
  O2-  O253  1  -0.00133428  0.35279012  0.33067117  1
  O2-  O254  1  -0.00269886  0.32975179  0.67151948  1
  O2-  O255  1  -0.00213011  0.85929716  0.00774908  1
  O2-  O256  1  -0.00815884  0.85399356  0.33647340  1
  O2-  O257  1  -0.00178484  0.84937532  0.66848406  1
  O2-  O258  1  0.33498051  0.34850955  0.00108030  1
  O2-  O259  1  0.33143740  0.31662451  0.33626976  1
  O2-  O260  1  0.33495031  0.35009442  0.66489604  1
  O2-  O261  1  0.33952524  0.84628982  -0.00106382  1
  O2-  O262  1  0.33517415  0.82849774  0.32468933  1
  O2-  O263  1  0.32691376  0.85525991  0.67421467  1
  O2-  O264  1  0.66674328  0.34105473  0.00026910  1
  O2-  O265  1  0.66489675  0.32499529  0.33207687  1
  O2-  O266  1  0.67030538  0.34723300  0.66232222  1
  O2-  O267  1  0.66787466  0.83600254  0.00642950  1
  O2-  O268  1  0.66741467  0.84499699  0.32496171  1
  O2-  O269  1  0.67300574  0.83249471  0.66295974  1
  O2-  O270  1  0.17083055  0.33172515  0.00431443  1
  O2-  O271  1  0.16616096  0.33553580  0.32806688  1
  O2-  O272  1  0.17116669  0.34050900  0.66992445  1
  O2-  O273  1  0.16838740  0.86321768  -0.00096180  1
  O2-  O274  1  0.17187276  0.83968354  0.33395366  1
  O2-  O275  1  0.16271547  0.85174495  0.66389737  1
  O2-  O276  1  0.49413049  0.35142511  -0.00117497  1
  O2-  O277  1  0.50229382  0.31619878  0.33075424  1
  O2-  O278  1  0.50414230  0.35110410  0.66823113  1
  O2-  O279  1  0.50596415  0.84935285  0.01679281  1
  O2-  O280  1  0.50254817  0.84303877  0.32874593  1
  O2-  O281  1  0.50790355  0.84532840  0.67577070  1
  O2-  O282  1  0.84085063  0.33478491  0.00174569  1
  O2-  O283  1  0.82497635  0.33421736  0.33368575  1
  O2-  O284  1  0.83630246  0.34070527  0.67090580  1
  O2-  O285  1  0.82988775  0.83276467  0.00432898  1
  O2-  O286  1  0.82516372  0.85405320  0.32189638  1
  O2-  O287  1  0.83535097  0.84501697  0.66889595  1
  O2-  O288  1  0.00259846  0.18853668  0.17183499  1
  O2-  O289  1  -0.00075290  0.18094933  0.50619222  1
  O2-  O290  1  0.00305837  0.19305924  0.83831684  1
  O2-  O291  1  0.00137204  0.67720629  0.17488899  1
  O2-  O292  1  0.00512899  0.67759309  0.49987991  1
  O2-  O293  1  -0.00735942  0.68125269  0.82428533  1
  O2-  O294  1  0.33385460  0.18609864  0.16777540  1
  O2-  O295  1  0.35177698  0.19227512  0.49463577  1
  O2-  O296  1  0.32497542  0.16635155  0.83328768  1
  O2-  O297  1  0.34100238  0.69190762  0.17008021  1
  O2-  O298  1  0.32986050  0.68258330  0.49624389  1
  O2-  O299  1  0.32886252  0.67852334  0.83980429  1
  O2-  O300  1  0.66583771  0.19029941  0.16935341  1
  O2-  O301  1  0.67097740  0.19183243  0.49985961  1
  O2-  O302  1  0.66854705  0.17833313  0.82781960  1
  O2-  O303  1  0.66745599  0.68978894  0.16499433  1
  O2-  O304  1  0.66979504  0.67535945  0.49327409  1
  O2-  O305  1  0.67770812  0.68992314  0.84584281  1
  O2-  O306  1  0.16960194  0.19838749  0.16971615  1
  O2-  O307  1  0.15536416  0.18233303  0.50018012  1
  O2-  O308  1  0.16921402  0.18600238  0.83318595  1
  O2-  O309  1  0.17528053  0.67558503  0.16802996  1
  O2-  O310  1  0.16770946  0.68292345  0.50431567  1
  O2-  O311  1  0.17157831  0.68146302  0.82781680  1
  O2-  O312  1  0.50458193  0.18862938  0.17045810  1
  O2-  O313  1  0.50718508  0.18306560  0.50320510  1
  O2-  O314  1  0.49436969  0.17146145  0.84557237  1
  O2-  O315  1  0.50708964  0.68292832  0.15936886  1
  O2-  O316  1  0.50332241  0.67045473  0.48929354  1
  O2-  O317  1  0.51263638  0.67759249  0.82772824  1
  O2-  O318  1  0.83703803  0.17771166  0.16413723  1
  O2-  O319  1  0.82720112  0.17722398  0.49649974  1
  O2-  O320  1  0.83216819  0.19273422  0.83583128  1
  O2-  O321  1  0.84010105  0.69208262  0.16309790  1
  O2-  O322  1  0.83530058  0.68152188  0.49667469  1
  O2-  O323  1  0.83918142  0.68611317  0.82453653  1
  O2-  O324  1  -0.00433961  0.32085110  0.16106029  1
  O2-  O325  1  -0.00399733  0.32144932  0.49687264  1
  O2-  O326  1  -0.00090553  0.31000940  0.83122093  1
  O2-  O327  1  0.00748812  0.82098284  0.17508555  1
  O2-  O328  1  -0.00164188  0.82533885  0.50244765  1
  O2-  O329  1  0.00566024  0.82416567  0.83525609  1
  O2-  O330  1  0.32604331  0.31367163  0.15889268  1
  O2-  O331  1  0.33550358  0.32367822  0.49952285  1
  O2-  O332  1  0.33515035  0.32415764  0.82871979  1
  O2-  O333  1  0.32443999  0.81020757  0.15347806  1
  O2-  O334  1  0.32730015  0.82340300  0.49208332  1
  O2-  O335  1  0.33067939  0.82334242  0.82994243  1
  O2-  O336  1  0.66634003  0.32190099  0.17442596  1
  O2-  O337  1  0.66501115  0.31276996  0.49652466  1
  O2-  O338  1  0.65809641  0.32302874  0.82625224  1
  O2-  O339  1  0.66787860  0.80856227  0.16771939  1
  O2-  O340  1  0.66747690  0.82000984  0.49918300  1
  O2-  O341  1  0.66087828  0.81153291  0.82598489  1
  O2-  O342  1  0.16586571  0.31732931  0.16639876  1
  O2-  O343  1  0.16973470  0.31737621  0.49469601  1
  O2-  O344  1  0.17540611  0.31452516  0.82463837  1
  O2-  O345  1  0.16732577  0.81734507  0.16720640  1
  O2-  O346  1  0.16678320  0.81741286  0.49839477  1
  O2-  O347  1  0.16757630  0.82527031  0.83097745  1
  O2-  O348  1  0.50569145  0.31083759  0.16744638  1
  O2-  O349  1  0.49654781  0.31683285  0.50433656  1
  O2-  O350  1  0.49385407  0.32922739  0.83649399  1
  O2-  O351  1  0.49570319  0.80780379  0.17168190  1
  O2-  O352  1  0.49649637  0.82053676  0.50366164  1
  O2-  O353  1  0.49583501  0.81987053  0.83768414  1
  O2-  O354  1  0.83597952  0.32263495  0.16322787  1
  O2-  O355  1  0.83166734  0.31796991  0.49086084  1
  O2-  O356  1  0.83311964  0.31483320  0.83135041  1
  O2-  O357  1  0.83638565  0.81179734  0.16384019  1
  O2-  O358  1  0.83335192  0.81975849  0.50029407  1
  O2-  O359  1  0.83366024  0.81230666  0.82736994  1
  O2-  O360  1  0.08530544  0.08355830  0.12882050  1
  O2-  O361  1  0.08911809  0.08320982  0.43982906  1
  O2-  O362  1  0.07710261  0.08559984  0.77863029  1
  O2-  O363  1  0.08780152  0.57230161  0.11159315  1
  O2-  O364  1  0.09407748  0.58123199  0.44473134  1
  O2-  O365  1  0.06292800  0.58404754  0.78817238  1
  O2-  O366  1  0.43831188  0.08720803  0.12844360  1
  O2-  O367  1  0.46264033  0.05333641  0.46977580  1
  O2-  O368  1  0.40463593  0.07024408  0.79451190  1
  O2-  O369  1  0.43386290  0.57748995  0.12371269  1
  O2-  O370  1  0.40318100  0.57857807  0.44260389  1
  O2-  O371  1  0.42159629  0.57183725  0.78354193  1
  O2-  O372  1  0.74227850  0.08749982  0.11123309  1
  O2-  O373  1  0.72284924  0.08055790  0.43398456  1
  O2-  O374  1  0.75705238  0.08181339  0.79646094  1
  O2-  O375  1  0.73571262  0.58107130  0.12891268  1
  O2-  O376  1  0.75514077  0.58514032  0.43660149  1
  O2-  O377  1  0.77162589  0.58111896  0.78978036  1
  O2-  O378  1  0.23693404  0.08825473  0.22517456  1
  O2-  O379  1  0.24886387  0.07859545  0.56110069  1
  O2-  O380  1  0.22637694  0.08201141  0.88223451  1
  O2-  O381  1  0.26240719  0.57826187  0.20378177  1
  O2-  O382  1  0.24395208  0.57993399  0.53845373  1
  O2-  O383  1  0.24580804  0.58525966  0.91774676  1
  O2-  O384  1  0.58465038  0.09001092  0.22694164  1
  O2-  O385  1  0.59823658  0.08536020  0.53615717  1
  O2-  O386  1  0.56771696  0.05979451  0.88016666  1
  O2-  O387  1  0.58513197  0.58770839  0.21804361  1
  O2-  O388  1  0.58925328  0.56088071  0.54498774  1
  O2-  O389  1  0.60445166  0.58425424  0.87544231  1
  O2-  O390  1  0.93108784  0.07918957  0.20629200  1
  O2-  O391  1  0.93910064  0.08198777  0.57957488  1
  O2-  O392  1  0.93309389  0.08384336  0.87087536  1
  O2-  O393  1  0.90880015  0.58427165  0.21040682  1
  O2-  O394  1  0.91963501  0.57877298  0.54788296  1
  O2-  O395  1  0.91097358  0.58358600  0.89011271  1
  O2-  O396  1  0.08591613  0.41515656  0.10698749  1
  O2-  O397  1  0.10250569  0.41841044  0.42992338  1
  O2-  O398  1  0.10502006  0.41742304  0.77743237  1
  O2-  O399  1  0.09814114  0.92304825  0.12572903  1
  O2-  O400  1  0.08504431  0.92028701  0.44781109  1
  O2-  O401  1  0.09179622  0.91875991  0.77857690  1
  O2-  O402  1  0.40943759  0.41056150  0.13007325  1
  O2-  O403  1  0.40075680  0.42626959  0.44070198  1
  O2-  O404  1  0.39996236  0.42020065  0.78171162  1
  O2-  O405  1  0.39675917  0.91771641  0.14513168  1
  O2-  O406  1  0.40262110  0.91469917  0.40967585  1
  O2-  O407  1  0.42678127  0.91924919  0.78900738  1
  O2-  O408  1  0.77493976  0.41912510  0.11217424  1
  O2-  O409  1  0.75766561  0.41586468  0.42384974  1
  O2-  O410  1  0.75358012  0.41569512  0.77738221  1
  O2-  O411  1  0.73269580  0.92031558  0.12886279  1
  O2-  O412  1  0.75515875  0.91534020  0.43952643  1
  O2-  O413  1  0.73463180  0.91898449  0.77662579  1
  O2-  O414  1  0.23878188  0.41911250  0.21802422  1
  O2-  O415  1  0.25362939  0.41733595  0.55077928  1
  O2-  O416  1  0.25939474  0.41541423  0.88979659  1
  O2-  O417  1  0.24133383  0.91933683  0.21447392  1
  O2-  O418  1  0.23432274  0.91961821  0.55489966  1
  O2-  O419  1  0.24741579  0.92338258  0.87703126  1
  O2-  O420  1  0.58546807  0.41810506  0.23467039  1
  O2-  O421  1  0.57370088  0.41923933  0.55257783  1
  O2-  O422  1  0.56079435  0.42478553  0.88384558  1
  O2-  O423  1  0.57906535  0.91033435  0.20778507  1
  O2-  O424  1  0.59824659  0.91623751  0.56310147  1
  O2-  O425  1  0.58058652  0.91265411  0.90629157  1
  O2-  O426  1  0.93072736  0.42345303  0.20595777  1
  O2-  O427  1  0.91271009  0.41438268  0.55578890  1
  O2-  O428  1  0.92797891  0.41759420  0.90252658  1
  O2-  O429  1  0.92066057  0.92190913  0.19516837  1
  O2-  O430  1  0.90578330  0.91883625  0.55682558  1
  O2-  O431  1  0.92516360  0.91642328  0.88548488  1
  O2-  O432  1  -0.00052410  -0.00236266  -0.00252331  1
  O2-  O433  1  0.00009077  -0.00130105  0.33438965  1
  O2-  O434  1  -0.00134011  -0.00708391  0.66423755  1
  O2-  O435  1  -0.02915164  0.49452581  0.04341127  1
  O2-  O436  1  -0.01357572  0.50324316  0.35248156  1
  O2-  O437  1  0.00283501  0.51198279  0.66958872  1
  O2-  O438  1  0.33779871  -0.02512465  0.00104568  1
  O2-  O439  1  0.35629627  0.00366333  0.29717094  1
  O2-  O440  1  0.33815390  -0.00865974  0.66246244  1
  O2-  O441  1  0.34043144  0.47235803  0.00859806  1
  O2-  O442  1  0.33197018  0.50936996  0.33348437  1
  O2-  O443  1  0.31778774  0.49149927  0.68400419  1
  O2-  O444  1  0.66114332  0.01299777  0.02271992  1
  O2-  O445  1  0.64620969  -0.00420615  0.33524171  1
  O2-  O446  1  0.66961434  0.00147075  0.65427488  1
  O2-  O447  1  0.65721482  0.52292254  0.01127615  1
  O2-  O448  1  0.65611606  0.50413004  0.32789658  1
  O2-  O449  1  0.66872094  0.51423487  0.66945230  1
  O2-  O450  1  0.15924551  -0.00737484  -0.00893358  1
  O2-  O451  1  0.16446230  -0.00632262  0.32981740  1
  O2-  O452  1  0.18740867  0.00515403  0.68910098  1
  O2-  O453  1  0.19904895  0.49643779  0.06088406  1
  O2-  O454  1  0.15852052  0.51102157  0.31638290  1
  O2-  O455  1  0.16103300  0.50884976  0.66443634  1
  O2-  O456  1  0.50867936  0.00184469  0.03201671  1
  O2-  O457  1  0.51075258  0.00882960  0.30964479  1
  O2-  O458  1  0.50873425  0.00640632  0.65184118  1
  O2-  O459  1  0.50066500  0.50622451  0.00280674  1
  O2-  O460  1  0.50295368  0.51898489  0.34177548  1
  O2-  O461  1  0.50831050  0.48911641  0.67491380  1
  O2-  O462  1  0.82779556  0.00654617  0.00579716  1
  O2-  O463  1  0.81872998  -0.01344158  0.32208238  1
  O2-  O464  1  0.84159632  0.00301246  0.68415979  1
  O2-  O465  1  0.82070562  0.51027195  -0.00485899  1
  O2-  O466  1  0.81935113  0.49967356  0.31826875  1
  O2-  O467  1  0.84958408  0.50635233  0.69164435  1
  O2-  O468  1  0.92176559  0.75176728  0.28164207  1
  O2-  O469  1  0.42354516  0.25359174  0.72840203  1
  O2-  O470  1  0.90350751  0.24729595  0.59829512  1
  O2-  O471  1  0.25377347  0.25331538  0.60289487  1
  O2-  O472  1  0.57752791  0.25797207  0.93055489  1
  O2-  O473  1  0.58430656  0.24695608  0.62114974  1
  O2-  O474  1  0.57404123  0.74722047  0.94626295  1
  O2-  O475  1  0.75493761  0.75185300  0.39542348  1
  O2-  O476  1  0.92073752  0.25003228  0.27480545  1
  O2-  O477  1  0.08325795  0.75045619  0.71755372  1
  O2-  O478  1  0.06588303  0.25011255  0.39358552  1
  O2-  O479  1  0.41681344  0.24897065  0.05225664  1
  O2-  O480  1  0.92425406  0.75165161  0.60999919  1
  O2-  O481  1  0.24390105  0.75543929  0.93933389  1
  O2-  O482  1  0.92516977  0.75226797  0.94057402  1
  O2-  O483  1  0.26956457  0.24790180  0.93485220  1
  O2-  O484  1  0.58243205  0.75232887  0.59522960  1
  O2-  O485  1  0.41141516  0.75582619  0.72817873  1
  O2-  O486  1  0.07331696  0.75063556  0.39004264  1
  O2-  O487  1  0.74775157  0.24762365  0.72003008  1
  O2-  O488  1  0.08327513  0.76169356  0.05759874  1
  O2-  O489  1  0.42166694  0.74816158  0.40068746  1
  O2-  O490  1  0.58311459  0.74853418  0.28492469  1
  O2-  O491  1  0.75101933  0.25086467  0.06297365  1
  O2-  O492  1  0.24618440  0.75213149  0.61469052  1
