# generated using pymatgen
data_Ca108Mn108O277
_symmetry_space_group_name_H-M   'P 1'
_cell_length_a   16.00790323
_cell_length_b   22.27899870
_cell_length_c   16.37363886
_cell_angle_alpha   89.99865951
_cell_angle_beta   89.99950958
_cell_angle_gamma   90.00165036
_symmetry_Int_Tables_number   1
_chemical_formula_structural   Ca108Mn108O277
_chemical_formula_sum   'Ca108 Mn108 O277'
_cell_volume   5839.49546394
_cell_formula_units_Z   1
loop_
 _symmetry_equiv_pos_site_id
 _symmetry_equiv_pos_as_xyz
  1  'x, y, z'
loop_
 _atom_type_symbol
 _atom_type_oxidation_number
  Ca2+  2.0
  Mn3.34+  3.34
  O2-  -2.0
loop_
 _atom_site_type_symbol
 _atom_site_label
 _atom_site_symmetry_multiplicity
 _atom_site_fract_x
 _atom_site_fract_y
 _atom_site_fract_z
 _atom_site_occupancy
  Ca2+  Ca0  1  0.09792241  0.23184380  0.24554433  1
  Ca2+  Ca1  1  0.08739018  0.25335654  0.57014111  1
  Ca2+  Ca2  1  0.09792124  0.25139904  0.93594163  1
  Ca2+  Ca3  1  0.07794036  0.76314889  0.24729229  1
  Ca2+  Ca4  1  0.10091999  0.75360826  0.59288084  1
  Ca2+  Ca5  1  0.06892932  0.75728225  0.91566204  1
  Ca2+  Ca6  1  0.41755954  0.24541411  0.25891909  1
  Ca2+  Ca7  1  0.40537036  0.24875236  0.58775175  1
  Ca2+  Ca8  1  0.40185666  0.25608050  0.90000527  1
  Ca2+  Ca9  1  0.42647482  0.75641210  0.24027519  1
  Ca2+  Ca10  1  0.40175295  0.74615955  0.60363017  1
  Ca2+  Ca11  1  0.43087421  0.75562959  0.90508039  1
  Ca2+  Ca12  1  0.73868209  0.24360554  0.24321834  1
  Ca2+  Ca13  1  0.75499176  0.24301453  0.56647553  1
  Ca2+  Ca14  1  0.74804392  0.25077537  0.93863270  1
  Ca2+  Ca15  1  0.75328589  0.74627057  0.25964858  1
  Ca2+  Ca16  1  0.75075873  0.75841996  0.57416279  1
  Ca2+  Ca17  1  0.74952115  0.75452124  0.91663328  1
  Ca2+  Ca18  1  0.22760262  0.24172431  0.09528129  1
  Ca2+  Ca19  1  0.24309100  0.24136941  0.41030459  1
  Ca2+  Ca20  1  0.25742986  0.24874301  0.74782779  1
  Ca2+  Ca21  1  0.24781434  0.76794955  0.09110329  1
  Ca2+  Ca22  1  0.24703650  0.76071039  0.43351688  1
  Ca2+  Ca23  1  0.25673263  0.74591847  0.73123027  1
  Ca2+  Ca24  1  0.60638235  0.23983832  0.11013889  1
  Ca2+  Ca25  1  0.59103479  0.23931385  0.39602885  1
  Ca2+  Ca26  1  0.57069768  0.25180758  0.74327078  1
  Ca2+  Ca27  1  0.58797249  0.75599467  0.08052645  1
  Ca2+  Ca28  1  0.60624095  0.74986340  0.41080211  1
  Ca2+  Ca29  1  0.57410976  0.74790373  0.75657974  1
  Ca2+  Ca30  1  0.91576650  0.23974000  0.09666417  1
  Ca2+  Ca31  1  0.91891021  0.24443229  0.41649754  1
  Ca2+  Ca32  1  0.91240346  0.25610454  0.73774623  1
  Ca2+  Ca33  1  0.91665294  0.75141861  0.08106337  1
  Ca2+  Ca34  1  0.90045170  0.74877611  0.41061561  1
  Ca2+  Ca35  1  0.91770427  0.75375509  0.76064744  1
  Ca2+  Ca36  1  0.39955847  0.60266492  0.60477336  1
  Ca2+  Ca37  1  0.43380353  0.59514772  0.90662333  1
  Ca2+  Ca38  1  0.09392242  0.08957987  0.94242171  1
  Ca2+  Ca39  1  0.74758913  0.08154665  0.95521625  1
  Ca2+  Ca40  1  0.75002635  0.09806713  0.24033135  1
  Ca2+  Ca41  1  0.25611068  0.58476072  0.08326544  1
  Ca2+  Ca42  1  0.56543138  0.60380470  0.75784402  1
  Ca2+  Ca43  1  0.05578049  0.58232484  0.24804357  1
  Ca2+  Ca44  1  0.91384389  0.09048776  0.41351179  1
  Ca2+  Ca45  1  0.08657164  0.09950723  0.57196775  1
  Ca2+  Ca46  1  0.04542502  0.58158914  0.24944397  1
  Ca2+  Ca47  1  0.25328136  0.59991931  0.72745824  1
  Ca2+  Ca48  1  0.90551500  0.59643047  0.38902690  1
  Ca2+  Ca49  1  0.43471032  0.58310398  0.23950528  1
  Ca2+  Ca50  1  0.77131531  0.60629395  0.25442379  1
  Ca2+  Ca51  1  0.74988131  0.60108060  0.91606508  1
  Ca2+  Ca52  1  0.74495502  0.10090581  0.23227922  1
  Ca2+  Ca53  1  0.24975486  0.10206408  0.74430981  1
  Ca2+  Ca54  1  0.22749267  0.09328027  0.10099525  1
  Ca2+  Ca55  1  0.09766076  0.10057693  0.57247069  1
  Ca2+  Ca56  1  0.59783170  0.09597431  0.41006074  1
  Ca2+  Ca57  1  0.40866240  0.08896412  0.91438938  1
  Ca2+  Ca58  1  0.57679948  0.59003517  0.08250109  1
  Ca2+  Ca59  1  0.92947171  0.08435409  0.74392390  1
  Ca2+  Ca60  1  0.60282617  0.09333285  0.09579256  1
  Ca2+  Ca61  1  0.08568946  0.08680753  0.93717586  1
  Ca2+  Ca62  1  0.60375642  0.60248700  0.41236009  1
  Ca2+  Ca63  1  0.56968037  0.58491425  0.07763747  1
  Ca2+  Ca64  1  0.91658583  0.08410276  0.74428816  1
  Ca2+  Ca65  1  0.40662721  0.10909179  0.57902540  1
  Ca2+  Ca66  1  0.73918618  0.60942530  0.56937161  1
  Ca2+  Ca67  1  0.24328681  0.58484440  0.08328683  1
  Ca2+  Ca68  1  0.06704965  0.59370469  0.91560915  1
  Ca2+  Ca69  1  0.91868546  0.60143492  0.09574605  1
  Ca2+  Ca70  1  0.41664958  0.10125799  0.25627258  1
  Ca2+  Ca71  1  0.24113757  0.10211313  0.40711967  1
  Ca2+  Ca72  1  0.91775581  0.90228267  0.75164506  1
  Ca2+  Ca73  1  0.08261525  0.90823593  0.92870035  1
  Ca2+  Ca74  1  0.24436957  0.40777771  0.08751043  1
  Ca2+  Ca75  1  0.23040369  0.40722571  0.42616519  1
  Ca2+  Ca76  1  0.24676991  0.40389176  0.74123679  1
  Ca2+  Ca77  1  0.57066650  0.41624633  0.09377953  1
  Ca2+  Ca78  1  0.56062648  0.41612373  0.08879519  1
  Ca2+  Ca79  1  0.93196626  0.40345506  0.75558491  1
  Ca2+  Ca80  1  0.56992566  0.40549646  0.76024584  1
  Ca2+  Ca81  1  0.07544522  0.40734788  0.92135046  1
  Ca2+  Ca82  1  0.75181081  0.91071695  0.25037734  1
  Ca2+  Ca83  1  0.91904982  0.91133449  0.08826153  1
  Ca2+  Ca84  1  0.58309404  0.40598472  0.40331922  1
  Ca2+  Ca85  1  0.60890137  0.90817959  0.42218099  1
  Ca2+  Ca86  1  0.25684184  0.40758805  0.08741516  1
  Ca2+  Ca87  1  0.93019955  0.41407856  0.39831693  1
  Ca2+  Ca88  1  0.24802079  0.89565563  0.75667908  1
  Ca2+  Ca89  1  0.94150706  0.41642187  0.40254856  1
  Ca2+  Ca90  1  0.74939053  0.40664607  0.92046610  1
  Ca2+  Ca91  1  0.08129376  0.41517734  0.25488395  1
  Ca2+  Ca92  1  0.75568953  0.39996086  0.58125458  1
  Ca2+  Ca93  1  0.40708346  0.90401162  0.24101452  1
  Ca2+  Ca94  1  0.73659517  0.40604035  0.92065105  1
  Ca2+  Ca95  1  0.93148463  0.40983957  0.09081090  1
  Ca2+  Ca96  1  0.42223676  0.89535679  0.58304044  1
  Ca2+  Ca97  1  0.07224893  0.41728748  0.24979341  1
  Ca2+  Ca98  1  0.41838683  0.90431732  0.24151766  1
  Ca2+  Ca99  1  0.75016849  0.90857588  0.92345800  1
  Ca2+  Ca100  1  0.58877294  0.90029432  0.75370409  1
  Ca2+  Ca101  1  0.42153162  0.40915038  0.24568281  1
  Ca2+  Ca102  1  0.43027695  0.41132770  0.92057236  1
  Ca2+  Ca103  1  0.92205981  0.90941485  0.42211052  1
  Ca2+  Ca104  1  0.59651470  0.90939192  0.08111040  1
  Ca2+  Ca105  1  0.57027509  0.40526977  0.40263525  1
  Ca2+  Ca106  1  0.74294607  0.39973145  0.58136592  1
  Ca2+  Ca107  1  0.91112069  0.90931375  0.42226449  1
  Mn3.34+  Mn108  1  0.08183139  0.33124188  0.08729931  1
  Mn3.34+  Mn109  1  0.08587299  0.33113314  0.41843855  1
  Mn3.34+  Mn110  1  0.08617633  0.33212013  0.74952616  1
  Mn3.34+  Mn111  1  0.08438311  0.83815129  0.08564648  1
  Mn3.34+  Mn112  1  0.08613818  0.84096806  0.41978894  1
  Mn3.34+  Mn113  1  0.08493117  0.83185619  0.75075083  1
  Mn3.34+  Mn114  1  0.41535557  0.32934173  0.08445084  1
  Mn3.34+  Mn115  1  0.41159784  0.32515889  0.42081548  1
  Mn3.34+  Mn116  1  0.41427065  0.33463876  0.74692618  1
  Mn3.34+  Mn117  1  0.41433711  0.83335789  0.07500464  1
  Mn3.34+  Mn118  1  0.41678489  0.83367286  0.41951021  1
  Mn3.34+  Mn119  1  0.41563259  0.82840933  0.75315294  1
  Mn3.34+  Mn120  1  0.75292616  0.32863185  0.08978013  1
  Mn3.34+  Mn121  1  0.75151742  0.32918605  0.41179420  1
  Mn3.34+  Mn122  1  0.74913938  0.33040985  0.75147598  1
  Mn3.34+  Mn123  1  0.75273585  0.83658912  0.08722334  1
  Mn3.34+  Mn124  1  0.75249663  0.83325105  0.41857413  1
  Mn3.34+  Mn125  1  0.75005144  0.83331396  0.74813719  1
  Mn3.34+  Mn126  1  0.25106747  0.32703681  0.25240095  1
  Mn3.34+  Mn127  1  0.24967139  0.33690760  0.58135293  1
  Mn3.34+  Mn128  1  0.24927968  0.33073586  0.91392060  1
  Mn3.34+  Mn129  1  0.24044714  0.84201980  0.25297803  1
  Mn3.34+  Mn130  1  0.24791042  0.83121293  0.58197886  1
  Mn3.34+  Mn131  1  0.25141583  0.83629419  0.91809170  1
  Mn3.34+  Mn132  1  0.58327743  0.33150364  0.24619892  1
  Mn3.34+  Mn133  1  0.57768512  0.32524402  0.58079376  1
  Mn3.34+  Mn134  1  0.58135083  0.33223890  0.91767170  1
  Mn3.34+  Mn135  1  0.58624803  0.83239642  0.24914991  1
  Mn3.34+  Mn136  1  0.58565538  0.83558198  0.58242422  1
  Mn3.34+  Mn137  1  0.58326515  0.83373802  0.91656168  1
  Mn3.34+  Mn138  1  0.91471839  0.33463602  0.24689059  1
  Mn3.34+  Mn139  1  0.92338711  0.33132881  0.58201582  1
  Mn3.34+  Mn140  1  0.91930134  0.33021484  0.91697127  1
  Mn3.34+  Mn141  1  0.91973021  0.83703850  0.24772993  1
  Mn3.34+  Mn142  1  0.92003757  0.83651056  0.58551444  1
  Mn3.34+  Mn143  1  0.91554768  0.83397698  0.91742241  1
  Mn3.34+  Mn144  1  0.58332585  0.67298185  0.58716699  1
  Mn3.34+  Mn145  1  0.25662797  0.67157413  0.25128329  1
  Mn3.34+  Mn146  1  0.91579097  0.66659671  0.91272291  1
  Mn3.34+  Mn147  1  0.08488851  0.17332684  0.74943182  1
  Mn3.34+  Mn148  1  0.92376885  0.17056643  0.92056227  1
  Mn3.34+  Mn149  1  0.41521626  0.17049739  0.41872551  1
  Mn3.34+  Mn150  1  0.40988266  0.66631539  0.42268458  1
  Mn3.34+  Mn151  1  0.90955669  0.17112739  0.91642011  1
  Mn3.34+  Mn152  1  0.42216355  0.67090897  0.41937471  1
  Mn3.34+  Mn153  1  0.91194372  0.66967912  0.58718530  1
  Mn3.34+  Mn154  1  0.25009070  0.16593304  0.91307632  1
  Mn3.34+  Mn155  1  0.08384745  0.66593271  0.74914792  1
  Mn3.34+  Mn156  1  0.75110030  0.16121673  0.41686296  1
  Mn3.34+  Mn157  1  0.09117570  0.66569877  0.42369642  1
  Mn3.34+  Mn158  1  0.08235285  0.65998764  0.42228449  1
  Mn3.34+  Mn159  1  0.57466179  0.16974251  0.91602844  1
  Mn3.34+  Mn160  1  0.58785143  0.66344928  0.24732771  1
  Mn3.34+  Mn161  1  0.41855585  0.16517683  0.08575168  1
  Mn3.34+  Mn162  1  0.91472519  0.16604099  0.57760565  1
  Mn3.34+  Mn163  1  0.40905115  0.17486229  0.08448996  1
  Mn3.34+  Mn164  1  0.73630673  0.15703467  0.74072511  1
  Mn3.34+  Mn165  1  0.41869777  0.66723692  0.08400069  1
  Mn3.34+  Mn166  1  0.58524439  0.16537755  0.91391298  1
  Mn3.34+  Mn167  1  0.07933657  0.66836035  0.08625596  1
  Mn3.34+  Mn168  1  0.74582793  0.16286984  0.74263772  1
  Mn3.34+  Mn169  1  0.75435960  0.67158173  0.08590888  1
  Mn3.34+  Mn170  1  0.24598306  0.66646171  0.25126865  1
  Mn3.34+  Mn171  1  0.92579595  0.16006637  0.24550099  1
  Mn3.34+  Mn172  1  0.25512132  0.68074775  0.91645939  1
  Mn3.34+  Mn173  1  0.92227635  0.66526201  0.58870492  1
  Mn3.34+  Mn174  1  0.74897779  0.67096303  0.75325300  1
  Mn3.34+  Mn175  1  0.41565758  0.16860241  0.74614626  1
  Mn3.34+  Mn176  1  0.24487104  0.67146310  0.91499524  1
  Mn3.34+  Mn177  1  0.58513875  0.66511540  0.91486519  1
  Mn3.34+  Mn178  1  0.08424586  0.16442740  0.41101996  1
  Mn3.34+  Mn179  1  0.58103007  0.16318443  0.57712148  1
  Mn3.34+  Mn180  1  0.59062453  0.00218338  0.58736424  1
  Mn3.34+  Mn181  1  0.41165956  0.50023977  0.74899225  1
  Mn3.34+  Mn182  1  0.42759197  0.00153690  0.75232086  1
  Mn3.34+  Mn183  1  0.08550838  0.50300806  0.74779147  1
  Mn3.34+  Mn184  1  0.41207782  -0.00132062  0.07463205  1
  Mn3.34+  Mn185  1  0.24401554  0.49766143  0.91456282  1
  Mn3.34+  Mn186  1  0.58968974  0.00040038  0.25831988  1
  Mn3.34+  Mn187  1  0.24855082  -0.00145893  0.92799247  1
  Mn3.34+  Mn188  1  0.92049102  0.00100616  0.26854861  1
  Mn3.34+  Mn189  1  0.40712802  0.50134862  0.42195490  1
  Mn3.34+  Mn190  1  0.24656527  0.49913878  0.25720008  1
  Mn3.34+  Mn191  1  0.08677456  -0.00253000  0.75089493  1
  Mn3.34+  Mn192  1  0.24656019  0.50264957  0.59344068  1
  Mn3.34+  Mn193  1  0.25512643  0.50213493  0.91436980  1
  Mn3.34+  Mn194  1  0.91444024  -0.00107731  0.93403941  1
  Mn3.34+  Mn195  1  0.58271876  0.50367484  0.58086386  1
  Mn3.34+  Mn196  1  0.41787148  0.49646676  0.42284085  1
  Mn3.34+  Mn197  1  0.56812186  0.49778353  0.57974770  1
  Mn3.34+  Mn198  1  0.58334780  -0.00234016  0.92766878  1
  Mn3.34+  Mn199  1  0.91480568  0.00008763  0.58841203  1
  Mn3.34+  Mn200  1  0.24101536  -0.00668283  0.57641558  1
  Mn3.34+  Mn201  1  0.23758233  0.00142945  0.26742659  1
  Mn3.34+  Mn202  1  0.42172701  0.00293665  0.42046183  1
  Mn3.34+  Mn203  1  0.93443770  0.50411219  0.58261281  1
  Mn3.34+  Mn204  1  0.92366327  0.50275421  0.92190829  1
  Mn3.34+  Mn205  1  0.75602207  0.49897899  0.41278064  1
  Mn3.34+  Mn206  1  0.40735912  -0.00302298  0.41994613  1
  Mn3.34+  Mn207  1  0.76015559  0.50673329  0.75436737  1
  Mn3.34+  Mn208  1  0.41682731  -0.00328231  0.75265648  1
  Mn3.34+  Mn209  1  0.92229852  0.49755771  0.58035261  1
  Mn3.34+  Mn210  1  0.74594602  0.50375272  0.40977797  1
  Mn3.34+  Mn211  1  0.75907326  0.49717695  0.09090885  1
  Mn3.34+  Mn212  1  0.74820689  0.50167161  0.09119769  1
  Mn3.34+  Mn213  1  0.25425059  -0.00017674  0.57452888  1
  Mn3.34+  Mn214  1  0.74584211  0.50068078  0.75534899  1
  Mn3.34+  Mn215  1  0.74778739  -0.00273109  0.74040949  1
  O2-  O216  1  0.00754260  0.16780052  -0.00777803  1
  O2-  O217  1  -0.00818142  0.17143192  0.33870644  1
  O2-  O218  1  -0.00098565  0.16077256  0.66820695  1
  O2-  O219  1  0.00002504  0.65973372  0.00112909  1
  O2-  O220  1  0.00559124  0.66401992  0.33629020  1
  O2-  O221  1  -0.00206632  0.66615924  0.66805313  1
  O2-  O222  1  0.33631325  0.16475544  -0.00297209  1
  O2-  O223  1  0.33815113  0.16985578  0.33820144  1
  O2-  O224  1  0.33248157  0.16723057  0.67120141  1
  O2-  O225  1  0.33277822  0.66068366  0.00121568  1
  O2-  O226  1  0.33978205  0.65595561  0.33020234  1
  O2-  O227  1  0.33007042  0.66804721  0.66872364  1
  O2-  O228  1  0.66257889  0.16979598  -0.00216975  1
  O2-  O229  1  0.67463782  0.16188491  0.33368982  1
  O2-  O230  1  0.65897421  0.18340256  0.65787776  1
  O2-  O231  1  0.66342852  0.65557038  0.00534865  1
  O2-  O232  1  0.66563918  0.66235917  0.32523368  1
  O2-  O233  1  0.66532615  0.66618363  0.67189234  1
  O2-  O234  1  0.17156501  0.16112923  -0.00774776  1
  O2-  O235  1  0.16489174  0.16640900  0.33850032  1
  O2-  O236  1  0.16059339  0.17035567  0.66536710  1
  O2-  O237  1  0.16982532  0.66029220  0.00253987  1
  O2-  O238  1  0.16000895  0.65952207  0.33014850  1
  O2-  O239  1  0.16560004  0.66833751  0.67686141  1
  O2-  O240  1  0.49576704  0.17239597  0.00077294  1
  O2-  O241  1  0.49678682  0.17095328  0.34060307  1
  O2-  O242  1  0.49661435  0.17485108  0.66104099  1
  O2-  O243  1  0.50238777  0.65924978  0.00374584  1
  O2-  O244  1  0.49929213  0.65777150  0.33427455  1
  O2-  O245  1  0.50175203  0.67047501  0.66262393  1
  O2-  O246  1  0.83011878  0.17205569  -0.00399176  1
  O2-  O247  1  0.83569771  0.16526742  0.33308504  1
  O2-  O248  1  0.84218853  0.15791453  0.66996793  1
  O2-  O249  1  0.83357011  0.66037164  0.00003400  1
  O2-  O250  1  0.83929754  0.67244736  0.32817087  1
  O2-  O251  1  0.82672744  0.66187606  0.66522832  1
  O2-  O252  1  0.00075412  0.33584980  0.00124992  1
  O2-  O253  1  -0.00037791  0.33605365  0.33072929  1
  O2-  O254  1  -0.00104965  0.32629314  0.67345100  1
  O2-  O255  1  -0.00200277  0.83460042  -0.00201435  1
  O2-  O256  1  -0.00640028  0.82686195  0.33592963  1
  O2-  O257  1  -0.00306513  0.83463299  0.67258513  1
  O2-  O258  1  0.33279637  0.33797260  0.00117340  1
  O2-  O259  1  0.33492312  0.33150404  0.33267146  1
  O2-  O260  1  0.32727248  0.32756140  0.66780514  1
  O2-  O261  1  0.33257610  0.81716005  -0.00404866  1
  O2-  O262  1  0.34028449  0.83960294  0.32621822  1
  O2-  O263  1  0.33451159  0.83698042  0.66784495  1
  O2-  O264  1  0.66824802  0.33718046  -0.00203973  1
  O2-  O265  1  0.65958990  0.33984828  0.33795121  1
  O2-  O266  1  0.66679089  0.33587507  0.66137029  1
  O2-  O267  1  0.66744401  0.83900156  0.00005959  1
  O2-  O268  1  0.66696495  0.83777424  0.33282396  1
  O2-  O269  1  0.66187470  0.82502532  0.66967296  1
  O2-  O270  1  0.16766335  0.34369672  0.00397652  1
  O2-  O271  1  0.16359049  0.34448536  0.32880333  1
  O2-  O272  1  0.16974815  0.31703673  0.66836925  1
  O2-  O273  1  0.16495566  0.82583927  -0.00434142  1
  O2-  O274  1  0.16536649  0.82748728  0.33610896  1
  O2-  O275  1  0.17093759  0.83292744  0.67282358  1
  O2-  O276  1  0.49996307  0.32865028  0.00168943  1
  O2-  O277  1  0.49839662  0.33438109  0.33330340  1
  O2-  O278  1  0.50467874  0.32801734  0.67016075  1
  O2-  O279  1  0.50625807  0.83390693  0.00422787  1
  O2-  O280  1  0.49765080  0.84285499  0.32828208  1
  O2-  O281  1  0.50076263  0.83239460  0.66560105  1
  O2-  O282  1  0.82947805  0.33706996  -0.00523462  1
  O2-  O283  1  0.84437959  0.33429590  0.34002279  1
  O2-  O284  1  0.83293367  0.34383584  0.66465295  1
  O2-  O285  1  0.83412677  0.83813788  0.00047052  1
  O2-  O286  1  0.83621318  0.83383287  0.33250704  1
  O2-  O287  1  0.83707096  0.83366243  0.67081912  1
  O2-  O288  1  -0.00211585  0.18342688  0.17457594  1
  O2-  O289  1  0.00117415  0.17135428  0.50376698  1
  O2-  O290  1  -0.00405215  0.18035524  0.82911721  1
  O2-  O291  1  0.00646049  0.67073345  0.16893729  1
  O2-  O292  1  -0.00448386  0.66928683  0.49719742  1
  O2-  O293  1  0.00299254  0.67262362  0.83993762  1
  O2-  O294  1  0.33197613  0.17578692  0.16533993  1
  O2-  O295  1  0.33708867  0.18278799  0.49826317  1
  O2-  O296  1  0.33450248  0.17003061  0.83435976  1
  O2-  O297  1  0.33129714  0.66716201  0.16004604  1
  O2-  O298  1  0.33800466  0.67420621  0.50442578  1
  O2-  O299  1  0.33386891  0.67757087  0.83763890  1
  O2-  O300  1  0.67239676  0.16618971  0.16991053  1
  O2-  O301  1  0.66274439  0.17858423  0.49622161  1
  O2-  O302  1  0.66912923  0.17894278  0.83716150  1
  O2-  O303  1  0.66340200  0.66872632  0.16127611  1
  O2-  O304  1  0.66259204  0.68037668  0.50796883  1
  O2-  O305  1  0.66785477  0.67213592  0.83590261  1
  O2-  O306  1  0.16340065  0.16924093  0.16002486  1
  O2-  O307  1  0.15888745  0.17300054  0.49952850  1
  O2-  O308  1  0.16429033  0.17408211  0.83291798  1
  O2-  O309  1  0.17304296  0.67086959  0.15922842  1
  O2-  O310  1  0.16697060  0.67495618  0.50028669  1
  O2-  O311  1  0.16392896  0.67846377  0.83717663  1
  O2-  O312  1  0.49650942  0.17754655  0.16531726  1
  O2-  O313  1  0.49915597  0.18345954  0.50180272  1
  O2-  O314  1  0.49674175  0.17873260  0.83375871  1
  O2-  O315  1  0.49890608  0.66845762  0.16597106  1
  O2-  O316  1  0.50400989  0.67530268  0.49881552  1
  O2-  O317  1  0.50324468  0.67196880  0.84074853  1
  O2-  O318  1  0.83724864  0.17942528  0.18305399  1
  O2-  O319  1  0.83731473  0.17272545  0.49707172  1
  O2-  O320  1  0.83662395  0.17473624  0.83115712  1
  O2-  O321  1  0.83284326  0.67559554  0.16322943  1
  O2-  O322  1  0.83796590  0.67055354  0.50442545  1
  O2-  O323  1  0.82887118  0.67343680  0.83832396  1
  O2-  O324  1  0.00180991  0.32618014  0.17020084  1
  O2-  O325  1  -0.00720397  0.33047121  0.48960606  1
  O2-  O326  1  -0.00011022  0.31653454  0.83348213  1
  O2-  O327  1  -0.00479004  0.82089770  0.16340500  1
  O2-  O328  1  -0.00714462  0.82945764  0.49366203  1
  O2-  O329  1  -0.00141365  0.83131456  0.83495973  1
  O2-  O330  1  0.32931227  0.32782081  0.16307825  1
  O2-  O331  1  0.32937118  0.31204144  0.49987227  1
  O2-  O332  1  0.33280397  0.33140873  0.83203607  1
  O2-  O333  1  0.33893443  0.83124959  0.16898821  1
  O2-  O334  1  0.33869299  0.82540905  0.50392968  1
  O2-  O335  1  0.32812802  0.82089713  0.83155952  1
  O2-  O336  1  0.65872203  0.33496171  0.15852932  1
  O2-  O337  1  0.66812505  0.33055244  0.50231644  1
  O2-  O338  1  0.66776904  0.32355320  0.83924874  1
  O2-  O339  1  0.66538734  0.82923882  0.16655401  1
  O2-  O340  1  0.66503661  0.82277305  0.49771427  1
  O2-  O341  1  0.66761592  0.82961054  0.83454959  1
  O2-  O342  1  0.16989751  0.33480408  0.16569356  1
  O2-  O343  1  0.17019806  0.32260237  0.49709041  1
  O2-  O344  1  0.16481446  0.32348287  0.83297258  1
  O2-  O345  1  0.16425103  0.82696936  0.16780892  1
  O2-  O346  1  0.16454619  0.82526047  0.50207929  1
  O2-  O347  1  0.16619146  0.82279258  0.83579973  1
  O2-  O348  1  0.49842954  0.32280406  0.16491530  1
  O2-  O349  1  0.50624166  0.31720034  0.49026787  1
  O2-  O350  1  0.50057797  0.32508671  0.83588549  1
  O2-  O351  1  0.49852376  0.83262590  0.17003891  1
  O2-  O352  1  0.50262328  0.82206140  0.50057119  1
  O2-  O353  1  0.50574813  0.82704856  0.82946329  1
  O2-  O354  1  0.83937466  0.32074464  0.16470873  1
  O2-  O355  1  0.82771187  0.33618416  0.50324187  1
  O2-  O356  1  0.83321520  0.32763475  0.83842326  1
  O2-  O357  1  0.83390083  0.82278082  0.16997258  1
  O2-  O358  1  0.83973675  0.82933325  0.49470497  1
  O2-  O359  1  0.83389600  0.83130138  0.83485649  1
  O2-  O360  1  0.09439822  0.08165741  0.07744278  1
  O2-  O361  1  0.08117019  0.08225603  0.44124140  1
  O2-  O362  1  0.07057890  0.07911950  0.78380451  1
  O2-  O363  1  0.09796407  0.58169250  0.11140955  1
  O2-  O364  1  0.07231619  0.58034250  0.41951742  1
  O2-  O365  1  0.09420077  0.58209811  0.77647119  1
  O2-  O366  1  0.41831781  0.07964996  0.10788163  1
  O2-  O367  1  0.41536946  0.08408025  0.43876015  1
  O2-  O368  1  0.41391426  0.08384870  0.77070498  1
  O2-  O369  1  0.41143641  0.58345335  0.10037807  1
  O2-  O370  1  0.41940406  0.58275093  0.43926348  1
  O2-  O371  1  0.41453628  0.57720902  0.77179693  1
  O2-  O372  1  0.73489039  0.07378882  0.10769007  1
  O2-  O373  1  0.75203466  0.08297579  0.42067238  1
  O2-  O374  1  0.76428795  0.07587133  0.78206797  1
  O2-  O375  1  0.75246914  0.58409440  0.10296117  1
  O2-  O376  1  0.74915907  0.58508468  0.43245592  1
  O2-  O377  1  0.74357248  0.58651947  0.76730498  1
  O2-  O378  1  0.26093902  0.07075170  0.22813455  1
  O2-  O379  1  0.24131273  0.08152164  0.55807512  1
  O2-  O380  1  0.24446100  0.07951686  0.88984397  1
  O2-  O381  1  0.25332361  0.57781348  0.22127879  1
  O2-  O382  1  0.26121107  0.57570257  0.57063956  1
  O2-  O383  1  0.24988582  0.58485294  0.90079804  1
  O2-  O384  1  0.58513665  0.07638727  0.23047267  1
  O2-  O385  1  0.57178860  0.07856185  0.55097713  1
  O2-  O386  1  0.57830055  0.07892757  0.89819856  1
  O2-  O387  1  0.57851466  0.58008295  0.22109767  1
  O2-  O388  1  0.58373991  0.58387664  0.56304646  1
  O2-  O389  1  0.58281875  0.58271453  0.90208871  1
  O2-  O390  1  0.90459568  0.07779572  0.23485338  1
  O2-  O391  1  0.93060316  0.08212877  0.56612786  1
  O2-  O392  1  0.91938716  0.07733984  0.88453335  1
  O2-  O393  1  0.92169773  0.57443888  0.22698686  1
  O2-  O394  1  0.91121337  0.58270569  0.56312899  1
  O2-  O395  1  0.91648265  0.58228837  0.90300511  1
  O2-  O396  1  0.09042713  0.42015610  0.11110525  1
  O2-  O397  1  0.07804887  0.41559265  0.41992069  1
  O2-  O398  1  0.08044854  0.42141854  0.77882247  1
  O2-  O399  1  0.06875525  0.91571480  0.07999263  1
  O2-  O400  1  0.06092430  0.91814605  0.42510054  1
  O2-  O401  1  0.08632977  0.91657212  0.77047943  1
  O2-  O402  1  0.41828270  0.41917324  0.10361896  1
  O2-  O403  1  0.42644220  0.41377506  0.43235726  1
  O2-  O404  1  0.42141206  0.41901221  0.77423214  1
  O2-  O405  1  0.42329572  0.91926860  0.10441458  1
  O2-  O406  1  0.42314002  0.91638136  0.43648024  1
  O2-  O407  1  0.41690901  0.91447712  0.76004884  1
  O2-  O408  1  0.75399388  0.41458533  0.08943178  1
  O2-  O409  1  0.74296114  0.41634658  0.43469061  1
  O2-  O410  1  0.74943712  0.41758670  0.76898872  1
  O2-  O411  1  0.75152587  0.91646255  0.10131605  1
  O2-  O412  1  0.76150186  0.91572230  0.42088688  1
  O2-  O413  1  0.74917402  0.91823283  0.76894536  1
  O2-  O414  1  0.25252778  0.41938462  0.22765537  1
  O2-  O415  1  0.24994077  0.42498252  0.55898602  1
  O2-  O416  1  0.24857669  0.41545275  0.90053800  1
  O2-  O417  1  0.26589240  0.92698815  0.23297896  1
  O2-  O418  1  0.26060727  0.91397429  0.57616418  1
  O2-  O419  1  0.23891662  0.92234612  0.89435469  1
  O2-  O420  1  0.56677111  0.41821689  0.22888559  1
  O2-  O421  1  0.59206261  0.41703741  0.56114845  1
  O2-  O422  1  0.59856289  0.42103913  0.89523695  1
  O2-  O423  1  0.57886967  0.91980559  0.23064969  1
  O2-  O424  1  0.57634054  0.92240973  0.55996613  1
  O2-  O425  1  0.59031038  0.91896944  0.89890840  1
  O2-  O426  1  0.93226452  0.41824747  0.23417007  1
  O2-  O427  1  0.91130611  0.41717825  0.56427113  1
  O2-  O428  1  0.91107037  0.42179203  0.89273354  1
  O2-  O429  1  0.91019425  0.92584036  0.22854011  1
  O2-  O430  1  0.91613370  0.91977807  0.56294424  1
  O2-  O431  1  0.91688072  0.92100511  0.90131780  1
  O2-  O432  1  0.01017275  0.00611061  -0.01894344  1
  O2-  O433  1  -0.01263488  -0.00010465  0.34869372  1
  O2-  O434  1  -0.00077642  0.01093278  0.67359774  1
  O2-  O435  1  0.00351863  0.49713278  -0.00771791  1
  O2-  O436  1  0.00697324  0.49316913  0.32081647  1
  O2-  O437  1  -0.00597683  0.49475176  0.67823712  1
  O2-  O438  1  0.33661861  0.01629188  -0.00774977  1
  O2-  O439  1  0.33759275  0.00398532  0.32615453  1
  O2-  O440  1  0.33061174  0.00638125  0.66813601  1
  O2-  O441  1  0.32658226  0.50096032  0.00871699  1
  O2-  O442  1  0.33923244  0.49932928  0.32524561  1
  O2-  O443  1  0.33315746  0.50187430  0.66831933  1
  O2-  O444  1  0.66703544  0.00113650  -0.00739031  1
  O2-  O445  1  0.66925490  0.00109222  0.32804981  1
  O2-  O446  1  0.65689094  -0.00225320  0.68035831  1
  O2-  O447  1  0.67197630  0.49626934  0.00477584  1
  O2-  O448  1  0.65133189  0.49757099  0.34873234  1
  O2-  O449  1  0.67034694  0.49733547  0.66260117  1
  O2-  O450  1  0.16049383  0.00785414  -0.01152053  1
  O2-  O451  1  0.16935967  0.00938701  0.34103058  1
  O2-  O452  1  0.16543649  0.01227518  0.66554529  1
  O2-  O453  1  0.17409210  0.50253681  0.00826480  1
  O2-  O454  1  0.15130086  0.49701378  0.31004383  1
  O2-  O455  1  0.17930024  0.49771301  0.68228882  1
  O2-  O456  1  0.50298577  0.00623457  0.00523016  1
  O2-  O457  1  0.49791900  0.00165610  0.32996680  1
  O2-  O458  1  0.49517754  -0.00116903  0.65960614  1
  O2-  O459  1  0.51938132  0.50039707  0.03084170  1
  O2-  O460  1  0.49944319  0.49750787  0.34063396  1
  O2-  O461  1  0.50733505  0.50186888  0.67944118  1
  O2-  O462  1  0.82401051  -0.00009647  -0.01243215  1
  O2-  O463  1  0.83087296  0.00050317  0.32526550  1
  O2-  O464  1  0.84865037  0.00593461  0.68742539  1
  O2-  O465  1  0.82981970  0.49792701  -0.00643130  1
  O2-  O466  1  0.84904745  0.49864952  0.34733607  1
  O2-  O467  1  0.82849505  0.49598968  0.65763862  1
  O2-  O468  1  0.58616423  0.75049526  0.92598635  1
  O2-  O469  1  0.91014726  0.24852379  0.59011042  1
  O2-  O470  1  0.08872564  0.25253264  0.07722504  1
  O2-  O471  1  0.25074602  0.24920790  0.92414702  1
  O2-  O472  1  0.74746530  0.25172827  0.08020049  1
  O2-  O473  1  0.42013804  0.74942696  0.08506562  1
  O2-  O474  1  0.74575653  0.75103770  0.07203950  1
  O2-  O475  1  0.91598529  0.75017242  0.92300245  1
  O2-  O476  1  0.75478269  0.75093776  0.74871496  1
  O2-  O477  1  0.75231680  0.24938368  0.41438272  1
  O2-  O478  1  0.25046835  0.75280079  0.58806426  1
  O2-  O479  1  0.08370460  0.74913511  0.07549137  1
  O2-  O480  1  0.91565748  0.75260750  0.58650064  1
  O2-  O481  1  0.41309397  0.25085751  0.75020876  1
  O2-  O482  1  0.07585086  0.74983919  0.74522833  1
  O2-  O483  1  0.24382599  0.24993510  0.25277480  1
  O2-  O484  1  0.59210461  0.25285765  0.25410381  1
  O2-  O485  1  0.25309635  0.75540828  0.25213737  1
  O2-  O486  1  0.57899998  0.74942966  0.25705280  1
  O2-  O487  1  0.41536329  0.75213644  0.39974325  1
  O2-  O488  1  0.75182824  0.75247666  0.41041319  1
  O2-  O489  1  0.08440923  0.74696609  0.41325009  1
  O2-  O490  1  0.07993583  0.24995543  0.41336022  1
  O2-  O491  1  0.75860624  0.24924607  0.74101222  1
  O2-  O492  1  0.41734885  0.75115935  0.74580305  1
