# generated using pymatgen
data_Ca108Mn108O277
_symmetry_space_group_name_H-M   'P 1'
_cell_length_a   16.03027616
_cell_length_b   22.30982142
_cell_length_c   16.38991389
_cell_angle_alpha   90.00381543
_cell_angle_beta   89.99598907
_cell_angle_gamma   89.99560722
_symmetry_Int_Tables_number   1
_chemical_formula_structural   Ca108Mn108O277
_chemical_formula_sum   'Ca108 Mn108 O277'
_cell_volume   5861.56744794
_cell_formula_units_Z   1
loop_
 _symmetry_equiv_pos_site_id
 _symmetry_equiv_pos_as_xyz
  1  'x, y, z'
loop_
 _atom_type_symbol
 _atom_type_oxidation_number
  Ca2+  2.0
  Mn3.34+  3.34
  O2-  -2.0
loop_
 _atom_site_type_symbol
 _atom_site_label
 _atom_site_symmetry_multiplicity
 _atom_site_fract_x
 _atom_site_fract_y
 _atom_site_fract_z
 _atom_site_occupancy
  Ca2+  Ca0  1  0.07689494  0.23578935  0.23107930  1
  Ca2+  Ca1  1  0.08766135  0.24980624  0.58545158  1
  Ca2+  Ca2  1  0.07037461  0.24875065  0.93370316  1
  Ca2+  Ca3  1  0.07594236  0.75178238  0.23906543  1
  Ca2+  Ca4  1  0.08271407  0.74905772  0.58235613  1
  Ca2+  Ca5  1  0.09109138  0.74808104  0.93006945  1
  Ca2+  Ca6  1  0.41612124  0.24714984  0.25049046  1
  Ca2+  Ca7  1  0.42271414  0.25343064  0.57490547  1
  Ca2+  Ca8  1  0.40768404  0.26590998  0.92269901  1
  Ca2+  Ca9  1  0.41760512  0.76432878  0.24215471  1
  Ca2+  Ca10  1  0.44221709  0.74647631  0.57220679  1
  Ca2+  Ca11  1  0.40117226  0.74757359  0.92500438  1
  Ca2+  Ca12  1  0.75169796  0.23264836  0.24000256  1
  Ca2+  Ca13  1  0.74157004  0.25367962  0.57504830  1
  Ca2+  Ca14  1  0.77016379  0.25318541  0.93614870  1
  Ca2+  Ca15  1  0.75846469  0.75339795  0.23762583  1
  Ca2+  Ca16  1  0.73620176  0.74864287  0.57261785  1
  Ca2+  Ca17  1  0.75139207  0.74624577  0.93753057  1
  Ca2+  Ca18  1  0.23672834  0.25159156  0.09479107  1
  Ca2+  Ca19  1  0.25473505  0.24758087  0.41063383  1
  Ca2+  Ca20  1  0.24283917  0.26847953  0.74769507  1
  Ca2+  Ca21  1  0.23316475  0.73563786  0.07836298  1
  Ca2+  Ca22  1  0.24803899  0.75142458  0.41745098  1
  Ca2+  Ca23  1  0.23824865  0.74421966  0.75614893  1
  Ca2+  Ca24  1  0.59525132  0.26102740  0.09169458  1
  Ca2+  Ca25  1  0.58692820  0.24842782  0.40950330  1
  Ca2+  Ca26  1  0.57878311  0.25997154  0.74103624  1
  Ca2+  Ca27  1  0.59357576  0.74278599  0.08729722  1
  Ca2+  Ca28  1  0.58606240  0.75719456  0.42727895  1
  Ca2+  Ca29  1  0.58828258  0.75434357  0.73467327  1
  Ca2+  Ca30  1  0.91472260  0.24419044  0.08580631  1
  Ca2+  Ca31  1  0.91025354  0.25009724  0.40655333  1
  Ca2+  Ca32  1  0.92550807  0.25524523  0.75922874  1
  Ca2+  Ca33  1  0.91977556  0.74393266  0.09022032  1
  Ca2+  Ca34  1  0.92059086  0.75556223  0.41124350  1
  Ca2+  Ca35  1  0.92060391  0.75826646  0.75118308  1
  Ca2+  Ca36  1  0.93284675  0.58656505  0.41051904  1
  Ca2+  Ca37  1  0.42284267  0.09663228  0.25542268  1
  Ca2+  Ca38  1  0.75798358  0.09499044  0.58081672  1
  Ca2+  Ca39  1  0.58375511  0.07692045  0.72665918  1
  Ca2+  Ca40  1  0.42481904  0.58294724  0.24616494  1
  Ca2+  Ca41  1  0.58228229  0.61327034  0.44115499  1
  Ca2+  Ca42  1  0.08884343  0.09154219  0.57708806  1
  Ca2+  Ca43  1  0.61806835  0.11556758  0.11631293  1
  Ca2+  Ca44  1  0.91447250  0.09960828  0.75177519  1
  Ca2+  Ca45  1  0.76717273  0.09109297  0.94145851  1
  Ca2+  Ca46  1  0.24700285  0.08244635  0.72796002  1
  Ca2+  Ca47  1  0.57382245  0.58974455  0.72474361  1
  Ca2+  Ca48  1  0.41428490  0.09338558  0.25943158  1
  Ca2+  Ca49  1  0.78044828  0.58274936  0.94039833  1
  Ca2+  Ca50  1  0.57767052  0.09849431  0.40239217  1
  Ca2+  Ca51  1  0.93472942  0.08726191  0.39768809  1
  Ca2+  Ca52  1  0.10136587  0.59572764  0.57905513  1
  Ca2+  Ca53  1  0.61032032  0.11944372  0.12088888  1
  Ca2+  Ca54  1  0.90163336  0.09993922  0.75183720  1
  Ca2+  Ca55  1  0.41394135  0.61875707  0.56716738  1
  Ca2+  Ca56  1  0.75031794  0.59187736  0.25236506  1
  Ca2+  Ca57  1  0.91566735  0.60605392  0.08399760  1
  Ca2+  Ca58  1  0.43632967  0.58327192  0.24535534  1
  Ca2+  Ca59  1  0.56170163  0.58901649  0.72546878  1
  Ca2+  Ca60  1  0.22532665  0.60851553  0.74431593  1
  Ca2+  Ca61  1  0.40880928  0.07714199  0.92667385  1
  Ca2+  Ca62  1  0.21845187  0.09521898  0.09895060  1
  Ca2+  Ca63  1  0.07088241  0.60365501  0.23963900  1
  Ca2+  Ca64  1  0.25670984  0.08154839  0.72173106  1
  Ca2+  Ca65  1  0.94160647  0.58768166  0.75449241  1
  Ca2+  Ca66  1  0.93169282  0.10453020  0.08874731  1
  Ca2+  Ca67  1  0.20674507  0.09562005  0.10284261  1
  Ca2+  Ca68  1  0.59141328  0.60993953  0.43882445  1
  Ca2+  Ca69  1  0.07615673  0.60126461  0.91525398  1
  Ca2+  Ca70  1  0.74511799  0.09531231  0.58066721  1
  Ca2+  Ca71  1  0.08555270  0.60352476  0.91185714  1
  Ca2+  Ca72  1  0.57960248  0.89937885  0.09313563  1
  Ca2+  Ca73  1  0.76564233  0.90265992  0.91580277  1
  Ca2+  Ca74  1  0.07090690  0.90047619  0.91956820  1
  Ca2+  Ca75  1  0.72032425  0.41769849  0.26492663  1
  Ca2+  Ca76  1  0.57223168  0.41049257  0.08681223  1
  Ca2+  Ca77  1  0.91739966  0.90282905  0.07839132  1
  Ca2+  Ca78  1  0.23574564  0.40398864  0.41933364  1
  Ca2+  Ca79  1  0.59015302  0.89935148  0.09287121  1
  Ca2+  Ca80  1  0.73063059  0.41894167  0.26398481  1
  Ca2+  Ca81  1  0.41933106  0.41344396  0.92546942  1
  Ca2+  Ca82  1  0.07150561  0.40053264  0.26368903  1
  Ca2+  Ca83  1  0.93404270  0.90971151  0.41850457  1
  Ca2+  Ca84  1  0.08029655  0.41328044  0.58364029  1
  Ca2+  Ca85  1  0.40351190  0.40383804  0.59416152  1
  Ca2+  Ca86  1  0.57706958  0.90931293  0.73861673  1
  Ca2+  Ca87  1  0.26458870  0.41224668  0.07403668  1
  Ca2+  Ca88  1  0.08048091  0.40290849  0.26796699  1
  Ca2+  Ca89  1  0.76196580  0.40409512  0.57826306  1
  Ca2+  Ca90  1  0.27034009  0.90603680  0.74158523  1
  Ca2+  Ca91  1  0.75297309  0.90046800  0.58609027  1
  Ca2+  Ca92  1  0.90081729  0.41862946  0.75372429  1
  Ca2+  Ca93  1  0.25854258  0.90310493  0.74087803  1
  Ca2+  Ca94  1  0.09141696  0.91555744  0.26102810  1
  Ca2+  Ca95  1  0.59292998  0.41075765  0.40983396  1
  Ca2+  Ca96  1  0.43609410  0.40789969  0.24849223  1
  Ca2+  Ca97  1  0.25017408  0.90388916  0.08716527  1
  Ca2+  Ca98  1  0.08088278  0.91482458  0.26104604  1
  Ca2+  Ca99  1  0.08925725  0.89783263  0.57135022  1
  Ca2+  Ca100  1  0.27565809  0.41512548  0.07741634  1
  Ca2+  Ca101  1  0.59959814  0.41071709  0.74222209  1
  Ca2+  Ca102  1  0.57256512  0.90428227  0.41826999  1
  Ca2+  Ca103  1  0.42188363  0.90557969  0.59132281  1
  Ca2+  Ca104  1  0.90989872  0.41495011  0.75542438  1
  Ca2+  Ca105  1  0.41300853  0.90869826  0.91510176  1
  Ca2+  Ca106  1  0.91406921  0.41884137  0.05596703  1
  Ca2+  Ca107  1  0.08017873  0.41220715  0.91487425  1
  Mn3.34+  Mn108  1  0.08171734  0.33662617  0.08697971  1
  Mn3.34+  Mn109  1  0.07883031  0.33214354  0.42632644  1
  Mn3.34+  Mn110  1  0.08232959  0.33440854  0.75176507  1
  Mn3.34+  Mn111  1  0.08369305  0.83191073  0.08627748  1
  Mn3.34+  Mn112  1  0.08810825  0.83168210  0.41750694  1
  Mn3.34+  Mn113  1  0.08260026  0.82782546  0.75297421  1
  Mn3.34+  Mn114  1  0.41862049  0.32881065  0.08544236  1
  Mn3.34+  Mn115  1  0.41518351  0.33154350  0.41744099  1
  Mn3.34+  Mn116  1  0.41728244  0.33653766  0.75293916  1
  Mn3.34+  Mn117  1  0.41490592  0.83054235  0.08242050  1
  Mn3.34+  Mn118  1  0.40989072  0.84029385  0.41798469  1
  Mn3.34+  Mn119  1  0.41994583  0.82826809  0.75513940  1
  Mn3.34+  Mn120  1  0.75283518  0.33464683  0.08511348  1
  Mn3.34+  Mn121  1  0.75359544  0.33584061  0.41881026  1
  Mn3.34+  Mn122  1  0.75004761  0.33063171  0.75471820  1
  Mn3.34+  Mn123  1  0.75247098  0.83137472  0.08489608  1
  Mn3.34+  Mn124  1  0.75479487  0.83201944  0.41319790  1
  Mn3.34+  Mn125  1  0.75286402  0.83358185  0.75238606  1
  Mn3.34+  Mn126  1  0.25461438  0.33173777  0.25145283  1
  Mn3.34+  Mn127  1  0.24713221  0.33580939  0.57997362  1
  Mn3.34+  Mn128  1  0.24648377  0.33991431  0.91047010  1
  Mn3.34+  Mn129  1  0.25566616  0.83935736  0.25371094  1
  Mn3.34+  Mn130  1  0.25563033  0.82446895  0.57868575  1
  Mn3.34+  Mn131  1  0.24851966  0.83240620  0.91657437  1
  Mn3.34+  Mn132  1  0.58291680  0.33177984  0.24896763  1
  Mn3.34+  Mn133  1  0.58376050  0.33053399  0.57948449  1
  Mn3.34+  Mn134  1  0.58938671  0.33427173  0.91457719  1
  Mn3.34+  Mn135  1  0.58452815  0.83346023  0.25719255  1
  Mn3.34+  Mn136  1  0.58578489  0.83322053  0.58246782  1
  Mn3.34+  Mn137  1  0.58417070  0.83073982  0.91103046  1
  Mn3.34+  Mn138  1  0.90945833  0.33172213  0.24977979  1
  Mn3.34+  Mn139  1  0.91720220  0.33149672  0.57956489  1
  Mn3.34+  Mn140  1  0.91460953  0.33811543  0.91695656  1
  Mn3.34+  Mn141  1  0.91236925  0.83763330  0.24912375  1
  Mn3.34+  Mn142  1  0.91683448  0.83329086  0.58554791  1
  Mn3.34+  Mn143  1  0.91774896  0.83050042  0.91246054  1
  Mn3.34+  Mn144  1  0.24994898  0.66473690  0.91718870  1
  Mn3.34+  Mn145  1  0.75104489  0.17108987  0.40979721  1
  Mn3.34+  Mn146  1  0.08420582  0.16088200  0.41560866  1
  Mn3.34+  Mn147  1  0.42395917  0.16751445  0.74722125  1
  Mn3.34+  Mn148  1  0.58202871  0.66678858  0.24312424  1
  Mn3.34+  Mn149  1  0.58011694  0.16544855  0.57563685  1
  Mn3.34+  Mn150  1  0.91232426  0.65950516  0.58043924  1
  Mn3.34+  Mn151  1  0.74704284  0.65844431  0.75491364  1
  Mn3.34+  Mn152  1  0.41477395  0.16490320  0.08622365  1
  Mn3.34+  Mn153  1  0.40896530  0.65871284  0.07889052  1
  Mn3.34+  Mn154  1  0.41255862  0.16345714  0.74869928  1
  Mn3.34+  Mn155  1  0.58805751  0.17658613  0.91706784  1
  Mn3.34+  Mn156  1  0.59213905  0.66216696  0.24045184  1
  Mn3.34+  Mn157  1  0.25633219  0.67069155  0.25200688  1
  Mn3.34+  Mn158  1  0.40945949  0.66751328  0.75506335  1
  Mn3.34+  Mn159  1  0.25472352  0.16931318  0.91667836  1
  Mn3.34+  Mn160  1  0.41330163  0.16739900  0.42228802  1
  Mn3.34+  Mn161  1  0.24666226  0.66549037  0.24991525  1
  Mn3.34+  Mn162  1  0.58418817  0.66604177  0.91954814  1
  Mn3.34+  Mn163  1  0.24988389  0.16587390  0.57074354  1
  Mn3.34+  Mn164  1  0.75518426  0.66351981  0.41613352  1
  Mn3.34+  Mn165  1  0.25138686  0.67224576  0.57775111  1
  Mn3.34+  Mn166  1  0.57986207  0.17008495  0.91510479  1
  Mn3.34+  Mn167  1  0.92191729  0.66516009  0.58186948  1
  Mn3.34+  Mn168  1  0.24366851  0.16645410  0.26026268  1
  Mn3.34+  Mn169  1  0.91501367  0.16499851  0.24588297  1
  Mn3.34+  Mn170  1  0.08407905  0.17026142  0.74839320  1
  Mn3.34+  Mn171  1  0.57464983  0.66046850  0.91789992  1
  Mn3.34+  Mn172  1  0.75945216  0.66530046  0.75242654  1
  Mn3.34+  Mn173  1  0.08674475  0.66391625  0.41726866  1
  Mn3.34+  Mn174  1  0.91441053  0.67167544  0.25129625  1
  Mn3.34+  Mn175  1  0.74693012  0.17234631  0.75420721  1
  Mn3.34+  Mn176  1  0.92038230  0.16929739  0.57281742  1
  Mn3.34+  Mn177  1  0.24134235  0.16335326  0.91347318  1
  Mn3.34+  Mn178  1  0.92253171  0.16828390  0.92016042  1
  Mn3.34+  Mn179  1  0.91916196  0.66758519  0.91231511  1
  Mn3.34+  Mn180  1  0.23591182  -0.00052640  0.92596826  1
  Mn3.34+  Mn181  1  0.58384395  0.49907239  0.58261018  1
  Mn3.34+  Mn182  1  0.24536840  0.50148537  0.25056575  1
  Mn3.34+  Mn183  1  0.09602099  0.49595201  0.74187341  1
  Mn3.34+  Mn184  1  0.75441262  -0.00282466  0.40671018  1
  Mn3.34+  Mn185  1  0.57706450  0.50455434  0.92640476  1
  Mn3.34+  Mn186  1  0.91905657  0.00211181  0.58014336  1
  Mn3.34+  Mn187  1  0.08069287  0.50008564  0.07057429  1
  Mn3.34+  Mn188  1  0.75712137  0.49966969  0.07612988  1
  Mn3.34+  Mn189  1  0.75592195  -0.00098116  0.74652970  1
  Mn3.34+  Mn190  1  0.24782451  0.00124923  0.27860838  1
  Mn3.34+  Mn191  1  0.25633979  -0.00423692  0.57684697  1
  Mn3.34+  Mn192  1  0.59974186  0.49515282  0.58442206  1
  Mn3.34+  Mn193  1  0.91754703  0.50135147  0.24215966  1
  Mn3.34+  Mn194  1  0.23266521  0.50501735  0.25176630  1
  Mn3.34+  Mn195  1  0.59429522  -0.00183920  0.90955561  1
  Mn3.34+  Mn196  1  0.06780447  -0.00317277  0.75714520  1
  Mn3.34+  Mn197  1  0.07993403  0.00106257  0.75724217  1
  Mn3.34+  Mn198  1  0.57187797  -0.00447153  0.25977734  1
  Mn3.34+  Mn199  1  0.92143265  0.00098213  0.25479983  1
  Mn3.34+  Mn200  1  0.42353344  0.50080179  0.41917808  1
  Mn3.34+  Mn201  1  0.40786324  0.00409636  0.41814256  1
  Mn3.34+  Mn202  1  0.91729735  -0.00102258  0.91623643  1
  Mn3.34+  Mn203  1  0.40660752  0.49673998  0.74738414  1
  Mn3.34+  Mn204  1  0.41374060  -0.00126841  0.08245724  1
  Mn3.34+  Mn205  1  0.07465750  -0.00222165  0.07945596  1
  Mn3.34+  Mn206  1  0.26125447  0.50395732  0.92174268  1
  Mn3.34+  Mn207  1  0.75598548  -0.00184107  0.08691501  1
  Mn3.34+  Mn208  1  0.58831650  0.49999785  0.92445914  1
  Mn3.34+  Mn209  1  0.40826926  0.49670762  0.42340261  1
  Mn3.34+  Mn210  1  0.57412905  0.00166396  0.58944222  1
  Mn3.34+  Mn211  1  0.25381263  0.50440490  0.58470176  1
  Mn3.34+  Mn212  1  0.58367681  0.00367377  0.91030306  1
  Mn3.34+  Mn213  1  0.91428905  0.50062796  0.25716647  1
  Mn3.34+  Mn214  1  0.74465863  0.00260831  0.40915212  1
  Mn3.34+  Mn215  1  0.90749928  0.50087120  0.59487878  1
  O2-  O216  1  0.00178330  0.16222746  -0.00716164  1
  O2-  O217  1  0.00041495  0.17115314  0.33849200  1
  O2-  O218  1  -0.00254638  0.15302780  0.66067213  1
  O2-  O219  1  0.00022960  0.66650203  -0.00875927  1
  O2-  O220  1  0.00143036  0.65531938  0.33595175  1
  O2-  O221  1  0.00439880  0.65373348  0.65883936  1
  O2-  O222  1  0.32878084  0.13906887  0.00362912  1
  O2-  O223  1  0.33166554  0.15275961  0.33696558  1
  O2-  O224  1  0.32334658  0.16329817  0.66882338  1
  O2-  O225  1  0.33439517  0.66226960  -0.00403817  1
  O2-  O226  1  0.34722403  0.65879134  0.31646283  1
  O2-  O227  1  0.33056053  0.67520813  0.66860340  1
  O2-  O228  1  0.66962255  0.16194158  -0.00271988  1
  O2-  O229  1  0.66448894  0.16691545  0.34224630  1
  O2-  O230  1  0.66942987  0.15414084  0.66609549  1
  O2-  O231  1  0.67145157  0.64609509  -0.01511446  1
  O2-  O232  1  0.66810116  0.65685618  0.33117392  1
  O2-  O233  1  0.66621442  0.65018925  0.67505873  1
  O2-  O234  1  0.16777291  0.15261909  -0.00203529  1
  O2-  O235  1  0.16114658  0.18421265  0.33667638  1
  O2-  O236  1  0.16595405  0.15857799  0.66222153  1
  O2-  O237  1  0.16777691  0.65508839  -0.00662307  1
  O2-  O238  1  0.17382668  0.64590027  0.33602608  1
  O2-  O239  1  0.16990100  0.68167930  0.65974582  1
  O2-  O240  1  0.50393767  0.14918918  0.00342938  1
  O2-  O241  1  0.49003089  0.16194257  0.33422343  1
  O2-  O242  1  0.50441590  0.14655309  0.66567762  1
  O2-  O243  1  0.50120456  0.65217808  0.00400019  1
  O2-  O244  1  0.50628008  0.65071871  0.32669233  1
  O2-  O245  1  0.49460352  0.66864967  0.67685914  1
  O2-  O246  1  0.84210570  0.16060946  -0.00486107  1
  O2-  O247  1  0.83992438  0.15522414  0.34203083  1
  O2-  O248  1  0.83483816  0.16318406  0.66591136  1
  O2-  O249  1  0.84144196  0.66985294  -0.00623908  1
  O2-  O250  1  0.83758649  0.64466834  0.33720629  1
  O2-  O251  1  0.84260099  0.63786480  0.67189814  1
  O2-  O252  1  0.00361416  0.35070973  -0.00111728  1
  O2-  O253  1  0.00028091  0.33245608  0.33719794  1
  O2-  O254  1  -0.00820237  0.34678251  0.67052812  1
  O2-  O255  1  -0.00200127  0.83691188  0.00109627  1
  O2-  O256  1  0.00357579  0.84661405  0.32964992  1
  O2-  O257  1  0.01007358  0.82606370  0.66246595  1
  O2-  O258  1  0.33693430  0.34807961  -0.00488924  1
  O2-  O259  1  0.33565624  0.35439569  0.33202972  1
  O2-  O260  1  0.33148202  0.32954765  0.66040389  1
  O2-  O261  1  0.33508969  0.84895730  -0.00470015  1
  O2-  O262  1  0.33522766  0.81885338  0.33681276  1
  O2-  O263  1  0.33643968  0.82583657  0.66981078  1
  O2-  O264  1  0.66167202  0.33267196  0.00791257  1
  O2-  O265  1  0.66318787  0.33825012  0.33489873  1
  O2-  O266  1  0.67149547  0.33479778  0.66558284  1
  O2-  O267  1  0.66592963  0.85319619  -0.00514779  1
  O2-  O268  1  0.66112288  0.84242270  0.34280987  1
  O2-  O269  1  0.66501390  0.84877799  0.66741453  1
  O2-  O270  1  0.17133635  0.35805868  0.00905042  1
  O2-  O271  1  0.16383019  0.33776645  0.33639792  1
  O2-  O272  1  0.16000316  0.33527889  0.65878748  1
  O2-  O273  1  0.16444195  0.85196974  -0.00130838  1
  O2-  O274  1  0.16720358  0.84990288  0.33344637  1
  O2-  O275  1  0.17394530  0.83001816  0.67172142  1
  O2-  O276  1  0.50199934  0.33698685  0.00007459  1
  O2-  O277  1  0.50257357  0.33871848  0.33470177  1
  O2-  O278  1  0.50467609  0.35061384  0.66822490  1
  O2-  O279  1  0.50442723  0.84986226  -0.00367033  1
  O2-  O280  1  0.49851552  0.82977493  0.33884596  1
  O2-  O281  1  0.50009286  0.83782841  0.66841902  1
  O2-  O282  1  0.83258376  0.34782620  -0.00082802  1
  O2-  O283  1  0.82629263  0.35531751  0.32709040  1
  O2-  O284  1  0.83340252  0.31592620  0.66825786  1
  O2-  O285  1  0.83430558  0.83711244  -0.00124214  1
  O2-  O286  1  0.84045638  0.85207129  0.33946255  1
  O2-  O287  1  0.83526146  0.84579122  0.66995402  1
  O2-  O288  1  -0.00936230  0.17845409  0.16598290  1
  O2-  O289  1  0.00174218  0.18990533  0.49736479  1
  O2-  O290  1  -0.00653600  0.17442383  0.82105731  1
  O2-  O291  1  -0.00536424  0.67927285  0.17341242  1
  O2-  O292  1  -0.00071816  0.68741317  0.49781391  1
  O2-  O293  1  -0.00301797  0.68412917  0.83450697  1
  O2-  O294  1  0.33380704  0.16788359  0.16896330  1
  O2-  O295  1  0.33467816  0.19152899  0.50359619  1
  O2-  O296  1  0.33627502  0.18732991  0.83964191  1
  O2-  O297  1  0.33019551  0.68763405  0.16432981  1
  O2-  O298  1  0.33226233  0.69403839  0.50855846  1
  O2-  O299  1  0.32589230  0.68318214  0.82998234  1
  O2-  O300  1  0.64939171  0.19587861  0.17322853  1
  O2-  O301  1  0.67224620  0.17777272  0.50463950  1
  O2-  O302  1  0.66213892  0.19375691  0.83019126  1
  O2-  O303  1  0.67228338  0.67365133  0.16720113  1
  O2-  O304  1  0.67195056  0.68422402  0.48799715  1
  O2-  O305  1  0.65823748  0.68643726  0.83152607  1
  O2-  O306  1  0.17466726  0.17533770  0.16955104  1
  O2-  O307  1  0.16293454  0.18481328  0.49952538  1
  O2-  O308  1  0.17711241  0.18518025  0.82167142  1
  O2-  O309  1  0.16249140  0.67203940  0.17804261  1
  O2-  O310  1  0.16463517  0.68367108  0.50139104  1
  O2-  O311  1  0.16270728  0.67546178  0.84070086  1
  O2-  O312  1  0.49484082  0.17668309  0.16280475  1
  O2-  O313  1  0.50478206  0.18238871  0.49187374  1
  O2-  O314  1  0.49226065  0.18789951  0.84237099  1
  O2-  O315  1  0.49157033  0.67763175  0.17082022  1
  O2-  O316  1  0.50706273  0.68221066  0.48699400  1
  O2-  O317  1  0.49689601  0.68417254  0.83858025  1
  O2-  O318  1  0.83926695  0.17044031  0.16752243  1
  O2-  O319  1  0.82771760  0.18538644  0.50874271  1
  O2-  O320  1  0.83633991  0.18552264  0.82701804  1
  O2-  O321  1  0.83522175  0.67872874  0.17571033  1
  O2-  O322  1  0.84026491  0.67312672  0.49569612  1
  O2-  O323  1  0.83238364  0.68745501  0.83495276  1
  O2-  O324  1  0.00465010  0.32510053  0.17543645  1
  O2-  O325  1  0.00173695  0.30853515  0.50528369  1
  O2-  O326  1  -0.00314144  0.32348616  0.83358394  1
  O2-  O327  1  -0.00165938  0.82157821  0.16679703  1
  O2-  O328  1  -0.00013002  0.81864343  0.49818974  1
  O2-  O329  1  0.00622600  0.81058389  0.84002800  1
  O2-  O330  1  0.32498908  0.32145631  0.15553676  1
  O2-  O331  1  0.33061644  0.32012187  0.49844810  1
  O2-  O332  1  0.33111766  0.31891995  0.83256091  1
  O2-  O333  1  0.32933916  0.82489867  0.16045841  1
  O2-  O334  1  0.34016083  0.81273243  0.50346633  1
  O2-  O335  1  0.33042743  0.81419703  0.83033626  1
  O2-  O336  1  0.67308256  0.32156921  0.17641487  1
  O2-  O337  1  0.66418729  0.31415957  0.49500656  1
  O2-  O338  1  0.66896822  0.31002110  0.83194333  1
  O2-  O339  1  0.66122409  0.82559437  0.16133493  1
  O2-  O340  1  0.66885821  0.82653788  0.50194217  1
  O2-  O341  1  0.66638438  0.81728926  0.83236548  1
  O2-  O342  1  0.16298692  0.32982029  0.17545926  1
  O2-  O343  1  0.16829265  0.31035235  0.49595265  1
  O2-  O344  1  0.15670063  0.32082655  0.84120133  1
  O2-  O345  1  0.16250301  0.83406403  0.17109524  1
  O2-  O346  1  0.16560326  0.81470503  0.50530958  1
  O2-  O347  1  0.16708987  0.81562380  0.83304604  1
  O2-  O348  1  0.49887229  0.31162469  0.17132186  1
  O2-  O349  1  0.49812808  0.32117273  0.50024020  1
  O2-  O350  1  0.50399080  0.31293023  0.83878865  1
  O2-  O351  1  0.50802550  0.82159071  0.15842664  1
  O2-  O352  1  0.50179429  0.82522429  0.50001617  1
  O2-  O353  1  0.49967438  0.80999570  0.83425297  1
  O2-  O354  1  0.83609452  0.34314644  0.16427272  1
  O2-  O355  1  0.83022980  0.31860543  0.50485318  1
  O2-  O356  1  0.83661678  0.31800001  0.83004607  1
  O2-  O357  1  0.83833032  0.82260398  0.16062885  1
  O2-  O358  1  0.83176560  0.82389918  0.50434541  1
  O2-  O359  1  0.83080685  0.81110596  0.84032591  1
  O2-  O360  1  0.07787873  0.07325903  0.11600640  1
  O2-  O361  1  0.06716772  0.08403904  0.44663785  1
  O2-  O362  1  0.09466477  0.08388314  0.77670082  1
  O2-  O363  1  0.05823036  0.56922709  0.11170315  1
  O2-  O364  1  0.07164117  0.58584016  0.44754778  1
  O2-  O365  1  0.08937940  0.57390073  0.78091354  1
  O2-  O366  1  0.42266904  0.07931072  0.11762150  1
  O2-  O367  1  0.42162759  0.08453608  0.44329646  1
  O2-  O368  1  0.40374997  0.08265074  0.78231741  1
  O2-  O369  1  0.40744848  0.58115871  0.11724362  1
  O2-  O370  1  0.43863456  0.58022194  0.44439476  1
  O2-  O371  1  0.42980101  0.57873134  0.76764991  1
  O2-  O372  1  0.73907566  0.07747254  0.10378796  1
  O2-  O373  1  0.75302018  0.08302548  0.44630550  1
  O2-  O374  1  0.76528204  0.08143722  0.78875230  1
  O2-  O375  1  0.77659344  0.56669173  0.12447199  1
  O2-  O376  1  0.72442067  0.58438963  0.43515405  1
  O2-  O377  1  0.75695933  0.58394167  0.80097346  1
  O2-  O378  1  0.25681569  0.07849175  0.22736643  1
  O2-  O379  1  0.24196228  0.07857675  0.57598869  1
  O2-  O380  1  0.25625572  0.07972266  0.86781421  1
  O2-  O381  1  0.26794369  0.58315683  0.21606229  1
  O2-  O382  1  0.25869339  0.58675112  0.56864011  1
  O2-  O383  1  0.23409200  0.57983065  0.88178122  1
  O2-  O384  1  0.55835657  0.07481989  0.22718319  1
  O2-  O385  1  0.60167164  0.07936287  0.54674236  1
  O2-  O386  1  0.58676079  0.08343207  0.86631786  1
  O2-  O387  1  0.57632418  0.57937650  0.22341102  1
  O2-  O388  1  0.56712093  0.58154680  0.57195182  1
  O2-  O389  1  0.58274933  0.57711877  0.86057258  1
  O2-  O390  1  0.92259412  0.07947399  0.22968494  1
  O2-  O391  1  0.89986580  0.08160708  0.53839941  1
  O2-  O392  1  0.91165566  0.08150380  0.88514497  1
  O2-  O393  1  0.91985739  0.58388404  0.22443914  1
  O2-  O394  1  0.92732604  0.57666151  0.54792376  1
  O2-  O395  1  0.93183190  0.58588036  0.89401258  1
  O2-  O396  1  0.08894293  0.42965460  0.12971966  1
  O2-  O397  1  0.08735035  0.41015352  0.44638371  1
  O2-  O398  1  0.06588448  0.41842770  0.77415878  1
  O2-  O399  1  0.07268013  0.92000050  0.11694004  1
  O2-  O400  1  0.07879699  0.91279083  0.44049868  1
  O2-  O401  1  0.09409496  0.91589546  0.78038789  1
  O2-  O402  1  0.41358007  0.41056287  0.11460851  1
  O2-  O403  1  0.41611031  0.41623501  0.45250003  1
  O2-  O404  1  0.42360600  0.41890869  0.78540629  1
  O2-  O405  1  0.43913237  0.91800264  0.10087395  1
  O2-  O406  1  0.42310409  0.92640725  0.45559684  1
  O2-  O407  1  0.40256006  0.91260373  0.77517893  1
  O2-  O408  1  0.73132832  0.42670548  0.11899699  1
  O2-  O409  1  0.74001577  0.41404898  0.44281031  1
  O2-  O410  1  0.76006420  0.41016459  0.75902871  1
  O2-  O411  1  0.73825961  0.91774905  0.10486569  1
  O2-  O412  1  0.74668653  0.91944611  0.44939277  1
  O2-  O413  1  0.73691176  0.91990298  0.78215188  1
  O2-  O414  1  0.26238167  0.42176082  0.21187884  1
  O2-  O415  1  0.24782378  0.42444743  0.55181823  1
  O2-  O416  1  0.24776276  0.42469693  0.88413095  1
  O2-  O417  1  0.24041382  0.92695486  0.22371749  1
  O2-  O418  1  0.25895890  0.91294354  0.58412623  1
  O2-  O419  1  0.25172637  0.91829405  0.87674547  1
  O2-  O420  1  0.58441596  0.41499483  0.22183828  1
  O2-  O421  1  0.60215507  0.41496535  0.55287434  1
  O2-  O422  1  0.58478471  0.42309277  0.87444354  1
  O2-  O423  1  0.58077208  0.91645127  0.22925623  1
  O2-  O424  1  0.57745575  0.92144839  0.55907053  1
  O2-  O425  1  0.56977285  0.91834068  0.87586472  1
  O2-  O426  1  0.93856724  0.41868880  0.22665835  1
  O2-  O427  1  0.91333356  0.42150000  0.56694381  1
  O2-  O428  1  0.91983283  0.41916721  0.88788627  1
  O2-  O429  1  0.92735188  0.92258970  0.21438409  1
  O2-  O430  1  0.92928802  0.91839925  0.56166241  1
  O2-  O431  1  0.91915518  0.91847728  0.88922119  1
  O2-  O432  1  -0.00576763  -0.01245474  0.00335035  1
  O2-  O433  1  0.00069466  -0.01529844  0.32723754  1
  O2-  O434  1  -0.01262027  0.02336094  0.67855171  1
  O2-  O435  1  0.01048713  0.49311694  -0.00867056  1
  O2-  O436  1  0.01782359  0.50536703  0.30713933  1
  O2-  O437  1  -0.00923458  0.50048533  0.68104183  1
  O2-  O438  1  0.33591168  0.00425335  -0.00480752  1
  O2-  O439  1  0.35678778  0.00970954  0.30955680  1
  O2-  O440  1  0.30577455  -0.00449474  0.69350863  1
  O2-  O441  1  0.33404355  0.47992584  -0.00022777  1
  O2-  O442  1  0.32156712  0.50686471  0.34273083  1
  O2-  O443  1  0.34755335  0.49507941  0.64577895  1
  O2-  O444  1  0.65985059  -0.00450287  0.00643393  1
  O2-  O445  1  0.65424243  0.00614807  0.34105557  1
  O2-  O446  1  0.67319745  0.01243453  0.65671054  1
  O2-  O447  1  0.67787227  0.51501236  -0.00275286  1
  O2-  O448  1  0.65375923  0.48105828  0.33786323  1
  O2-  O449  1  0.65479774  0.50838018  0.68708888  1
  O2-  O450  1  0.18279618  -0.00056117  0.03789045  1
  O2-  O451  1  0.14374308  0.00128930  0.30652248  1
  O2-  O452  1  0.14984437  0.00097617  0.65794399  1
  O2-  O453  1  0.17063499  0.49153462  0.00243816  1
  O2-  O454  1  0.16379276  0.46727300  0.32713261  1
  O2-  O455  1  0.15087826  0.50786067  0.63922175  1
  O2-  O456  1  0.49216583  0.00551646  -0.01708789  1
  O2-  O457  1  0.50370191  0.00788939  0.35137264  1
  O2-  O458  1  0.51031016  -0.00724503  0.68010804  1
  O2-  O459  1  0.50550757  0.47543835  0.00507067  1
  O2-  O460  1  0.47424878  0.49736805  0.31244292  1
  O2-  O461  1  0.50441105  0.49024209  0.67245016  1
  O2-  O462  1  0.82435817  -0.00044517  -0.01024737  1
  O2-  O463  1  0.85414963  0.00279889  0.35216568  1
  O2-  O464  1  0.82966669  0.02333479  0.65747835  1
  O2-  O465  1  0.84594302  0.50430889  0.01532685  1
  O2-  O466  1  0.80802531  0.50016910  0.29262211  1
  O2-  O467  1  0.83690053  0.48912884  0.67699244  1
  O2-  O468  1  0.42192149  0.74955445  0.06126745  1
  O2-  O469  1  0.57708810  0.24757485  0.60559354  1
  O2-  O470  1  0.24651088  0.75092242  0.94290959  1
  O2-  O471  1  0.23397911  0.75204497  0.26807251  1
  O2-  O472  1  0.76511422  0.75018340  0.38814853  1
  O2-  O473  1  0.40116545  0.24485898  0.05728566  1
  O2-  O474  1  0.58875233  0.74850175  0.26697921  1
  O2-  O475  1  0.92159056  0.25343236  0.93894918  1
  O2-  O476  1  0.74670985  0.74430428  0.71693434  1
  O2-  O477  1  0.24617025  0.25236165  0.94800725  1
  O2-  O478  1  0.08901702  0.25828735  0.06900791  1
  O2-  O479  1  0.26872005  0.25000356  0.26696788  1
  O2-  O480  1  0.08792141  0.74917223  0.38456742  1
  O2-  O481  1  0.76678910  0.25674679  0.07575684  1
  O2-  O482  1  0.07619829  0.25143756  0.72581274  1
  O2-  O483  1  0.91275259  0.75380347  0.27488028  1
  O2-  O484  1  0.41143006  0.25142235  0.39109677  1
  O2-  O485  1  0.59138355  0.75018019  0.95061753  1
  O2-  O486  1  0.09200213  0.75431588  0.07143562  1
  O2-  O487  1  0.59107462  0.75515933  0.59883365  1
  O2-  O488  1  0.74076238  0.75400683  0.07144268  1
  O2-  O489  1  0.90132679  0.74618038  0.60948013  1
  O2-  O490  1  0.42699411  0.24864563  0.71975623  1
  O2-  O491  1  0.75918857  0.25225784  0.38990063  1
  O2-  O492  1  0.90063809  0.25147702  0.26503734  1
