# generated using pymatgen
data_Ca108Mn108O277
_symmetry_space_group_name_H-M   'P 1'
_cell_length_a   16.00694010
_cell_length_b   22.27874248
_cell_length_c   16.37350840
_cell_angle_alpha   89.99896431
_cell_angle_beta   90.00012326
_cell_angle_gamma   90.00113568
_symmetry_Int_Tables_number   1
_chemical_formula_structural   Ca108Mn108O277
_chemical_formula_sum   'Ca108 Mn108 O277'
_cell_volume   5839.03045143
_cell_formula_units_Z   1
loop_
 _symmetry_equiv_pos_site_id
 _symmetry_equiv_pos_as_xyz
  1  'x, y, z'
loop_
 _atom_type_symbol
 _atom_type_oxidation_number
  Ca2+  2.0
  Mn3.34+  3.34
  O2-  -2.0
loop_
 _atom_site_type_symbol
 _atom_site_label
 _atom_site_symmetry_multiplicity
 _atom_site_fract_x
 _atom_site_fract_y
 _atom_site_fract_z
 _atom_site_occupancy
  Ca2+  Ca0  1  0.06564174  0.24176610  0.25043267  1
  Ca2+  Ca1  1  0.07920743  0.24634885  0.58194431  1
  Ca2+  Ca2  1  0.07598136  0.25208047  0.91994853  1
  Ca2+  Ca3  1  0.08098599  0.74653341  0.22813985  1
  Ca2+  Ca4  1  0.07765772  0.75253204  0.60711036  1
  Ca2+  Ca5  1  0.08458919  0.74392587  0.91418915  1
  Ca2+  Ca6  1  0.43050985  0.24439542  0.26563095  1
  Ca2+  Ca7  1  0.42046898  0.25285868  0.57538776  1
  Ca2+  Ca8  1  0.42111274  0.25867061  0.90877984  1
  Ca2+  Ca9  1  0.42700764  0.75787735  0.25124432  1
  Ca2+  Ca10  1  0.42879161  0.75538293  0.59512422  1
  Ca2+  Ca11  1  0.40500597  0.75346101  0.90325528  1
  Ca2+  Ca12  1  0.75372242  0.25067606  0.24228274  1
  Ca2+  Ca13  1  0.74441308  0.25969384  0.58831904  1
  Ca2+  Ca14  1  0.75137778  0.25576315  0.92036364  1
  Ca2+  Ca15  1  0.73918969  0.74852222  0.25677983  1
  Ca2+  Ca16  1  0.73875332  0.75171575  0.58650242  1
  Ca2+  Ca17  1  0.76615717  0.74942760  0.90709407  1
  Ca2+  Ca18  1  0.23672420  0.25112262  0.08310442  1
  Ca2+  Ca19  1  0.25734036  0.24205741  0.41753094  1
  Ca2+  Ca20  1  0.24729253  0.25702089  0.75152543  1
  Ca2+  Ca21  1  0.23532565  0.73533667  0.07267723  1
  Ca2+  Ca22  1  0.25898933  0.75995368  0.41592207  1
  Ca2+  Ca23  1  0.25080372  0.74906314  0.76602621  1
  Ca2+  Ca24  1  0.58476175  0.24196335  0.09745970  1
  Ca2+  Ca25  1  0.56360681  0.24963006  0.40744766  1
  Ca2+  Ca26  1  0.57739377  0.26553042  0.74874225  1
  Ca2+  Ca27  1  0.57503932  0.74770613  0.09894506  1
  Ca2+  Ca28  1  0.58118612  0.75087255  0.41689730  1
  Ca2+  Ca29  1  0.57081631  0.74877909  0.73952649  1
  Ca2+  Ca30  1  0.92175411  0.24507524  0.09642489  1
  Ca2+  Ca31  1  0.93048573  0.24705006  0.40254606  1
  Ca2+  Ca32  1  0.92969277  0.25272535  0.75739231  1
  Ca2+  Ca33  1  0.93363794  0.74140016  0.07461134  1
  Ca2+  Ca34  1  0.90570225  0.75821071  0.41875279  1
  Ca2+  Ca35  1  0.92885350  0.74848112  0.76521867  1
  Ca2+  Ca36  1  0.58243674  0.09337972  0.75138097  1
  Ca2+  Ca37  1  0.78923653  0.08674756  0.58795267  1
  Ca2+  Ca38  1  0.89859916  0.57439633  0.38947398  1
  Ca2+  Ca39  1  0.59651026  0.58335375  0.09132482  1
  Ca2+  Ca40  1  0.40554819  0.09759926  0.56170193  1
  Ca2+  Ca41  1  0.58576969  0.59483003  0.74445289  1
  Ca2+  Ca42  1  0.24346303  0.08750167  0.73065961  1
  Ca2+  Ca43  1  0.41921732  0.58942212  0.24605997  1
  Ca2+  Ca44  1  0.55515624  0.10004363  0.40754949  1
  Ca2+  Ca45  1  0.74826996  0.10504840  0.23751230  1
  Ca2+  Ca46  1  0.43110370  0.10275701  0.26117605  1
  Ca2+  Ca47  1  0.92392585  0.59937568  0.75972643  1
  Ca2+  Ca48  1  0.43197151  0.58942657  0.24680291  1
  Ca2+  Ca49  1  0.43237737  0.59361767  0.58651966  1
  Ca2+  Ca50  1  0.56963154  0.09376465  0.75091780  1
  Ca2+  Ca51  1  0.74849432  0.57895537  0.25070817  1
  Ca2+  Ca52  1  0.08063750  0.59646502  0.22902051  1
  Ca2+  Ca53  1  0.90915924  0.57308558  0.39129667  1
  Ca2+  Ca54  1  0.23949697  0.60104029  0.75482142  1
  Ca2+  Ca55  1  0.42020596  0.10266658  0.26222736  1
  Ca2+  Ca56  1  0.06692285  0.10234215  0.58153690  1
  Ca2+  Ca57  1  0.42080267  0.59412267  0.58804860  1
  Ca2+  Ca58  1  0.92409099  0.59291895  0.09006223  1
  Ca2+  Ca59  1  0.93209036  0.09335012  0.73190312  1
  Ca2+  Ca60  1  0.41652326  0.09902219  0.91595071  1
  Ca2+  Ca61  1  0.40173118  0.59633336  0.90925910  1
  Ca2+  Ca62  1  0.27231509  0.09932814  0.41795963  1
  Ca2+  Ca63  1  0.41451093  0.59635719  0.90951174  1
  Ca2+  Ca64  1  0.75461042  0.09906714  0.92999365  1
  Ca2+  Ca65  1  0.08292080  0.60255772  0.91417881  1
  Ca2+  Ca66  1  0.09095579  0.60081165  0.92075130  1
  Ca2+  Ca67  1  0.59958271  0.58325513  0.40356844  1
  Ca2+  Ca68  1  0.77911634  0.08788393  0.58566370  1
  Ca2+  Ca69  1  0.73594702  0.58871446  0.58244860  1
  Ca2+  Ca70  1  0.25515419  0.58064861  0.40772140  1
  Ca2+  Ca71  1  0.24242491  0.58047380  0.40775490  1
  Ca2+  Ca72  1  0.74247332  0.40385925  0.91718917  1
  Ca2+  Ca73  1  0.08576070  0.91570529  0.59138411  1
  Ca2+  Ca74  1  0.59889507  0.41278774  0.08738372  1
  Ca2+  Ca75  1  0.07918213  0.90869821  0.25187856  1
  Ca2+  Ca76  1  0.43265755  0.40759147  0.25234483  1
  Ca2+  Ca77  1  0.08428631  0.90468343  0.90672645  1
  Ca2+  Ca78  1  0.91077444  0.91356893  0.73832884  1
  Ca2+  Ca79  1  0.40153612  0.91092085  0.58320631  1
  Ca2+  Ca80  1  0.76196939  0.42111132  0.25530792  1
  Ca2+  Ca81  1  0.26060392  0.90204516  0.08527491  1
  Ca2+  Ca82  1  0.05989828  0.41100414  0.24997135  1
  Ca2+  Ca83  1  0.55980048  0.91027739  0.40862205  1
  Ca2+  Ca84  1  0.09810299  0.91578436  0.59191603  1
  Ca2+  Ca85  1  0.24899068  0.90230298  0.08455645  1
  Ca2+  Ca86  1  0.76834469  0.91500901  0.59797510  1
  Ca2+  Ca87  1  0.58174963  0.90029449  0.75411319  1
  Ca2+  Ca88  1  0.74097329  0.40386781  0.57308326  1
  Ca2+  Ca89  1  0.91710455  0.41375575  0.39549590  1
  Ca2+  Ca90  1  0.75853569  0.91238170  0.59454590  1
  Ca2+  Ca91  1  0.09682907  0.90546285  0.90371665  1
  Ca2+  Ca92  1  0.75604532  0.90726986  0.24972792  1
  Ca2+  Ca93  1  0.58793643  0.40944864  0.08450254  1
  Ca2+  Ca94  1  0.27224420  0.91688921  0.42059624  1
  Ca2+  Ca95  1  0.58317138  0.90193547  0.09059130  1
  Ca2+  Ca96  1  0.09231151  0.40028619  0.91327664  1
  Ca2+  Ca97  1  0.24954749  0.40437955  0.41993078  1
  Ca2+  Ca98  1  0.23760458  0.40435496  0.41948936  1
  Ca2+  Ca99  1  0.91827747  0.39738391  0.75138730  1
  Ca2+  Ca100  1  0.42059170  0.40748860  0.25217042  1
  Ca2+  Ca101  1  0.59614254  0.90127168  0.09023761  1
  Ca2+  Ca102  1  0.75008116  0.90236816  0.90508823  1
  Ca2+  Ca103  1  0.24389982  0.40141028  0.07999321  1
  Ca2+  Ca104  1  0.91455805  0.90824508  0.41350898  1
  Ca2+  Ca105  1  0.08740677  0.40073115  0.57889890  1
  Ca2+  Ca106  1  0.06642413  0.90797159  0.25220842  1
  Ca2+  Ca107  1  0.90734828  0.90449288  0.09031085  1
  Mn3.34+  Mn108  1  0.07957106  0.33443723  0.08507954  1
  Mn3.34+  Mn109  1  0.08183709  0.33317933  0.41866748  1
  Mn3.34+  Mn110  1  0.08742867  0.33262157  0.75018007  1
  Mn3.34+  Mn111  1  0.08187325  0.82843284  0.08270208  1
  Mn3.34+  Mn112  1  0.08641047  0.83271632  0.41907149  1
  Mn3.34+  Mn113  1  0.08548909  0.83022544  0.75050970  1
  Mn3.34+  Mn114  1  0.41576149  0.33042571  0.08159493  1
  Mn3.34+  Mn115  1  0.41889157  0.33079813  0.42176758  1
  Mn3.34+  Mn116  1  0.41571182  0.33085207  0.74765288  1
  Mn3.34+  Mn117  1  0.41670015  0.82900050  0.08300050  1
  Mn3.34+  Mn118  1  0.41597339  0.83552264  0.41962001  1
  Mn3.34+  Mn119  1  0.41496166  0.83181964  0.75097819  1
  Mn3.34+  Mn120  1  0.75624419  0.34087441  0.08540956  1
  Mn3.34+  Mn121  1  0.74830903  0.34019258  0.41668153  1
  Mn3.34+  Mn122  1  0.74706676  0.33790881  0.75087157  1
  Mn3.34+  Mn123  1  0.75213462  0.82529606  0.08317536  1
  Mn3.34+  Mn124  1  0.74683916  0.83087686  0.41736877  1
  Mn3.34+  Mn125  1  0.74943733  0.83299400  0.75316445  1
  Mn3.34+  Mn126  1  0.24836916  0.32923268  0.24712927  1
  Mn3.34+  Mn127  1  0.25413092  0.33389225  0.58804506  1
  Mn3.34+  Mn128  1  0.25531744  0.33470614  0.91213199  1
  Mn3.34+  Mn129  1  0.25307155  0.83275538  0.25087125  1
  Mn3.34+  Mn130  1  0.25210953  0.83875540  0.58461059  1
  Mn3.34+  Mn131  1  0.25655829  0.83385435  0.91205003  1
  Mn3.34+  Mn132  1  0.58874913  0.33028850  0.25163313  1
  Mn3.34+  Mn133  1  0.57862726  0.33502467  0.58247334  1
  Mn3.34+  Mn134  1  0.57907121  0.33421108  0.91235374  1
  Mn3.34+  Mn135  1  0.58116585  0.83421593  0.25367366  1
  Mn3.34+  Mn136  1  0.58158131  0.83309149  0.58169662  1
  Mn3.34+  Mn137  1  0.58135764  0.82607208  0.91570064  1
  Mn3.34+  Mn138  1  0.91371576  0.33323562  0.24726362  1
  Mn3.34+  Mn139  1  0.91510845  0.32630621  0.57962633  1
  Mn3.34+  Mn140  1  0.91657587  0.33139099  0.91963893  1
  Mn3.34+  Mn141  1  0.91351995  0.83326909  0.24683955  1
  Mn3.34+  Mn142  1  0.91851527  0.83787420  0.58023958  1
  Mn3.34+  Mn143  1  0.91637652  0.83235614  0.91628393  1
  Mn3.34+  Mn144  1  0.41399464  0.17159876  0.08746406  1
  Mn3.34+  Mn145  1  0.75940254  0.16322092  0.75311912  1
  Mn3.34+  Mn146  1  0.08043246  0.16825141  0.75027130  1
  Mn3.34+  Mn147  1  0.41301517  0.16708430  0.74862544  1
  Mn3.34+  Mn148  1  0.91048806  0.66503187  0.24333195  1
  Mn3.34+  Mn149  1  0.59267645  0.66742209  0.91819660  1
  Mn3.34+  Mn150  1  0.75064985  0.66637495  0.75344742  1
  Mn3.34+  Mn151  1  0.92406316  0.66330942  0.58743320  1
  Mn3.34+  Mn152  1  0.74601246  0.17004965  0.75258522  1
  Mn3.34+  Mn153  1  0.58619095  0.66523571  0.58094860  1
  Mn3.34+  Mn154  1  0.08601234  0.66057280  0.41537536  1
  Mn3.34+  Mn155  1  0.57896244  0.17064242  0.57740596  1
  Mn3.34+  Mn156  1  0.24905046  0.66770474  0.91547562  1
  Mn3.34+  Mn157  1  0.41915543  0.66894218  0.41634266  1
  Mn3.34+  Mn158  1  0.24205694  0.16302870  0.24592618  1
  Mn3.34+  Mn159  1  0.91293190  0.66640071  0.91899352  1
  Mn3.34+  Mn160  1  0.74624680  0.17451144  0.41620877  1
  Mn3.34+  Mn161  1  0.23911933  0.16126722  0.91939632  1
  Mn3.34+  Mn162  1  0.07710721  0.17015437  0.41539765  1
  Mn3.34+  Mn163  1  0.41288661  0.66684095  0.08553228  1
  Mn3.34+  Mn164  1  0.75360994  0.16530415  0.08499418  1
  Mn3.34+  Mn165  1  0.91096885  0.66973190  0.58688790  1
  Mn3.34+  Mn166  1  0.07572188  0.66827741  0.41452929  1
  Mn3.34+  Mn167  1  0.58125133  0.17182352  0.92467386  1
  Mn3.34+  Mn168  1  0.74903920  0.66376113  0.41846602  1
  Mn3.34+  Mn169  1  0.24928866  0.16628777  0.91961854  1
  Mn3.34+  Mn170  1  0.25091020  0.66923923  0.24514314  1
  Mn3.34+  Mn171  1  0.07688127  0.17053026  0.09301549  1
  Mn3.34+  Mn172  1  0.25282452  0.67283239  0.59477384  1
  Mn3.34+  Mn173  1  0.75268162  0.65872982  0.08514528  1
  Mn3.34+  Mn174  1  0.24747387  0.15977470  0.58098998  1
  Mn3.34+  Mn175  1  0.92487873  0.16834712  0.92362380  1
  Mn3.34+  Mn176  1  0.24713131  0.67280808  0.58116162  1
  Mn3.34+  Mn177  1  0.58770286  0.66418836  0.24613765  1
  Mn3.34+  Mn178  1  0.76014158  0.17411461  0.41602623  1
  Mn3.34+  Mn179  1  0.58323288  0.67316005  0.91890560  1
  Mn3.34+  Mn180  1  0.91362422  0.49544242  0.58497452  1
  Mn3.34+  Mn181  1  0.26112369  0.00227389  0.25908984  1
  Mn3.34+  Mn182  1  0.59006794  0.00482668  0.58022072  1
  Mn3.34+  Mn183  1  0.42225989  0.49106741  0.74843982  1
  Mn3.34+  Mn184  1  0.75212496  -0.00103741  0.41043475  1
  Mn3.34+  Mn185  1  0.58424774  0.49451776  0.58279414  1
  Mn3.34+  Mn186  1  0.08015035  0.01026657  0.41012697  1
  Mn3.34+  Mn187  1  0.57919446  -0.00313821  0.91489781  1
  Mn3.34+  Mn188  1  0.25074066  0.49680572  0.91838112  1
  Mn3.34+  Mn189  1  0.74327218  0.50188413  0.74853628  1
  Mn3.34+  Mn190  1  0.92418716  0.50034454  0.58445542  1
  Mn3.34+  Mn191  1  0.92097866  0.00578653  0.91342175  1
  Mn3.34+  Mn192  1  0.42968788  0.49699299  0.41576454  1
  Mn3.34+  Mn193  1  0.08706128  0.49982159  0.07768481  1
  Mn3.34+  Mn194  1  0.41161862  0.49578937  0.75035772  1
  Mn3.34+  Mn195  1  0.24613644  0.49970197  0.58908967  1
  Mn3.34+  Mn196  1  0.41880506  0.00394575  0.08959401  1
  Mn3.34+  Mn197  1  0.06834289  0.00703804  0.40770889  1
  Mn3.34+  Mn198  1  0.25306443  -0.00194978  0.91073357  1
  Mn3.34+  Mn199  1  0.90199849  0.50109268  0.92499879  1
  Mn3.34+  Mn200  1  0.75201957  0.00259908  0.08759065  1
  Mn3.34+  Mn201  1  0.76244419  0.00432600  0.40907205  1
  Mn3.34+  Mn202  1  0.91567711  0.49546670  0.92087279  1
  Mn3.34+  Mn203  1  0.08970170  0.01078197  0.08773130  1
  Mn3.34+  Mn204  1  0.91042441  0.00064541  0.91236481  1
  Mn3.34+  Mn205  1  0.08426367  0.00339289  0.73801972  1
  Mn3.34+  Mn206  1  0.40802544  -0.00064666  0.08743254  1
  Mn3.34+  Mn207  1  0.41119610  0.50078980  0.07590376  1
  Mn3.34+  Mn208  1  0.57488451  0.00274664  0.25707325  1
  Mn3.34+  Mn209  1  0.24184478  0.50004280  0.25103700  1
  Mn3.34+  Mn210  1  0.40496449  -0.00346960  0.74269293  1
  Mn3.34+  Mn211  1  0.07769011  0.00534772  0.09021655  1
  Mn3.34+  Mn212  1  0.58992927  0.00204761  0.91518191  1
  Mn3.34+  Mn213  1  0.08965597  0.49678920  0.74731724  1
  Mn3.34+  Mn214  1  0.58879505  0.49848158  0.92679197  1
  Mn3.34+  Mn215  1  0.57477774  -0.00042059  0.57971642  1
  O2-  O216  1  0.00299633  0.17238675  0.00096456  1
  O2-  O217  1  0.00404671  0.16931464  0.33806389  1
  O2-  O218  1  0.00213126  0.16808627  0.67022320  1
  O2-  O219  1  -0.00462354  0.65845046  -0.00440045  1
  O2-  O220  1  -0.00684309  0.66712631  0.32798765  1
  O2-  O221  1  -0.00637039  0.66815350  0.67531919  1
  O2-  O222  1  0.33523829  0.16892667  -0.00276527  1
  O2-  O223  1  0.32868109  0.16800354  0.32226407  1
  O2-  O224  1  0.33076103  0.16530257  0.66700798  1
  O2-  O225  1  0.33791495  0.66245614  -0.00537805  1
  O2-  O226  1  0.33067103  0.66001121  0.33617354  1
  O2-  O227  1  0.33862289  0.65955797  0.66379251  1
  O2-  O228  1  0.67223481  0.17184001  -0.00482573  1
  O2-  O229  1  0.66870507  0.16668065  0.33766076  1
  O2-  O230  1  0.66721095  0.15549054  0.66519556  1
  O2-  O231  1  0.66784665  0.67932107  0.00517559  1
  O2-  O232  1  0.66722736  0.66153665  0.33232359  1
  O2-  O233  1  0.66729137  0.66137775  0.66583949  1
  O2-  O234  1  0.16557383  0.16963198  0.00393398  1
  O2-  O235  1  0.17444272  0.17148030  0.33786997  1
  O2-  O236  1  0.16745106  0.16737378  0.66708596  1
  O2-  O237  1  0.16430455  0.66542575  -0.00913254  1
  O2-  O238  1  0.17303538  0.66558011  0.33403972  1
  O2-  O239  1  0.17116462  0.67457651  0.67189366  1
  O2-  O240  1  0.49232133  0.17191865  -0.00352220  1
  O2-  O241  1  0.49520643  0.16396293  0.33128307  1
  O2-  O242  1  0.50308218  0.15589574  0.66907608  1
  O2-  O243  1  0.50091923  0.66101743  0.00105812  1
  O2-  O244  1  0.49918242  0.65695425  0.32707063  1
  O2-  O245  1  0.50378268  0.65797081  0.66003214  1
  O2-  O246  1  0.82879423  0.17274424  -0.00540752  1
  O2-  O247  1  0.82959636  0.17120169  0.33052436  1
  O2-  O248  1  0.83211669  0.16661436  0.66402526  1
  O2-  O249  1  0.83447011  0.67634007  0.00686802  1
  O2-  O250  1  0.83595543  0.66620989  0.33602861  1
  O2-  O251  1  0.82818571  0.65733126  0.66716709  1
  O2-  O252  1  0.00523272  0.33510693  -0.00643870  1
  O2-  O253  1  0.00076083  0.33827926  0.33587242  1
  O2-  O254  1  -0.00125080  0.33008002  0.66623473  1
  O2-  O255  1  0.00429338  0.84527533  -0.00261114  1
  O2-  O256  1  -0.00146741  0.83440138  0.33035128  1
  O2-  O257  1  0.00242278  0.84410604  0.66422586  1
  O2-  O258  1  0.33005416  0.32521767  0.00456057  1
  O2-  O259  1  0.33156750  0.33649297  0.33151313  1
  O2-  O260  1  0.33335016  0.31648393  0.66496735  1
  O2-  O261  1  0.32721297  0.83739347  0.00582485  1
  O2-  O262  1  0.33012919  0.82675939  0.33616874  1
  O2-  O263  1  0.33575291  0.82732888  0.66123444  1
  O2-  O264  1  0.66908094  0.33223232  0.00477151  1
  O2-  O265  1  0.67204732  0.32708129  0.33205169  1
  O2-  O266  1  0.67053852  0.33362129  0.66268054  1
  O2-  O267  1  0.66522610  0.82667488  0.00257920  1
  O2-  O268  1  0.66768052  0.83950557  0.33149105  1
  O2-  O269  1  0.66992801  0.84096725  0.66326722  1
  O2-  O270  1  0.16651330  0.33658856  0.00190856  1
  O2-  O271  1  0.17151982  0.33655404  0.33748017  1
  O2-  O272  1  0.16320139  0.32623494  0.66038432  1
  O2-  O273  1  0.16709564  0.84370603  0.00368925  1
  O2-  O274  1  0.16407978  0.83490648  0.32768023  1
  O2-  O275  1  0.16137017  0.83295034  0.65991413  1
  O2-  O276  1  0.50702898  0.33110779  0.00841368  1
  O2-  O277  1  0.49459606  0.33925084  0.32721511  1
  O2-  O278  1  0.49938127  0.32663448  0.66563243  1
  O2-  O279  1  0.50846909  0.83266677  0.00684344  1
  O2-  O280  1  0.50124167  0.83335915  0.33952118  1
  O2-  O281  1  0.50199746  0.83702423  0.66571311  1
  O2-  O282  1  0.82806262  0.32656138  -0.00316088  1
  O2-  O283  1  0.83204855  0.32914513  0.33662699  1
  O2-  O284  1  0.83413995  0.32905928  0.66548434  1
  O2-  O285  1  0.83250410  0.83339691  -0.00014213  1
  O2-  O286  1  0.83545038  0.83097513  0.33268782  1
  O2-  O287  1  0.83338110  0.84032466  0.66424792  1
  O2-  O288  1  -0.00079970  0.17425092  0.16576116  1
  O2-  O289  1  0.00731476  0.17689681  0.50116893  1
  O2-  O290  1  -0.00458410  0.17135537  0.82812987  1
  O2-  O291  1  -0.00767004  0.67715162  0.17178407  1
  O2-  O292  1  -0.00493432  0.66942457  0.49637581  1
  O2-  O293  1  -0.00141114  0.66591049  0.84302249  1
  O2-  O294  1  0.33159591  0.18451628  0.16990202  1
  O2-  O295  1  0.32749268  0.17743659  0.50926640  1
  O2-  O296  1  0.33297768  0.16815019  0.83618917  1
  O2-  O297  1  0.34139347  0.67704545  0.17631207  1
  O2-  O298  1  0.33013007  0.67446767  0.50242207  1
  O2-  O299  1  0.33320513  0.66861888  0.83925117  1
  O2-  O300  1  0.67736263  0.18225002  0.15848060  1
  O2-  O301  1  0.67096139  0.17515797  0.50095432  1
  O2-  O302  1  0.66302334  0.16566462  0.83146197  1
  O2-  O303  1  0.66750676  0.67714180  0.16302999  1
  O2-  O304  1  0.66778684  0.66843777  0.49980514  1
  O2-  O305  1  0.66513641  0.67819567  0.83059533  1
  O2-  O306  1  0.16525103  0.18517304  0.16839609  1
  O2-  O307  1  0.16961789  0.17830824  0.50596484  1
  O2-  O308  1  0.17105342  0.16880079  0.82799777  1
  O2-  O309  1  0.16817987  0.68211108  0.17555969  1
  O2-  O310  1  0.17255146  0.67517116  0.49861948  1
  O2-  O311  1  0.16859425  0.66882974  0.83762172  1
  O2-  O312  1  0.48835121  0.17874787  0.16675411  1
  O2-  O313  1  0.50094463  0.17094618  0.50265069  1
  O2-  O314  1  0.50257558  0.16459741  0.83064830  1
  O2-  O315  1  0.50036658  0.66951387  0.16791607  1
  O2-  O316  1  0.49810574  0.66749995  0.50188440  1
  O2-  O317  1  0.50093914  0.67373032  0.83843297  1
  O2-  O318  1  0.82800889  0.17728944  0.16038562  1
  O2-  O319  1  0.82882114  0.18164964  0.50308236  1
  O2-  O320  1  0.83335982  0.17014772  0.83699463  1
  O2-  O321  1  0.82887060  0.68338061  0.16770323  1
  O2-  O322  1  0.83590588  0.67105763  0.50050266  1
  O2-  O323  1  0.83789308  0.67490278  0.82915535  1
  O2-  O324  1  0.00420961  0.32945276  0.17116245  1
  O2-  O325  1  0.00177103  0.32452236  0.50164184  1
  O2-  O326  1  -0.00073870  0.33163189  0.83185757  1
  O2-  O327  1  0.00232505  0.82539376  0.16872351  1
  O2-  O328  1  0.00254292  0.83459264  0.50181976  1
  O2-  O329  1  0.00237705  0.83537220  0.83367825  1
  O2-  O330  1  0.33810965  0.32161467  0.17041626  1
  O2-  O331  1  0.32553001  0.32612670  0.49419916  1
  O2-  O332  1  0.33369458  0.32107901  0.83209076  1
  O2-  O333  1  0.32648572  0.82545501  0.16262394  1
  O2-  O334  1  0.33203345  0.82381409  0.50230331  1
  O2-  O335  1  0.33290501  0.82432822  0.83120553  1
  O2-  O336  1  0.66472274  0.32501820  0.16194907  1
  O2-  O337  1  0.67183331  0.32137542  0.49920425  1
  O2-  O338  1  0.67071264  0.32807592  0.83837066  1
  O2-  O339  1  0.66581265  0.82516518  0.16279699  1
  O2-  O340  1  0.66857426  0.83405779  0.50620058  1
  O2-  O341  1  0.66752178  0.82213388  0.83604112  1
  O2-  O342  1  0.16942457  0.32540728  0.16524329  1
  O2-  O343  1  0.17023219  0.32524333  0.49986350  1
  O2-  O344  1  0.16395459  0.32741029  0.83725803  1
  O2-  O345  1  0.16596763  0.83121420  0.16695937  1
  O2-  O346  1  0.16922053  0.82138329  0.50499701  1
  O2-  O347  1  0.16121910  0.82823569  0.84023733  1
  O2-  O348  1  0.49898456  0.32847071  0.16588246  1
  O2-  O349  1  0.50079391  0.32324542  0.49987531  1
  O2-  O350  1  0.49896257  0.32461722  0.83310709  1
  O2-  O351  1  0.50544114  0.83156248  0.16204688  1
  O2-  O352  1  0.50055690  0.82834128  0.50083876  1
  O2-  O353  1  0.50469386  0.82032378  0.83065785  1
  O2-  O354  1  0.82839849  0.32241387  0.16790248  1
  O2-  O355  1  0.83040857  0.31516401  0.49801011  1
  O2-  O356  1  0.83416225  0.33024134  0.83235683  1
  O2-  O357  1  0.83273006  0.81757191  0.16647855  1
  O2-  O358  1  0.83274582  0.83244005  0.50230034  1
  O2-  O359  1  0.83465506  0.82949126  0.83208851  1
  O2-  O360  1  0.08820931  0.09002018  0.09852706  1
  O2-  O361  1  0.09703023  0.08794073  0.44055883  1
  O2-  O362  1  0.08463103  0.08244631  0.75929219  1
  O2-  O363  1  0.07038105  0.57631445  0.10193850  1
  O2-  O364  1  0.09655498  0.58106618  0.43097095  1
  O2-  O365  1  0.08639327  0.57264313  0.78529918  1
  O2-  O366  1  0.41363297  0.08506066  0.10627770  1
  O2-  O367  1  0.41538643  0.07712533  0.42904930  1
  O2-  O368  1  0.42699474  0.07697710  0.77591812  1
  O2-  O369  1  0.42109347  0.58159279  0.10821260  1
  O2-  O370  1  0.40547895  0.57919828  0.44517451  1
  O2-  O371  1  0.41910043  0.57808202  0.77712439  1
  O2-  O372  1  0.74939824  0.08316848  0.09870886  1
  O2-  O373  1  0.74960210  0.08365620  0.44371838  1
  O2-  O374  1  0.74033382  0.08006659  0.76843201  1
  O2-  O375  1  0.74731066  0.58131158  0.11002181  1
  O2-  O376  1  0.75994421  0.58207117  0.43580658  1
  O2-  O377  1  0.74686689  0.58346579  0.76688374  1
  O2-  O378  1  0.26698596  0.08043753  0.23160520  1
  O2-  O379  1  0.25124773  0.08183651  0.56640581  1
  O2-  O380  1  0.26098961  0.08015898  0.89215954  1
  O2-  O381  1  0.25660730  0.58159446  0.23834708  1
  O2-  O382  1  0.25866420  0.58004658  0.54936103  1
  O2-  O383  1  0.25612246  0.57994519  0.89301106  1
  O2-  O384  1  0.57307201  0.07900958  0.23382136  1
  O2-  O385  1  0.58621943  0.08572677  0.56419829  1
  O2-  O386  1  0.58333067  0.08428799  0.89731042  1
  O2-  O387  1  0.57576514  0.58162348  0.22929055  1
  O2-  O388  1  0.57635356  0.57766419  0.55475479  1
  O2-  O389  1  0.56979838  0.57897963  0.89237421  1
  O2-  O390  1  0.91036089  0.08280804  0.24006150  1
  O2-  O391  1  0.90982746  0.07595223  0.57805801  1
  O2-  O392  1  0.90774702  0.08652895  0.89757160  1
  O2-  O393  1  0.91141567  0.58414767  0.23535958  1
  O2-  O394  1  0.91110430  0.58030419  0.55637607  1
  O2-  O395  1  0.91528938  0.58046684  0.89926722  1
  O2-  O396  1  0.09664316  0.41960481  0.10445518  1
  O2-  O397  1  0.09786642  0.41550807  0.43621627  1
  O2-  O398  1  0.07556188  0.41676007  0.76369053  1
  O2-  O399  1  0.08527417  0.92097659  0.11054047  1
  O2-  O400  1  0.08356916  0.92142408  0.43747625  1
  O2-  O401  1  0.07970421  0.92225254  0.76979753  1
  O2-  O402  1  0.41805020  0.42163830  0.11115362  1
  O2-  O403  1  0.39695215  0.41716881  0.41650737  1
  O2-  O404  1  0.41422960  0.41065215  0.75831534  1
  O2-  O405  1  0.41466762  0.91551281  0.09590289  1
  O2-  O406  1  0.41384217  0.91692520  0.44137032  1
  O2-  O407  1  0.42930299  0.91790281  0.75667255  1
  O2-  O408  1  0.73175922  0.42060145  0.10568030  1
  O2-  O409  1  0.76284252  0.41758681  0.43322264  1
  O2-  O410  1  0.75983449  0.42096215  0.76917725  1
  O2-  O411  1  0.73970884  0.91915275  0.10691309  1
  O2-  O412  1  0.75731915  0.91707400  0.43196616  1
  O2-  O413  1  0.74992723  0.91605456  0.76233214  1
  O2-  O414  1  0.26315958  0.42028173  0.23153290  1
  O2-  O415  1  0.23946651  0.42080956  0.55721617  1
  O2-  O416  1  0.24236344  0.41700498  0.91441503  1
  O2-  O417  1  0.23627465  0.92388058  0.22001729  1
  O2-  O418  1  0.23444683  0.92192344  0.55614521  1
  O2-  O419  1  0.23382715  0.91598450  0.90893335  1
  O2-  O420  1  0.56854788  0.42038138  0.21835432  1
  O2-  O421  1  0.59803455  0.41590290  0.56827699  1
  O2-  O422  1  0.59355508  0.41722208  0.91732387  1
  O2-  O423  1  0.59326072  0.92230058  0.22429786  1
  O2-  O424  1  0.58163553  0.91802541  0.56839912  1
  O2-  O425  1  0.59248105  0.91462964  0.90346725  1
  O2-  O426  1  0.91203447  0.41538700  0.25026341  1
  O2-  O427  1  0.91534178  0.41416925  0.56664362  1
  O2-  O428  1  0.91344541  0.41649238  0.90182496  1
  O2-  O429  1  0.92903305  0.91797058  0.22155597  1
  O2-  O430  1  0.91143208  0.91900496  0.56566961  1
  O2-  O431  1  0.91862808  0.91784920  0.89853901  1
  O2-  O432  1  0.00071061  -0.00692555  -0.00130059  1
  O2-  O433  1  0.00204302  -0.01473961  0.32186672  1
  O2-  O434  1  -0.00001329  -0.00758079  0.66940677  1
  O2-  O435  1  0.00003703  0.50241185  -0.00166187  1
  O2-  O436  1  -0.01174916  0.50748646  0.34626936  1
  O2-  O437  1  -0.00158679  0.50178921  0.67382761  1
  O2-  O438  1  0.32951654  -0.00388839  0.00253241  1
  O2-  O439  1  0.33285488  0.00569944  0.33527656  1
  O2-  O440  1  0.33647887  0.00693790  0.66380347  1
  O2-  O441  1  0.33916294  0.50994826  -0.01185601  1
  O2-  O442  1  0.33146342  0.50995223  0.33748111  1
  O2-  O443  1  0.33752818  0.51357740  0.66059173  1
  O2-  O444  1  0.66681632  -0.00317017  0.00378900  1
  O2-  O445  1  0.66483261  -0.00097044  0.33102109  1
  O2-  O446  1  0.66495897  0.00400846  0.66721283  1
  O2-  O447  1  0.65644428  0.49775699  0.00977308  1
  O2-  O448  1  0.67893454  0.51136615  0.32623066  1
  O2-  O449  1  0.66808331  0.51107077  0.65891281  1
  O2-  O450  1  0.16402549  -0.00925606  -0.00192419  1
  O2-  O451  1  0.16806851  -0.00666844  0.33151129  1
  O2-  O452  1  0.15870926  -0.00174325  0.66001143  1
  O2-  O453  1  0.15799470  0.50573020  -0.01464840  1
  O2-  O454  1  0.17824589  0.50350303  0.34518780  1
  O2-  O455  1  0.16772697  0.50612252  0.66842661  1
  O2-  O456  1  0.50039738  0.00304967  0.00243418  1
  O2-  O457  1  0.50068863  0.00422568  0.33318588  1
  O2-  O458  1  0.50301400  0.00772176  0.67292149  1
  O2-  O459  1  0.50323849  0.50693270  0.00616627  1
  O2-  O460  1  0.48740580  0.50702122  0.31881043  1
  O2-  O461  1  0.49778148  0.51368054  0.66114008  1
  O2-  O462  1  0.82981605  -0.00382220  -0.00218238  1
  O2-  O463  1  0.83354418  -0.00427876  0.32145538  1
  O2-  O464  1  0.81612056  -0.00098381  0.64054286  1
  O2-  O465  1  0.82995575  0.50445669  0.00469058  1
  O2-  O466  1  0.82872637  0.50456050  0.33441618  1
  O2-  O467  1  0.83171284  0.50504151  0.66670051  1
  O2-  O468  1  0.92204613  0.75056314  0.91913658  1
  O2-  O469  1  0.75333818  0.74956880  0.73861654  1
  O2-  O470  1  0.42022870  0.74849545  0.07717134  1
  O2-  O471  1  0.41786843  0.25315840  0.41080408  1
  O2-  O472  1  0.58647388  0.24962517  0.59408553  1
  O2-  O473  1  0.58063144  0.74840725  0.25567908  1
  O2-  O474  1  0.08113274  0.74816274  0.41257834  1
  O2-  O475  1  0.08468813  0.25165305  0.40972294  1
  O2-  O476  1  0.42234776  0.24720807  0.75071519  1
  O2-  O477  1  0.08383607  0.25032690  0.75103296  1
  O2-  O478  1  0.91972239  0.25302098  0.25302551  1
  O2-  O479  1  0.24677311  0.24963383  0.91832147  1
  O2-  O480  1  0.74735708  0.25136848  0.74653968  1
  O2-  O481  1  0.24979982  0.75124520  0.92391700  1
  O2-  O482  1  0.08197517  0.25274759  0.07482958  1
  O2-  O483  1  0.08280645  0.75084533  0.07272654  1
  O2-  O484  1  0.58451709  0.25130859  0.91480737  1
  O2-  O485  1  0.41806185  0.75285202  0.74305516  1
  O2-  O486  1  0.74864824  0.74837590  0.41489357  1
  O2-  O487  1  0.91805184  0.25033902  0.91242487  1
  O2-  O488  1  0.58540741  0.74986006  0.58829940  1
  O2-  O489  1  0.07836815  0.75244045  0.74840235  1
  O2-  O490  1  0.41974732  0.75047069  0.41099412  1
  O2-  O491  1  0.92010252  0.75435210  0.58384037  1
  O2-  O492  1  0.57960663  0.25265137  0.25634069  1
