# generated using pymatgen
data_Ca108Mn108O277
_symmetry_space_group_name_H-M   'P 1'
_cell_length_a   16.02458408
_cell_length_b   22.30268860
_cell_length_c   16.38738560
_cell_angle_alpha   90.00478330
_cell_angle_beta   89.99900933
_cell_angle_gamma   89.99861658
_symmetry_Int_Tables_number   1
_chemical_formula_structural   Ca108Mn108O277
_chemical_formula_sum   'Ca108 Mn108 O277'
_cell_volume   5856.70916251
_cell_formula_units_Z   1
loop_
 _symmetry_equiv_pos_site_id
 _symmetry_equiv_pos_as_xyz
  1  'x, y, z'
loop_
 _atom_type_symbol
 _atom_type_oxidation_number
  Ca2+  2.0
  Mn3.34+  3.34
  O2-  -2.0
loop_
 _atom_site_type_symbol
 _atom_site_label
 _atom_site_symmetry_multiplicity
 _atom_site_fract_x
 _atom_site_fract_y
 _atom_site_fract_z
 _atom_site_occupancy
  Ca2+  Ca0  1  0.09459822  0.25006860  0.22843478  1
  Ca2+  Ca1  1  0.07907171  0.24692044  0.59532628  1
  Ca2+  Ca2  1  0.08214853  0.24407852  0.92015361  1
  Ca2+  Ca3  1  0.06501346  0.73779909  0.23776813  1
  Ca2+  Ca4  1  0.08603250  0.75829816  0.58989899  1
  Ca2+  Ca5  1  0.08125621  0.74908363  0.92933709  1
  Ca2+  Ca6  1  0.40380315  0.25473487  0.26405176  1
  Ca2+  Ca7  1  0.43188500  0.23044648  0.57783210  1
  Ca2+  Ca8  1  0.40045281  0.26074635  0.90948409  1
  Ca2+  Ca9  1  0.41856584  0.75797746  0.24906067  1
  Ca2+  Ca10  1  0.41735126  0.76110241  0.58246436  1
  Ca2+  Ca11  1  0.41277345  0.75541665  0.91758655  1
  Ca2+  Ca12  1  0.75789391  0.26219513  0.24164835  1
  Ca2+  Ca13  1  0.73438352  0.24278399  0.59207015  1
  Ca2+  Ca14  1  0.77043511  0.25811259  0.90639053  1
  Ca2+  Ca15  1  0.76709841  0.73718973  0.25217510  1
  Ca2+  Ca16  1  0.75189101  0.74107496  0.55772916  1
  Ca2+  Ca17  1  0.75245364  0.74315162  0.92254178  1
  Ca2+  Ca18  1  0.22664035  0.25244315  0.07125655  1
  Ca2+  Ca19  1  0.26181570  0.24663423  0.41128079  1
  Ca2+  Ca20  1  0.23346897  0.24504685  0.75695062  1
  Ca2+  Ca21  1  0.22044948  0.72829055  0.07219050  1
  Ca2+  Ca22  1  0.24079482  0.75248496  0.41635625  1
  Ca2+  Ca23  1  0.23139565  0.75139920  0.75259426  1
  Ca2+  Ca24  1  0.58170916  0.27096113  0.08733882  1
  Ca2+  Ca25  1  0.56642813  0.25499340  0.43241432  1
  Ca2+  Ca26  1  0.57482515  0.25073018  0.73035025  1
  Ca2+  Ca27  1  0.59749149  0.75590521  0.08518445  1
  Ca2+  Ca28  1  0.61791074  0.73537844  0.40275459  1
  Ca2+  Ca29  1  0.59255222  0.75295992  0.75172647  1
  Ca2+  Ca30  1  0.93781210  0.26154646  0.07189472  1
  Ca2+  Ca31  1  0.92522557  0.25186320  0.42572243  1
  Ca2+  Ca32  1  0.93514565  0.24554201  0.74976989  1
  Ca2+  Ca33  1  0.92570731  0.73932445  0.08900358  1
  Ca2+  Ca34  1  0.89962403  0.73845912  0.39814944  1
  Ca2+  Ca35  1  0.92621944  0.74614498  0.75967124  1
  Ca2+  Ca36  1  0.42034011  0.58609924  0.24314447  1
  Ca2+  Ca37  1  0.40464062  0.09010757  0.27995275  1
  Ca2+  Ca38  1  0.77288424  0.57952962  0.92128099  1
  Ca2+  Ca39  1  0.91352571  0.11124734  0.74908909  1
  Ca2+  Ca40  1  0.93278695  0.59700922  0.09693289  1
  Ca2+  Ca41  1  0.56269724  0.11328726  0.44038241  1
  Ca2+  Ca42  1  0.25253270  0.58779500  0.40911095  1
  Ca2+  Ca43  1  0.59317587  0.11032910  0.73127161  1
  Ca2+  Ca44  1  0.22322758  0.57908298  0.74887132  1
  Ca2+  Ca45  1  0.40797935  0.58852659  0.24139623  1
  Ca2+  Ca46  1  0.59424098  0.59158270  0.75315805  1
  Ca2+  Ca47  1  0.22231607  0.09741428  0.06202939  1
  Ca2+  Ca48  1  0.76254097  0.57927414  0.92001835  1
  Ca2+  Ca49  1  0.41188691  0.57847004  0.93155441  1
  Ca2+  Ca50  1  0.57808919  0.08778005  0.08560199  1
  Ca2+  Ca51  1  0.58063865  0.57038087  0.06201735  1
  Ca2+  Ca52  1  0.75060290  0.11028026  0.59024373  1
  Ca2+  Ca53  1  0.08946030  0.10368236  0.88367731  1
  Ca2+  Ca54  1  0.08936402  0.56611232  0.60745679  1
  Ca2+  Ca55  1  0.41201022  0.09294017  0.27351362  1
  Ca2+  Ca56  1  0.75012113  0.08325049  0.27196725  1
  Ca2+  Ca57  1  0.08847169  0.59857133  0.93110548  1
  Ca2+  Ca58  1  0.57309694  0.11442277  0.43776481  1
  Ca2+  Ca59  1  0.07780639  0.59821050  0.93049331  1
  Ca2+  Ca60  1  0.60545304  0.10988877  0.73166019  1
  Ca2+  Ca61  1  0.23366455  0.57866680  0.74917016  1
  Ca2+  Ca62  1  0.73722942  0.08352112  0.27170472  1
  Ca2+  Ca63  1  0.07711722  0.08153280  0.62053470  1
  Ca2+  Ca64  1  0.95277241  0.10772454  0.07373908  1
  Ca2+  Ca65  1  0.24288083  0.09139691  0.41227542  1
  Ca2+  Ca66  1  0.77130978  0.59933023  0.25202002  1
  Ca2+  Ca67  1  0.39526743  0.58061954  0.58728380  1
  Ca2+  Ca68  1  0.22757293  0.09126005  0.06511700  1
  Ca2+  Ca69  1  0.42231903  0.57907283  0.93067647  1
  Ca2+  Ca70  1  0.89973273  0.59641825  0.39206943  1
  Ca2+  Ca71  1  0.40818676  0.58032939  0.58753957  1
  Ca2+  Ca72  1  0.40549094  0.40206758  0.57812886  1
  Ca2+  Ca73  1  0.76336821  0.90771647  0.58700680  1
  Ca2+  Ca74  1  0.08724008  0.91880291  0.59962142  1
  Ca2+  Ca75  1  0.91883784  0.89301611  0.08871260  1
  Ca2+  Ca76  1  0.08752321  0.90332515  0.25447151  1
  Ca2+  Ca77  1  0.92840340  0.40117811  0.40688390  1
  Ca2+  Ca78  1  0.74590603  0.89515737  0.91117823  1
  Ca2+  Ca79  1  0.58002513  0.39823119  0.40860180  1
  Ca2+  Ca80  1  0.57652155  0.90539157  0.40116685  1
  Ca2+  Ca81  1  0.25727703  0.40346207  0.08411069  1
  Ca2+  Ca82  1  0.22313371  0.92775750  0.76345323  1
  Ca2+  Ca83  1  0.07874850  0.41154449  0.91544038  1
  Ca2+  Ca84  1  0.24422433  0.40206423  0.42373947  1
  Ca2+  Ca85  1  0.57391059  0.90126833  0.75069857  1
  Ca2+  Ca86  1  0.92981449  0.91119681  0.41375772  1
  Ca2+  Ca87  1  0.74677681  0.89989370  0.25004272  1
  Ca2+  Ca88  1  0.09833497  0.41765047  0.59378798  1
  Ca2+  Ca89  1  0.44082103  0.42274245  0.94891701  1
  Ca2+  Ca90  1  0.92858787  0.41597511  0.75483175  1
  Ca2+  Ca91  1  0.94203801  0.91412644  0.74357549  1
  Ca2+  Ca92  1  0.56386534  0.90670140  0.40046855  1
  Ca2+  Ca93  1  0.57977211  0.40271727  0.76173899  1
  Ca2+  Ca94  1  0.93857812  0.41377249  0.75373126  1
  Ca2+  Ca95  1  0.22746638  0.91586715  0.41592330  1
  Ca2+  Ca96  1  0.75775890  0.39529098  0.58253482  1
  Ca2+  Ca97  1  0.75844676  0.89611882  0.90995781  1
  Ca2+  Ca98  1  0.40401225  0.90721581  0.59124145  1
  Ca2+  Ca99  1  0.42288730  0.40562357  0.24197380  1
  Ca2+  Ca100  1  0.93712561  0.91846185  0.41066730  1
  Ca2+  Ca101  1  0.59226580  0.40353716  0.76301337  1
  Ca2+  Ca102  1  0.22884945  0.41698083  0.74162263  1
  Ca2+  Ca103  1  0.23896487  0.91269903  0.41301655  1
  Ca2+  Ca104  1  0.75539057  0.40500670  0.24349876  1
  Ca2+  Ca105  1  0.40330262  0.90672475  0.93066407  1
  Ca2+  Ca106  1  0.25187015  0.90671566  0.07150760  1
  Ca2+  Ca107  1  0.75180225  0.90675202  0.58815687  1
  Mn3.34+  Mn108  1  0.08293771  0.34016275  0.08428261  1
  Mn3.34+  Mn109  1  0.08653030  0.33288578  0.41757773  1
  Mn3.34+  Mn110  1  0.08555098  0.33284385  0.75225346  1
  Mn3.34+  Mn111  1  0.08577197  0.82651711  0.08438545  1
  Mn3.34+  Mn112  1  0.08317427  0.83322713  0.42093874  1
  Mn3.34+  Mn113  1  0.08486727  0.83555674  0.75650138  1
  Mn3.34+  Mn114  1  0.41582026  0.33757401  0.08544891  1
  Mn3.34+  Mn115  1  0.41254011  0.33291322  0.41705186  1
  Mn3.34+  Mn116  1  0.41142666  0.33313541  0.75132017  1
  Mn3.34+  Mn117  1  0.41409465  0.83138136  0.08529078  1
  Mn3.34+  Mn118  1  0.41150493  0.82890913  0.41443320  1
  Mn3.34+  Mn119  1  0.40954984  0.83818250  0.75724034  1
  Mn3.34+  Mn120  1  0.75563334  0.34096952  0.07753335  1
  Mn3.34+  Mn121  1  0.74947217  0.32810734  0.41816891  1
  Mn3.34+  Mn122  1  0.75459014  0.33179260  0.75363822  1
  Mn3.34+  Mn123  1  0.74972955  0.82779220  0.08632829  1
  Mn3.34+  Mn124  1  0.75136618  0.83404544  0.41858357  1
  Mn3.34+  Mn125  1  0.75387128  0.82768735  0.74868717  1
  Mn3.34+  Mn126  1  0.24718755  0.33361725  0.24876835  1
  Mn3.34+  Mn127  1  0.24872303  0.33607950  0.58390860  1
  Mn3.34+  Mn128  1  0.24949094  0.33575797  0.91452814  1
  Mn3.34+  Mn129  1  0.25259857  0.83098561  0.24140887  1
  Mn3.34+  Mn130  1  0.24884568  0.83211213  0.58797540  1
  Mn3.34+  Mn131  1  0.24608304  0.83610829  0.91434015  1
  Mn3.34+  Mn132  1  0.58337741  0.33243429  0.24899399  1
  Mn3.34+  Mn133  1  0.58261860  0.33203324  0.58050567  1
  Mn3.34+  Mn134  1  0.58875647  0.33858358  0.92040059  1
  Mn3.34+  Mn135  1  0.57947066  0.82835936  0.24137683  1
  Mn3.34+  Mn136  1  0.57811364  0.82951396  0.58208326  1
  Mn3.34+  Mn137  1  0.57808158  0.82734958  0.91929832  1
  Mn3.34+  Mn138  1  0.92261122  0.33530603  0.24551269  1
  Mn3.34+  Mn139  1  0.91973629  0.33304657  0.57987749  1
  Mn3.34+  Mn140  1  0.91794919  0.34125671  0.91876004  1
  Mn3.34+  Mn141  1  0.91826328  0.83237023  0.24848297  1
  Mn3.34+  Mn142  1  0.92209575  0.83257401  0.58548966  1
  Mn3.34+  Mn143  1  0.92438074  0.82889881  0.91732582  1
  Mn3.34+  Mn144  1  0.57846685  0.17395413  0.91292293  1
  Mn3.34+  Mn145  1  0.25598226  0.16283395  0.58325972  1
  Mn3.34+  Mn146  1  0.24105724  0.16606222  0.24901337  1
  Mn3.34+  Mn147  1  0.08078012  0.66465221  0.75482729  1
  Mn3.34+  Mn148  1  0.09069135  0.65862483  0.41110334  1
  Mn3.34+  Mn149  1  0.40808638  0.67095384  0.08415973  1
  Mn3.34+  Mn150  1  0.58786431  0.17946162  0.91485778  1
  Mn3.34+  Mn151  1  0.42057084  0.66971687  0.75475715  1
  Mn3.34+  Mn152  1  0.42715503  0.66953944  0.41830883  1
  Mn3.34+  Mn153  1  0.41808104  0.67599199  0.08328203  1
  Mn3.34+  Mn154  1  0.91051545  0.65675769  0.58704975  1
  Mn3.34+  Mn155  1  0.92097033  0.66148033  0.58747956  1
  Mn3.34+  Mn156  1  0.24598803  0.16712233  0.58595905  1
  Mn3.34+  Mn157  1  0.75992968  0.17071599  0.08020242  1
  Mn3.34+  Mn158  1  0.41164212  0.67559434  0.75218891  1
  Mn3.34+  Mn159  1  0.93095001  0.16216946  0.25602469  1
  Mn3.34+  Mn160  1  0.58743624  0.66603137  0.91346328  1
  Mn3.34+  Mn161  1  0.91347278  0.66477381  0.91271350  1
  Mn3.34+  Mn162  1  0.58675748  0.17322445  0.24615973  1
  Mn3.34+  Mn163  1  0.91984876  0.17278234  0.90864954  1
  Mn3.34+  Mn164  1  0.75152098  0.66409216  0.74983282  1
  Mn3.34+  Mn165  1  0.58951799  0.66935121  0.58190382  1
  Mn3.34+  Mn166  1  0.92063866  0.16741169  0.25605790  1
  Mn3.34+  Mn167  1  0.08210668  0.15315691  0.42455706  1
  Mn3.34+  Mn168  1  0.41071883  0.16938482  0.08486768  1
  Mn3.34+  Mn169  1  0.59086687  0.66483348  0.24391948  1
  Mn3.34+  Mn170  1  0.41250154  0.16623953  0.75238930  1
  Mn3.34+  Mn171  1  0.07836352  0.66630881  0.41238440  1
  Mn3.34+  Mn172  1  0.74848329  0.16661233  0.07977036  1
  Mn3.34+  Mn173  1  0.24564619  0.66645411  0.57982989  1
  Mn3.34+  Mn174  1  0.74931944  0.66119971  0.08524223  1
  Mn3.34+  Mn175  1  0.75506312  0.17419564  0.41950397  1
  Mn3.34+  Mn176  1  0.42170053  0.16472170  0.08470256  1
  Mn3.34+  Mn177  1  0.91854607  0.17125346  0.58026986  1
  Mn3.34+  Mn178  1  0.41848905  0.67578555  0.41630090  1
  Mn3.34+  Mn179  1  0.24842773  0.16407176  0.90610337  1
  Mn3.34+  Mn180  1  0.58693700  0.50491189  0.57677619  1
  Mn3.34+  Mn181  1  0.91685626  0.00601379  0.90706141  1
  Mn3.34+  Mn182  1  0.59918172  0.50162856  0.57730053  1
  Mn3.34+  Mn183  1  0.25447230  0.00407554  0.59870711  1
  Mn3.34+  Mn184  1  0.91496967  0.00912673  0.58781016  1
  Mn3.34+  Mn185  1  0.25268257  0.49659414  0.92460360  1
  Mn3.34+  Mn186  1  0.75342221  0.49840623  0.74768804  1
  Mn3.34+  Mn187  1  0.07729335  0.49778006  0.06613655  1
  Mn3.34+  Mn188  1  0.42465528  0.50040815  0.40486369  1
  Mn3.34+  Mn189  1  0.58261272  0.00055549  0.91264259  1
  Mn3.34+  Mn190  1  0.92653753  0.49739630  0.25750338  1
  Mn3.34+  Mn191  1  0.56951071  0.00727207  0.91284611  1
  Mn3.34+  Mn192  1  0.74136089  -0.00005787  0.08635713  1
  Mn3.34+  Mn193  1  0.91551959  0.49538268  0.58370425  1
  Mn3.34+  Mn194  1  0.08511074  -0.00751871  0.09094507  1
  Mn3.34+  Mn195  1  0.75632966  -0.00422208  0.08315992  1
  Mn3.34+  Mn196  1  0.40972267  0.00550804  0.75638362  1
  Mn3.34+  Mn197  1  0.23156630  0.50798943  0.24467555  1
  Mn3.34+  Mn198  1  0.07140168  -0.00134966  0.09392859  1
  Mn3.34+  Mn199  1  0.74036089  0.50696362  0.42079043  1
  Mn3.34+  Mn200  1  0.75069319  0.00248482  0.41856481  1
  Mn3.34+  Mn201  1  0.75239354  0.00068372  0.74975698  1
  Mn3.34+  Mn202  1  0.92976953  -0.00062867  0.90726546  1
  Mn3.34+  Mn203  1  0.75046211  0.49846989  0.06824023  1
  Mn3.34+  Mn204  1  0.07757706  0.49900667  0.41352640  1
  Mn3.34+  Mn205  1  0.24173484  0.00062815  0.25321602  1
  Mn3.34+  Mn206  1  0.56844414  -0.00219840  0.58379350  1
  Mn3.34+  Mn207  1  0.41385887  -0.00199738  0.08822569  1
  Mn3.34+  Mn208  1  0.22284357  0.50117746  0.24694405  1
  Mn3.34+  Mn209  1  0.92746755  0.00036258  0.25327944  1
  Mn3.34+  Mn210  1  0.58703103  0.50089838  0.24559229  1
  Mn3.34+  Mn211  1  0.41666576  0.00269427  0.42434628  1
  Mn3.34+  Mn212  1  0.41283170  0.49713466  0.75235394  1
  Mn3.34+  Mn213  1  0.58035306  0.00118487  0.58542545  1
  Mn3.34+  Mn214  1  0.75188697  0.49923923  0.41984575  1
  Mn3.34+  Mn215  1  0.57755044  -0.00367921  0.24549741  1
  O2-  O216  1  0.00611291  0.16201294  -0.01603709  1
  O2-  O217  1  0.00669529  0.17894509  0.34014632  1
  O2-  O218  1  -0.00331386  0.15912247  0.65728287  1
  O2-  O219  1  -0.01092794  0.65389858  -0.00479135  1
  O2-  O220  1  -0.00136425  0.65814182  0.33642567  1
  O2-  O221  1  -0.00272883  0.64522888  0.66878531  1
  O2-  O222  1  0.33063081  0.15120719  0.00447368  1
  O2-  O223  1  0.32280101  0.15332238  0.33189830  1
  O2-  O224  1  0.33280037  0.15231659  0.66644577  1
  O2-  O225  1  0.33963212  0.67469772  -0.00728276  1
  O2-  O226  1  0.34100206  0.66688854  0.33165142  1
  O2-  O227  1  0.33447857  0.65488640  0.66672832  1
  O2-  O228  1  0.66224449  0.15376936  -0.00068271  1
  O2-  O229  1  0.67286560  0.16785688  0.32739790  1
  O2-  O230  1  0.66888340  0.17376352  0.66609950  1
  O2-  O231  1  0.67073423  0.64245799  -0.01009232  1
  O2-  O232  1  0.67237050  0.65914702  0.31471500  1
  O2-  O233  1  0.66097222  0.66452145  0.67383715  1
  O2-  O234  1  0.17144833  0.16816462  -0.00551943  1
  O2-  O235  1  0.16430315  0.16464792  0.33846873  1
  O2-  O236  1  0.16419571  0.15800904  0.65798980  1
  O2-  O237  1  0.15793537  0.67035416  -0.02240973  1
  O2-  O238  1  0.17233559  0.66779356  0.33511674  1
  O2-  O239  1  0.16088742  0.64603179  0.66680126  1
  O2-  O240  1  0.50506419  0.15562941  0.00038130  1
  O2-  O241  1  0.50489190  0.15864034  0.32336690  1
  O2-  O242  1  0.49886566  0.16448323  0.67755910  1
  O2-  O243  1  0.49777504  0.65746115  0.00000201  1
  O2-  O244  1  0.50219071  0.65503508  0.33057038  1
  O2-  O245  1  0.49454693  0.65160984  0.66707021  1
  O2-  O246  1  0.84174630  0.15165009  0.00154529  1
  O2-  O247  1  0.83785633  0.15401769  0.33566416  1
  O2-  O248  1  0.83597680  0.16912688  0.65755881  1
  O2-  O249  1  0.82757465  0.65287681  -0.00398858  1
  O2-  O250  1  0.83357792  0.66679557  0.32839779  1
  O2-  O251  1  0.82850422  0.68263819  0.66729269  1
  O2-  O252  1  0.00478952  0.34642496  -0.00418655  1
  O2-  O253  1  -0.00234416  0.32568409  0.33958347  1
  O2-  O254  1  0.00067682  0.35258426  0.66409680  1
  O2-  O255  1  0.00088068  0.84129758  0.00348243  1
  O2-  O256  1  0.00158893  0.84837887  0.33503605  1
  O2-  O257  1  0.00765751  0.84576927  0.66238103  1
  O2-  O258  1  0.33709102  0.34870598  -0.00479568  1
  O2-  O259  1  0.33426933  0.35034743  0.33150283  1
  O2-  O260  1  0.32945277  0.35504231  0.67168360  1
  O2-  O261  1  0.33121992  0.82339042  -0.00489708  1
  O2-  O262  1  0.32734166  0.81424018  0.33418350  1
  O2-  O263  1  0.33712348  0.83374745  0.66557881  1
  O2-  O264  1  0.66806669  0.31530166  -0.00511543  1
  O2-  O265  1  0.66331714  0.31468691  0.33635670  1
  O2-  O266  1  0.66839556  0.33576377  0.66754584  1
  O2-  O267  1  0.66862717  0.84586410  -0.00197848  1
  O2-  O268  1  0.66566709  0.84321718  0.33989032  1
  O2-  O269  1  0.66988677  0.84620767  0.66584851  1
  O2-  O270  1  0.16997767  0.34883134  0.00033608  1
  O2-  O271  1  0.17111874  0.32905857  0.33835686  1
  O2-  O272  1  0.16488093  0.34595760  0.66584533  1
  O2-  O273  1  0.17279134  0.82777907  0.00507138  1
  O2-  O274  1  0.17248223  0.84247362  0.33774301  1
  O2-  O275  1  0.17059026  0.84841137  0.67269718  1
  O2-  O276  1  0.50298493  0.33189056  -0.00218294  1
  O2-  O277  1  0.50020135  0.33396633  0.33392140  1
  O2-  O278  1  0.50440891  0.35329536  0.66644721  1
  O2-  O279  1  0.49003739  0.82972256  -0.00517871  1
  O2-  O280  1  0.49628466  0.83294303  0.33315199  1
  O2-  O281  1  0.49402235  0.84174016  0.66774935  1
  O2-  O282  1  0.83375634  0.33894802  -0.00462508  1
  O2-  O283  1  0.82868120  0.33680036  0.33504886  1
  O2-  O284  1  0.83863135  0.34421101  0.66956701  1
  O2-  O285  1  0.83305830  0.84581268  -0.00229343  1
  O2-  O286  1  0.83853051  0.85475943  0.34042954  1
  O2-  O287  1  0.83952004  0.84809830  0.66998747  1
  O2-  O288  1  -0.00296179  0.17757490  0.16653363  1
  O2-  O289  1  0.00657324  0.18452210  0.49783449  1
  O2-  O290  1  0.00005604  0.17774503  0.83159596  1
  O2-  O291  1  0.00389546  0.67321657  0.15749285  1
  O2-  O292  1  0.00583325  0.67325426  0.50003098  1
  O2-  O293  1  0.00462516  0.67888845  0.84070206  1
  O2-  O294  1  0.34547031  0.16962028  0.18128214  1
  O2-  O295  1  0.32689844  0.17335063  0.50121915  1
  O2-  O296  1  0.33408582  0.18226977  0.83281099  1
  O2-  O297  1  0.33232103  0.69095287  0.16355740  1
  O2-  O298  1  0.33852500  0.69308767  0.49838545  1
  O2-  O299  1  0.33111782  0.69103246  0.82820220  1
  O2-  O300  1  0.66582407  0.18789486  0.16296338  1
  O2-  O301  1  0.66763324  0.18519036  0.48613544  1
  O2-  O302  1  0.66049891  0.19347674  0.82893481  1
  O2-  O303  1  0.65974796  0.67788471  0.15495342  1
  O2-  O304  1  0.66292529  0.67969227  0.50543389  1
  O2-  O305  1  0.66637648  0.68374128  0.82912556  1
  O2-  O306  1  0.18138562  0.17498227  0.15680185  1
  O2-  O307  1  0.17078161  0.18588706  0.49841924  1
  O2-  O308  1  0.16822730  0.17807568  0.83589735  1
  O2-  O309  1  0.15001730  0.67739875  0.16815610  1
  O2-  O310  1  0.16891383  0.67898219  0.49052232  1
  O2-  O311  1  0.16900612  0.67398232  0.82115368  1
  O2-  O312  1  0.50548047  0.18554396  0.16317850  1
  O2-  O313  1  0.50391845  0.18116888  0.49261589  1
  O2-  O314  1  0.49660608  0.19205747  0.83555299  1
  O2-  O315  1  0.49184243  0.68429731  0.17075729  1
  O2-  O316  1  0.49822859  0.68621970  0.50545769  1
  O2-  O317  1  0.50122142  0.69343158  0.83238669  1
  O2-  O318  1  0.82467433  0.16674502  0.18228961  1
  O2-  O319  1  0.83067470  0.19069640  0.50079615  1
  O2-  O320  1  0.84103258  0.18740164  0.82909031  1
  O2-  O321  1  0.83085327  0.67213004  0.15773176  1
  O2-  O322  1  0.84380717  0.67460801  0.50031551  1
  O2-  O323  1  0.82810443  0.68507389  0.83324316  1
  O2-  O324  1  0.00293170  0.32357082  0.16803518  1
  O2-  O325  1  0.00133427  0.32024869  0.49921476  1
  O2-  O326  1  -0.00201125  0.32542536  0.82802898  1
  O2-  O327  1  0.00163939  0.82631141  0.17000002  1
  O2-  O328  1  -0.00499945  0.83169929  0.49504019  1
  O2-  O329  1  -0.00649587  0.82232472  0.82614625  1
  O2-  O330  1  0.33356803  0.32410736  0.16785618  1
  O2-  O331  1  0.33095169  0.32796246  0.49946955  1
  O2-  O332  1  0.33046638  0.32764215  0.83077298  1
  O2-  O333  1  0.33109642  0.81008062  0.16144814  1
  O2-  O334  1  0.33220838  0.82171236  0.49975446  1
  O2-  O335  1  0.32806997  0.81124869  0.83362011  1
  O2-  O336  1  0.66800741  0.32187173  0.17161015  1
  O2-  O337  1  0.66758403  0.31772270  0.50051555  1
  O2-  O338  1  0.66387525  0.31665187  0.82798091  1
  O2-  O339  1  0.67424304  0.82034907  0.17464500  1
  O2-  O340  1  0.66833487  0.82769129  0.50261277  1
  O2-  O341  1  0.66793494  0.82149096  0.83223515  1
  O2-  O342  1  0.17235519  0.32410078  0.16192909  1
  O2-  O343  1  0.16899536  0.31682980  0.49993663  1
  O2-  O344  1  0.16545288  0.32457894  0.83509849  1
  O2-  O345  1  0.16282575  0.81499681  0.17348309  1
  O2-  O346  1  0.16903960  0.82395383  0.49908525  1
  O2-  O347  1  0.16359206  0.81598250  0.83833986  1
  O2-  O348  1  0.49427481  0.31815352  0.17441575  1
  O2-  O349  1  0.49817305  0.33065262  0.50105704  1
  O2-  O350  1  0.50533490  0.31747071  0.82791830  1
  O2-  O351  1  0.49996452  0.81174016  0.15918584  1
  O2-  O352  1  0.49953801  0.81642014  0.49050798  1
  O2-  O353  1  0.50023336  0.81698490  0.82830959  1
  O2-  O354  1  0.83051818  0.33402126  0.17118694  1
  O2-  O355  1  0.83233175  0.31892108  0.50209583  1
  O2-  O356  1  0.84274972  0.32452694  0.82566727  1
  O2-  O357  1  0.83570116  0.82110361  0.16695437  1
  O2-  O358  1  0.82847821  0.83185625  0.50872473  1
  O2-  O359  1  0.82728801  0.81728130  0.83915455  1
  O2-  O360  1  0.08594251  0.07870230  0.10768693  1
  O2-  O361  1  0.09898829  0.08029837  0.45904902  1
  O2-  O362  1  0.04222088  0.06356238  0.76906919  1
  O2-  O363  1  0.07722778  0.56305945  0.11625739  1
  O2-  O364  1  0.09310351  0.57893242  0.45194130  1
  O2-  O365  1  0.09303112  0.58063197  0.79114217  1
  O2-  O366  1  0.43963371  0.07768308  0.13083198  1
  O2-  O367  1  0.43041669  0.08322525  0.42220288  1
  O2-  O368  1  0.44628544  0.08338958  0.77773387  1
  O2-  O369  1  0.41905621  0.58378365  0.10757624  1
  O2-  O370  1  0.40535658  0.58225371  0.45181196  1
  O2-  O371  1  0.42906613  0.58233941  0.79092105  1
  O2-  O372  1  0.74078618  0.07925395  0.12709779  1
  O2-  O373  1  0.72870097  0.08524290  0.43071344  1
  O2-  O374  1  0.73399295  0.07971040  0.75107849  1
  O2-  O375  1  0.73993557  0.57249594  0.11758442  1
  O2-  O376  1  0.76011214  0.58351821  0.43281980  1
  O2-  O377  1  0.73789428  0.57736700  0.78563149  1
  O2-  O378  1  0.25948308  0.07849540  0.21286179  1
  O2-  O379  1  0.24274688  0.08030486  0.55229352  1
  O2-  O380  1  0.23352550  0.08437436  0.91581807  1
  O2-  O381  1  0.27179426  0.58099751  0.21877216  1
  O2-  O382  1  0.26494179  0.58605178  0.54632040  1
  O2-  O383  1  0.27895316  0.57119629  0.87904837  1
  O2-  O384  1  0.60247892  0.08006940  0.22049421  1
  O2-  O385  1  0.59963604  0.08339169  0.57261185  1
  O2-  O386  1  0.59084950  0.08605719  0.87435807  1
  O2-  O387  1  0.56683965  0.58170160  0.21053010  1
  O2-  O388  1  0.56548990  0.58595001  0.55690797  1
  O2-  O389  1  0.56578777  0.58887156  0.88429814  1
  O2-  O390  1  0.90869728  0.07989820  0.22072556  1
  O2-  O391  1  0.90489143  0.08625870  0.56030116  1
  O2-  O392  1  0.91796915  0.08582033  0.88833405  1
  O2-  O393  1  0.90768728  0.57089086  0.22557622  1
  O2-  O394  1  0.92388534  0.57595411  0.55054803  1
  O2-  O395  1  0.90252116  0.58487411  0.88737004  1
  O2-  O396  1  0.10198867  0.42761987  0.10605061  1
  O2-  O397  1  0.08224444  0.42105434  0.44786113  1
  O2-  O398  1  0.07462097  0.41918155  0.77572189  1
  O2-  O399  1  0.08393688  0.91262225  0.11115012  1
  O2-  O400  1  0.09165345  0.91689740  0.44766405  1
  O2-  O401  1  0.08283694  0.91579932  0.77079911  1
  O2-  O402  1  0.41182351  0.41711870  0.10425289  1
  O2-  O403  1  0.42710751  0.42004682  0.44075864  1
  O2-  O404  1  0.44000199  0.41744273  0.78089818  1
  O2-  O405  1  0.39611927  0.91758743  0.08122646  1
  O2-  O406  1  0.42483186  0.91898132  0.44286506  1
  O2-  O407  1  0.42133598  0.92589029  0.79607773  1
  O2-  O408  1  0.73972566  0.42550578  0.10850745  1
  O2-  O409  1  0.73549675  0.41964166  0.43937056  1
  O2-  O410  1  0.72998114  0.41917533  0.77349899  1
  O2-  O411  1  0.75836127  0.91447488  0.10984666  1
  O2-  O412  1  0.73647120  0.92173781  0.45204097  1
  O2-  O413  1  0.74677553  0.92076375  0.78252375  1
  O2-  O414  1  0.25169958  0.42135949  0.22429305  1
  O2-  O415  1  0.24713397  0.41729213  0.56049267  1
  O2-  O416  1  0.23827851  0.42089501  0.88819948  1
  O2-  O417  1  0.23969034  0.92034924  0.22001016  1
  O2-  O418  1  0.25696609  0.92544587  0.54757581  1
  O2-  O419  1  0.26539349  0.91567738  0.89901702  1
  O2-  O420  1  0.58964329  0.41816710  0.25037264  1
  O2-  O421  1  0.60382702  0.41870881  0.55220500  1
  O2-  O422  1  0.57570293  0.41894568  0.89197566  1
  O2-  O423  1  0.58408658  0.91291966  0.24882980  1
  O2-  O424  1  0.56610061  0.91704680  0.54745706  1
  O2-  O425  1  0.58741892  0.91853670  0.88861073  1
  O2-  O426  1  0.90860844  0.41736730  0.24962124  1
  O2-  O427  1  0.90547508  0.41757833  0.54480672  1
  O2-  O428  1  0.92647824  0.42070509  0.88794601  1
  O2-  O429  1  0.91441563  0.92145554  0.22015535  1
  O2-  O430  1  0.90600541  0.93058090  0.54343338  1
  O2-  O431  1  0.89856818  0.91839947  0.88289848  1
  O2-  O432  1  -0.00602047  0.00107549  0.00555904  1
  O2-  O433  1  0.00039386  -0.01896080  0.33595552  1
  O2-  O434  1  -0.00272308  -0.00927054  0.65374534  1
  O2-  O435  1  0.00580710  0.51144914  -0.00970248  1
  O2-  O436  1  -0.02549767  0.50326469  0.36627641  1
  O2-  O437  1  0.00496010  0.48724696  0.64664800  1
  O2-  O438  1  0.31314898  0.01498232  0.04937598  1
  O2-  O439  1  0.33883952  0.01052191  0.33225474  1
  O2-  O440  1  0.33195578  -0.02157856  0.67444718  1
  O2-  O441  1  0.34536635  0.49531307  -0.02058044  1
  O2-  O442  1  0.32846815  0.51104361  0.32485307  1
  O2-  O443  1  0.33146781  0.52881572  0.67785418  1
  O2-  O444  1  0.66539513  0.00999155  -0.00192783  1
  O2-  O445  1  0.67472557  -0.00105025  0.31738782  1
  O2-  O446  1  0.67062438  -0.02031444  0.65664944  1
  O2-  O447  1  0.67840079  0.51538221  -0.00979970  1
  O2-  O448  1  0.65630510  0.50264420  0.34168460  1
  O2-  O449  1  0.64744314  0.50166236  0.68765625  1
  O2-  O450  1  0.16741242  -0.00149527  0.01519821  1
  O2-  O451  1  0.18246075  -0.00945989  0.34938970  1
  O2-  O452  1  0.16422387  -0.00488083  0.65425677  1
  O2-  O453  1  0.15705444  0.51233297  -0.01547083  1
  O2-  O454  1  0.17837620  0.49959634  0.35688497  1
  O2-  O455  1  0.17315611  0.50562710  0.68117566  1
  O2-  O456  1  0.50168055  0.00510205  0.00755037  1
  O2-  O457  1  0.51196311  -0.00030409  0.34808105  1
  O2-  O458  1  0.50418967  -0.01225477  0.68001422  1
  O2-  O459  1  0.49683633  0.51446739  -0.01653092  1
  O2-  O460  1  0.48047493  0.50514475  0.29533332  1
  O2-  O461  1  0.48253863  0.50142761  0.64163248  1
  O2-  O462  1  0.83119425  -0.00474050  -0.00772304  1
  O2-  O463  1  0.82783718  0.00164537  0.32134028  1
  O2-  O464  1  0.82750491  -0.01376268  0.65813192  1
  O2-  O465  1  0.83650676  0.51626045  0.01057750  1
  O2-  O466  1  0.82138452  0.50203451  0.32639544  1
  O2-  O467  1  0.84230807  0.47764468  0.67774497  1
  O2-  O468  1  0.75756894  0.75525736  0.40413939  1
  O2-  O469  1  0.76917072  0.25425342  0.07698309  1
  O2-  O470  1  0.59631080  0.74591406  0.94626345  1
  O2-  O471  1  0.57778118  0.74980724  0.61245233  1
  O2-  O472  1  0.90289157  0.25077539  0.25800211  1
  O2-  O473  1  0.93307539  0.74608995  0.59916096  1
  O2-  O474  1  0.58495112  0.74735927  0.26854577  1
  O2-  O475  1  0.91983829  0.25397023  0.93695532  1
  O2-  O476  1  0.08495926  0.25486237  0.73212984  1
  O2-  O477  1  0.91664346  0.74835847  0.94198866  1
  O2-  O478  1  0.07796058  0.74761324  0.72595922  1
  O2-  O479  1  0.92911131  0.25424614  0.60679268  1
  O2-  O480  1  0.40923629  0.25462632  0.40180094  1
  O2-  O481  1  0.08217575  0.26002835  0.06921295  1
  O2-  O482  1  0.07871138  0.74998800  0.40168367  1
  O2-  O483  1  0.41101344  0.25250187  0.72279026  1
  O2-  O484  1  0.57393073  0.25569888  0.59468948  1
  O2-  O485  1  0.91823907  0.75437402  0.26554242  1
  O2-  O486  1  0.74583573  0.74649996  0.05947046  1
  O2-  O487  1  0.25518161  0.24984886  0.61083726  1
  O2-  O488  1  0.25677005  0.24923156  0.26529223  1
  O2-  O489  1  0.25629691  0.25408520  0.93405967  1
  O2-  O490  1  0.41011774  0.25175100  0.05867347  1
  O2-  O491  1  0.23606327  0.74693227  0.60822280  1
  O2-  O492  1  0.07491467  0.74837412  0.07458895  1
