# generated using pymatgen
data_La6Ce6Pr19Nd20Sm13(BiS2)64
_symmetry_space_group_name_H-M   'P 1'
_cell_length_a   16.11179036
_cell_length_b   16.12674879
_cell_length_c   27.15839264
_cell_angle_alpha   90.10257014
_cell_angle_beta   89.74080684
_cell_angle_gamma   90.07588626
_symmetry_Int_Tables_number   1
_chemical_formula_structural   La6Ce6Pr19Nd20Sm13(BiS2)64
_chemical_formula_sum   'La6 Ce6 Pr19 Nd20 Sm13 Bi64 S128'
_cell_volume   7056.49714607
_cell_formula_units_Z   1
loop_
 _symmetry_equiv_pos_site_id
 _symmetry_equiv_pos_as_xyz
  1  'x, y, z'
loop_
 _atom_type_symbol
 _atom_type_oxidation_number
  La3+  3.0
  Ce3+  3.0
  Pr3+  3.0
  Nd3+  3.0
  Sm3+  3.0
  Bi2+  2.0
  S2-  -2.0
loop_
 _atom_site_type_symbol
 _atom_site_label
 _atom_site_symmetry_multiplicity
 _atom_site_fract_x
 _atom_site_fract_y
 _atom_site_fract_z
 _atom_site_occupancy
  La3+  La0  1  0.51626420  0.11605134  0.58626027  1
  La3+  La1  1  0.63203740  0.50161622  0.90861959  1
  La3+  La2  1  0.25916451  0.37106159  0.57583679  1
  La3+  La3  1  0.63470384  0.49157940  0.40842553  1
  La3+  La4  1  0.50322446  0.14595704  0.11215766  1
  La3+  La5  1  -0.01152376  0.87933664  0.11792717  1
  Ce3+  Ce6  1  0.50154847  0.61777081  0.05636014  1
  Ce3+  Ce7  1  0.76073403  0.12084436  0.56321623  1
  Ce3+  Ce8  1  0.75965313  0.62103422  0.55604043  1
  Ce3+  Ce9  1  0.51355764  0.62184319  0.55890908  1
  Ce3+  Ce10  1  0.88995328  0.49846125  0.43195845  1
  Ce3+  Ce11  1  0.50036403  0.87730286  0.06405413  1
  Pr3+  Pr12  1  0.39501277  0.00444385  0.43771675  1
  Pr3+  Pr13  1  0.25665362  0.36830120  0.06078392  1
  Pr3+  Pr14  1  0.75034437  0.11983856  0.06093252  1
  Pr3+  Pr15  1  0.87954038  0.49045693  0.93159550  1
  Pr3+  Pr16  1  0.52581915  0.38103744  0.58575536  1
  Pr3+  Pr17  1  0.75280261  0.86932824  0.05852580  1
  Pr3+  Pr18  1  0.12879901  0.74208557  0.92932675  1
  Pr3+  Pr19  1  0.00456386  0.61720561  0.06278691  1
  Pr3+  Pr20  1  0.39380626  0.74776632  0.43127706  1
  Pr3+  Pr21  1  0.01520103  0.62338075  0.56852849  1
  Pr3+  Pr22  1  0.39265072  0.49359086  0.44971043  1
  Pr3+  Pr23  1  0.62834330  0.23761844  0.92900641  1
  Pr3+  Pr24  1  0.01509595  0.87074918  0.56710603  1
  Pr3+  Pr25  1  0.25229997  0.11928470  0.06019620  1
  Pr3+  Pr26  1  0.89044255  0.25036211  0.44134529  1
  Pr3+  Pr27  1  0.64011970  0.24235379  0.43022740  1
  Pr3+  Pr28  1  0.12757861  0.23980534  0.92620496  1
  Pr3+  Pr29  1  0.75905904  0.37462413  0.55621016  1
  Pr3+  Pr30  1  0.01020668  0.38016202  0.56667922  1
  Nd3+  Nd31  1  0.14068513  0.74837671  0.42858102  1
  Nd3+  Nd32  1  0.87982770  -0.00727839  0.94262711  1
  Nd3+  Nd33  1  0.12583900  0.49440044  0.92609379  1
  Nd3+  Nd34  1  0.14283269  0.25249866  0.43989082  1
  Nd3+  Nd35  1  0.01268334  0.12260535  0.55664776  1
  Nd3+  Nd36  1  0.12859669  -0.00836210  0.93612871  1
  Nd3+  Nd37  1  0.75178680  0.61664614  0.06007317  1
  Nd3+  Nd38  1  0.26450708  0.62573679  0.56030521  1
  Nd3+  Nd39  1  0.87928651  0.74306769  0.94240097  1
  Nd3+  Nd40  1  0.89006649  0.74543124  0.44036582  1
  Nd3+  Nd41  1  0.38198474  0.24238195  0.93659593  1
  Nd3+  Nd42  1  0.24285742  0.86641238  0.06205683  1
  Nd3+  Nd43  1  0.25968674  0.12070029  0.56154352  1
  Nd3+  Nd44  1  0.73961178  0.37016183  0.06221512  1
  Nd3+  Nd45  1  0.13491859  -0.00203455  0.42316276  1
  Nd3+  Nd46  1  0.00642452  0.12049350  0.05944908  1
  Nd3+  Nd47  1  0.37932652  0.49205807  0.93188731  1
  Nd3+  Nd48  1  0.14007515  0.50191819  0.43508344  1
  Nd3+  Nd49  1  0.26185160  0.87289998  0.55209367  1
  Nd3+  Nd50  1  0.00037085  0.37256910  0.06554727  1
  Sm3+  Sm51  1  0.37937868  -0.00574837  0.94292439  1
  Sm3+  Sm52  1  0.25025985  0.61790776  0.05190413  1
  Sm3+  Sm53  1  0.62727067  0.74323431  0.94473773  1
  Sm3+  Sm54  1  0.87666978  0.24623280  0.94900792  1
  Sm3+  Sm55  1  0.39572483  0.24702019  0.45778199  1
  Sm3+  Sm56  1  0.51288995  0.87409215  0.55619185  1
  Sm3+  Sm57  1  0.64008402  0.74686457  0.44480839  1
  Sm3+  Sm58  1  0.50081431  0.37445755  0.05674904  1
  Sm3+  Sm59  1  0.76344389  0.87342713  0.55448507  1
  Sm3+  Sm60  1  0.62690272  -0.00471496  0.93803731  1
  Sm3+  Sm61  1  0.64899335  -0.00090449  0.43307277  1
  Sm3+  Sm62  1  0.89073721  -0.00226799  0.43515047  1
  Sm3+  Sm63  1  0.38007532  0.74517550  0.94731015  1
  Bi2+  Bi64  1  0.00166026  0.17343370  0.29530970  1
  Bi2+  Bi65  1  -0.02438804  0.05647766  0.78908067  1
  Bi2+  Bi66  1  -0.00937763  0.39593780  0.32024268  1
  Bi2+  Bi67  1  -0.01981186  0.34353532  0.79449247  1
  Bi2+  Bi68  1  -0.00283634  0.58634161  0.28610679  1
  Bi2+  Bi69  1  0.01927374  0.64487543  0.77773635  1
  Bi2+  Bi70  1  -0.01641826  0.86645754  0.32074068  1
  Bi2+  Bi71  1  -0.00095310  0.84447269  0.79438166  1
  Bi2+  Bi72  1  0.26604234  0.12892026  0.28165903  1
  Bi2+  Bi73  1  0.23277454  0.03163229  0.76414248  1
  Bi2+  Bi74  1  0.18941893  0.39712045  0.32139176  1
  Bi2+  Bi75  1  0.20936325  0.42307606  0.78781513  1
  Bi2+  Bi76  1  0.25010227  0.58311903  0.29213286  1
  Bi2+  Bi77  1  0.25417600  0.70394341  0.78989979  1
  Bi2+  Bi78  1  0.21529114  0.86051977  0.24718920  1
  Bi2+  Bi79  1  0.18337939  0.87856166  0.82549940  1
  Bi2+  Bi80  1  0.47088422  0.12269053  0.29765582  1
  Bi2+  Bi81  1  0.48430969  0.11575195  0.79853694  1
  Bi2+  Bi82  1  0.48000374  0.36202081  0.29446403  1
  Bi2+  Bi83  1  0.46744976  0.36954278  0.79583854  1
  Bi2+  Bi84  1  0.44272757  0.63669396  0.29150909  1
  Bi2+  Bi85  1  0.49906790  0.64916311  0.78768758  1
  Bi2+  Bi86  1  0.48057977  0.90597902  0.29066011  1
  Bi2+  Bi87  1  0.51136686  0.86825078  0.79715351  1
  Bi2+  Bi88  1  0.74015075  0.11931676  0.29518529  1
  Bi2+  Bi89  1  0.74429702  0.08800180  0.78019528  1
  Bi2+  Bi90  1  0.79853667  0.36940842  0.28448629  1
  Bi2+  Bi91  1  0.75923096  0.35529782  0.79200053  1
  Bi2+  Bi92  1  0.74231958  0.64937003  0.30231100  1
  Bi2+  Bi93  1  0.76193539  0.69033731  0.78101712  1
  Bi2+  Bi94  1  0.74378654  0.86957731  0.27997873  1
  Bi2+  Bi95  1  0.71227789  0.88284019  0.79945000  1
  Bi2+  Bi96  1  0.16136635  0.09178017  0.19339205  1
  Bi2+  Bi97  1  0.06717453  -0.05221152  0.69541340  1
  Bi2+  Bi98  1  0.13108175  0.27183199  0.15449340  1
  Bi2+  Bi99  1  0.11491983  0.20774895  0.72008243  1
  Bi2+  Bi100  1  0.11295813  0.45723765  0.21591513  1
  Bi2+  Bi101  1  0.10770729  0.47149025  0.70072626  1
  Bi2+  Bi102  1  0.13433726  0.69882480  0.21250330  1
  Bi2+  Bi103  1  0.14100459  0.75896581  0.69704225  1
  Bi2+  Bi104  1  0.35090909  -0.02127796  0.19811550  1
  Bi2+  Bi105  1  0.34502345  -0.11839607  0.73059404  1
  Bi2+  Bi106  1  0.28242217  0.33313394  0.22452922  1
  Bi2+  Bi107  1  0.34223656  0.25339528  0.71766325  1
  Bi2+  Bi108  1  0.36216955  0.50850758  0.19830099  1
  Bi2+  Bi109  1  0.34180277  0.60160270  0.70773247  1
  Bi2+  Bi110  1  0.39158581  0.78221780  0.21104951  1
  Bi2+  Bi111  1  0.43092846  0.74888641  0.66031968  1
  Bi2+  Bi112  1  0.62322083  -0.01377971  0.22231236  1
  Bi2+  Bi113  1  0.61271903  -0.03589924  0.71136235  1
  Bi2+  Bi114  1  0.66177291  0.26753470  0.21163659  1
  Bi2+  Bi115  1  0.60466677  0.24358487  0.70540492  1
  Bi2+  Bi116  1  0.62150470  0.51295208  0.20480910  1
  Bi2+  Bi117  1  0.64639598  0.50223530  0.70865115  1
  Bi2+  Bi118  1  0.58896776  0.79223570  0.21659032  1
  Bi2+  Bi119  1  0.60793904  0.74838239  0.71246716  1
  Bi2+  Bi120  1  0.87719787  0.10343333  0.21639591  1
  Bi2+  Bi121  1  0.86825675  0.03907537  0.68987041  1
  Bi2+  Bi122  1  0.94690711  0.28415773  0.20720590  1
  Bi2+  Bi123  1  0.86335857  0.22735879  0.72793156  1
  Bi2+  Bi124  1  0.86824782  0.50549581  0.20580756  1
  Bi2+  Bi125  1  0.87473776  0.55218982  0.72755424  1
  Bi2+  Bi126  1  0.86314772  0.75069163  0.20932773  1
  Bi2+  Bi127  1  0.87597262  0.83721331  0.70502748  1
  S2-  S128  1  0.00485867  0.04802560  0.15065929  1
  S2-  S129  1  0.03365109  0.10126618  0.65484643  1
  S2-  S130  1  0.00391594  0.49419486  0.13908004  1
  S2-  S131  1  0.06103955  0.31822172  0.65994067  1
  S2-  S132  1  -0.00360434  0.70954473  0.15027127  1
  S2-  S133  1  -0.02454272  0.50568426  0.64220545  1
  S2-  S134  1  -0.02259218  0.87426752  0.22723856  1
  S2-  S135  1  -0.00104806  0.74898822  0.64158504  1
  S2-  S136  1  0.33718459  0.12726495  0.14911717  1
  S2-  S137  1  0.24740005  0.14698481  0.66062949  1
  S2-  S138  1  0.38080486  0.37592251  0.13524124  1
  S2-  S139  1  0.26363278  0.39031879  0.67706352  1
  S2-  S140  1  0.24017886  0.61048399  0.15088240  1
  S2-  S141  1  0.19050370  0.61016177  0.65015520  1
  S2-  S142  1  0.15985234  0.85844930  0.14989857  1
  S2-  S143  1  0.22771583  0.89765950  0.64933565  1
  S2-  S144  1  0.50687588  0.21797850  0.21299699  1
  S2-  S145  1  0.46508226  0.14680754  0.69138565  1
  S2-  S146  1  0.60945618  0.38229600  0.13734890  1
  S2-  S147  1  0.47283558  0.35092641  0.68635087  1
  S2-  S148  1  0.50769452  0.58860597  0.15398146  1
  S2-  S149  1  0.53546607  0.53903649  0.64411444  1
  S2-  S150  1  0.50591094  0.97864054  0.14475362  1
  S2-  S151  1  0.49934394  0.96034661  0.64031965  1
  S2-  S152  1  0.67259839  0.13769713  0.15077535  1
  S2-  S153  1  0.66572335  0.13194428  0.64508915  1
  S2-  S154  1  0.82249580  0.37026353  0.15203643  1
  S2-  S155  1  0.67954564  0.37311903  0.64844961  1
  S2-  S156  1  0.74410589  0.61462681  0.16178118  1
  S2-  S157  1  0.76467666  0.59997331  0.65466937  1
  S2-  S158  1  0.81419069  0.87654003  0.15212169  1
  S2-  S159  1  0.74198925  0.88552561  0.65174149  1
  S2-  S160  1  0.00147874  0.02328035  0.35500703  1
  S2-  S161  1  0.13343966  0.07007393  0.84492460  1
  S2-  S162  1  0.15207443  0.19872274  0.34449078  1
  S2-  S163  1  0.13705047  0.28149402  0.82667145  1
  S2-  S164  1  0.12232029  0.62043022  0.35831201  1
  S2-  S165  1  0.00050593  0.46543345  0.85572736  1
  S2-  S166  1  0.14177211  0.86661419  0.35183662  1
  S2-  S167  1  0.13698320  0.62376574  0.85268543  1
  S2-  S168  1  0.35060608  0.00298841  0.33978482  1
  S2-  S169  1  0.40882385  -0.00391247  0.84446598  1
  S2-  S170  1  0.40609390  0.24372540  0.35778007  1
  S2-  S171  1  0.37428416  0.22802995  0.83497880  1
  S2-  S172  1  0.42701112  0.48218894  0.35027103  1
  S2-  S173  1  0.34095485  0.47816043  0.83359448  1
  S2-  S174  1  0.33002973  0.72861626  0.33893128  1
  S2-  S175  1  0.39690091  0.74875095  0.84961303  1
  S2-  S176  1  0.60469740  0.10946888  0.36122798  1
  S2-  S177  1  0.62876217  0.09605258  0.85586742  1
  S2-  S178  1  0.60963145  0.34842651  0.34880364  1
  S2-  S179  1  0.60965981  0.30379762  0.83362851  1
  S2-  S180  1  0.60757553  0.56021492  0.30706699  1
  S2-  S181  1  0.56458129  0.49584246  0.80962758  1
  S2-  S182  1  0.64895648  0.76256662  0.34673891  1
  S2-  S183  1  0.63280213  0.67316093  0.85521947  1
  S2-  S184  1  0.77801671  -0.01861841  0.35768664  1
  S2-  S185  1  0.84965658  -0.01372030  0.84399555  1
  S2-  S186  1  0.80015524  0.23703997  0.35433905  1
  S2-  S187  1  0.86303384  0.24609080  0.85117195  1
  S2-  S188  1  0.78880669  0.49990940  0.35148961  1
  S2-  S189  1  0.77397481  0.48477092  0.84934931  1
  S2-  S190  1  0.90277227  0.71058470  0.34133157  1
  S2-  S191  1  0.89372728  0.69472906  0.84637605  1
  S2-  S192  1  0.01590523  0.12736372  0.45366891  1
  S2-  S193  1  0.00082633  0.11983732  0.95136717  1
  S2-  S194  1  0.01664914  0.37495084  0.45711575  1
  S2-  S195  1  0.00513065  0.36202176  0.95861116  1
  S2-  S196  1  0.01224943  0.62230441  0.45940168  1
  S2-  S197  1  0.00205100  0.61798028  0.95542555  1
  S2-  S198  1  0.01226025  0.87199575  0.45714690  1
  S2-  S199  1  0.00353269  0.86876097  0.94193505  1
  S2-  S200  1  0.26358421  0.12437621  0.45429857  1
  S2-  S201  1  0.25585374  0.11817818  0.95069221  1
  S2-  S202  1  0.26725742  0.37063831  0.46295655  1
  S2-  S203  1  0.25267743  0.36719449  0.94815208  1
  S2-  S204  1  0.26830869  0.62228055  0.45357165  1
  S2-  S205  1  0.25984616  0.61969826  0.94817987  1
  S2-  S206  1  0.26851984  0.87569027  0.44747084  1
  S2-  S207  1  0.25585360  0.86784963  0.95401536  1
  S2-  S208  1  0.51426474  0.12263707  0.46812957  1
  S2-  S209  1  0.50016759  0.11466242  0.95078317  1
  S2-  S210  1  0.51492671  0.36972160  0.46422955  1
  S2-  S211  1  0.50523738  0.37101079  0.94772845  1
  S2-  S212  1  0.51776478  0.62247741  0.44901482  1
  S2-  S213  1  0.50118190  0.61955949  0.94994994  1
  S2-  S214  1  0.51895481  0.87552735  0.44909637  1
  S2-  S215  1  0.50491847  0.86993550  0.95516501  1
  S2-  S216  1  0.76956608  0.12054034  0.45882460  1
  S2-  S217  1  0.75643469  0.11749601  0.95488605  1
  S2-  S218  1  0.76338287  0.37368700  0.45183018  1
  S2-  S219  1  0.74973461  0.36380407  0.95459261  1
  S2-  S220  1  0.76097977  0.62457089  0.45010205  1
  S2-  S221  1  0.75303241  0.62198319  0.95480322  1
  S2-  S222  1  0.76530517  0.86828162  0.45241086  1
  S2-  S223  1  0.75044619  0.86823727  0.95062075  1
  S2-  S224  1  0.12611124  -0.00588299  0.04275603  1
  S2-  S225  1  0.13655482  -0.00248975  0.53851653  1
  S2-  S226  1  0.12919906  0.24498083  0.03557426  1
  S2-  S227  1  0.13664349  0.24733119  0.54745441  1
  S2-  S228  1  0.13332332  0.49102866  0.03679933  1
  S2-  S229  1  0.14115110  0.49844015  0.54239906  1
  S2-  S230  1  0.13025281  0.73785223  0.03720651  1
  S2-  S231  1  0.13987859  0.74819041  0.53812188  1
  S2-  S232  1  0.36982372  -0.01100397  0.04574098  1
  S2-  S233  1  0.38366006  -0.00207562  0.54492513  1
  S2-  S234  1  0.38381501  0.24097600  0.04282263  1
  S2-  S235  1  0.38894457  0.24664337  0.56249594  1
  S2-  S236  1  0.37627872  0.49756044  0.03744813  1
  S2-  S237  1  0.38583148  0.49666987  0.55619818  1
  S2-  S238  1  0.37497739  0.74501893  0.05275268  1
  S2-  S239  1  0.38847891  0.74996472  0.53854165  1
  S2-  S240  1  0.62927342  -0.00589968  0.04204401  1
  S2-  S241  1  0.64080341  -0.00654226  0.53965318  1
  S2-  S242  1  0.61865042  0.24076356  0.04191932  1
  S2-  S243  1  0.63812140  0.24676496  0.54381071  1
  S2-  S244  1  0.62476936  0.49907917  0.03514269  1
  S2-  S245  1  0.63797932  0.50052456  0.53736041  1
  S2-  S246  1  0.62566107  0.74531301  0.05105089  1
  S2-  S247  1  0.63703271  0.75096758  0.55017405  1
  S2-  S248  1  0.87963934  -0.00449435  0.04821939  1
  S2-  S249  1  0.88905133  -0.00479859  0.54410430  1
  S2-  S250  1  0.87831736  0.24352018  0.05361926  1
  S2-  S251  1  0.88760684  0.24888700  0.55214759  1
  S2-  S252  1  0.87160665  0.49133321  0.04025756  1
  S2-  S253  1  0.88273240  0.49969589  0.53809514  1
  S2-  S254  1  0.87617548  0.74381711  0.04734456  1
  S2-  S255  1  0.88302360  0.74818517  0.54529709  1
