# generated using pymatgen
data_La6Ce6Pr19Nd20Sm13(BiS2)64
_symmetry_space_group_name_H-M   'P 1'
_cell_length_a   16.14299791
_cell_length_b   16.09273466
_cell_length_c   27.31987186
_cell_angle_alpha   89.77697088
_cell_angle_beta   90.14872531
_cell_angle_gamma   90.01348855
_symmetry_Int_Tables_number   1
_chemical_formula_structural   La6Ce6Pr19Nd20Sm13(BiS2)64
_chemical_formula_sum   'La6 Ce6 Pr19 Nd20 Sm13 Bi64 S128'
_cell_volume   7097.21455869
_cell_formula_units_Z   1
loop_
 _symmetry_equiv_pos_site_id
 _symmetry_equiv_pos_as_xyz
  1  'x, y, z'
loop_
 _atom_type_symbol
 _atom_type_oxidation_number
  La3+  3.0
  Ce3+  3.0
  Pr3+  3.0
  Nd3+  3.0
  Sm3+  3.0
  Bi2+  2.0
  S2-  -2.0
loop_
 _atom_site_type_symbol
 _atom_site_label
 _atom_site_symmetry_multiplicity
 _atom_site_fract_x
 _atom_site_fract_y
 _atom_site_fract_z
 _atom_site_occupancy
  La3+  La0  1  0.88371663  0.02425042  0.93000641  1
  La3+  La1  1  0.26031657  0.87435295  0.60132019  1
  La3+  La2  1  0.13181801  0.01081263  0.90764403  1
  La3+  La3  1  0.00934494  0.13887419  0.07609895  1
  La3+  La4  1  0.62735504  0.76591952  0.91209263  1
  La3+  La5  1  0.15094655  0.49656715  0.42394605  1
  Ce3+  Ce6  1  0.75120424  0.64499468  0.05887346  1
  Ce3+  Ce7  1  0.88342387  0.27019288  0.94939398  1
  Ce3+  Ce8  1  0.76516142  0.62046099  0.55826995  1
  Ce3+  Ce9  1  0.26522943  0.11499668  0.56029975  1
  Ce3+  Ce10  1  0.01096696  0.63995226  0.06748517  1
  Ce3+  Ce11  1  0.75421905  0.13768692  0.06046970  1
  Pr3+  Pr12  1  0.25378122  0.39076351  0.06342500  1
  Pr3+  Pr13  1  0.39228732  0.74947048  0.44245534  1
  Pr3+  Pr14  1  0.51728827  0.86146679  0.57762576  1
  Pr3+  Pr15  1  0.26540964  0.61874285  0.56712226  1
  Pr3+  Pr16  1  0.39813780  0.49151543  0.43551659  1
  Pr3+  Pr17  1  0.12850009  0.26602295  0.93758956  1
  Pr3+  Pr18  1  0.27194906  0.37102477  0.57264459  1
  Pr3+  Pr19  1  0.89031285  0.49422774  0.43918969  1
  Pr3+  Pr20  1  0.14230845  0.74719667  0.44353485  1
  Pr3+  Pr21  1  0.63593495  0.01971244  0.92755326  1
  Pr3+  Pr22  1  0.75318072  0.89636975  0.06654672  1
  Pr3+  Pr23  1  0.37923429  0.01896924  0.92574591  1
  Pr3+  Pr24  1  0.76725780  0.37061167  0.56436894  1
  Pr3+  Pr25  1  0.02027716  0.61838489  0.55732733  1
  Pr3+  Pr26  1  0.89479508  -0.01144077  0.42029534  1
  Pr3+  Pr27  1  0.25459221  0.13837166  0.06166205  1
  Pr3+  Pr28  1  0.64007427  0.49802300  0.43121142  1
  Pr3+  Pr29  1  0.64402094  0.75734105  0.43274422  1
  Pr3+  Pr30  1  0.63076303  0.26669786  0.92983297  1
  Nd3+  Nd31  1  0.76526856  0.86852670  0.57635696  1
  Nd3+  Nd32  1  0.39255740  -0.00579855  0.44806179  1
  Nd3+  Nd33  1  0.00328276  0.39821354  0.06883341  1
  Nd3+  Nd34  1  0.13824424  -0.00383441  0.43858891  1
  Nd3+  Nd35  1  0.12974480  0.75952409  0.93466697  1
  Nd3+  Nd36  1  0.12983155  0.51742721  0.93562859  1
  Nd3+  Nd37  1  0.00843690  0.89164668  0.05557888  1
  Nd3+  Nd38  1  0.51825209  0.62048301  0.55737880  1
  Nd3+  Nd39  1  0.89572830  0.24390698  0.43880489  1
  Nd3+  Nd40  1  0.64111171  0.24321258  0.43584987  1
  Nd3+  Nd41  1  0.50378940  0.89089978  0.05262309  1
  Nd3+  Nd42  1  0.76959871  0.12294800  0.56247704  1
  Nd3+  Nd43  1  0.26030091  0.63628530  0.08025703  1
  Nd3+  Nd44  1  0.51958216  0.11387016  0.56412538  1
  Nd3+  Nd45  1  0.64390717  0.00011972  0.43724205  1
  Nd3+  Nd46  1  0.87854966  0.76779988  0.94690390  1
  Nd3+  Nd47  1  0.01700131  0.11674471  0.56429315  1
  Nd3+  Nd48  1  0.51801346  0.36896937  0.56789611  1
  Nd3+  Nd49  1  0.50309793  0.13948073  0.05554372  1
  Nd3+  Nd50  1  0.37702183  0.26584185  0.93431502  1
  Sm3+  Sm51  1  0.37610543  0.76230235  0.93887791  1
  Sm3+  Sm52  1  0.75091347  0.39097565  0.06013571  1
  Sm3+  Sm53  1  0.50382564  0.64317010  0.05788581  1
  Sm3+  Sm54  1  0.37975301  0.51672100  0.94143032  1
  Sm3+  Sm55  1  0.89079497  0.74781249  0.44321755  1
  Sm3+  Sm56  1  0.02126834  0.37016808  0.55483118  1
  Sm3+  Sm57  1  0.39066064  0.24528012  0.44718008  1
  Sm3+  Sm58  1  0.25338969  0.89020337  0.05110574  1
  Sm3+  Sm59  1  0.50552229  0.38768669  0.05326773  1
  Sm3+  Sm60  1  0.62867895  0.51670447  0.94573812  1
  Sm3+  Sm61  1  0.87716528  0.51868238  0.94156913  1
  Sm3+  Sm62  1  0.14277241  0.24611651  0.44265357  1
  Sm3+  Sm63  1  0.01107173  0.87278998  0.56633917  1
  Bi2+  Bi64  1  -0.03331796  0.12102058  0.29809582  1
  Bi2+  Bi65  1  -0.00764898  0.14845193  0.79341619  1
  Bi2+  Bi66  1  -0.00464854  0.34748875  0.29735874  1
  Bi2+  Bi67  1  0.12773668  0.39073170  0.82270444  1
  Bi2+  Bi68  1  0.04145791  0.62757220  0.29924182  1
  Bi2+  Bi69  1  0.00425709  0.54709333  0.80518450  1
  Bi2+  Bi70  1  0.00453511  0.85966692  0.29443397  1
  Bi2+  Bi71  1  -0.00965314  0.83253706  0.78038604  1
  Bi2+  Bi72  1  0.26475318  0.10887257  0.27749821  1
  Bi2+  Bi73  1  0.25378755  0.13027202  0.78378644  1
  Bi2+  Bi74  1  0.25598735  0.38225321  0.29380922  1
  Bi2+  Bi75  1  0.32354177  0.37875997  0.81831866  1
  Bi2+  Bi76  1  0.31988787  0.62118462  0.27509942  1
  Bi2+  Bi77  1  0.22995488  0.57563915  0.78539610  1
  Bi2+  Bi78  1  0.26442297  0.91458900  0.25180801  1
  Bi2+  Bi79  1  0.24717400  0.85880157  0.78112180  1
  Bi2+  Bi80  1  0.46554012  0.11860346  0.30659485  1
  Bi2+  Bi81  1  0.49804785  0.16672426  0.78037805  1
  Bi2+  Bi82  1  0.50616835  0.31412519  0.31051791  1
  Bi2+  Bi83  1  0.52379178  0.35643668  0.80589878  1
  Bi2+  Bi84  1  0.50312906  0.60585093  0.22958202  1
  Bi2+  Bi85  1  0.50519318  0.54959644  0.77465920  1
  Bi2+  Bi86  1  0.49847166  0.84725937  0.30024296  1
  Bi2+  Bi87  1  0.49506920  0.85046385  0.78224887  1
  Bi2+  Bi88  1  0.69819710  0.11088838  0.27032198  1
  Bi2+  Bi89  1  0.74096935  0.13758310  0.78419679  1
  Bi2+  Bi90  1  0.67375406  0.40733909  0.31191432  1
  Bi2+  Bi91  1  0.72095709  0.33372988  0.80183114  1
  Bi2+  Bi92  1  0.76981489  0.59095968  0.30218534  1
  Bi2+  Bi93  1  0.74629185  0.54038188  0.78540200  1
  Bi2+  Bi94  1  0.73577021  0.79971859  0.29478947  1
  Bi2+  Bi95  1  0.74698003  0.86983101  0.80004330  1
  Bi2+  Bi96  1  0.10076660  -0.00768207  0.19533324  1
  Bi2+  Bi97  1  0.12831183  0.00701107  0.71182967  1
  Bi2+  Bi98  1  0.14638510  0.24382753  0.22180307  1
  Bi2+  Bi99  1  0.11701063  0.28282513  0.72479157  1
  Bi2+  Bi100  1  0.12290470  0.49807327  0.19122152  1
  Bi2+  Bi101  1  0.08635130  0.49326825  0.70235565  1
  Bi2+  Bi102  1  0.17153702  0.72693305  0.23605687  1
  Bi2+  Bi103  1  0.12641379  0.73738541  0.72015012  1
  Bi2+  Bi104  1  0.36917733  0.05877480  0.18404043  1
  Bi2+  Bi105  1  0.42453556  0.01116604  0.72720583  1
  Bi2+  Bi106  1  0.33246391  0.25155433  0.19187467  1
  Bi2+  Bi107  1  0.30650165  0.27758783  0.71378487  1
  Bi2+  Bi108  1  0.39405360  0.43496963  0.21884935  1
  Bi2+  Bi109  1  0.35390672  0.49138758  0.70911511  1
  Bi2+  Bi110  1  0.39172967  0.78302981  0.20547742  1
  Bi2+  Bi111  1  0.39088239  0.73806505  0.71659452  1
  Bi2+  Bi112  1  0.54803762  -0.00648554  0.22702820  1
  Bi2+  Bi113  1  0.62988926  0.02292019  0.71299961  1
  Bi2+  Bi114  1  0.60119037  0.25089000  0.21098302  1
  Bi2+  Bi115  1  0.62520951  0.31952995  0.69927523  1
  Bi2+  Bi116  1  0.65509728  0.47914498  0.19852809  1
  Bi2+  Bi117  1  0.61781156  0.50797908  0.67857714  1
  Bi2+  Bi118  1  0.63329766  0.74266888  0.19170604  1
  Bi2+  Bi119  1  0.64849538  0.73151532  0.70100554  1
  Bi2+  Bi120  1  0.85790339  -0.02424518  0.19793893  1
  Bi2+  Bi121  1  0.88856401  -0.00632061  0.70872643  1
  Bi2+  Bi122  1  0.78591871  0.28150732  0.24486398  1
  Bi2+  Bi123  1  0.86036587  0.34803761  0.71807263  1
  Bi2+  Bi124  1  0.90745435  0.51999490  0.23418078  1
  Bi2+  Bi125  1  0.81470034  0.52012976  0.67715333  1
  Bi2+  Bi126  1  0.89853972  0.71936314  0.23994532  1
  Bi2+  Bi127  1  0.88779602  0.67652657  0.75113752  1
  S2-  S128  1  -0.05570091  0.10610954  0.17485845  1
  S2-  S129  1  -0.00009415  0.10250401  0.66420215  1
  S2-  S130  1  0.05748038  0.34279628  0.16155279  1
  S2-  S131  1  0.00455208  0.35513285  0.65247210  1
  S2-  S132  1  -0.02562956  0.52627600  0.14029426  1
  S2-  S133  1  0.02676027  0.63394746  0.65778960  1
  S2-  S134  1  -0.00712869  0.88908448  0.15624741  1
  S2-  S135  1  -0.10319737  0.88177444  0.64307811  1
  S2-  S136  1  0.14880322  0.13165211  0.14143684  1
  S2-  S137  1  0.24737098  0.04456534  0.64877556  1
  S2-  S138  1  0.26256806  0.49194321  0.14537466  1
  S2-  S139  1  0.22650284  0.49485186  0.63968981  1
  S2-  S140  1  0.12771486  0.66068176  0.14605446  1
  S2-  S141  1  0.26417611  0.71685809  0.65402072  1
  S2-  S142  1  0.22463414  0.89655207  0.14841194  1
  S2-  S143  1  0.10629414  0.87454608  0.65253846  1
  S2-  S144  1  0.53293941  0.12656972  0.15330778  1
  S2-  S145  1  0.51288338  0.12747867  0.66270248  1
  S2-  S146  1  0.52072713  0.38732874  0.15081475  1
  S2-  S147  1  0.40742444  0.36378095  0.64487326  1
  S2-  S148  1  0.40846641  0.65127692  0.14011510  1
  S2-  S149  1  0.50906695  0.70158793  0.64541622  1
  S2-  S150  1  0.52051959  0.87102297  0.15203696  1
  S2-  S151  1  0.40700769  0.88444923  0.65954854  1
  S2-  S152  1  0.74509289  0.03201570  0.13684370  1
  S2-  S153  1  0.76375709  0.06037814  0.65626204  1
  S2-  S154  1  0.77490603  0.38254428  0.15710297  1
  S2-  S155  1  0.76919332  0.26798370  0.64627462  1
  S2-  S156  1  0.73083421  0.61353583  0.15442109  1
  S2-  S157  1  0.76898549  0.71358552  0.63995315  1
  S2-  S158  1  0.76036393  0.83088318  0.16329732  1
  S2-  S159  1  0.63978239  0.88178464  0.65166232  1
  S2-  S160  1  0.04123891  -0.00242576  0.35450987  1
  S2-  S161  1  -0.01052580  0.01579279  0.84491329  1
  S2-  S162  1  0.08601736  0.22917374  0.34941377  1
  S2-  S163  1  0.13253532  0.16756559  0.85307544  1
  S2-  S164  1  0.10531005  0.45854230  0.32652239  1
  S2-  S165  1  0.13295045  0.63582026  0.86114744  1
  S2-  S166  1  0.13034273  0.75979268  0.34264139  1
  S2-  S167  1  0.11984981  0.85083960  0.84730899  1
  S2-  S168  1  0.41406801  -0.02236873  0.34940652  1
  S2-  S169  1  0.27457587  -0.00973828  0.84294704  1
  S2-  S170  1  0.34977923  0.26824788  0.35223042  1
  S2-  S171  1  0.38179651  0.15850459  0.85551654  1
  S2-  S172  1  0.29146170  0.51341151  0.35633672  1
  S2-  S173  1  0.37135980  0.55589824  0.84596365  1
  S2-  S174  1  0.39998438  0.73536357  0.34166243  1
  S2-  S175  1  0.37391109  0.77806669  0.83969188  1
  S2-  S176  1  0.64381705  -0.11139229  0.35909414  1
  S2-  S177  1  0.60027234  -0.08467675  0.85056097  1
  S2-  S178  1  0.62568306  0.12614594  0.36134816  1
  S2-  S179  1  0.61891009  0.14882689  0.85400600  1
  S2-  S180  1  0.51945220  0.47271036  0.35957852  1
  S2-  S181  1  0.61780012  0.55997123  0.85252789  1
  S2-  S182  1  0.64196117  0.67414334  0.34206253  1
  S2-  S183  1  0.63714504  0.74365822  0.80762385  1
  S2-  S184  1  0.83817794  0.03717796  0.32324015  1
  S2-  S185  1  0.77497519  0.01022595  0.84946997  1
  S2-  S186  1  0.86709109  0.24868221  0.34049268  1
  S2-  S187  1  0.89019625  0.21392067  0.85799989  1
  S2-  S188  1  0.89321864  0.47063511  0.34015886  1
  S2-  S189  1  0.86875627  0.46751271  0.84789445  1
  S2-  S190  1  0.88352955  0.83440232  0.35765381  1
  S2-  S191  1  0.86682267  0.76147417  0.84679284  1
  S2-  S192  1  0.01858981  0.12343730  0.45781869  1
  S2-  S193  1  0.00642165  0.14577110  0.96291573  1
  S2-  S194  1  0.02010322  0.37076325  0.45021334  1
  S2-  S195  1  0.00386940  0.39692523  0.95735766  1
  S2-  S196  1  0.01533796  0.62073133  0.44840200  1
  S2-  S197  1  -0.00089945  0.63886656  0.95882065  1
  S2-  S198  1  0.01674583  0.86911001  0.45979042  1
  S2-  S199  1  0.00497032  0.88817210  0.95109305  1
  S2-  S200  1  0.26484086  0.12060210  0.45186352  1
  S2-  S201  1  0.25487531  0.14082629  0.95588967  1
  S2-  S202  1  0.26746888  0.36677127  0.46004290  1
  S2-  S203  1  0.25630809  0.39310145  0.95527158  1
  S2-  S204  1  0.26888628  0.62324637  0.45833511  1
  S2-  S205  1  0.26016817  0.63788955  0.96144548  1
  S2-  S206  1  0.26439288  0.87449135  0.44176450  1
  S2-  S207  1  0.25652151  0.88683808  0.94911343  1
  S2-  S208  1  0.51210148  0.12203750  0.45948539  1
  S2-  S209  1  0.50385471  0.14319995  0.95318870  1
  S2-  S210  1  0.51773968  0.36210822  0.46205546  1
  S2-  S211  1  0.50425749  0.39158011  0.94878465  1
  S2-  S212  1  0.51888945  0.62456488  0.45284396  1
  S2-  S213  1  0.50423644  0.64271229  0.95296193  1
  S2-  S214  1  0.51648360  0.87393438  0.46290785  1
  S2-  S215  1  0.49753204  0.88602806  0.94865171  1
  S2-  S216  1  0.77173448  0.12228712  0.45437861  1
  S2-  S217  1  0.75589334  0.14881203  0.95699466  1
  S2-  S218  1  0.76501815  0.36787380  0.45431999  1
  S2-  S219  1  0.75169044  0.39341171  0.95446538  1
  S2-  S220  1  0.76829737  0.62238961  0.45101172  1
  S2-  S221  1  0.75083638  0.64204651  0.95060995  1
  S2-  S222  1  0.77170032  0.87431193  0.46182120  1
  S2-  S223  1  0.75155126  0.88612561  0.95569686  1
  S2-  S224  1  0.13178122  0.01199490  0.03979791  1
  S2-  S225  1  0.14023914  -0.00784058  0.54325026  1
  S2-  S226  1  0.12952058  0.27003297  0.04460104  1
  S2-  S227  1  0.14369617  0.24515601  0.55047488  1
  S2-  S228  1  0.13163047  0.51576909  0.04166029  1
  S2-  S229  1  0.13997890  0.49212635  0.53471877  1
  S2-  S230  1  0.13332019  0.76690212  0.04118002  1
  S2-  S231  1  0.14098682  0.74858012  0.54855049  1
  S2-  S232  1  0.37841213  0.01405259  0.03939476  1
  S2-  S233  1  0.39075871  -0.00727756  0.55227542  1
  S2-  S234  1  0.37982303  0.26633278  0.04390656  1
  S2-  S235  1  0.39214708  0.23820285  0.55046204  1
  S2-  S236  1  0.38655894  0.51254664  0.04435451  1
  S2-  S237  1  0.39545655  0.49564979  0.54387520  1
  S2-  S238  1  0.37804547  0.76708865  0.04294744  1
  S2-  S239  1  0.38717787  0.74711817  0.54727586  1
  S2-  S240  1  0.62484510  0.01649875  0.03622521  1
  S2-  S241  1  0.64475102  -0.00253694  0.54463808  1
  S2-  S242  1  0.62951085  0.26505530  0.04350438  1
  S2-  S243  1  0.63938582  0.24359353  0.54422142  1
  S2-  S244  1  0.62543406  0.51550774  0.04897184  1
  S2-  S245  1  0.64040580  0.49287218  0.54128316  1
  S2-  S246  1  0.62616652  0.76619224  0.04350998  1
  S2-  S247  1  0.64274931  0.74386699  0.54032250  1
  S2-  S248  1  0.88357559  0.01655260  0.04051385  1
  S2-  S249  1  0.89318480  0.00018763  0.54144457  1
  S2-  S250  1  0.87911001  0.26872347  0.05649369  1
  S2-  S251  1  0.89779229  0.24684311  0.54560440  1
  S2-  S252  1  0.86931211  0.51550651  0.04357339  1
  S2-  S253  1  0.89495864  0.49187959  0.54533556  1
  S2-  S254  1  0.88085896  0.76490673  0.05273858  1
  S2-  S255  1  0.89586055  0.74238903  0.54433437  1
