# generated using pymatgen
data_La6Ce6Pr19Nd20Sm13(BiS2)64
_symmetry_space_group_name_H-M   'P 1'
_cell_length_a   16.09269417
_cell_length_b   16.08717714
_cell_length_c   27.39292847
_cell_angle_alpha   89.68522009
_cell_angle_beta   90.28124236
_cell_angle_gamma   90.00927966
_symmetry_Int_Tables_number   1
_chemical_formula_structural   La6Ce6Pr19Nd20Sm13(BiS2)64
_chemical_formula_sum   'La6 Ce6 Pr19 Nd20 Sm13 Bi64 S128'
_cell_volume   7091.45375543
_cell_formula_units_Z   1
loop_
 _symmetry_equiv_pos_site_id
 _symmetry_equiv_pos_as_xyz
  1  'x, y, z'
loop_
 _atom_type_symbol
 _atom_type_oxidation_number
  La3+  3.0
  Ce3+  3.0
  Pr3+  3.0
  Nd3+  3.0
  Sm3+  3.0
  Bi2+  2.0
  S2-  -2.0
loop_
 _atom_site_type_symbol
 _atom_site_label
 _atom_site_symmetry_multiplicity
 _atom_site_fract_x
 _atom_site_fract_y
 _atom_site_fract_z
 _atom_site_occupancy
  La3+  La0  1  0.75339852  0.11240124  0.11710722  1
  La3+  La1  1  0.35781875  0.25351716  0.41962232  1
  La3+  La2  1  0.12060775  0.24689975  0.88315606  1
  La3+  La3  1  0.86925953  0.01393749  0.94109132  1
  La3+  La4  1  0.25493303  0.37482347  0.58735016  1
  La3+  La5  1  0.73489321  0.62307070  0.58745586  1
  Ce3+  Ce6  1  -0.00343364  0.63235223  0.05340642  1
  Ce3+  Ce7  1  0.36937877  0.51189058  0.93848440  1
  Ce3+  Ce8  1  0.62257754  0.51492840  0.92282904  1
  Ce3+  Ce9  1  -0.00428862  0.88490236  0.05991695  1
  Ce3+  Ce10  1  0.25006228  0.13672672  0.07150454  1
  Ce3+  Ce11  1  0.10711895  0.25994113  0.42146285  1
  Pr3+  Pr12  1  0.87038298  0.76183897  0.93639237  1
  Pr3+  Pr13  1  0.61461625  0.25117304  0.42511653  1
  Pr3+  Pr14  1  0.86037250  0.75008665  0.43989835  1
  Pr3+  Pr15  1  0.74658005  0.63041802  0.06001936  1
  Pr3+  Pr16  1  0.37202199  0.76033978  0.94134544  1
  Pr3+  Pr17  1  0.12184342  0.75930111  0.92970335  1
  Pr3+  Pr18  1  0.36985479  0.01341114  0.94135748  1
  Pr3+  Pr19  1  0.74107870  0.12223652  0.56794522  1
  Pr3+  Pr20  1  0.61999283  0.49802464  0.43184494  1
  Pr3+  Pr21  1  0.62460160  0.00474374  0.42415669  1
  Pr3+  Pr22  1  0.24423998  0.12778484  0.55711413  1
  Pr3+  Pr23  1  -0.00071807  0.37491727  0.57046307  1
  Pr3+  Pr24  1  0.49986877  0.88628302  0.05974376  1
  Pr3+  Pr25  1  0.36336124  0.49999926  0.43407450  1
  Pr3+  Pr26  1  0.86504524  0.50989248  0.93387504  1
  Pr3+  Pr27  1  0.24606751  0.88352962  0.05821394  1
  Pr3+  Pr28  1  0.74603210  0.88315654  0.05974404  1
  Pr3+  Pr29  1  0.24543133  0.62693646  0.56537718  1
  Pr3+  Pr30  1  0.61890632  0.01487050  0.93704221  1
  Nd3+  Nd31  1  0.11514655  0.75115269  0.44428478  1
  Nd3+  Nd32  1  0.11512922  0.51102739  0.92167433  1
  Nd3+  Nd33  1  0.74247241  0.37008234  0.56900301  1
  Nd3+  Nd34  1  0.36583177  0.26213691  0.94347786  1
  Nd3+  Nd35  1  0.11667809  0.49881221  0.44115214  1
  Nd3+  Nd36  1  0.87285361  0.26213726  0.93487180  1
  Nd3+  Nd37  1  0.74665534  0.37590814  0.06106208  1
  Nd3+  Nd38  1  0.49721541  0.38529164  0.05366730  1
  Nd3+  Nd39  1  -0.00962958  0.62444826  0.55989265  1
  Nd3+  Nd40  1  -0.00279819  0.13980452  0.06079388  1
  Nd3+  Nd41  1  0.24535674  0.87166190  0.56736422  1
  Nd3+  Nd42  1  0.36442081  -0.00344121  0.42730443  1
  Nd3+  Nd43  1  0.62759001  0.76316012  0.90416608  1
  Nd3+  Nd44  1  0.86317939  0.49944178  0.44604348  1
  Nd3+  Nd45  1  0.49488193  0.62322942  0.55501186  1
  Nd3+  Nd46  1  0.49698716  0.13547289  0.07329154  1
  Nd3+  Nd47  1  0.24518895  0.63280396  0.05977540  1
  Nd3+  Nd48  1  0.12161951  0.01451995  0.94601168  1
  Nd3+  Nd49  1  0.49160590  0.12415902  0.54692820  1
  Nd3+  Nd50  1  0.49423022  0.87669942  0.55344495  1
  Sm3+  Sm51  1  0.49324721  0.37268550  0.55137713  1
  Sm3+  Sm52  1  0.11827983  -0.00081401  0.44795123  1
  Sm3+  Sm53  1  -0.00074111  0.38358212  0.05109718  1
  Sm3+  Sm54  1  0.86707852  0.00100555  0.44289728  1
  Sm3+  Sm55  1  -0.00519058  0.12511193  0.55572497  1
  Sm3+  Sm56  1  0.36689998  0.74973871  0.43371927  1
  Sm3+  Sm57  1  0.24522077  0.38528447  0.05573367  1
  Sm3+  Sm58  1  0.49898986  0.63227637  0.05578084  1
  Sm3+  Sm59  1  0.61910521  0.75152393  0.44530291  1
  Sm3+  Sm60  1  0.86760468  0.25145619  0.44456924  1
  Sm3+  Sm61  1  0.74115656  0.87571771  0.57329845  1
  Sm3+  Sm62  1  0.61992269  0.25665584  0.94284333  1
  Sm3+  Sm63  1  -0.00983692  0.87399480  0.55782177  1
  Bi2+  Bi64  1  0.02442720  0.16338709  0.27781826  1
  Bi2+  Bi65  1  0.01527529  0.01475408  0.77630825  1
  Bi2+  Bi66  1  0.02285311  0.42360027  0.25092773  1
  Bi2+  Bi67  1  -0.02007180  0.39270083  0.78938352  1
  Bi2+  Bi68  1  0.06295522  0.58462391  0.31552592  1
  Bi2+  Bi69  1  0.01813698  0.64040620  0.77901550  1
  Bi2+  Bi70  1  0.06931839  0.88577755  0.28147144  1
  Bi2+  Bi71  1  0.02400209  0.82937599  0.81689953  1
  Bi2+  Bi72  1  0.22995474  0.08820917  0.28574107  1
  Bi2+  Bi73  1  0.26114970  0.10433977  0.79111370  1
  Bi2+  Bi74  1  0.22688921  0.35941426  0.28782040  1
  Bi2+  Bi75  1  0.26271250  0.37494648  0.78472751  1
  Bi2+  Bi76  1  0.34812275  0.62071222  0.32147714  1
  Bi2+  Bi77  1  0.27705983  0.64353025  0.79152501  1
  Bi2+  Bi78  1  0.26042822  0.78614753  0.28550315  1
  Bi2+  Bi79  1  0.22821992  0.84569765  0.79943052  1
  Bi2+  Bi80  1  0.52046185  0.11290732  0.29184346  1
  Bi2+  Bi81  1  0.48692641  0.19489841  0.79641037  1
  Bi2+  Bi82  1  0.49578004  0.37752835  0.28880566  1
  Bi2+  Bi83  1  0.52445294  0.38920008  0.79765287  1
  Bi2+  Bi84  1  0.53442666  0.56648769  0.31175937  1
  Bi2+  Bi85  1  0.50338369  0.65358873  0.73944077  1
  Bi2+  Bi86  1  0.47137050  0.83714640  0.28672055  1
  Bi2+  Bi87  1  0.49170096  0.94135237  0.77484461  1
  Bi2+  Bi88  1  0.81440758  0.16571811  0.31002566  1
  Bi2+  Bi89  1  0.75929170  0.15650331  0.81584538  1
  Bi2+  Bi90  1  0.75525076  0.38764342  0.27785273  1
  Bi2+  Bi91  1  0.72688493  0.34920694  0.79299197  1
  Bi2+  Bi92  1  0.75112893  0.58404468  0.32384388  1
  Bi2+  Bi93  1  0.72158312  0.62918506  0.78856118  1
  Bi2+  Bi94  1  0.76092418  0.87588601  0.31047096  1
  Bi2+  Bi95  1  0.75501319  0.90671125  0.79301067  1
  Bi2+  Bi96  1  0.14999946  -0.01110674  0.19457616  1
  Bi2+  Bi97  1  0.18010104  -0.01789781  0.71003507  1
  Bi2+  Bi98  1  0.14646957  0.18505386  0.18822207  1
  Bi2+  Bi99  1  0.07828345  0.23062389  0.68525627  1
  Bi2+  Bi100  1  0.15712911  0.55860890  0.21853246  1
  Bi2+  Bi101  1  0.13034659  0.53150223  0.70664196  1
  Bi2+  Bi102  1  0.05731093  0.73594516  0.20698559  1
  Bi2+  Bi103  1  0.12705856  0.78572045  0.70763889  1
  Bi2+  Bi104  1  0.37352909  -0.02408895  0.20770846  1
  Bi2+  Bi105  1  0.37228121  0.00120150  0.68830998  1
  Bi2+  Bi106  1  0.32925420  0.24952498  0.21267265  1
  Bi2+  Bi107  1  0.38117398  0.21823903  0.69955137  1
  Bi2+  Bi108  1  0.40450979  0.46264821  0.19701701  1
  Bi2+  Bi109  1  0.39906945  0.47704342  0.71613248  1
  Bi2+  Bi110  1  0.39495648  0.70049374  0.21487751  1
  Bi2+  Bi111  1  0.39639659  0.80457839  0.70002050  1
  Bi2+  Bi112  1  0.62033006  -0.00895362  0.21675813  1
  Bi2+  Bi113  1  0.62463065  0.07705027  0.74388339  1
  Bi2+  Bi114  1  0.63280312  0.27868396  0.21279808  1
  Bi2+  Bi115  1  0.60229492  0.26908745  0.70839144  1
  Bi2+  Bi116  1  0.66916622  0.53284421  0.20906710  1
  Bi2+  Bi117  1  0.61437100  0.49239870  0.71321963  1
  Bi2+  Bi118  1  0.61189910  0.71378925  0.25158801  1
  Bi2+  Bi119  1  0.64092079  0.79773097  0.72374718  1
  Bi2+  Bi120  1  0.89121056  -0.01847930  0.21136239  1
  Bi2+  Bi121  1  0.85801801  0.00113834  0.70592863  1
  Bi2+  Bi122  1  0.91319939  0.27124565  0.20591107  1
  Bi2+  Bi123  1  0.83886128  0.23079403  0.72226289  1
  Bi2+  Bi124  1  0.86412175  0.52130987  0.19229863  1
  Bi2+  Bi125  1  0.88250071  0.48977330  0.71352969  1
  Bi2+  Bi126  1  0.90045909  0.66916233  0.26748272  1
  Bi2+  Bi127  1  0.87997697  0.79964885  0.72550580  1
  S2-  S128  1  -0.07499164  0.11232310  0.15066171  1
  S2-  S129  1  -0.01931297  0.10303810  0.65280503  1
  S2-  S130  1  0.00793147  0.36567377  0.15022927  1
  S2-  S131  1  -0.07670185  0.34113879  0.66436534  1
  S2-  S132  1  0.00674486  0.60299650  0.14870091  1
  S2-  S133  1  -0.01439600  0.59805131  0.65804648  1
  S2-  S134  1  -0.03804608  0.86439211  0.15523992  1
  S2-  S135  1  -0.01003120  0.84990710  0.65500118  1
  S2-  S136  1  0.36881240  0.12396691  0.14681643  1
  S2-  S137  1  0.23850172  0.21738810  0.64327783  1
  S2-  S138  1  0.26981524  0.38905406  0.15441190  1
  S2-  S139  1  0.11701273  0.39068740  0.65071553  1
  S2-  S140  1  0.25422510  0.64572005  0.15803111  1
  S2-  S141  1  0.26920457  0.52983475  0.64981267  1
  S2-  S142  1  0.26649621  0.87789779  0.15818445  1
  S2-  S143  1  0.26024456  0.75283245  0.64017156  1
  S2-  S144  1  0.59132668  0.13245045  0.15861222  1
  S2-  S145  1  0.48737148  0.11211738  0.64591270  1
  S2-  S146  1  0.51379851  0.36084526  0.15204234  1
  S2-  S147  1  0.41678743  0.36430429  0.64087979  1
  S2-  S148  1  0.48729403  0.60227461  0.15207930  1
  S2-  S149  1  0.57206562  0.61990428  0.64371443  1
  S2-  S150  1  0.50532003  0.90578242  0.16000382  1
  S2-  S151  1  0.53431405  0.86575036  0.65012788  1
  S2-  S152  1  0.76081030  0.09579337  0.22874477  1
  S2-  S153  1  0.72900130  0.24426005  0.64130401  1
  S2-  S154  1  0.75750149  0.28568542  0.14733303  1
  S2-  S155  1  0.75197293  0.48134901  0.64865274  1
  S2-  S156  1  0.76479484  0.65406304  0.15925757  1
  S2-  S157  1  0.75759730  0.76197175  0.64996957  1
  S2-  S158  1  0.74821047  0.93776655  0.15532119  1
  S2-  S159  1  0.73221303  0.99938783  0.64297246  1
  S2-  S160  1  0.12075207  -0.00735025  0.35040939  1
  S2-  S161  1  0.12191665  0.07522774  0.85307339  1
  S2-  S162  1  0.22411168  0.22488662  0.35093885  1
  S2-  S163  1  0.14386168  0.24324013  0.77122583  1
  S2-  S164  1  0.10899214  0.40287287  0.35803485  1
  S2-  S165  1  0.13339132  0.40909592  0.84017089  1
  S2-  S166  1  0.11824886  0.74761266  0.34587863  1
  S2-  S167  1  0.14695130  0.64191196  0.85293708  1
  S2-  S168  1  0.37886833  0.07014973  0.33325753  1
  S2-  S169  1  0.37222040  0.01442387  0.84082931  1
  S2-  S170  1  0.48606895  0.24166180  0.34861288  1
  S2-  S171  1  0.29654883  0.24869044  0.85267562  1
  S2-  S172  1  0.35190019  0.40170064  0.34894128  1
  S2-  S173  1  0.34119897  0.50682744  0.84184285  1
  S2-  S174  1  0.35067342  0.86420156  0.35991550  1
  S2-  S175  1  0.36705813  0.76205618  0.84097727  1
  S2-  S176  1  0.59589348  -0.05157363  0.32753080  1
  S2-  S177  1  0.60884052  -0.08853841  0.85190502  1
  S2-  S178  1  0.66323459  0.13664793  0.35272666  1
  S2-  S179  1  0.60205712  0.14614617  0.86593390  1
  S2-  S180  1  0.63922958  0.38281601  0.35448871  1
  S2-  S181  1  0.74859446  0.49426283  0.85470763  1
  S2-  S182  1  0.67228097  0.74360749  0.35273447  1
  S2-  S183  1  0.58237085  0.62937351  0.84538905  1
  S2-  S184  1  0.85093329  0.00540604  0.34498050  1
  S2-  S185  1  0.87158905  0.02200054  0.84053009  1
  S2-  S186  1  0.95786321  0.24127967  0.35885851  1
  S2-  S187  1  0.95328583  0.25914949  0.84547156  1
  S2-  S188  1  0.86312577  0.46207977  0.34879124  1
  S2-  S189  1  0.96207706  0.53040664  0.84941910  1
  S2-  S190  1  0.88863223  0.79416089  0.34355313  1
  S2-  S191  1  0.77879087  0.74725060  0.85037188  1
  S2-  S192  1  -0.00653509  0.12007634  0.45286058  1
  S2-  S193  1  -0.00131768  0.13911602  0.95468153  1
  S2-  S194  1  -0.01281960  0.37846214  0.46262968  1
  S2-  S195  1  -0.00349734  0.38673764  0.94943012  1
  S2-  S196  1  -0.01133724  0.62585004  0.45348456  1
  S2-  S197  1  -0.00544754  0.63824169  0.95047353  1
  S2-  S198  1  -0.00906700  0.87668719  0.45353253  1
  S2-  S199  1  -0.00242570  0.88651932  0.95293198  1
  S2-  S200  1  0.24119873  0.11822767  0.45252666  1
  S2-  S201  1  0.24523833  0.13647323  0.96151398  1
  S2-  S202  1  0.23898866  0.37757800  0.45786483  1
  S2-  S203  1  0.24377262  0.38889980  0.95237793  1
  S2-  S204  1  0.24094639  0.62848085  0.45412285  1
  S2-  S205  1  0.24673107  0.63526896  0.95525295  1
  S2-  S206  1  0.23906668  0.87252903  0.46097353  1
  S2-  S207  1  0.24429642  0.88558721  0.95112884  1
  S2-  S208  1  0.49084330  0.11807389  0.44471528  1
  S2-  S209  1  0.48996380  0.13825237  0.96446443  1
  S2-  S210  1  0.49063784  0.37894972  0.45043982  1
  S2-  S211  1  0.49715408  0.38494052  0.94701900  1
  S2-  S212  1  0.49414252  0.62819936  0.44929074  1
  S2-  S213  1  0.49784785  0.63818267  0.95309982  1
  S2-  S214  1  0.49602334  0.87354889  0.44847416  1
  S2-  S215  1  0.49696964  0.88326840  0.95366109  1
  S2-  S216  1  0.74963136  0.12559336  0.46048714  1
  S2-  S217  1  0.74799983  0.13934615  0.95342476  1
  S2-  S218  1  0.74505898  0.37133214  0.46075908  1
  S2-  S219  1  0.74155867  0.37959643  0.95555498  1
  S2-  S220  1  0.73913789  0.62436574  0.46142604  1
  S2-  S221  1  0.74004959  0.63982825  0.95454969  1
  S2-  S222  1  0.74170309  0.87807349  0.45832967  1
  S2-  S223  1  0.74240020  0.88420175  0.95377093  1
  S2-  S224  1  0.12116108  0.01111953  0.05184849  1
  S2-  S225  1  0.11810056  -0.00374063  0.55316633  1
  S2-  S226  1  0.12457419  0.26182215  0.05349790  1
  S2-  S227  1  0.11480591  0.24722907  0.53999224  1
  S2-  S228  1  0.12243446  0.50821610  0.04309135  1
  S2-  S229  1  0.11895295  0.50530874  0.54546621  1
  S2-  S230  1  0.12070449  0.75896154  0.04323942  1
  S2-  S231  1  0.11393218  0.75089236  0.54868981  1
  S2-  S232  1  0.37132440  0.00707081  0.04684120  1
  S2-  S233  1  0.36548348  -0.00368211  0.54070682  1
  S2-  S234  1  0.37033904  0.26391853  0.04842737  1
  S2-  S235  1  0.36947654  0.24976850  0.53491536  1
  S2-  S236  1  0.37107599  0.51011927  0.04479889  1
  S2-  S237  1  0.37186133  0.50105214  0.54058689  1
  S2-  S238  1  0.37400128  0.75715191  0.04899765  1
  S2-  S239  1  0.37298634  0.74984785  0.53779648  1
  S2-  S240  1  0.62463395  0.01360811  0.04792423  1
  S2-  S241  1  0.61684950  -0.00137869  0.53741629  1
  S2-  S242  1  0.61774364  0.25917112  0.04480763  1
  S2-  S243  1  0.61306369  0.24938539  0.53746421  1
  S2-  S244  1  0.62242851  0.50718315  0.04315641  1
  S2-  S245  1  0.61639308  0.49572451  0.54123569  1
  S2-  S246  1  0.62035409  0.75585770  0.05948723  1
  S2-  S247  1  0.61952852  0.75218416  0.54661005  1
  S2-  S248  1  0.87026602  0.01088512  0.04764240  1
  S2-  S249  1  0.87127336  -0.00252242  0.54676178  1
  S2-  S250  1  0.87640709  0.26240177  0.04159425  1
  S2-  S251  1  0.87223419  0.24660316  0.54676211  1
  S2-  S252  1  0.87057046  0.50420747  0.04282363  1
  S2-  S253  1  0.86746531  0.49983284  0.55050651  1
  S2-  S254  1  0.87095513  0.75833088  0.04404361  1
  S2-  S255  1  0.86694363  0.75068005  0.54710078  1
