# generated using pymatgen
data_La6Ce6Pr19Nd20Sm13(BiS2)64
_symmetry_space_group_name_H-M   'P 1'
_cell_length_a   16.14394304
_cell_length_b   16.12889895
_cell_length_c   27.37683300
_cell_angle_alpha   89.97420753
_cell_angle_beta   89.96082235
_cell_angle_gamma   89.98881724
_symmetry_Int_Tables_number   1
_chemical_formula_structural   La6Ce6Pr19Nd20Sm13(BiS2)64
_chemical_formula_sum   'La6 Ce6 Pr19 Nd20 Sm13 Bi64 S128'
_cell_volume   7128.48746777
_cell_formula_units_Z   1
loop_
 _symmetry_equiv_pos_site_id
 _symmetry_equiv_pos_as_xyz
  1  'x, y, z'
loop_
 _atom_type_symbol
 _atom_type_oxidation_number
  La3+  3.0
  Ce3+  3.0
  Pr3+  3.0
  Nd3+  3.0
  Sm3+  3.0
  Bi2+  2.0
  S2-  -2.0
loop_
 _atom_site_type_symbol
 _atom_site_label
 _atom_site_symmetry_multiplicity
 _atom_site_fract_x
 _atom_site_fract_y
 _atom_site_fract_z
 _atom_site_occupancy
  La3+  La0  1  0.52080301  0.64985003  0.57509996  1
  La3+  La1  1  0.01462969  0.64137140  0.55847462  1
  La3+  La2  1  0.76898262  0.12897402  0.60218590  1
  La3+  La3  1  0.12515720  0.51158689  0.90076138  1
  La3+  La4  1  0.25538285  0.36377797  0.61605100  1
  La3+  La5  1  0.14909688  0.76966615  0.41963522  1
  Ce3+  Ce6  1  0.25340834  0.88461570  0.06663801  1
  Ce3+  Ce7  1  0.77013358  0.38737656  0.56674758  1
  Ce3+  Ce8  1  0.25675164  0.63327424  0.06416004  1
  Ce3+  Ce9  1  0.62654870  0.51093588  0.93350001  1
  Ce3+  Ce10  1  0.00215526  0.89226950  0.07344292  1
  Ce3+  Ce11  1  0.75345328  0.63569627  0.05685920  1
  Pr3+  Pr12  1  0.00438046  0.13708690  0.06556815  1
  Pr3+  Pr13  1  0.01574414  0.88777419  0.55103476  1
  Pr3+  Pr14  1  0.12898255  0.75792474  0.94366213  1
  Pr3+  Pr15  1  0.64124483  0.51106834  0.44526325  1
  Pr3+  Pr16  1  0.14418658  0.51352809  0.43745589  1
  Pr3+  Pr17  1  0.63098701  0.01078293  0.93518893  1
  Pr3+  Pr18  1  0.39393898  0.51297818  0.44385117  1
  Pr3+  Pr19  1  0.37925368  0.00983762  0.94184054  1
  Pr3+  Pr20  1  0.01606156  0.13257641  0.56643090  1
  Pr3+  Pr21  1  0.88990292  0.25980326  0.44352122  1
  Pr3+  Pr22  1  0.88421362  0.75742653  0.94279517  1
  Pr3+  Pr23  1  0.89544178  0.76500434  0.41860797  1
  Pr3+  Pr24  1  0.88202692  0.26119568  0.93758486  1
  Pr3+  Pr25  1  0.50417573  0.88593094  0.05605945  1
  Pr3+  Pr26  1  0.75345508  0.13772354  0.05606237  1
  Pr3+  Pr27  1  0.39373066  0.26265783  0.44388771  1
  Pr3+  Pr28  1  0.51524155  0.38800669  0.56763519  1
  Pr3+  Pr29  1  0.26378264  0.63031908  0.56432718  1
  Pr3+  Pr30  1  0.77392394  0.86594898  0.58565814  1
  Nd3+  Nd31  1  0.37653836  0.26368204  0.93638745  1
  Nd3+  Nd32  1  0.62964054  0.26249978  0.93568171  1
  Nd3+  Nd33  1  0.00678952  0.63632207  0.07114472  1
  Nd3+  Nd34  1  0.25430818  0.38921260  0.05364033  1
  Nd3+  Nd35  1  0.25455353  0.13809613  0.05697577  1
  Nd3+  Nd36  1  0.26442232  0.88083849  0.56231635  1
  Nd3+  Nd37  1  0.88769409  0.01260926  0.43967830  1
  Nd3+  Nd38  1  0.75246414  0.38668309  0.05663858  1
  Nd3+  Nd39  1  0.39465725  0.76172968  0.43409479  1
  Nd3+  Nd40  1  0.38253982  0.52174196  0.92603658  1
  Nd3+  Nd41  1  0.14161641  0.01669726  0.42935062  1
  Nd3+  Nd42  1  0.51755342  0.13514914  0.56193018  1
  Nd3+  Nd43  1  0.63921222  0.76307357  0.42985854  1
  Nd3+  Nd44  1  0.12895145  0.00919651  0.94669985  1
  Nd3+  Nd45  1  0.64428178  0.25940650  0.45343634  1
  Nd3+  Nd46  1  0.39242005  0.01256210  0.44152033  1
  Nd3+  Nd47  1  0.89396568  0.51182581  0.43928387  1
  Nd3+  Nd48  1  0.63074494  0.75794950  0.94006138  1
  Nd3+  Nd49  1  0.88209887  0.00927595  0.93891829  1
  Nd3+  Nd50  1  0.14135481  0.25975079  0.44223508  1
  Sm3+  Sm51  1  0.76585532  0.64022306  0.54125589  1
  Sm3+  Sm52  1  0.26615589  0.13390380  0.55917231  1
  Sm3+  Sm53  1  0.64572209  0.01101748  0.44516285  1
  Sm3+  Sm54  1  0.12776362  0.25964308  0.94035913  1
  Sm3+  Sm55  1  0.88173277  0.51017012  0.94597653  1
  Sm3+  Sm56  1  0.01105698  0.38656710  0.56726307  1
  Sm3+  Sm57  1  0.50368101  0.13636519  0.05109295  1
  Sm3+  Sm58  1  0.50300655  0.38734006  0.05278907  1
  Sm3+  Sm59  1  0.50495918  0.63399548  0.06115130  1
  Sm3+  Sm60  1  0.75425825  0.88521699  0.05647945  1
  Sm3+  Sm61  1  0.52052503  0.89068534  0.55583636  1
  Sm3+  Sm62  1  0.00712393  0.38873675  0.05403479  1
  Sm3+  Sm63  1  0.37725061  0.75849105  0.94784692  1
  Bi2+  Bi64  1  -0.00494349  0.11549455  0.30007839  1
  Bi2+  Bi65  1  -0.03165293  0.08382399  0.80782629  1
  Bi2+  Bi66  1  -0.00767888  0.33517559  0.25132669  1
  Bi2+  Bi67  1  -0.10677957  0.38311126  0.80309310  1
  Bi2+  Bi68  1  -0.02004672  0.59960199  0.29731698  1
  Bi2+  Bi69  1  -0.02247861  0.65125828  0.78943452  1
  Bi2+  Bi70  1  -0.00212041  0.86251113  0.29387213  1
  Bi2+  Bi71  1  -0.00371522  0.84716290  0.81080576  1
  Bi2+  Bi72  1  0.24526190  0.15991906  0.28159480  1
  Bi2+  Bi73  1  0.22433229  0.04725205  0.77582611  1
  Bi2+  Bi74  1  0.26203872  0.36572588  0.25612854  1
  Bi2+  Bi75  1  0.23639499  0.33080442  0.81423916  1
  Bi2+  Bi76  1  0.22901911  0.61899029  0.29975592  1
  Bi2+  Bi77  1  0.25442226  0.63348941  0.79104858  1
  Bi2+  Bi78  1  0.26801127  0.88351877  0.28509330  1
  Bi2+  Bi79  1  0.19431854  0.83398101  0.80831964  1
  Bi2+  Bi80  1  0.51698254  0.17162668  0.29068947  1
  Bi2+  Bi81  1  0.48714753  0.08756234  0.79861176  1
  Bi2+  Bi82  1  0.44445709  0.36002146  0.30041279  1
  Bi2+  Bi83  1  0.51588065  0.35197395  0.79691987  1
  Bi2+  Bi84  1  0.47759667  0.63735608  0.29150965  1
  Bi2+  Bi85  1  0.50479391  0.64534233  0.79526556  1
  Bi2+  Bi86  1  0.51521548  0.90997537  0.30120511  1
  Bi2+  Bi87  1  0.45176273  0.89580461  0.77517995  1
  Bi2+  Bi88  1  0.75053191  0.11180250  0.30824064  1
  Bi2+  Bi89  1  0.72893206  0.11508172  0.79224361  1
  Bi2+  Bi90  1  0.67686929  0.39025454  0.30800676  1
  Bi2+  Bi91  1  0.70300595  0.41480281  0.81958040  1
  Bi2+  Bi92  1  0.68997166  0.58584968  0.27622171  1
  Bi2+  Bi93  1  0.71494163  0.60438013  0.79049683  1
  Bi2+  Bi94  1  0.66288981  0.85606183  0.23125118  1
  Bi2+  Bi95  1  0.75758867  0.86483288  0.73247983  1
  Bi2+  Bi96  1  0.12291646  0.03976398  0.22178130  1
  Bi2+  Bi97  1  0.12047237  0.00156944  0.67818452  1
  Bi2+  Bi98  1  0.12631434  0.22939069  0.19544591  1
  Bi2+  Bi99  1  0.09166881  0.17464477  0.74149370  1
  Bi2+  Bi100  1  0.11199862  0.49061301  0.19353372  1
  Bi2+  Bi101  1  0.11432844  0.49223742  0.71180416  1
  Bi2+  Bi102  1  0.12740952  0.74604853  0.19743810  1
  Bi2+  Bi103  1  0.12237873  0.80469860  0.70599554  1
  Bi2+  Bi104  1  0.41977499  0.00816093  0.21472556  1
  Bi2+  Bi105  1  0.32242414  -0.04129815  0.68340968  1
  Bi2+  Bi106  1  0.40022157  0.24383032  0.20656115  1
  Bi2+  Bi107  1  0.38796812  0.14009041  0.70542527  1
  Bi2+  Bi108  1  0.40809696  0.50097798  0.21846993  1
  Bi2+  Bi109  1  0.37394955  0.49547846  0.71780035  1
  Bi2+  Bi110  1  0.40398295  0.78397752  0.22548327  1
  Bi2+  Bi111  1  0.33432920  0.76739711  0.72273674  1
  Bi2+  Bi112  1  0.61453155  0.04740637  0.21335385  1
  Bi2+  Bi113  1  0.58593550  -0.06349594  0.69775863  1
  Bi2+  Bi114  1  0.65148923  0.27309543  0.21531244  1
  Bi2+  Bi115  1  0.54830133  0.26834657  0.69695248  1
  Bi2+  Bi116  1  0.60456886  0.46514070  0.19444897  1
  Bi2+  Bi117  1  0.64905677  0.43450728  0.70740080  1
  Bi2+  Bi118  1  0.59839125  0.68468659  0.18911460  1
  Bi2+  Bi119  1  0.61930065  0.70522555  0.70763340  1
  Bi2+  Bi120  1  0.87006210  0.03082816  0.21978888  1
  Bi2+  Bi121  1  0.93954064  -0.05705633  0.71756592  1
  Bi2+  Bi122  1  0.84512257  0.22119284  0.21524648  1
  Bi2+  Bi123  1  0.89182145  0.25665881  0.71484053  1
  Bi2+  Bi124  1  0.83215085  0.45490180  0.24304411  1
  Bi2+  Bi125  1  0.83386739  0.50199457  0.71534292  1
  Bi2+  Bi126  1  0.86308729  0.74053602  0.19967208  1
  Bi2+  Bi127  1  0.88544446  0.70376989  0.69568714  1
  S2-  S128  1  -0.00765852  0.04086027  0.14820444  1
  S2-  S129  1  -0.07501785  0.13394857  0.65204266  1
  S2-  S130  1  -0.00596257  0.40327301  0.15110123  1
  S2-  S131  1  0.08955508  0.36685956  0.65399736  1
  S2-  S132  1  -0.00650862  0.63062694  0.17242062  1
  S2-  S133  1  0.01844997  0.60009069  0.65698493  1
  S2-  S134  1  -0.00681180  0.83753992  0.16643782  1
  S2-  S135  1  -0.06756212  0.83745674  0.63430182  1
  S2-  S136  1  0.23975272  0.11315539  0.15375064  1
  S2-  S137  1  0.25815160  0.19396393  0.64984751  1
  S2-  S138  1  0.22700682  0.38601833  0.15150501  1
  S2-  S139  1  0.26688255  0.36997341  0.72442889  1
  S2-  S140  1  0.21611001  0.62435014  0.15939123  1
  S2-  S141  1  0.25217991  0.53440596  0.65179359  1
  S2-  S142  1  0.22703283  0.86035024  0.16241002  1
  S2-  S143  1  0.24005704  0.75774171  0.63454967  1
  S2-  S144  1  0.49545080  0.12907576  0.14757269  1
  S2-  S145  1  0.54880196  0.10115187  0.65716333  1
  S2-  S146  1  0.47092500  0.37832979  0.14829348  1
  S2-  S147  1  0.42562285  0.37504941  0.65258129  1
  S2-  S148  1  0.43778326  0.63402307  0.15074288  1
  S2-  S149  1  0.50272646  0.59233428  0.67044200  1
  S2-  S150  1  0.47493975  0.88232516  0.15466200  1
  S2-  S151  1  0.52647622  0.80301426  0.63906278  1
  S2-  S152  1  0.75054378  0.10740128  0.15321562  1
  S2-  S153  1  0.74038846  0.19491390  0.70124832  1
  S2-  S154  1  0.75162610  0.38319053  0.15466601  1
  S2-  S155  1  0.88123379  0.38596655  0.64125369  1
  S2-  S156  1  0.76841405  0.63479519  0.15346496  1
  S2-  S157  1  0.74867615  0.70099079  0.63171513  1
  S2-  S158  1  0.77385483  0.87175954  0.15336483  1
  S2-  S159  1  0.74795194  0.98299798  0.65821432  1
  S2-  S160  1  0.13990539  -0.08361460  0.34594952  1
  S2-  S161  1  0.10371118  -0.01785111  0.85016357  1
  S2-  S162  1  0.13840111  0.15197165  0.36230531  1
  S2-  S163  1  0.11435914  0.21783835  0.84571962  1
  S2-  S164  1  0.11351247  0.51168000  0.33674901  1
  S2-  S165  1  0.10710861  0.42657975  0.81034824  1
  S2-  S166  1  0.08432278  0.71949128  0.32632462  1
  S2-  S167  1  0.12292406  0.67000178  0.85573724  1
  S2-  S168  1  0.37454384  -0.01813418  0.34464241  1
  S2-  S169  1  0.35755751  -0.00326522  0.84402718  1
  S2-  S170  1  0.37732615  0.21216585  0.34844396  1
  S2-  S171  1  0.39591045  0.25070194  0.83788887  1
  S2-  S172  1  0.34184560  0.54766034  0.34885479  1
  S2-  S173  1  0.28485782  0.49278224  0.84610120  1
  S2-  S174  1  0.28879866  0.76013851  0.35337014  1
  S2-  S175  1  0.37880160  0.69196372  0.85863956  1
  S2-  S176  1  0.65709466  -0.00392197  0.34655882  1
  S2-  S177  1  0.61726220  0.00067481  0.83565852  1
  S2-  S178  1  0.64828732  0.23692977  0.35504631  1
  S2-  S179  1  0.64022675  0.22459000  0.83842930  1
  S2-  S180  1  0.58121732  0.52802972  0.35234665  1
  S2-  S181  1  0.51455927  0.50819181  0.85678994  1
  S2-  S182  1  0.51808745  0.75908242  0.35885410  1
  S2-  S183  1  0.62434980  0.73517111  0.84238357  1
  S2-  S184  1  0.90759256  -0.03159319  0.34239660  1
  S2-  S185  1  0.83458960  0.00146592  0.84374880  1
  S2-  S186  1  0.88691268  0.21458826  0.34669961  1
  S2-  S187  1  0.86803356  0.21751581  0.84075631  1
  S2-  S188  1  0.88215730  0.48599692  0.34243138  1
  S2-  S189  1  0.94806072  0.52859398  0.85754480  1
  S2-  S190  1  0.87739716  0.74321333  0.31685324  1
  S2-  S191  1  0.86679701  0.75063473  0.84292197  1
  S2-  S192  1  0.01293934  0.13437483  0.46016867  1
  S2-  S193  1  0.00524860  0.13514518  0.95810636  1
  S2-  S194  1  0.01621658  0.38474585  0.45401528  1
  S2-  S195  1  0.00809217  0.38574001  0.94968270  1
  S2-  S196  1  0.01545606  0.63835404  0.44698237  1
  S2-  S197  1  0.00535846  0.63181503  0.96345528  1
  S2-  S198  1  0.01568751  0.88993135  0.44693060  1
  S2-  S199  1  0.00459479  0.88560055  0.96106625  1
  S2-  S200  1  0.26947069  0.13681023  0.45680345  1
  S2-  S201  1  0.25266712  0.13624145  0.95031131  1
  S2-  S202  1  0.26584746  0.38325540  0.44166552  1
  S2-  S203  1  0.24857892  0.38521697  0.94877140  1
  S2-  S204  1  0.26729243  0.63770971  0.45792384  1
  S2-  S205  1  0.25345641  0.63341847  0.95816381  1
  S2-  S206  1  0.26858714  0.89265506  0.45692939  1
  S2-  S207  1  0.25471424  0.88367121  0.95788141  1
  S2-  S208  1  0.51991845  0.13401433  0.45526631  1
  S2-  S209  1  0.50421657  0.13755934  0.94719067  1
  S2-  S210  1  0.51919788  0.38500299  0.45960074  1
  S2-  S211  1  0.50276925  0.38316299  0.95036825  1
  S2-  S212  1  0.51895598  0.63789564  0.46254888  1
  S2-  S213  1  0.50622095  0.63906036  0.95854321  1
  S2-  S214  1  0.51863139  0.89163940  0.45380855  1
  S2-  S215  1  0.50411190  0.88185936  0.94867220  1
  S2-  S216  1  0.76498652  0.13453151  0.45558328  1
  S2-  S217  1  0.75502840  0.13624990  0.95054007  1
  S2-  S218  1  0.76743869  0.38709050  0.45786632  1
  S2-  S219  1  0.75660368  0.38639179  0.95153111  1
  S2-  S220  1  0.76604879  0.63778647  0.43700459  1
  S2-  S221  1  0.75636880  0.63227812  0.95013171  1
  S2-  S222  1  0.76512263  0.88430253  0.43957436  1
  S2-  S223  1  0.75545379  0.88382124  0.95145203  1
  S2-  S224  1  0.13130009  0.01180871  0.05102677  1
  S2-  S225  1  0.14318541  0.01161017  0.54034916  1
  S2-  S226  1  0.12872406  0.26256151  0.04552521  1
  S2-  S227  1  0.13993433  0.25906891  0.54648892  1
  S2-  S228  1  0.12738549  0.51063049  0.05013801  1
  S2-  S229  1  0.13289924  0.50813416  0.54382300  1
  S2-  S230  1  0.12761867  0.76097941  0.05086311  1
  S2-  S231  1  0.13737712  0.76310958  0.53308743  1
  S2-  S232  1  0.37859483  0.01252711  0.04812462  1
  S2-  S233  1  0.39205293  0.01066408  0.54885939  1
  S2-  S234  1  0.37971885  0.26123860  0.04304377  1
  S2-  S235  1  0.39047227  0.25783143  0.54938702  1
  S2-  S236  1  0.38171148  0.51056168  0.04085849  1
  S2-  S237  1  0.39971379  0.51810847  0.54889308  1
  S2-  S238  1  0.38006671  0.75972014  0.05058209  1
  S2-  S239  1  0.39321450  0.76686980  0.54124742  1
  S2-  S240  1  0.62913856  0.01095813  0.04358087  1
  S2-  S241  1  0.64549674  0.01000885  0.54876525  1
  S2-  S242  1  0.62590890  0.26206461  0.04431265  1
  S2-  S243  1  0.64575933  0.25874860  0.55974269  1
  S2-  S244  1  0.62715736  0.51021191  0.04393914  1
  S2-  S245  1  0.64444427  0.51444529  0.55296883  1
  S2-  S246  1  0.62922127  0.76078867  0.04708598  1
  S2-  S247  1  0.64576057  0.76968625  0.53376464  1
  S2-  S248  1  0.87504702  0.01019077  0.04530445  1
  S2-  S249  1  0.88443182  0.00739130  0.54698621  1
  S2-  S250  1  0.88079760  0.26411557  0.04692174  1
  S2-  S251  1  0.88834142  0.25601729  0.54826679  1
  S2-  S252  1  0.88020666  0.50938325  0.05018347  1
  S2-  S253  1  0.88826824  0.51657327  0.54409008  1
  S2-  S254  1  0.87942488  0.76118836  0.04933595  1
  S2-  S255  1  0.88782598  0.76076841  0.52657035  1
