# generated using pymatgen
data_La6Ce6Pr19Nd20Sm13(BiS2)64
_symmetry_space_group_name_H-M   'P 1'
_cell_length_a   16.11464492
_cell_length_b   16.08788896
_cell_length_c   27.32586518
_cell_angle_alpha   89.86596257
_cell_angle_beta   90.22836360
_cell_angle_gamma   89.87938421
_symmetry_Int_Tables_number   1
_chemical_formula_structural   La6Ce6Pr19Nd20Sm13(BiS2)64
_chemical_formula_sum   'La6 Ce6 Pr19 Nd20 Sm13 Bi64 S128'
_cell_volume   7084.15594677
_cell_formula_units_Z   1
loop_
 _symmetry_equiv_pos_site_id
 _symmetry_equiv_pos_as_xyz
  1  'x, y, z'
loop_
 _atom_type_symbol
 _atom_type_oxidation_number
  La3+  3.0
  Ce3+  3.0
  Pr3+  3.0
  Nd3+  3.0
  Sm3+  3.0
  Bi2+  2.0
  S2-  -2.0
loop_
 _atom_site_type_symbol
 _atom_site_label
 _atom_site_symmetry_multiplicity
 _atom_site_fract_x
 _atom_site_fract_y
 _atom_site_fract_z
 _atom_site_occupancy
  La3+  La0  1  0.86201522  0.73145677  0.41657205  1
  La3+  La1  1  0.89385626  0.26576789  0.90243328  1
  La3+  La2  1  -0.00088078  0.62772625  0.11544254  1
  La3+  La3  1  0.50158131  0.35523093  0.57488762  1
  La3+  La4  1  0.62759934  0.00161061  0.88455571  1
  La3+  La5  1  0.00769800  0.88523857  0.07101769  1
  Ce3+  Ce6  1  0.76309338  0.63309026  0.05225024  1
  Ce3+  Ce7  1  0.12029613  -0.02138979  0.44081968  1
  Ce3+  Ce8  1  0.00967043  0.13059667  0.05878847  1
  Ce3+  Ce9  1  0.01147808  0.38397095  0.06160225  1
  Ce3+  Ce10  1  0.37761560  0.47717413  0.44468287  1
  Ce3+  Ce11  1  0.88421637  0.01057222  0.92878548  1
  Pr3+  Pr12  1  0.62858175  0.75696045  0.93844943  1
  Pr3+  Pr13  1  0.00360818  0.35190248  0.56727785  1
  Pr3+  Pr14  1  0.88481972  0.50723180  0.93856351  1
  Pr3+  Pr15  1  0.50967568  0.88555700  0.05819274  1
  Pr3+  Pr16  1  0.51172332  0.38588851  0.06544197  1
  Pr3+  Pr17  1  0.25179375  0.10151365  0.56096624  1
  Pr3+  Pr18  1  0.50715845  0.63641754  0.07119264  1
  Pr3+  Pr19  1  -0.00118506  0.84523187  0.56407179  1
  Pr3+  Pr20  1  0.24702423  0.35556694  0.56535440  1
  Pr3+  Pr21  1  0.50269984  0.85703768  0.58334043  1
  Pr3+  Pr22  1  0.24647372  0.60915448  0.55737288  1
  Pr3+  Pr23  1  0.13233770  0.75676928  0.94501007  1
  Pr3+  Pr24  1  0.75409074  0.84859862  0.57867192  1
  Pr3+  Pr25  1  0.86873411  0.23241151  0.42782411  1
  Pr3+  Pr26  1  0.25970167  0.13234582  0.06270179  1
  Pr3+  Pr27  1  0.13031045  0.01015901  0.93211247  1
  Pr3+  Pr28  1  0.76396848  0.38275626  0.05936910  1
  Pr3+  Pr29  1  0.76061797  0.88446885  0.05457194  1
  Pr3+  Pr30  1  0.88212674  0.76131495  0.93742727  1
  Nd3+  Nd31  1  0.38350718  0.00584630  0.93238259  1
  Nd3+  Nd32  1  0.75962644  0.35876156  0.56770122  1
  Nd3+  Nd33  1  0.37868468  -0.01924318  0.43419852  1
  Nd3+  Nd34  1  0.76106973  0.13409859  0.04709585  1
  Nd3+  Nd35  1  0.87264343  0.47896571  0.43254632  1
  Nd3+  Nd36  1  0.51139598  0.13296278  0.05591335  1
  Nd3+  Nd37  1  -0.00239435  0.10544138  0.55774256  1
  Nd3+  Nd38  1  0.37815164  0.22513706  0.43084446  1
  Nd3+  Nd39  1  0.62588599  -0.02086877  0.45068966  1
  Nd3+  Nd40  1  0.49768094  0.10788728  0.56525979  1
  Nd3+  Nd41  1  0.75154674  0.11505292  0.57342352  1
  Nd3+  Nd42  1  0.25000390  0.85289923  0.55368100  1
  Nd3+  Nd43  1  0.13368983  0.51106080  0.94655814  1
  Nd3+  Nd44  1  0.13597702  0.26045152  0.93670968  1
  Nd3+  Nd45  1  0.38018682  0.74961854  0.93455727  1
  Nd3+  Nd46  1  0.13516831  0.73115757  0.41892190  1
  Nd3+  Nd47  1  0.25589591  0.63869317  0.07751159  1
  Nd3+  Nd48  1  0.12354210  0.22865316  0.44090413  1
  Nd3+  Nd49  1  0.37912882  0.73012850  0.43725415  1
  Nd3+  Nd50  1  0.12525579  0.47628032  0.43184807  1
  Sm3+  Sm51  1  0.25885076  0.88230585  0.05674165  1
  Sm3+  Sm52  1  0.75406775  0.60865479  0.55753646  1
  Sm3+  Sm53  1  0.62348553  0.23074134  0.43939557  1
  Sm3+  Sm54  1  0.87122124  -0.02257125  0.44885668  1
  Sm3+  Sm55  1  0.63219967  0.50153695  0.93947928  1
  Sm3+  Sm56  1  0.62378376  0.47900647  0.45085684  1
  Sm3+  Sm57  1  0.38377804  0.50858906  0.94460871  1
  Sm3+  Sm58  1  0.38542935  0.25841668  0.94756887  1
  Sm3+  Sm59  1  0.62236272  0.73240071  0.44754019  1
  Sm3+  Sm60  1  0.00165002  0.60872928  0.54568454  1
  Sm3+  Sm61  1  0.25830618  0.38727247  0.05929588  1
  Sm3+  Sm62  1  0.49869106  0.60577909  0.57426448  1
  Sm3+  Sm63  1  0.63391628  0.25808650  0.93089074  1
  Bi2+  Bi64  1  -0.05758200  0.13909484  0.27633070  1
  Bi2+  Bi65  1  0.05841592  0.10408100  0.78023184  1
  Bi2+  Bi66  1  0.01039559  0.37948861  0.28745424  1
  Bi2+  Bi67  1  0.03267444  0.39403363  0.78724809  1
  Bi2+  Bi68  1  0.00901030  0.63175558  0.31288900  1
  Bi2+  Bi69  1  -0.03218548  0.58413322  0.76582226  1
  Bi2+  Bi70  1  0.00492975  0.91479605  0.30252996  1
  Bi2+  Bi71  1  0.01410751  0.86141678  0.79029037  1
  Bi2+  Bi72  1  0.21013289  0.20252637  0.29295485  1
  Bi2+  Bi73  1  0.24202582  0.06934525  0.82220396  1
  Bi2+  Bi74  1  0.35639943  0.32813568  0.29708250  1
  Bi2+  Bi75  1  0.26460135  0.27504547  0.80300517  1
  Bi2+  Bi76  1  0.30872353  0.60803526  0.28370077  1
  Bi2+  Bi77  1  0.22303441  0.61561245  0.80825908  1
  Bi2+  Bi78  1  0.32156523  0.94373610  0.30025184  1
  Bi2+  Bi79  1  0.22740391  0.88187018  0.78533715  1
  Bi2+  Bi80  1  0.47879606  0.14849640  0.29051793  1
  Bi2+  Bi81  1  0.45025195  0.21346669  0.76047161  1
  Bi2+  Bi82  1  0.55167302  0.41749656  0.26094837  1
  Bi2+  Bi83  1  0.50486399  0.46533967  0.81324573  1
  Bi2+  Bi84  1  0.48227044  0.68457239  0.30762545  1
  Bi2+  Bi85  1  0.56300178  0.65061842  0.80749616  1
  Bi2+  Bi86  1  0.48907751  0.87509866  0.33646567  1
  Bi2+  Bi87  1  0.47799456  0.88076955  0.78668831  1
  Bi2+  Bi88  1  0.73941694  0.13877784  0.26358968  1
  Bi2+  Bi89  1  0.73022602  0.12746191  0.77553894  1
  Bi2+  Bi90  1  0.74299518  0.34480792  0.29996731  1
  Bi2+  Bi91  1  0.76047471  0.39713695  0.78540370  1
  Bi2+  Bi92  1  0.72769165  0.56151415  0.28244134  1
  Bi2+  Bi93  1  0.75382601  0.60571318  0.79168545  1
  Bi2+  Bi94  1  0.73807423  0.90313427  0.31052340  1
  Bi2+  Bi95  1  0.76191238  0.86542220  0.78582955  1
  Bi2+  Bi96  1  0.10727382  0.06183210  0.22225458  1
  Bi2+  Bi97  1  0.10612130  -0.06314078  0.69708818  1
  Bi2+  Bi98  1  0.05570697  0.24857173  0.20064403  1
  Bi2+  Bi99  1  0.14001343  0.24451956  0.71127321  1
  Bi2+  Bi100  1  0.14907467  0.47782387  0.21457601  1
  Bi2+  Bi101  1  0.12521380  0.50998587  0.71161690  1
  Bi2+  Bi102  1  0.15009142  0.77306706  0.21731559  1
  Bi2+  Bi103  1  0.16492215  0.72403132  0.69758397  1
  Bi2+  Bi104  1  0.39538997  0.01617884  0.20737099  1
  Bi2+  Bi105  1  0.35065695  0.05521440  0.72626819  1
  Bi2+  Bi106  1  0.32908957  0.20666662  0.20499727  1
  Bi2+  Bi107  1  0.32635812  0.31248763  0.69029341  1
  Bi2+  Bi108  1  0.40102626  0.49812331  0.20092164  1
  Bi2+  Bi109  1  0.33758317  0.47415355  0.75412414  1
  Bi2+  Bi110  1  0.38938342  0.77630147  0.21551474  1
  Bi2+  Bi111  1  0.39544115  0.65563573  0.72561799  1
  Bi2+  Bi112  1  0.57981000  -0.08076593  0.23292765  1
  Bi2+  Bi113  1  0.60168747  0.03674169  0.68295128  1
  Bi2+  Bi114  1  0.59069244  0.22827709  0.20846162  1
  Bi2+  Bi115  1  0.60633333  0.29841770  0.71113670  1
  Bi2+  Bi116  1  0.58757873  0.57328778  0.19248644  1
  Bi2+  Bi117  1  0.61559599  0.49570703  0.71096197  1
  Bi2+  Bi118  1  0.65106139  0.73497642  0.24913265  1
  Bi2+  Bi119  1  0.64440729  0.72942668  0.71149301  1
  Bi2+  Bi120  1  0.86104425  0.00889995  0.19977137  1
  Bi2+  Bi121  1  0.92337508  0.00497925  0.71562936  1
  Bi2+  Bi122  1  0.85317622  0.26014812  0.19614639  1
  Bi2+  Bi123  1  0.88082441  0.24761255  0.69932720  1
  Bi2+  Bi124  1  0.84740149  0.48934994  0.20244161  1
  Bi2+  Bi125  1  0.82092380  0.51350402  0.69621480  1
  Bi2+  Bi126  1  0.86750164  0.76095720  0.21435567  1
  Bi2+  Bi127  1  0.90885390  0.73570451  0.70210477  1
  S2-  S128  1  0.00725558  0.02458213  0.13815358  1
  S2-  S129  1  -0.00164585  0.18568017  0.64572627  1
  S2-  S130  1  0.00492765  0.45597977  0.15069758  1
  S2-  S131  1  -0.11019513  0.38269404  0.64190035  1
  S2-  S132  1  -0.03058273  0.62134727  0.22253452  1
  S2-  S133  1  0.02757517  0.69985910  0.62896348  1
  S2-  S134  1  0.00994495  0.79359995  0.15926608  1
  S2-  S135  1  -0.10880908  0.86899556  0.64616894  1
  S2-  S136  1  0.24532091  0.06914779  0.15571334  1
  S2-  S137  1  0.25029261  0.13239096  0.66043354  1
  S2-  S138  1  0.25715035  0.41015820  0.15768259  1
  S2-  S139  1  0.12889453  0.38002239  0.64137773  1
  S2-  S140  1  0.16044017  0.62362820  0.16392700  1
  S2-  S141  1  0.26719507  0.59998450  0.65746253  1
  S2-  S142  1  0.25163043  0.83058904  0.15202885  1
  S2-  S143  1  0.25064265  0.84533459  0.65326934  1
  S2-  S144  1  0.52173823  0.10103778  0.15334485  1
  S2-  S145  1  0.50377305  0.22255819  0.64359852  1
  S2-  S146  1  0.49786322  0.35386774  0.16312337  1
  S2-  S147  1  0.49072324  0.48409373  0.64626500  1
  S2-  S148  1  0.38763438  0.64273708  0.14580085  1
  S2-  S149  1  0.48099653  0.71698384  0.65094672  1
  S2-  S150  1  0.51499018  0.82921699  0.15426553  1
  S2-  S151  1  0.45472805  0.99862449  0.64404162  1
  S2-  S152  1  0.76850988  0.12264917  0.14812738  1
  S2-  S153  1  0.78001484  0.05581433  0.67094483  1
  S2-  S154  1  0.74338518  0.38655404  0.15985901  1
  S2-  S155  1  0.73458625  0.24921661  0.64620084  1
  S2-  S156  1  0.82098094  0.63887857  0.14368139  1
  S2-  S157  1  0.76670267  0.69614493  0.64225917  1
  S2-  S158  1  0.78548463  0.87876461  0.15542666  1
  S2-  S159  1  0.63538456  0.87093656  0.65488152  1
  S2-  S160  1  0.11775659  0.00793039  0.34536063  1
  S2-  S161  1  0.01050751  0.00209910  0.85665025  1
  S2-  S162  1  0.07792069  0.26397645  0.34746234  1
  S2-  S163  1  0.04963811  0.25464426  0.84976940  1
  S2-  S164  1  0.12190183  0.49617380  0.33205680  1
  S2-  S165  1  0.15154408  0.47510533  0.84951524  1
  S2-  S166  1  0.10390357  0.78191967  0.32121878  1
  S2-  S167  1  0.13398379  0.76351686  0.84313495  1
  S2-  S168  1  0.36001145  0.09165478  0.35690218  1
  S2-  S169  1  0.46316483  0.01437793  0.84494824  1
  S2-  S170  1  0.50779050  0.25445184  0.36419316  1
  S2-  S171  1  0.41108861  0.29669018  0.85320342  1
  S2-  S172  1  0.37273639  0.47711037  0.34729997  1
  S2-  S173  1  0.35889368  0.61331905  0.86798468  1
  S2-  S174  1  0.28183337  0.71668996  0.35498307  1
  S2-  S175  1  0.36489911  0.83008265  0.84455246  1
  S2-  S176  1  0.61539777  0.00120071  0.35139576  1
  S2-  S177  1  0.62127293  -0.01716516  0.77221449  1
  S2-  S178  1  0.73160031  0.21423955  0.36092031  1
  S2-  S179  1  0.63040618  0.16731039  0.84705982  1
  S2-  S180  1  0.63541107  0.46316019  0.35309122  1
  S2-  S181  1  0.63828002  0.39199918  0.86154961  1
  S2-  S182  1  0.70374882  0.76220749  0.36296624  1
  S2-  S183  1  0.62044406  0.82841900  0.84690288  1
  S2-  S184  1  0.86622603  -0.00722598  0.35046373  1
  S2-  S185  1  0.79338180  0.00459627  0.84272052  1
  S2-  S186  1  0.88359199  0.36327895  0.35594100  1
  S2-  S187  1  0.84321527  0.23200335  0.80369857  1
  S2-  S188  1  0.85985588  0.58373562  0.35209536  1
  S2-  S189  1  0.89451633  0.42395504  0.85091568  1
  S2-  S190  1  0.90286862  0.77645484  0.31712866  1
  S2-  S191  1  0.87212601  0.78419407  0.83676542  1
  S2-  S192  1  -0.00583862  0.10602374  0.45135830  1
  S2-  S193  1  0.00917188  0.14000210  0.95437381  1
  S2-  S194  1  0.00224321  0.35611286  0.45896497  1
  S2-  S195  1  0.01175588  0.38213774  0.95655460  1
  S2-  S196  1  0.00561053  0.60831010  0.44293068  1
  S2-  S197  1  0.00710415  0.63258149  0.93698388  1
  S2-  S198  1  -0.00232808  0.85287040  0.44935427  1
  S2-  S199  1  0.00838800  0.88181190  0.95777038  1
  S2-  S200  1  0.24615702  0.10354195  0.45494398  1
  S2-  S201  1  0.26048876  0.13616889  0.95499252  1
  S2-  S202  1  0.25029401  0.35151370  0.45153556  1
  S2-  S203  1  0.26188166  0.38455783  0.95502874  1
  S2-  S204  1  0.25069070  0.60022613  0.45176419  1
  S2-  S205  1  0.25617529  0.63207472  0.96872188  1
  S2-  S206  1  0.25180686  0.85954774  0.44752177  1
  S2-  S207  1  0.25671247  0.88463869  0.95221989  1
  S2-  S208  1  0.50211885  0.10456149  0.45985332  1
  S2-  S209  1  0.50722309  0.13625913  0.95154812  1
  S2-  S210  1  0.50137484  0.35799387  0.46553697  1
  S2-  S211  1  0.50603900  0.38421583  0.96001804  1
  S2-  S212  1  0.50147190  0.60558381  0.45943582  1
  S2-  S213  1  0.51117117  0.62681369  0.96070978  1
  S2-  S214  1  0.50042043  0.85420265  0.46486386  1
  S2-  S215  1  0.50469254  0.88235366  0.95242824  1
  S2-  S216  1  0.75009942  0.10257009  0.46345979  1
  S2-  S217  1  0.77120934  0.14893451  0.94383076  1
  S2-  S218  1  0.74693862  0.35824682  0.46078370  1
  S2-  S219  1  0.76333831  0.37842390  0.95450890  1
  S2-  S220  1  0.74259049  0.60459390  0.45533583  1
  S2-  S221  1  0.75495167  0.62962868  0.94513697  1
  S2-  S222  1  0.74891382  0.85703272  0.46663943  1
  S2-  S223  1  0.75302304  0.88486702  0.94879407  1
  S2-  S224  1  0.13877567  0.00689310  0.03953208  1
  S2-  S225  1  0.12147581  -0.02256209  0.54851219  1
  S2-  S226  1  0.13776650  0.25997729  0.04734334  1
  S2-  S227  1  0.12827413  0.22637635  0.54501086  1
  S2-  S228  1  0.13469037  0.51003326  0.05122015  1
  S2-  S229  1  0.12395297  0.48428258  0.53857376  1
  S2-  S230  1  0.13368875  0.75973411  0.05023814  1
  S2-  S231  1  0.12760778  0.73199070  0.52726084  1
  S2-  S232  1  0.38302359  0.00747323  0.04333948  1
  S2-  S233  1  0.37213841  -0.02366281  0.53906484  1
  S2-  S234  1  0.38344004  0.26096121  0.05265382  1
  S2-  S235  1  0.37007374  0.23095231  0.54123719  1
  S2-  S236  1  0.38341224  0.50753913  0.04852066  1
  S2-  S237  1  0.36968533  0.48124105  0.54923004  1
  S2-  S238  1  0.38322630  0.76116770  0.04226869  1
  S2-  S239  1  0.37441718  0.72994024  0.54376712  1
  S2-  S240  1  0.63561161  0.00954710  0.04948406  1
  S2-  S241  1  0.62895571  -0.01356705  0.55470057  1
  S2-  S242  1  0.63440409  0.25923083  0.04387016  1
  S2-  S243  1  0.62765829  0.23354336  0.54271435  1
  S2-  S244  1  0.63596739  0.50916180  0.04548470  1
  S2-  S245  1  0.63185594  0.48457195  0.55469642  1
  S2-  S246  1  0.63461716  0.75644147  0.04637504  1
  S2-  S247  1  0.62228054  0.72658415  0.54971471  1
  S2-  S248  1  0.88300818  0.00941447  0.03646728  1
  S2-  S249  1  0.87482923  -0.01636230  0.55071265  1
  S2-  S250  1  0.88857256  0.25770601  0.05426764  1
  S2-  S251  1  0.87628635  0.23134075  0.53866286  1
  S2-  S252  1  0.88859013  0.51024241  0.04446746  1
  S2-  S253  1  0.87858285  0.48912327  0.53892424  1
  S2-  S254  1  0.88683002  0.75589199  0.04317907  1
  S2-  S255  1  0.87625794  0.72633836  0.53221702  1
