# generated using pymatgen
data_La6Ce6Pr19Nd20Sm13(BiS2)64
_symmetry_space_group_name_H-M   'P 1'
_cell_length_a   16.15214023
_cell_length_b   16.14616166
_cell_length_c   27.36146372
_cell_angle_alpha   89.90717581
_cell_angle_beta   90.28059411
_cell_angle_gamma   90.03569049
_symmetry_Int_Tables_number   1
_chemical_formula_structural   La6Ce6Pr19Nd20Sm13(BiS2)64
_chemical_formula_sum   'La6 Ce6 Pr19 Nd20 Sm13 Bi64 S128'
_cell_volume   7135.63848968
_cell_formula_units_Z   1
loop_
 _symmetry_equiv_pos_site_id
 _symmetry_equiv_pos_as_xyz
  1  'x, y, z'
loop_
 _atom_type_symbol
 _atom_type_oxidation_number
  La3+  3.0
  Ce3+  3.0
  Pr3+  3.0
  Nd3+  3.0
  Sm3+  3.0
  Bi2+  2.0
  S2-  -2.0
loop_
 _atom_site_type_symbol
 _atom_site_label
 _atom_site_symmetry_multiplicity
 _atom_site_fract_x
 _atom_site_fract_y
 _atom_site_fract_z
 _atom_site_occupancy
  La3+  La0  1  0.75255938  0.38462840  0.57023182  1
  La3+  La1  1  0.23442400  0.87738479  0.11014189  1
  La3+  La2  1  0.86867011  0.00879917  0.88851389  1
  La3+  La3  1  0.36188681  0.49838402  0.89627934  1
  La3+  La4  1  0.12448863  -0.01313376  0.92614763  1
  La3+  La5  1  0.74355874  0.37933948  0.10027187  1
  Ce3+  Ce6  1  0.87136431  0.24511391  0.94291811  1
  Ce3+  Ce7  1  0.25624134  0.13190616  0.55961586  1
  Ce3+  Ce8  1  0.62138783  0.74759303  0.94224389  1
  Ce3+  Ce9  1  0.62350059  0.49432738  0.93707206  1
  Ce3+  Ce10  1  0.24679641  0.37478175  0.06050671  1
  Ce3+  Ce11  1  0.87704232  0.50650325  0.43972033  1
  Pr3+  Pr12  1  0.75589081  0.87999198  0.56168731  1
  Pr3+  Pr13  1  0.87148945  0.75136725  0.93639598  1
  Pr3+  Pr14  1  0.74779071  0.12536931  0.06588952  1
  Pr3+  Pr15  1  0.12595495  0.76275429  0.43396619  1
  Pr3+  Pr16  1  0.36959830  0.75633602  0.43111587  1
  Pr3+  Pr17  1  0.62356469  0.75969172  0.41984439  1
  Pr3+  Pr18  1  0.74602792  0.87463047  0.06181324  1
  Pr3+  Pr19  1  0.50333427  0.63582790  0.56187313  1
  Pr3+  Pr20  1  0.37679145  0.50661173  0.44107318  1
  Pr3+  Pr21  1  0.75374748  0.63681740  0.54816437  1
  Pr3+  Pr22  1  -0.00756499  0.87290217  0.06386555  1
  Pr3+  Pr23  1  0.12838372  0.25915467  0.44669615  1
  Pr3+  Pr24  1  0.49709733  0.12266199  0.05484398  1
  Pr3+  Pr25  1  0.00259628  0.63702253  0.56091471  1
  Pr3+  Pr26  1  0.00051057  0.38335240  0.56988280  1
  Pr3+  Pr27  1  0.62607772  0.51030934  0.42909438  1
  Pr3+  Pr28  1  0.37212834  0.24918723  0.94188964  1
  Pr3+  Pr29  1  0.49428370  0.87196847  0.06246650  1
  Pr3+  Pr30  1  0.49678017  0.37285535  0.05824880  1
  Nd3+  Nd31  1  0.25243995  0.62800638  0.56856838  1
  Nd3+  Nd32  1  0.12664952  0.01120542  0.43781247  1
  Nd3+  Nd33  1  0.88253745  0.76724360  0.43060575  1
  Nd3+  Nd34  1  0.74827129  0.62184342  0.05455270  1
  Nd3+  Nd35  1  0.37157859  -0.00658534  0.93351408  1
  Nd3+  Nd36  1  0.50785088  0.38751351  0.57588777  1
  Nd3+  Nd37  1  0.12169367  0.24684280  0.94345822  1
  Nd3+  Nd38  1  0.25650663  0.88637471  0.56574852  1
  Nd3+  Nd39  1  0.62828677  0.01050221  0.43101316  1
  Nd3+  Nd40  1  0.25942244  0.38143766  0.57347782  1
  Nd3+  Nd41  1  -0.00178017  0.12019357  0.05630268  1
  Nd3+  Nd42  1  0.01430118  0.88658594  0.57330893  1
  Nd3+  Nd43  1  0.12743881  0.50786502  0.44619421  1
  Nd3+  Nd44  1  -0.00296837  0.62239758  0.05269420  1
  Nd3+  Nd45  1  0.37080232  0.74571926  0.94186385  1
  Nd3+  Nd46  1  -0.00037547  0.37226348  0.06128165  1
  Nd3+  Nd47  1  0.50778628  0.13034720  0.55772422  1
  Nd3+  Nd48  1  0.24856528  0.62459717  0.06055861  1
  Nd3+  Nd49  1  0.00393804  0.13227484  0.56502331  1
  Nd3+  Nd50  1  0.37866462  0.25939866  0.44466740  1
  Sm3+  Sm51  1  0.49829089  0.61778850  0.05434277  1
  Sm3+  Sm52  1  0.12323745  0.75030397  0.94816290  1
  Sm3+  Sm53  1  0.87901721  0.00838135  0.44811325  1
  Sm3+  Sm54  1  0.87169845  0.49473641  0.94180012  1
  Sm3+  Sm55  1  0.62445441  0.24897048  0.94359741  1
  Sm3+  Sm56  1  0.75132366  0.13042944  0.55925203  1
  Sm3+  Sm57  1  0.62460879  -0.00235219  0.94113565  1
  Sm3+  Sm58  1  0.24647302  0.11680376  0.05535692  1
  Sm3+  Sm59  1  0.12233164  0.49819425  0.93988423  1
  Sm3+  Sm60  1  0.37815604  0.00553885  0.44234718  1
  Sm3+  Sm61  1  0.62838591  0.26308684  0.43546651  1
  Sm3+  Sm62  1  0.87730190  0.25880033  0.44572468  1
  Sm3+  Sm63  1  0.50567721  0.87544509  0.55667159  1
  Bi2+  Bi64  1  0.01690657  0.13881566  0.29811278  1
  Bi2+  Bi65  1  0.00123841  0.16394879  0.78569618  1
  Bi2+  Bi66  1  -0.02647098  0.32820468  0.29433714  1
  Bi2+  Bi67  1  -0.02924942  0.41551471  0.80896458  1
  Bi2+  Bi68  1  -0.01683964  0.61961441  0.28741883  1
  Bi2+  Bi69  1  0.01410503  0.59415321  0.76533115  1
  Bi2+  Bi70  1  0.01886792  0.88834243  0.29803302  1
  Bi2+  Bi71  1  0.00143537  0.87688516  0.78621567  1
  Bi2+  Bi72  1  0.26646560  0.10936169  0.23822786  1
  Bi2+  Bi73  1  0.24894775  0.09799968  0.78308778  1
  Bi2+  Bi74  1  0.24033103  0.34429218  0.31240922  1
  Bi2+  Bi75  1  0.22104439  0.35271262  0.79192718  1
  Bi2+  Bi76  1  0.25037612  0.59442426  0.29923342  1
  Bi2+  Bi77  1  0.26944509  0.60087652  0.77971412  1
  Bi2+  Bi78  1  0.29708387  0.87726159  0.30789658  1
  Bi2+  Bi79  1  0.33474917  0.83660860  0.80881229  1
  Bi2+  Bi80  1  0.50497779  0.08244094  0.29159484  1
  Bi2+  Bi81  1  0.44812259  0.10766137  0.79459118  1
  Bi2+  Bi82  1  0.50833499  0.34000086  0.28051899  1
  Bi2+  Bi83  1  0.51239700  0.35687693  0.80579803  1
  Bi2+  Bi84  1  0.58021790  0.68873228  0.25044398  1
  Bi2+  Bi85  1  0.53262894  0.67358265  0.72322205  1
  Bi2+  Bi86  1  0.52646069  0.88725988  0.27281470  1
  Bi2+  Bi87  1  0.50346131  0.92520219  0.81986033  1
  Bi2+  Bi88  1  0.73238284  0.11363066  0.28658677  1
  Bi2+  Bi89  1  0.72604780  0.20962030  0.77953955  1
  Bi2+  Bi90  1  0.76297354  0.39416383  0.29965285  1
  Bi2+  Bi91  1  0.77831845  0.40322442  0.79143089  1
  Bi2+  Bi92  1  0.76003489  0.65548989  0.29368672  1
  Bi2+  Bi93  1  0.70725230  0.65314025  0.76801191  1
  Bi2+  Bi94  1  0.78211651  0.84439698  0.30874639  1
  Bi2+  Bi95  1  0.74040699  0.85740185  0.79898055  1
  Bi2+  Bi96  1  0.07738766  0.02165090  0.21375342  1
  Bi2+  Bi97  1  0.14456216  -0.00245192  0.70425148  1
  Bi2+  Bi98  1  0.15658813  0.26429761  0.20432645  1
  Bi2+  Bi99  1  0.13606327  0.23661249  0.70782703  1
  Bi2+  Bi100  1  0.07773750  0.44463823  0.22410881  1
  Bi2+  Bi101  1  0.08053446  0.42547929  0.70942182  1
  Bi2+  Bi102  1  0.11453065  0.72204946  0.20790821  1
  Bi2+  Bi103  1  0.14481171  0.74556226  0.76233390  1
  Bi2+  Bi104  1  0.43073315  0.02033150  0.19380707  1
  Bi2+  Bi105  1  0.39184628  -0.02355543  0.70971872  1
  Bi2+  Bi106  1  0.35571476  0.28006620  0.21167381  1
  Bi2+  Bi107  1  0.33497898  0.24181091  0.72114111  1
  Bi2+  Bi108  1  0.37165566  0.46921707  0.24711304  1
  Bi2+  Bi109  1  0.36410022  0.49369453  0.69958983  1
  Bi2+  Bi110  1  0.37546350  0.72294902  0.20408171  1
  Bi2+  Bi111  1  0.30487996  0.80862380  0.69557167  1
  Bi2+  Bi112  1  0.68503059  0.02433152  0.18471165  1
  Bi2+  Bi113  1  0.62007970  0.05470140  0.73747805  1
  Bi2+  Bi114  1  0.61975914  0.22184788  0.21662487  1
  Bi2+  Bi115  1  0.55957230  0.25031092  0.71315611  1
  Bi2+  Bi116  1  0.61412972  0.51596486  0.20076860  1
  Bi2+  Bi117  1  0.62943791  0.49830342  0.71012995  1
  Bi2+  Bi118  1  0.64521993  0.83721210  0.18221062  1
  Bi2+  Bi119  1  0.57267181  0.86340533  0.71365250  1
  Bi2+  Bi120  1  0.86700693  0.00956580  0.22705485  1
  Bi2+  Bi121  1  0.85438217  0.00396222  0.68627647  1
  Bi2+  Bi122  1  0.89154489  0.20619238  0.21646137  1
  Bi2+  Bi123  1  0.88183504  0.25944153  0.71762061  1
  Bi2+  Bi124  1  0.88102114  0.53845976  0.19601072  1
  Bi2+  Bi125  1  0.86665591  0.52661742  0.70015330  1
  Bi2+  Bi126  1  0.89801948  0.76875376  0.22874883  1
  Bi2+  Bi127  1  0.84343689  0.73784844  0.68976696  1
  S2-  S128  1  0.02437266  0.15523713  0.15358138  1
  S2-  S129  1  0.01097777  0.05810503  0.65438571  1
  S2-  S130  1  -0.04484912  0.39742926  0.15504748  1
  S2-  S131  1  -0.12095694  0.38700039  0.64336285  1
  S2-  S132  1  0.00848103  0.63981214  0.15056701  1
  S2-  S133  1  -0.01107874  0.64416428  0.66136709  1
  S2-  S134  1  0.07289768  0.88079997  0.15292943  1
  S2-  S135  1  -0.06185318  0.85809874  0.66225294  1
  S2-  S136  1  0.25519225  0.04410724  0.14434857  1
  S2-  S137  1  0.27520426  0.05641921  0.64518949  1
  S2-  S138  1  0.19650878  0.40843172  0.15152216  1
  S2-  S139  1  0.21331076  0.48028268  0.65261172  1
  S2-  S140  1  0.24448518  0.64948252  0.15963188  1
  S2-  S141  1  0.32299151  0.65167378  0.65847866  1
  S2-  S142  1  0.24515436  0.83646277  0.21691838  1
  S2-  S143  1  0.14925786  0.86513554  0.64303537  1
  S2-  S144  1  0.49615553  0.15972973  0.15284339  1
  S2-  S145  1  0.53953839  0.11270979  0.65514727  1
  S2-  S146  1  0.57986821  0.38594884  0.14608115  1
  S2-  S147  1  0.38346427  0.35028642  0.64679398  1
  S2-  S148  1  0.49410594  0.62566259  0.15337490  1
  S2-  S149  1  0.50821519  0.52769088  0.64332590  1
  S2-  S150  1  0.40210944  0.86018944  0.14647167  1
  S2-  S151  1  0.52245060  0.76316505  0.63212526  1
  S2-  S152  1  0.75526809  0.22595140  0.14866747  1
  S2-  S153  1  0.78854779  0.15617125  0.65358267  1
  S2-  S154  1  0.76128314  0.42053338  0.20410696  1
  S2-  S155  1  0.63824526  0.36556722  0.64627914  1
  S2-  S156  1  0.74250294  0.60358844  0.15230945  1
  S2-  S157  1  0.73537613  0.61723425  0.64726482  1
  S2-  S158  1  0.82005528  0.83516219  0.15026206  1
  S2-  S159  1  0.73054772  0.88706068  0.66105465  1
  S2-  S160  1  0.14798011  -0.05601527  0.34818078  1
  S2-  S161  1  0.02765163  0.01413786  0.84229431  1
  S2-  S162  1  0.14524985  0.20952589  0.35117886  1
  S2-  S163  1  0.11691766  0.24384384  0.84496356  1
  S2-  S164  1  0.14911967  0.48919792  0.34868210  1
  S2-  S165  1  0.20073894  0.50288969  0.85257802  1
  S2-  S166  1  0.23746853  0.73891694  0.35727591  1
  S2-  S167  1  0.11268073  0.80820195  0.85640776  1
  S2-  S168  1  0.37151770  0.02507933  0.34484779  1
  S2-  S169  1  0.25999304  -0.01791151  0.85544598  1
  S2-  S170  1  0.38236676  0.28268465  0.34668390  1
  S2-  S171  1  0.35970870  0.32348200  0.85228142  1
  S2-  S172  1  0.39102960  0.54123877  0.34273012  1
  S2-  S173  1  0.42429568  0.49660105  0.79854612  1
  S2-  S174  1  0.43571514  0.78932668  0.33822866  1
  S2-  S175  1  0.36335632  0.67336311  0.85141620  1
  S2-  S176  1  0.63770951  -0.10395135  0.35476061  1
  S2-  S177  1  0.70109659  -0.00681869  0.85462173  1
  S2-  S178  1  0.62356034  0.14442360  0.36221298  1
  S2-  S179  1  0.60228676  0.21831948  0.84796833  1
  S2-  S180  1  0.62524188  0.38033345  0.35988007  1
  S2-  S181  1  0.63087036  0.46338280  0.84122407  1
  S2-  S182  1  0.62104747  0.62806433  0.35057673  1
  S2-  S183  1  0.63376247  0.73606739  0.84566787  1
  S2-  S184  1  0.89071372  -0.03586195  0.35481860  1
  S2-  S185  1  0.86007974  -0.02117333  0.78048650  1
  S2-  S186  1  0.83976175  0.26357135  0.35015511  1
  S2-  S187  1  0.86569802  0.17637273  0.85297749  1
  S2-  S188  1  0.87267949  0.51450506  0.34195682  1
  S2-  S189  1  0.85869830  0.53252732  0.84662839  1
  S2-  S190  1  1.00311956  0.74858640  0.35871050  1
  S2-  S191  1  0.87980367  0.79725036  0.84054294  1
  S2-  S192  1  0.00072370  0.13429630  0.45707527  1
  S2-  S193  1  -0.00282269  0.12054122  0.95199112  1
  S2-  S194  1  0.00177516  0.38140652  0.45887698  1
  S2-  S195  1  -0.00155927  0.37407050  0.95357846  1
  S2-  S196  1  0.00231956  0.63055129  0.45514775  1
  S2-  S197  1  -0.00170698  0.62189350  0.94632071  1
  S2-  S198  1  0.00471136  0.88901109  0.46278640  1
  S2-  S199  1  -0.00538803  0.87290652  0.95667196  1
  S2-  S200  1  0.25599252  0.13156494  0.45435515  1
  S2-  S201  1  0.24736570  0.12328630  0.95123293  1
  S2-  S202  1  0.25235154  0.38226544  0.46322916  1
  S2-  S203  1  0.24589279  0.37606862  0.95547680  1
  S2-  S204  1  0.25035719  0.62824521  0.46084342  1
  S2-  S205  1  0.24400407  0.62238101  0.95549976  1
  S2-  S206  1  0.25251453  0.88816124  0.45920127  1
  S2-  S207  1  0.25004991  0.86602110  0.95708079  1
  S2-  S208  1  0.49901944  0.13171357  0.45402680  1
  S2-  S209  1  0.49757430  0.12099024  0.94881634  1
  S2-  S210  1  0.50241071  0.38185818  0.46070317  1
  S2-  S211  1  0.49721464  0.37333042  0.95180832  1
  S2-  S212  1  0.49860799  0.63564704  0.45350545  1
  S2-  S213  1  0.49570566  0.61601352  0.94941245  1
  S2-  S214  1  0.50169814  0.88566688  0.45347384  1
  S2-  S215  1  0.49816249  0.87238017  0.95475649  1
  S2-  S216  1  0.75749871  0.13235245  0.45573062  1
  S2-  S217  1  0.74468479  0.12243810  0.95813485  1
  S2-  S218  1  0.75590163  0.38125189  0.45975449  1
  S2-  S219  1  0.74984023  0.37048143  0.94552461  1
  S2-  S220  1  0.76016837  0.63976486  0.44384456  1
  S2-  S221  1  0.74865836  0.62085484  0.94904192  1
  S2-  S222  1  0.75681857  0.88584562  0.45521959  1
  S2-  S223  1  0.74623376  0.87318984  0.95577396  1
  S2-  S224  1  0.12297934  -0.00340446  0.04313096  1
  S2-  S225  1  0.13023615  0.01216184  0.54406690  1
  S2-  S226  1  0.12536796  0.24599796  0.04855682  1
  S2-  S227  1  0.12843180  0.25929055  0.55525190  1
  S2-  S228  1  0.12119957  0.50036677  0.04399149  1
  S2-  S229  1  0.12325024  0.50687641  0.55005231  1
  S2-  S230  1  0.12428512  0.74977297  0.05134151  1
  S2-  S231  1  0.13141276  0.75524142  0.54324497  1
  S2-  S232  1  0.37306048  -0.00114227  0.03952978  1
  S2-  S233  1  0.38634014  0.00299550  0.54672870  1
  S2-  S234  1  0.36841529  0.24636792  0.04915561  1
  S2-  S235  1  0.38243620  0.25136706  0.54856099  1
  S2-  S236  1  0.37251286  0.49878193  0.05678491  1
  S2-  S237  1  0.37580970  0.50713654  0.54696040  1
  S2-  S238  1  0.37662580  0.74031714  0.04590037  1
  S2-  S239  1  0.37384907  0.76060902  0.54119505  1
  S2-  S240  1  0.62070472  -0.00153112  0.04639722  1
  S2-  S241  1  0.62936516  0.00393664  0.54304885  1
  S2-  S242  1  0.62385427  0.25120391  0.04605826  1
  S2-  S243  1  0.63112363  0.25253274  0.54148808  1
  S2-  S244  1  0.62627010  0.49631633  0.04339466  1
  S2-  S245  1  0.63012815  0.51087326  0.53733809  1
  S2-  S246  1  0.62065280  0.74454853  0.04841261  1
  S2-  S247  1  0.63158244  0.76112872  0.53132042  1
  S2-  S248  1  0.87179712  0.00082695  0.05946110  1
  S2-  S249  1  0.87897641  0.00852965  0.55134848  1
  S2-  S250  1  0.87488279  0.25125026  0.04807373  1
  S2-  S251  1  0.87837538  0.25284190  0.54815689  1
  S2-  S252  1  0.87017827  0.49425289  0.04658064  1
  S2-  S253  1  0.87978596  0.51161460  0.54457852  1
  S2-  S254  1  0.87247028  0.74480736  0.04277792  1
  S2-  S255  1  0.88217929  0.76189536  0.54051217  1
