# generated using pymatgen
data_La6Ce6Pr19Nd20Sm13(BiS2)64
_symmetry_space_group_name_H-M   'P 1'
_cell_length_a   16.15180849
_cell_length_b   16.03473873
_cell_length_c   27.30169919
_cell_angle_alpha   89.61108571
_cell_angle_beta   89.98502754
_cell_angle_gamma   89.98675244
_symmetry_Int_Tables_number   1
_chemical_formula_structural   La6Ce6Pr19Nd20Sm13(BiS2)64
_chemical_formula_sum   'La6 Ce6 Pr19 Nd20 Sm13 Bi64 S128'
_cell_volume   7070.70455010
_cell_formula_units_Z   1
loop_
 _symmetry_equiv_pos_site_id
 _symmetry_equiv_pos_as_xyz
  1  'x, y, z'
loop_
 _atom_type_symbol
 _atom_type_oxidation_number
  La3+  3.0
  Ce3+  3.0
  Pr3+  3.0
  Nd3+  3.0
  Sm3+  3.0
  Bi2+  2.0
  S2-  -2.0
loop_
 _atom_site_type_symbol
 _atom_site_label
 _atom_site_symmetry_multiplicity
 _atom_site_fract_x
 _atom_site_fract_y
 _atom_site_fract_z
 _atom_site_occupancy
  La3+  La0  1  0.62284355  0.48757544  0.91876316  1
  La3+  La1  1  0.50149309  0.64697480  0.60847247  1
  La3+  La2  1  0.12163370  0.49203748  0.93548693  1
  La3+  La3  1  0.23501141  0.36554350  0.10740304  1
  La3+  La4  1  0.85724015  0.24399166  0.41571498  1
  La3+  La5  1  0.35866973  0.75298170  0.91285216  1
  Ce3+  Ce6  1  0.11868996  0.74130600  0.92830910  1
  Ce3+  Ce7  1  -0.01222599  0.38459070  0.56053142  1
  Ce3+  Ce8  1  0.73761053  0.62213678  0.04955653  1
  Ce3+  Ce9  1  0.61828639  0.00263621  0.93580861  1
  Ce3+  Ce10  1  0.61417279  0.26990547  0.43172553  1
  Ce3+  Ce11  1  0.61708124  0.51266042  0.44238276  1
  Pr3+  Pr12  1  0.73642481  0.87750222  0.57084352  1
  Pr3+  Pr13  1  0.49548638  0.12431895  0.07243446  1
  Pr3+  Pr14  1  0.24663476  0.62611151  0.56464926  1
  Pr3+  Pr15  1  0.37034408  0.49146893  0.93125164  1
  Pr3+  Pr16  1  0.49369808  0.36894463  0.06700441  1
  Pr3+  Pr17  1  0.61376785  0.76016323  0.90859548  1
  Pr3+  Pr18  1  -0.00988329  0.88397569  0.57323429  1
  Pr3+  Pr19  1  0.25161593  0.62002618  0.05940969  1
  Pr3+  Pr20  1  0.74169976  0.62393452  0.56722549  1
  Pr3+  Pr21  1  0.74151082  0.87047890  0.05528060  1
  Pr3+  Pr22  1  -0.01231304  0.12977262  0.56941819  1
  Pr3+  Pr23  1  -0.00270437  0.86772129  0.06279559  1
  Pr3+  Pr24  1  0.61886334  0.76428025  0.43073966  1
  Pr3+  Pr25  1  -0.00046077  0.62948663  0.57472590  1
  Pr3+  Pr26  1  0.24169991  0.13520706  0.55526590  1
  Pr3+  Pr27  1  0.86817348  -0.00239956  0.43680058  1
  Pr3+  Pr28  1  0.10867766  0.51269182  0.42358702  1
  Pr3+  Pr29  1  0.24549507  0.87885667  0.55900097  1
  Pr3+  Pr30  1  0.36884926  0.26735162  0.42911812  1
  Nd3+  Nd31  1  0.36673302  0.75592107  0.43200747  1
  Nd3+  Nd32  1  0.86932697  0.74635601  0.94239463  1
  Nd3+  Nd33  1  -0.00225027  0.12510757  0.05615066  1
  Nd3+  Nd34  1  0.86717302  0.50893304  0.43383399  1
  Nd3+  Nd35  1  0.11521816  0.75672286  0.44224437  1
  Nd3+  Nd36  1  0.24871198  0.86737500  0.06051516  1
  Nd3+  Nd37  1  0.00088991  0.62339075  0.06615583  1
  Nd3+  Nd38  1  0.49056350  0.87874467  0.55770501  1
  Nd3+  Nd39  1  0.87139205  0.49697293  0.94169640  1
  Nd3+  Nd40  1  0.48807951  0.38594462  0.56559931  1
  Nd3+  Nd41  1  0.74332998  0.37141816  0.05879820  1
  Nd3+  Nd42  1  0.49208598  0.14098686  0.56038167  1
  Nd3+  Nd43  1  0.36445713  0.51353454  0.42910899  1
  Nd3+  Nd44  1  0.11202211  0.25863887  0.44110284  1
  Nd3+  Nd45  1  0.11507167  0.00784516  0.44499663  1
  Nd3+  Nd46  1  0.37237319  0.25049301  0.93843185  1
  Nd3+  Nd47  1  0.24592504  0.12174291  0.06156890  1
  Nd3+  Nd48  1  0.87256457  -0.00374395  0.93878660  1
  Nd3+  Nd49  1  0.86568635  0.75717528  0.44494771  1
  Nd3+  Nd50  1  0.87242562  0.24759054  0.93799836  1
  Sm3+  Sm51  1  0.36591174  0.01111606  0.44316415  1
  Sm3+  Sm52  1  0.24031435  0.38561943  0.55165515  1
  Sm3+  Sm53  1  0.12302863  0.25125099  0.94442135  1
  Sm3+  Sm54  1  0.61531728  0.00744348  0.44670201  1
  Sm3+  Sm55  1  0.74040373  0.13305157  0.55750644  1
  Sm3+  Sm56  1  0.74076876  0.38222617  0.55555138  1
  Sm3+  Sm57  1  0.49415081  0.62124524  0.04160101  1
  Sm3+  Sm58  1  0.49584418  0.87024116  0.04860543  1
  Sm3+  Sm59  1  0.62047678  0.24293559  0.93833843  1
  Sm3+  Sm60  1  0.37023660  0.00244382  0.94254517  1
  Sm3+  Sm61  1  0.74898817  0.12081387  0.06095515  1
  Sm3+  Sm62  1  -0.00974657  0.38084716  0.07066521  1
  Sm3+  Sm63  1  0.12231425  -0.00245056  0.94164199  1
  Bi2+  Bi64  1  -0.01837614  0.07543704  0.28599697  1
  Bi2+  Bi65  1  0.01252859  0.14977214  0.78134890  1
  Bi2+  Bi66  1  0.02580417  0.37162174  0.29319391  1
  Bi2+  Bi67  1  0.01588684  0.42283332  0.79165657  1
  Bi2+  Bi68  1  -0.01247913  0.67378116  0.28358076  1
  Bi2+  Bi69  1  0.01548828  0.64704835  0.76707550  1
  Bi2+  Bi70  1  0.04851805  0.87240382  0.30000259  1
  Bi2+  Bi71  1  -0.01569767  0.85250304  0.78139724  1
  Bi2+  Bi72  1  0.27264558  0.05404177  0.29060854  1
  Bi2+  Bi73  1  0.29842712  0.15026017  0.81175234  1
  Bi2+  Bi74  1  0.26328000  0.32562444  0.30169979  1
  Bi2+  Bi75  1  0.24883092  0.33614911  0.79166988  1
  Bi2+  Bi76  1  0.23725362  0.61958977  0.29181024  1
  Bi2+  Bi77  1  0.21630712  0.64555141  0.78535153  1
  Bi2+  Bi78  1  0.24277089  0.83390976  0.28102785  1
  Bi2+  Bi79  1  0.21341035  0.93505255  0.79072987  1
  Bi2+  Bi80  1  0.49996235  0.11251910  0.29067226  1
  Bi2+  Bi81  1  0.49140105  0.13898010  0.84409809  1
  Bi2+  Bi82  1  0.51080121  0.39384246  0.27865601  1
  Bi2+  Bi83  1  0.50672938  0.33279316  0.78455623  1
  Bi2+  Bi84  1  0.54317163  0.66284554  0.27694407  1
  Bi2+  Bi85  1  0.49731335  0.60791437  0.81282755  1
  Bi2+  Bi86  1  0.44598724  0.82994077  0.29437931  1
  Bi2+  Bi87  1  0.48894411  0.95376617  0.78854605  1
  Bi2+  Bi88  1  0.79665295  0.02803070  0.25325735  1
  Bi2+  Bi89  1  0.69122044  0.13160819  0.82971685  1
  Bi2+  Bi90  1  0.74445297  0.35822659  0.29730646  1
  Bi2+  Bi91  1  0.76807680  0.29896164  0.78539668  1
  Bi2+  Bi92  1  0.81286909  0.59494565  0.30611079  1
  Bi2+  Bi93  1  0.79176628  0.61798407  0.80042520  1
  Bi2+  Bi94  1  0.76293759  0.83311272  0.30836388  1
  Bi2+  Bi95  1  0.76672112  0.96905946  0.78705665  1
  Bi2+  Bi96  1  0.24864605  -0.03877949  0.18411156  1
  Bi2+  Bi97  1  0.12555384  0.05371615  0.70753846  1
  Bi2+  Bi98  1  0.13853111  0.11320746  0.21434843  1
  Bi2+  Bi99  1  0.11026996  0.27566606  0.71347565  1
  Bi2+  Bi100  1  0.08993244  0.48077493  0.20498439  1
  Bi2+  Bi101  1  0.12372578  0.49156343  0.69790712  1
  Bi2+  Bi102  1  0.13230931  0.72871141  0.20685385  1
  Bi2+  Bi103  1  0.12299364  0.79122096  0.70809154  1
  Bi2+  Bi104  1  0.43583357  0.02944556  0.19204692  1
  Bi2+  Bi105  1  0.35210960  0.04390834  0.71833099  1
  Bi2+  Bi106  1  0.40315912  0.22306214  0.19967614  1
  Bi2+  Bi107  1  0.37782753  0.24372619  0.71442539  1
  Bi2+  Bi108  1  0.36938690  0.51995241  0.20684974  1
  Bi2+  Bi109  1  0.36574726  0.49944310  0.71018645  1
  Bi2+  Bi110  1  0.39762458  0.74169055  0.19520789  1
  Bi2+  Bi111  1  0.37291848  0.77505119  0.71452491  1
  Bi2+  Bi112  1  0.61005034  -0.04536355  0.26191268  1
  Bi2+  Bi113  1  0.59094012  0.08809542  0.72946108  1
  Bi2+  Bi114  1  0.61878244  0.23919924  0.24237074  1
  Bi2+  Bi115  1  0.63754624  0.27313681  0.70190308  1
  Bi2+  Bi116  1  0.63565364  0.51485424  0.22378106  1
  Bi2+  Bi117  1  0.63938477  0.50949905  0.71114280  1
  Bi2+  Bi118  1  0.64089725  0.75593000  0.18987927  1
  Bi2+  Bi119  1  0.63238969  0.78456467  0.72003006  1
  Bi2+  Bi120  1  0.95607140  -0.06716530  0.20473460  1
  Bi2+  Bi121  1  0.86662220  0.08790440  0.71123739  1
  Bi2+  Bi122  1  0.88115283  0.23256387  0.18860871  1
  Bi2+  Bi123  1  0.93200008  0.25874819  0.66975963  1
  Bi2+  Bi124  1  0.83440312  0.48762299  0.21301616  1
  Bi2+  Bi125  1  0.86722707  0.42505597  0.71523306  1
  Bi2+  Bi126  1  0.85052908  0.75792982  0.21537475  1
  Bi2+  Bi127  1  0.86002865  0.74823435  0.71535601  1
  S2-  S128  1  -0.00703248  0.10654893  0.15407537  1
  S2-  S129  1  -0.00985637  0.00945630  0.64802809  1
  S2-  S130  1  0.02603913  0.33108144  0.16299532  1
  S2-  S131  1  -0.02138354  0.49061428  0.64096248  1
  S2-  S132  1  -0.03853061  0.52386330  0.14618678  1
  S2-  S133  1  0.13583653  0.62905401  0.64590694  1
  S2-  S134  1  0.01361248  0.74982284  0.13777269  1
  S2-  S135  1  -0.02453922  0.76305243  0.64595779  1
  S2-  S136  1  0.24876710  0.19868230  0.14969826  1
  S2-  S137  1  0.25017748  0.14438045  0.65466264  1
  S2-  S138  1  0.21129262  0.36448605  0.21587292  1
  S2-  S139  1  0.27254442  0.42180765  0.64714020  1
  S2-  S140  1  0.22869325  0.53270056  0.14866669  1
  S2-  S141  1  0.34188287  0.64635519  0.65155384  1
  S2-  S142  1  0.26081649  0.74776826  0.13325965  1
  S2-  S143  1  0.25536548  0.86338999  0.65953478  1
  S2-  S144  1  0.54136834  0.24335006  0.14412376  1
  S2-  S145  1  0.49003708  0.25359079  0.63612838  1
  S2-  S146  1  0.39508830  0.38886462  0.15139712  1
  S2-  S147  1  0.49814497  0.48062047  0.65303153  1
  S2-  S148  1  0.46162117  0.60891561  0.13961350  1
  S2-  S149  1  0.49533893  0.65737522  0.72144782  1
  S2-  S150  1  0.51299474  0.84742723  0.14577534  1
  S2-  S151  1  0.50057113  0.83033455  0.65299474  1
  S2-  S152  1  0.76731931  0.12118353  0.15864032  1
  S2-  S153  1  0.72008391  0.13094257  0.65580632  1
  S2-  S154  1  0.78128168  0.35025991  0.15623811  1
  S2-  S155  1  0.74682185  0.47286448  0.64149505  1
  S2-  S156  1  0.71255352  0.60712291  0.14623364  1
  S2-  S157  1  0.66254112  0.65826347  0.65575292  1
  S2-  S158  1  0.75364226  0.86678001  0.15552849  1
  S2-  S159  1  0.74846385  0.87487353  0.67192221  1
  S2-  S160  1  0.12082114  0.01531022  0.34644540  1
  S2-  S161  1  0.13764517  0.04887383  0.84775543  1
  S2-  S162  1  0.11908454  0.25463992  0.34115954  1
  S2-  S163  1  0.11940862  0.35710710  0.86300106  1
  S2-  S164  1  0.20239517  0.47363525  0.33737734  1
  S2-  S165  1  0.09655689  0.60861797  0.85787395  1
  S2-  S166  1  0.10434926  0.66400682  0.35843406  1
  S2-  S167  1  0.21712352  0.78126382  0.84907591  1
  S2-  S168  1  0.37042447  -0.04980390  0.35200426  1
  S2-  S169  1  0.35647353  -0.06156713  0.85173562  1
  S2-  S170  1  0.35960777  0.18301141  0.33997790  1
  S2-  S171  1  0.38237828  0.36194963  0.85749477  1
  S2-  S172  1  0.39896734  0.39866860  0.35396478  1
  S2-  S173  1  0.33656596  0.58035272  0.84237224  1
  S2-  S174  1  0.35913846  0.64077488  0.35464146  1
  S2-  S175  1  0.47139817  0.76150013  0.83642345  1
  S2-  S176  1  0.63236823  -0.08671069  0.36470372  1
  S2-  S177  1  0.63128718  -0.08297872  0.85092313  1
  S2-  S178  1  0.68452851  0.22005688  0.34821777  1
  S2-  S179  1  0.62591745  0.33885337  0.85570136  1
  S2-  S180  1  0.62047363  0.42534861  0.35930268  1
  S2-  S181  1  0.65453065  0.52247091  0.81544193  1
  S2-  S182  1  0.67299309  0.68224624  0.34476818  1
  S2-  S183  1  0.67102198  0.72360299  0.81322975  1
  S2-  S184  1  0.85476283  0.08663788  0.35054165  1
  S2-  S185  1  0.90531284  -0.01952089  0.84153796  1
  S2-  S186  1  0.89504336  0.28696065  0.31908556  1
  S2-  S187  1  0.90115142  0.24034883  0.83994058  1
  S2-  S188  1  0.97400447  0.48612892  0.35484048  1
  S2-  S189  1  0.87998993  0.48020664  0.84365683  1
  S2-  S190  1  0.89713365  0.86109219  0.36526875  1
  S2-  S191  1  0.88864516  0.74510345  0.84459140  1
  S2-  S192  1  -0.01076059  0.13047267  0.45753972  1
  S2-  S193  1  -0.00088313  0.12324588  0.95039045  1
  S2-  S194  1  -0.01636940  0.37312046  0.45421042  1
  S2-  S195  1  -0.00850003  0.36988370  0.96229806  1
  S2-  S196  1  -0.01271699  0.63548009  0.46150734  1
  S2-  S197  1  -0.00915136  0.62101202  0.96028646  1
  S2-  S198  1  -0.00391754  0.88137163  0.46668016  1
  S2-  S199  1  -0.00211858  0.87260972  0.95364086  1
  S2-  S200  1  0.24132680  0.13273155  0.44955660  1
  S2-  S201  1  0.24436159  0.12458373  0.95538620  1
  S2-  S202  1  0.23617096  0.38407885  0.44919198  1
  S2-  S203  1  0.24738842  0.36846302  0.95769734  1
  S2-  S204  1  0.23896680  0.63470067  0.45768191  1
  S2-  S205  1  0.24626893  0.62133714  0.95284028  1
  S2-  S206  1  0.24206967  0.88279225  0.45186236  1
  S2-  S207  1  0.24466643  0.88036520  0.95641827  1
  S2-  S208  1  0.49211908  0.13241560  0.45333606  1
  S2-  S209  1  0.49533585  0.12348426  0.96413738  1
  S2-  S210  1  0.49266424  0.38783864  0.46040100  1
  S2-  S211  1  0.50134080  0.36705578  0.95912854  1
  S2-  S212  1  0.49674507  0.63663243  0.44433914  1
  S2-  S213  1  0.50110119  0.62021729  0.93775647  1
  S2-  S214  1  0.48736425  0.88432953  0.45412069  1
  S2-  S215  1  0.49275106  0.87935435  0.94704498  1
  S2-  S216  1  0.73621736  0.12759513  0.45547472  1
  S2-  S217  1  0.74979386  0.12144019  0.95560875  1
  S2-  S218  1  0.74889836  0.38129342  0.45251892  1
  S2-  S219  1  0.74912160  0.36883887  0.95288841  1
  S2-  S220  1  0.74367054  0.63326119  0.45877684  1
  S2-  S221  1  0.74229550  0.62201679  0.94245621  1
  S2-  S222  1  0.74056116  0.88349924  0.46483005  1
  S2-  S223  1  0.74725086  0.87335115  0.94924406  1
  S2-  S224  1  0.12101320  -0.00481983  0.04842827  1
  S2-  S225  1  0.12031646  0.00721609  0.55014597  1
  S2-  S226  1  0.12001065  0.25065735  0.04839102  1
  S2-  S227  1  0.11495298  0.25872916  0.54900221  1
  S2-  S228  1  0.11886404  0.49214698  0.04719955  1
  S2-  S229  1  0.11595094  0.50323019  0.53692505  1
  S2-  S230  1  0.12424324  0.74755223  0.03474009  1
  S2-  S231  1  0.11919013  0.75960788  0.54666814  1
  S2-  S232  1  0.37190560  -0.00315954  0.04813462  1
  S2-  S233  1  0.36997562  0.01059987  0.54941774  1
  S2-  S234  1  0.36982758  0.24487851  0.04566369  1
  S2-  S235  1  0.36216615  0.26037064  0.53771280  1
  S2-  S236  1  0.37506518  0.49669142  0.03774973  1
  S2-  S237  1  0.36568952  0.50443151  0.53748384  1
  S2-  S238  1  0.37722429  0.74858180  0.02908301  1
  S2-  S239  1  0.37088379  0.75539014  0.54103162  1
  S2-  S240  1  0.62000753  0.00006923  0.04793732  1
  S2-  S241  1  0.61318302  0.00928098  0.55194673  1
  S2-  S242  1  0.62859421  0.24199409  0.04116770  1
  S2-  S243  1  0.62070585  0.25875924  0.53981515  1
  S2-  S244  1  0.61777023  0.49349303  0.03816007  1
  S2-  S245  1  0.61390358  0.50633178  0.54579692  1
  S2-  S246  1  0.61675260  0.74784586  0.03192204  1
  S2-  S247  1  0.61313626  0.75452763  0.54386033  1
  S2-  S248  1  0.87251104  -0.00425973  0.04660679  1
  S2-  S249  1  0.85910489  0.00639878  0.54858504  1
  S2-  S250  1  0.87094669  0.24699336  0.04590570  1
  S2-  S251  1  0.86147464  0.25562195  0.54403724  1
  S2-  S252  1  0.86315144  0.49844526  0.04561065  1
  S2-  S253  1  0.86569652  0.50573500  0.53861900  1
  S2-  S254  1  0.86605592  0.74501042  0.04797207  1
  S2-  S255  1  0.86090430  0.75530650  0.54939538  1
