# generated using pymatgen
data_La6Ce6Pr19Nd20Sm13(BiS2)64
_symmetry_space_group_name_H-M   'P 1'
_cell_length_a   16.16132317
_cell_length_b   16.15621513
_cell_length_c   27.22370060
_cell_angle_alpha   90.01104156
_cell_angle_beta   89.78664960
_cell_angle_gamma   90.04039941
_symmetry_Int_Tables_number   1
_chemical_formula_structural   La6Ce6Pr19Nd20Sm13(BiS2)64
_chemical_formula_sum   'La6 Ce6 Pr19 Nd20 Sm13 Bi64 S128'
_cell_volume   7108.21532658
_cell_formula_units_Z   1
loop_
 _symmetry_equiv_pos_site_id
 _symmetry_equiv_pos_as_xyz
  1  'x, y, z'
loop_
 _atom_type_symbol
 _atom_type_oxidation_number
  La3+  3.0
  Ce3+  3.0
  Pr3+  3.0
  Nd3+  3.0
  Sm3+  3.0
  Bi2+  2.0
  S2-  -2.0
loop_
 _atom_site_type_symbol
 _atom_site_label
 _atom_site_symmetry_multiplicity
 _atom_site_fract_x
 _atom_site_fract_y
 _atom_site_fract_z
 _atom_site_occupancy
  La3+  La0  1  0.37295355  -0.01082370  0.43017321  1
  La3+  La1  1  0.88193848  0.00128516  0.39523747  1
  La3+  La2  1  -0.00039715  0.13434751  0.08138101  1
  La3+  La3  1  0.37913782  0.26002291  0.90580590  1
  La3+  La4  1  0.61418926  0.25617063  0.40891579  1
  La3+  La5  1  0.48813132  0.13293797  0.06891233  1
  Ce3+  Ce6  1  0.74271081  0.13037331  0.06691366  1
  Ce3+  Ce7  1  0.24616385  0.12063516  0.55675109  1
  Ce3+  Ce8  1  0.24305524  0.36921372  0.55886019  1
  Ce3+  Ce9  1  0.61908605  0.49711573  0.44222135  1
  Ce3+  Ce10  1  0.12219780  0.75739483  0.93375245  1
  Ce3+  Ce11  1  0.37272680  0.50478303  0.93281738  1
  Pr3+  Pr12  1  0.36982937  0.49819513  0.45045760  1
  Pr3+  Pr13  1  0.74638748  0.62037586  0.55525230  1
  Pr3+  Pr14  1  0.11499972  0.00948171  0.92332185  1
  Pr3+  Pr15  1  0.87572601  0.49591590  0.42134143  1
  Pr3+  Pr16  1  0.37395733  0.75896511  0.93421719  1
  Pr3+  Pr17  1  0.23752825  0.88218098  0.58685740  1
  Pr3+  Pr18  1  0.49376039  0.36832422  0.56585271  1
  Pr3+  Pr19  1  0.74489229  0.12706653  0.54784921  1
  Pr3+  Pr20  1  0.12359157  0.50195187  0.43734281  1
  Pr3+  Pr21  1  0.24328152  0.62476293  0.56914250  1
  Pr3+  Pr22  1  0.62248433  0.25532494  0.93840905  1
  Pr3+  Pr23  1  0.87217488  0.75542856  0.94624151  1
  Pr3+  Pr24  1  0.74851341  0.87860614  0.56206471  1
  Pr3+  Pr25  1  0.37957330  0.00656600  0.92083313  1
  Pr3+  Pr26  1  -0.01184296  0.88629415  0.57902002  1
  Pr3+  Pr27  1  0.49390972  0.88226374  0.06406881  1
  Pr3+  Pr28  1  -0.00172907  0.38057640  0.06628400  1
  Pr3+  Pr29  1  0.24724841  0.63084902  0.05330987  1
  Pr3+  Pr30  1  0.62272909  0.00665826  0.93932947  1
  Nd3+  Nd31  1  0.12305314  0.50287309  0.93703223  1
  Nd3+  Nd32  1  0.87204779  0.25435772  0.94643507  1
  Nd3+  Nd33  1  0.62378885  0.74849209  0.44766450  1
  Nd3+  Nd34  1  0.49332734  0.87648724  0.56666597  1
  Nd3+  Nd35  1  0.24629076  0.88492506  0.04818768  1
  Nd3+  Nd36  1  0.49463364  0.62404657  0.56223228  1
  Nd3+  Nd37  1  0.74755543  0.88185484  0.06598609  1
  Nd3+  Nd38  1  0.49547522  0.63110513  0.05636892  1
  Nd3+  Nd39  1  -0.00134911  0.63173075  0.05525052  1
  Nd3+  Nd40  1  0.74471707  0.37919388  0.06106796  1
  Nd3+  Nd41  1  0.00040330  0.88368760  0.06125137  1
  Nd3+  Nd42  1  -0.00827695  0.62093874  0.56515148  1
  Nd3+  Nd43  1  0.12113652  -0.01517892  0.43802987  1
  Nd3+  Nd44  1  0.37113432  0.24272519  0.43467050  1
  Nd3+  Nd45  1  0.87226819  0.50551166  0.94556076  1
  Nd3+  Nd46  1  0.25034001  0.37994177  0.05371014  1
  Nd3+  Nd47  1  0.11968359  0.25445554  0.93861477  1
  Nd3+  Nd48  1  0.87183492  0.00670738  0.94596976  1
  Nd3+  Nd49  1  0.12005353  0.24209113  0.43772870  1
  Nd3+  Nd50  1  0.87427844  0.75104195  0.44226644  1
  Sm3+  Sm51  1  0.62341149  0.75602477  0.94862772  1
  Sm3+  Sm52  1  0.62158078  0.50598326  0.94836540  1
  Sm3+  Sm53  1  0.62389006  -0.00230646  0.43895460  1
  Sm3+  Sm54  1  0.74566247  0.37153252  0.55181181  1
  Sm3+  Sm55  1  -0.00524627  0.37273472  0.55044565  1
  Sm3+  Sm56  1  0.74719301  0.63086280  0.06095630  1
  Sm3+  Sm57  1  -0.00765028  0.12306618  0.55409353  1
  Sm3+  Sm58  1  0.12019220  0.75224503  0.45692399  1
  Sm3+  Sm59  1  0.49664275  0.12387703  0.55208553  1
  Sm3+  Sm60  1  0.25235015  0.13120046  0.04433290  1
  Sm3+  Sm61  1  0.37114756  0.75225405  0.45051818  1
  Sm3+  Sm62  1  0.87122085  0.24912983  0.42974993  1
  Sm3+  Sm63  1  0.49311897  0.37968395  0.05807369  1
  Bi2+  Bi64  1  0.02820861  0.12960280  0.28143479  1
  Bi2+  Bi65  1  -0.02163596  0.13493039  0.78871071  1
  Bi2+  Bi66  1  0.02509900  0.37725501  0.29013566  1
  Bi2+  Bi67  1  -0.01600192  0.39495004  0.79058830  1
  Bi2+  Bi68  1  -0.01775534  0.65396445  0.30074904  1
  Bi2+  Bi69  1  -0.01635118  0.59309735  0.80087221  1
  Bi2+  Bi70  1  0.01740705  0.85581226  0.29679784  1
  Bi2+  Bi71  1  -0.08611705  0.89513809  0.78534793  1
  Bi2+  Bi72  1  0.24597268  0.12829288  0.22985044  1
  Bi2+  Bi73  1  0.22319232  0.12303362  0.78887916  1
  Bi2+  Bi74  1  0.28289941  0.41040852  0.28397020  1
  Bi2+  Bi75  1  0.24388947  0.37939188  0.78905322  1
  Bi2+  Bi76  1  0.20256244  0.58155161  0.31146246  1
  Bi2+  Bi77  1  0.23961689  0.59418717  0.75983625  1
  Bi2+  Bi78  1  0.23020058  0.86530723  0.28422981  1
  Bi2+  Bi79  1  0.24821913  0.85919220  0.79219846  1
  Bi2+  Bi80  1  0.49858123  0.13045651  0.29299454  1
  Bi2+  Bi81  1  0.59320688  0.10874018  0.77908333  1
  Bi2+  Bi82  1  0.48564012  0.40164916  0.28546946  1
  Bi2+  Bi83  1  0.51973394  0.38009668  0.79011194  1
  Bi2+  Bi84  1  0.50746947  0.62027224  0.30041617  1
  Bi2+  Bi85  1  0.51743048  0.59521088  0.79287423  1
  Bi2+  Bi86  1  0.48337070  0.88603060  0.30250582  1
  Bi2+  Bi87  1  0.50161140  0.86467114  0.80321100  1
  Bi2+  Bi88  1  0.78959480  0.14613650  0.26571841  1
  Bi2+  Bi89  1  0.74965826  0.19842583  0.82651771  1
  Bi2+  Bi90  1  0.74817528  0.39284909  0.28683904  1
  Bi2+  Bi91  1  0.73073080  0.35458129  0.75613814  1
  Bi2+  Bi92  1  0.79040069  0.59550009  0.31056550  1
  Bi2+  Bi93  1  0.78760188  0.62832324  0.80185128  1
  Bi2+  Bi94  1  0.72834020  0.78240849  0.29502247  1
  Bi2+  Bi95  1  0.74688552  0.99672911  0.82243156  1
  Bi2+  Bi96  1  0.14074849  -0.03207806  0.19496859  1
  Bi2+  Bi97  1  0.10331336  0.00617794  0.70550656  1
  Bi2+  Bi98  1  0.16519837  0.30089639  0.20510445  1
  Bi2+  Bi99  1  0.08314507  0.25457452  0.71879988  1
  Bi2+  Bi100  1  0.11949707  0.49179516  0.20553287  1
  Bi2+  Bi101  1  0.10531987  0.47760523  0.71123288  1
  Bi2+  Bi102  1  0.15015602  0.69360342  0.21957247  1
  Bi2+  Bi103  1  0.03543722  0.75677181  0.74401931  1
  Bi2+  Bi104  1  0.36520392  -0.02341078  0.20853692  1
  Bi2+  Bi105  1  0.38543420  0.00630840  0.70299896  1
  Bi2+  Bi106  1  0.40537197  0.25071273  0.19083483  1
  Bi2+  Bi107  1  0.38336071  0.25371531  0.70014331  1
  Bi2+  Bi108  1  0.37417383  0.52565570  0.20142634  1
  Bi2+  Bi109  1  0.39468974  0.50871764  0.72111819  1
  Bi2+  Bi110  1  0.33828874  0.70420911  0.26491048  1
  Bi2+  Bi111  1  0.40071523  0.73994607  0.70030221  1
  Bi2+  Bi112  1  0.62477131  -0.05697639  0.23448322  1
  Bi2+  Bi113  1  0.64992009  -0.05348546  0.72104781  1
  Bi2+  Bi114  1  0.64448147  0.26242851  0.19196176  1
  Bi2+  Bi115  1  0.63144854  0.22366107  0.68641125  1
  Bi2+  Bi116  1  0.64614573  0.53500762  0.23630902  1
  Bi2+  Bi117  1  0.66823935  0.53569200  0.72554554  1
  Bi2+  Bi118  1  0.59847354  0.72230489  0.21201181  1
  Bi2+  Bi119  1  0.63989874  0.75054338  0.74660648  1
  Bi2+  Bi120  1  0.88904409  -0.05402988  0.20630595  1
  Bi2+  Bi121  1  0.84248812  0.06176609  0.71561441  1
  Bi2+  Bi122  1  0.89244472  0.32820093  0.20960176  1
  Bi2+  Bi123  1  0.88323075  0.25690406  0.70409777  1
  Bi2+  Bi124  1  0.92180833  0.52228951  0.21272436  1
  Bi2+  Bi125  1  0.91492500  0.52520610  0.69783357  1
  Bi2+  Bi126  1  0.85941080  0.72597023  0.21750179  1
  Bi2+  Bi127  1  0.83393872  0.75711141  0.71278881  1
  S2-  S128  1  -0.00510642  0.07322875  0.17881832  1
  S2-  S129  1  -0.01290204  0.05121806  0.64459237  1
  S2-  S130  1  0.01938846  0.27646427  0.14575892  1
  S2-  S131  1  0.00662869  0.34682454  0.64702535  1
  S2-  S132  1  0.02699515  0.62234078  0.15180138  1
  S2-  S133  1  0.02330027  0.64188774  0.66216583  1
  S2-  S134  1  0.01932356  0.85976171  0.15890519  1
  S2-  S135  1  0.10035630  0.86757148  0.65710333  1
  S2-  S136  1  0.33511524  0.12476375  0.13086879  1
  S2-  S137  1  0.24661036  0.06497921  0.65024292  1
  S2-  S138  1  0.30607429  0.36856702  0.14767002  1
  S2-  S139  1  0.26948182  0.33460118  0.65380301  1
  S2-  S140  1  0.27173003  0.63174188  0.15225078  1
  S2-  S141  1  0.26570910  0.67213973  0.66527816  1
  S2-  S142  1  0.26572896  0.88072000  0.14698138  1
  S2-  S143  1  0.30056986  0.87310249  0.68524177  1
  S2-  S144  1  0.55126074  0.13960862  0.16611495  1
  S2-  S145  1  0.47719629  0.12943080  0.65056765  1
  S2-  S146  1  0.52050488  0.36189807  0.15530542  1
  S2-  S147  1  0.50768952  0.35293487  0.66593024  1
  S2-  S148  1  0.49266279  0.61989236  0.15487971  1
  S2-  S149  1  0.49655987  0.61433772  0.66050270  1
  S2-  S150  1  0.49735691  0.90120220  0.16448649  1
  S2-  S151  1  0.50703007  0.89878062  0.66533507  1
  S2-  S152  1  0.77955026  0.16382355  0.15884274  1
  S2-  S153  1  0.71948955  0.09452854  0.64678335  1
  S2-  S154  1  0.75167302  0.39584154  0.15913589  1
  S2-  S155  1  0.75089806  0.33862091  0.64804287  1
  S2-  S156  1  0.74034767  0.66032031  0.15688524  1
  S2-  S157  1  0.77166319  0.60437107  0.65372085  1
  S2-  S158  1  0.73424238  0.92698215  0.16156828  1
  S2-  S159  1  0.84823143  0.87290976  0.64435544  1
  S2-  S160  1  0.04769189  0.00922894  0.34647827  1
  S2-  S161  1  0.14324686  -0.02796233  0.82173463  1
  S2-  S162  1  0.11084736  0.24310023  0.33785471  1
  S2-  S163  1  0.15159539  0.25630653  0.84095357  1
  S2-  S164  1  0.01784375  0.51145024  0.35745944  1
  S2-  S165  1  0.18322390  0.50369149  0.84365437  1
  S2-  S166  1  0.13430703  0.81301537  0.36471889  1
  S2-  S167  1  0.12984297  0.75423873  0.83585170  1
  S2-  S168  1  0.37488547  0.06816981  0.33846481  1
  S2-  S169  1  0.33526585  -0.00276902  0.81898455  1
  S2-  S170  1  0.46034994  0.26061061  0.34976606  1
  S2-  S171  1  0.35087518  0.21426543  0.80282681  1
  S2-  S172  1  0.39627323  0.49887906  0.35152162  1
  S2-  S173  1  0.37905090  0.41282056  0.85018748  1
  S2-  S174  1  0.36010192  0.84539731  0.36806713  1
  S2-  S175  1  0.37535056  0.75633865  0.83340650  1
  S2-  S176  1  0.59613065  -0.00453553  0.34058003  1
  S2-  S177  1  0.52288737  0.01055466  0.85679606  1
  S2-  S178  1  0.65944020  0.20375665  0.31326383  1
  S2-  S179  1  0.53505696  0.25546406  0.85123132  1
  S2-  S180  1  0.61517319  0.41469443  0.35678934  1
  S2-  S181  1  0.61369826  0.49250592  0.85080287  1
  S2-  S182  1  0.58167838  0.75808862  0.35133406  1
  S2-  S183  1  0.62055241  0.78149117  0.85240089  1
  S2-  S184  1  0.81608408  -0.00499899  0.29341900  1
  S2-  S185  1  0.96592085  0.02124748  0.86344746  1
  S2-  S186  1  0.89572284  0.15810768  0.34581013  1
  S2-  S187  1  0.91689349  0.26034158  0.85084089  1
  S2-  S188  1  0.86584353  0.36305921  0.35160283  1
  S2-  S189  1  0.86252707  0.48483052  0.84750367  1
  S2-  S190  1  0.88403573  0.83704719  0.35647793  1
  S2-  S191  1  0.86351762  0.76946311  0.84701674  1
  S2-  S192  1  -0.00343943  0.12019390  0.45161416  1
  S2-  S193  1  -0.00231593  0.13432949  0.96587339  1
  S2-  S194  1  0.00057622  0.36999014  0.44957088  1
  S2-  S195  1  -0.00221342  0.38133862  0.95754825  1
  S2-  S196  1  -0.00194081  0.62786469  0.45848875  1
  S2-  S197  1  -0.00124453  0.62902557  0.94879218  1
  S2-  S198  1  -0.00456109  0.87327918  0.46438138  1
  S2-  S199  1  -0.00145361  0.87993149  0.95451885  1
  S2-  S200  1  0.24479318  0.11779733  0.44809848  1
  S2-  S201  1  0.24901008  0.13052180  0.94000941  1
  S2-  S202  1  0.24509406  0.37040580  0.44950590  1
  S2-  S203  1  0.24687250  0.37782292  0.94877795  1
  S2-  S204  1  0.24661634  0.62906908  0.46036270  1
  S2-  S205  1  0.24748842  0.63128632  0.94599724  1
  S2-  S206  1  0.24555428  0.87121680  0.47298476  1
  S2-  S207  1  0.24609347  0.88553419  0.94173652  1
  S2-  S208  1  0.49969230  0.12096417  0.44831956  1
  S2-  S209  1  0.49529039  0.13339391  0.95628874  1
  S2-  S210  1  0.49210483  0.37305191  0.45893627  1
  S2-  S211  1  0.49960393  0.38421033  0.95458615  1
  S2-  S212  1  0.49457460  0.62642716  0.45627459  1
  S2-  S213  1  0.49951786  0.63206452  0.94984649  1
  S2-  S214  1  0.50174114  0.87187150  0.46068285  1
  S2-  S215  1  0.50005765  0.87787012  0.95681613  1
  S2-  S216  1  0.74350629  0.12426273  0.44006455  1
  S2-  S217  1  0.74778066  0.13037691  0.95957709  1
  S2-  S218  1  0.74629224  0.37358947  0.45013049  1
  S2-  S219  1  0.74669347  0.38253793  0.95404068  1
  S2-  S220  1  0.74876159  0.62191020  0.44864245  1
  S2-  S221  1  0.74545824  0.62975021  0.95582297  1
  S2-  S222  1  0.74497325  0.87534186  0.45371256  1
  S2-  S223  1  0.74688417  0.88016008  0.95885520  1
  S2-  S224  1  0.12431583  0.01116387  0.04281144  1
  S2-  S225  1  0.11868019  0.00177957  0.54472386  1
  S2-  S226  1  0.12957922  0.25392320  0.04475585  1
  S2-  S227  1  0.11783622  0.24547867  0.54500731  1
  S2-  S228  1  0.12276202  0.50399809  0.04486000  1
  S2-  S229  1  0.11954075  0.49730159  0.54729413  1
  S2-  S230  1  0.12244451  0.75696886  0.04273588  1
  S2-  S231  1  0.11692767  0.74727657  0.55808168  1
  S2-  S232  1  0.37213957  0.00272999  0.03262826  1
  S2-  S233  1  0.37405301  -0.00080306  0.54487012  1
  S2-  S234  1  0.37240018  0.25951348  0.03396612  1
  S2-  S235  1  0.37024615  0.24478393  0.54148360  1
  S2-  S236  1  0.37391590  0.50602194  0.04089693  1
  S2-  S237  1  0.36897924  0.49815296  0.55705228  1
  S2-  S238  1  0.37150485  0.75697154  0.04272729  1
  S2-  S239  1  0.37000488  0.75079488  0.55489715  1
  S2-  S240  1  0.61983168  0.00517863  0.04878404  1
  S2-  S241  1  0.61872732  -0.00117561  0.54462101  1
  S2-  S242  1  0.61951777  0.25753479  0.04630254  1
  S2-  S243  1  0.61873445  0.25026649  0.53976063  1
  S2-  S244  1  0.62159029  0.50703962  0.05348959  1
  S2-  S245  1  0.61932512  0.49554852  0.55080206  1
  S2-  S246  1  0.62262675  0.75605169  0.05354585  1
  S2-  S247  1  0.62157753  0.74965616  0.55527980  1
  S2-  S248  1  0.87359120  0.00653816  0.05298365  1
  S2-  S249  1  0.86722460  0.00496905  0.54059208  1
  S2-  S250  1  0.87095177  0.25701660  0.05154490  1
  S2-  S251  1  0.87223853  0.25025210  0.53839037  1
  S2-  S252  1  0.87185005  0.50692670  0.05216353  1
  S2-  S253  1  0.87107085  0.49358125  0.53950102  1
  S2-  S254  1  0.87277616  0.75591157  0.05351730  1
  S2-  S255  1  0.87051884  0.74545139  0.54741779  1
