# generated using pymatgen
data_La6Ce6Pr19Nd20Sm13(BiS2)64
_symmetry_space_group_name_H-M   'P 1'
_cell_length_a   16.08130100
_cell_length_b   16.09444539
_cell_length_c   27.26114878
_cell_angle_alpha   90.03932670
_cell_angle_beta   89.96437049
_cell_angle_gamma   89.99606091
_symmetry_Int_Tables_number   1
_chemical_formula_structural   La6Ce6Pr19Nd20Sm13(BiS2)64
_chemical_formula_sum   'La6 Ce6 Pr19 Nd20 Sm13 Bi64 S128'
_cell_volume   7055.71714464
_cell_formula_units_Z   1
loop_
 _symmetry_equiv_pos_site_id
 _symmetry_equiv_pos_as_xyz
  1  'x, y, z'
loop_
 _atom_type_symbol
 _atom_type_oxidation_number
  La3+  3.0
  Ce3+  3.0
  Pr3+  3.0
  Nd3+  3.0
  Sm3+  3.0
  Bi2+  2.0
  S2-  -2.0
loop_
 _atom_site_type_symbol
 _atom_site_label
 _atom_site_symmetry_multiplicity
 _atom_site_fract_x
 _atom_site_fract_y
 _atom_site_fract_z
 _atom_site_occupancy
  La3+  La0  1  0.75123487  0.12948666  0.06834088  1
  La3+  La1  1  -0.00815356  0.88357075  0.06568444  1
  La3+  La2  1  0.01455491  0.14549802  0.12010689  1
  La3+  La3  1  -0.00600680  0.14367763  0.58536562  1
  La3+  La4  1  0.48921761  0.64008364  0.57106006  1
  La3+  La5  1  0.73004416  0.14225015  0.58470575  1
  Ce3+  Ce6  1  0.86273077  0.01687866  0.45136000  1
  Ce3+  Ce7  1  0.87066683  0.50905965  0.94309664  1
  Ce3+  Ce8  1  0.85254186  0.25702048  0.43926308  1
  Ce3+  Ce9  1  0.37367316  0.74927423  0.94391553  1
  Ce3+  Ce10  1  0.60878993  0.25844903  0.43576216  1
  Ce3+  Ce11  1  0.24505961  0.37905960  0.05513123  1
  Pr3+  Pr12  1  0.24435938  0.62889731  0.06511675  1
  Pr3+  Pr13  1  0.73668534  0.63859825  0.56612708  1
  Pr3+  Pr14  1  0.74397687  0.87885292  0.04687975  1
  Pr3+  Pr15  1  0.23178850  0.88591508  0.55589044  1
  Pr3+  Pr16  1  0.23207884  0.62721586  0.59407585  1
  Pr3+  Pr17  1  0.86117088  0.76183125  0.43842311  1
  Pr3+  Pr18  1  0.62120220  0.25638003  0.93590720  1
  Pr3+  Pr19  1  0.48387424  0.88591306  0.56136303  1
  Pr3+  Pr20  1  -0.00188783  0.37922531  0.06405476  1
  Pr3+  Pr21  1  -0.01436440  0.38817249  0.55864033  1
  Pr3+  Pr22  1  0.49714208  0.37975390  0.06457083  1
  Pr3+  Pr23  1  0.60550706  0.76290727  0.43315977  1
  Pr3+  Pr24  1  0.24760774  0.88125240  0.05840277  1
  Pr3+  Pr25  1  0.74682443  0.63007715  0.06957871  1
  Pr3+  Pr26  1  0.36456389  0.51355094  0.42983774  1
  Pr3+  Pr27  1  0.75090842  0.38084081  0.06160730  1
  Pr3+  Pr28  1  0.61766929  0.00932131  0.91898496  1
  Pr3+  Pr29  1  0.50081136  0.62567816  0.08188308  1
  Pr3+  Pr30  1  0.87336894  0.24968422  0.93445268  1
  Nd3+  Nd31  1  0.00102097  0.63509211  0.06869624  1
  Nd3+  Nd32  1  0.61271272  0.01363438  0.44314799  1
  Nd3+  Nd33  1  0.23646384  0.14025177  0.55732012  1
  Nd3+  Nd34  1  0.62734925  0.73981094  0.91189607  1
  Nd3+  Nd35  1  -0.01163245  0.88590326  0.55991060  1
  Nd3+  Nd36  1  0.61273328  0.51297365  0.43261496  1
  Nd3+  Nd37  1  0.37484540  0.00768731  0.93270853  1
  Nd3+  Nd38  1  0.50024784  0.87769382  0.04949395  1
  Nd3+  Nd39  1  0.50246446  0.12446607  0.06390705  1
  Nd3+  Nd40  1  0.23473901  0.38959223  0.55158640  1
  Nd3+  Nd41  1  0.11320848  0.02096033  0.42850238  1
  Nd3+  Nd42  1  0.72632642  0.38688767  0.56671508  1
  Nd3+  Nd43  1  0.11105445  0.50250674  0.93196578  1
  Nd3+  Nd44  1  0.87854435  0.75920374  0.92730642  1
  Nd3+  Nd45  1  0.10308583  0.51122006  0.42596203  1
  Nd3+  Nd46  1  0.85536005  0.50997153  0.43450338  1
  Nd3+  Nd47  1  0.12179449  0.75532332  0.93401193  1
  Nd3+  Nd48  1  0.24896387  0.12880830  0.05821184  1
  Nd3+  Nd49  1  0.86783460  0.00684908  0.92759384  1
  Nd3+  Nd50  1  0.48314104  0.13880927  0.56414808  1
  Sm3+  Sm51  1  0.48385469  0.39002250  0.55602906  1
  Sm3+  Sm52  1  0.37078598  0.25862607  0.94010679  1
  Sm3+  Sm53  1  0.11011534  0.76021397  0.44238003  1
  Sm3+  Sm54  1  0.73796951  0.88805403  0.55843267  1
  Sm3+  Sm55  1  0.10065592  0.26517831  0.42541347  1
  Sm3+  Sm56  1  -0.01734994  0.63479724  0.56517521  1
  Sm3+  Sm57  1  0.11905924  0.25150355  0.94372348  1
  Sm3+  Sm58  1  0.37046365  0.50793475  0.94313867  1
  Sm3+  Sm59  1  0.36471329  0.26063219  0.43247703  1
  Sm3+  Sm60  1  0.62017993  0.50561672  0.94289768  1
  Sm3+  Sm61  1  0.35687465  0.75960697  0.44368486  1
  Sm3+  Sm62  1  0.35980723  0.01140919  0.44171029  1
  Sm3+  Sm63  1  0.12072094  0.00602047  0.94252392  1
  Bi2+  Bi64  1  -0.00957667  0.10473200  0.31799036  1
  Bi2+  Bi65  1  0.01589408  0.12520533  0.79003881  1
  Bi2+  Bi66  1  -0.01505649  0.39458178  0.29514627  1
  Bi2+  Bi67  1  -0.11372183  0.35377937  0.80310729  1
  Bi2+  Bi68  1  0.06888329  0.60012139  0.27736379  1
  Bi2+  Bi69  1  0.01416728  0.59574910  0.78626294  1
  Bi2+  Bi70  1  0.01101852  0.83636463  0.28343445  1
  Bi2+  Bi71  1  0.02218056  0.86470216  0.79527904  1
  Bi2+  Bi72  1  0.30461919  0.13788783  0.30152924  1
  Bi2+  Bi73  1  0.26897579  0.10219367  0.79061828  1
  Bi2+  Bi74  1  0.28792344  0.37861497  0.30511950  1
  Bi2+  Bi75  1  0.17171742  0.37432950  0.79169347  1
  Bi2+  Bi76  1  0.26891243  0.57409042  0.29971963  1
  Bi2+  Bi77  1  0.30791228  0.59164859  0.79844709  1
  Bi2+  Bi78  1  0.28682579  0.77358503  0.28383617  1
  Bi2+  Bi79  1  0.20595393  0.81374879  0.81312962  1
  Bi2+  Bi80  1  0.51466703  0.12734209  0.28703107  1
  Bi2+  Bi81  1  0.48448278  0.13841167  0.78889364  1
  Bi2+  Bi82  1  0.47665164  0.38103740  0.28758891  1
  Bi2+  Bi83  1  0.49551856  0.39377013  0.78710645  1
  Bi2+  Bi84  1  0.47718882  0.58303584  0.26580308  1
  Bi2+  Bi85  1  0.53199225  0.67088060  0.78114236  1
  Bi2+  Bi86  1  0.45460652  0.88363716  0.28961583  1
  Bi2+  Bi87  1  0.36825999  0.91869280  0.78675600  1
  Bi2+  Bi88  1  0.72105741  0.10845521  0.29958712  1
  Bi2+  Bi89  1  0.74869100  0.12354424  0.78487065  1
  Bi2+  Bi90  1  0.72801584  0.37081162  0.28448499  1
  Bi2+  Bi91  1  0.68965860  0.36347932  0.80875163  1
  Bi2+  Bi92  1  0.79675505  0.62919589  0.30282810  1
  Bi2+  Bi93  1  0.75318519  0.55479895  0.79693404  1
  Bi2+  Bi94  1  0.73222102  0.84215912  0.28170858  1
  Bi2+  Bi95  1  0.75431464  0.83886215  0.79113596  1
  Bi2+  Bi96  1  0.13938214  0.00580846  0.21788594  1
  Bi2+  Bi97  1  0.21184334  -0.03479345  0.71677539  1
  Bi2+  Bi98  1  0.24702343  0.25771038  0.21847976  1
  Bi2+  Bi99  1  0.20113722  0.24174762  0.71259694  1
  Bi2+  Bi100  1  0.07859134  0.45439949  0.19674327  1
  Bi2+  Bi101  1  0.07167369  0.42462332  0.70040288  1
  Bi2+  Bi102  1  0.12684897  0.75219303  0.19984674  1
  Bi2+  Bi103  1  0.17451373  0.68936446  0.72728601  1
  Bi2+  Bi104  1  0.38823039  0.01413128  0.21142212  1
  Bi2+  Bi105  1  0.34813869  0.09868532  0.67099604  1
  Bi2+  Bi106  1  0.42529380  0.19827370  0.17957548  1
  Bi2+  Bi107  1  0.39734093  0.29131189  0.69643815  1
  Bi2+  Bi108  1  0.32920799  0.56228369  0.18828247  1
  Bi2+  Bi109  1  0.34676897  0.47600054  0.71013007  1
  Bi2+  Bi110  1  0.39378491  0.73996217  0.18871724  1
  Bi2+  Bi111  1  0.37726027  0.76207598  0.70748916  1
  Bi2+  Bi112  1  0.62921855  -0.02338006  0.19765375  1
  Bi2+  Bi113  1  0.49403703  -0.01502033  0.69820085  1
  Bi2+  Bi114  1  0.59745605  0.27953798  0.21712626  1
  Bi2+  Bi115  1  0.60723926  0.27078462  0.70333119  1
  Bi2+  Bi116  1  0.64144252  0.51839038  0.20562698  1
  Bi2+  Bi117  1  0.61411258  0.50667590  0.71792430  1
  Bi2+  Bi118  1  0.57890423  0.75172491  0.23238683  1
  Bi2+  Bi119  1  0.74185282  0.70718122  0.70360757  1
  Bi2+  Bi120  1  0.86882782  -0.01219041  0.21281594  1
  Bi2+  Bi121  1  0.87100338  -0.03895764  0.69951710  1
  Bi2+  Bi122  1  0.84330159  0.26646040  0.21606664  1
  Bi2+  Bi123  1  0.87671082  0.23823294  0.71031010  1
  Bi2+  Bi124  1  0.89739192  0.53477126  0.21196633  1
  Bi2+  Bi125  1  0.88616399  0.48511784  0.71636223  1
  Bi2+  Bi126  1  0.85680369  0.72921764  0.21326974  1
  Bi2+  Bi127  1  0.95391304  0.73032553  0.70743755  1
  S2-  S128  1  0.03243773  0.13824081  0.22966084  1
  S2-  S129  1  -0.02961018  0.08628506  0.68822727  1
  S2-  S130  1  -0.01253504  0.31199141  0.15746688  1
  S2-  S131  1  -0.00501788  0.29589935  0.64465038  1
  S2-  S132  1  -0.02367763  0.75920483  0.14234988  1
  S2-  S133  1  0.08273524  0.64099594  0.64738240  1
  S2-  S134  1  0.00397072  0.97466602  0.15536070  1
  S2-  S135  1  0.00546379  0.86951709  0.65896036  1
  S2-  S136  1  0.18685427  0.12493139  0.15178377  1
  S2-  S137  1  0.14843589  0.13447801  0.64177309  1
  S2-  S138  1  0.23237909  0.39541560  0.15241488  1
  S2-  S139  1  0.21697660  0.46559934  0.64143126  1
  S2-  S140  1  0.12800759  0.61413402  0.14094272  1
  S2-  S141  1  0.38047102  0.61962373  0.65128062  1
  S2-  S142  1  0.21649450  0.88683427  0.15838479  1
  S2-  S143  1  0.24532705  0.83927080  0.65280161  1
  S2-  S144  1  0.62056704  0.09905349  0.13777352  1
  S2-  S145  1  0.57554690  0.13153321  0.64851313  1
  S2-  S146  1  0.50086164  0.48249826  0.14650820  1
  S2-  S147  1  0.58377073  0.40346399  0.63684301  1
  S2-  S148  1  0.63387848  0.66384668  0.15013463  1
  S2-  S149  1  0.61923390  0.63382414  0.64303632  1
  S2-  S150  1  0.48697210  0.92651143  0.14647888  1
  S2-  S151  1  0.50464543  0.82835119  0.65547269  1
  S2-  S152  1  0.84863697  0.11917180  0.15699178  1
  S2-  S153  1  0.76067742  0.07311699  0.68256532  1
  S2-  S154  1  0.73100704  0.28620506  0.14742168  1
  S2-  S155  1  0.75582844  0.28595065  0.64955798  1
  S2-  S156  1  0.76610732  0.49807469  0.14252866  1
  S2-  S157  1  0.86208364  0.62222726  0.64127103  1
  S2-  S158  1  0.76106813  0.90311142  0.14930997  1
  S2-  S159  1  0.74639467  0.85459573  0.65507441  1
  S2-  S160  1  0.08995082  -0.04307735  0.33308513  1
  S2-  S161  1  0.09042711  0.01398601  0.84296059  1
  S2-  S162  1  0.14234231  0.15198477  0.35326656  1
  S2-  S163  1  0.08572427  0.25616768  0.84572964  1
  S2-  S164  1  0.12518082  0.38545024  0.35297954  1
  S2-  S165  1  0.15946393  0.53415458  0.83800103  1
  S2-  S166  1  0.09194487  0.72920881  0.34644296  1
  S2-  S167  1  0.01209102  0.72627380  0.85684066  1
  S2-  S168  1  0.34362396  -0.00728134  0.34463865  1
  S2-  S169  1  0.47846246  0.00645662  0.85272636  1
  S2-  S170  1  0.48756344  0.25065183  0.36031304  1
  S2-  S171  1  0.36450300  0.21633865  0.84442492  1
  S2-  S172  1  0.49358424  0.51559597  0.35767599  1
  S2-  S173  1  0.37865168  0.45647943  0.84954182  1
  S2-  S174  1  0.42214518  0.75540830  0.35260310  1
  S2-  S175  1  0.40394828  0.70476427  0.85139849  1
  S2-  S176  1  0.60471008  0.00153297  0.34352238  1
  S2-  S177  1  0.71780027  -0.00983359  0.83474379  1
  S2-  S178  1  0.72688559  0.24976912  0.36260761  1
  S2-  S179  1  0.61868668  0.16940525  0.84840545  1
  S2-  S180  1  0.73572977  0.50079999  0.35732064  1
  S2-  S181  1  0.59762728  0.59011826  0.85695240  1
  S2-  S182  1  0.65784113  0.71856717  0.33984068  1
  S2-  S183  1  0.59541370  0.81116034  0.81941473  1
  S2-  S184  1  0.83513869  0.03612722  0.35385822  1
  S2-  S185  1  0.89168419  -0.10848549  0.85051376  1
  S2-  S186  1  0.94982766  0.26109457  0.35561313  1
  S2-  S187  1  0.87676065  0.13601405  0.85161029  1
  S2-  S188  1  0.96840458  0.53433826  0.35714778  1
  S2-  S189  1  0.95939200  0.48700514  0.86054031  1
  S2-  S190  1  0.86929275  0.80954788  0.34111720  1
  S2-  S191  1  0.77910949  0.70434209  0.84961691  1
  S2-  S192  1  -0.01199573  0.13712306  0.45785482  1
  S2-  S193  1  0.00171002  0.12759022  0.95039661  1
  S2-  S194  1  -0.02057007  0.38732880  0.45442578  1
  S2-  S195  1  -0.00343881  0.37381087  0.95740649  1
  S2-  S196  1  -0.01496514  0.63966423  0.46001674  1
  S2-  S197  1  -0.00202861  0.63019767  0.96112487  1
  S2-  S198  1  -0.01052941  0.88781954  0.45299413  1
  S2-  S199  1  0.00391211  0.88257719  0.95600129  1
  S2-  S200  1  0.24327460  0.13982834  0.45287874  1
  S2-  S201  1  0.24761947  0.13095084  0.95098975  1
  S2-  S202  1  0.24275592  0.38451787  0.44825817  1
  S2-  S203  1  0.24375394  0.37917363  0.94887553  1
  S2-  S204  1  0.23391168  0.63601284  0.43963075  1
  S2-  S205  1  0.24346233  0.62724911  0.95444641  1
  S2-  S206  1  0.23432793  0.88630198  0.44783102  1
  S2-  S207  1  0.24991862  0.88179018  0.95018658  1
  S2-  S208  1  0.48158140  0.13115889  0.45798584  1
  S2-  S209  1  0.49124294  0.13592142  0.95679020  1
  S2-  S210  1  0.48454716  0.38600698  0.45470974  1
  S2-  S211  1  0.49490717  0.38195421  0.95475196  1
  S2-  S212  1  0.48457989  0.64141054  0.45924149  1
  S2-  S213  1  0.49485378  0.62449277  0.96411691  1
  S2-  S214  1  0.48177014  0.88823347  0.45352593  1
  S2-  S215  1  0.49828140  0.87155736  0.94505106  1
  S2-  S216  1  0.73204888  0.13233603  0.46867902  1
  S2-  S217  1  0.74379711  0.13091192  0.95459814  1
  S2-  S218  1  0.73095529  0.38474621  0.46106337  1
  S2-  S219  1  0.74768021  0.38149645  0.95163379  1
  S2-  S220  1  0.73481354  0.64108122  0.45781483  1
  S2-  S221  1  0.74354371  0.62533594  0.96020841  1
  S2-  S222  1  0.73549213  0.88741059  0.45219719  1
  S2-  S223  1  0.73969275  0.87342335  0.94301700  1
  S2-  S224  1  0.12386589  0.00773716  0.04547965  1
  S2-  S225  1  0.11026541  0.01272980  0.54069352  1
  S2-  S226  1  0.12170240  0.25089899  0.04900759  1
  S2-  S227  1  0.11367559  0.26481299  0.53568376  1
  S2-  S228  1  0.12216337  0.50175650  0.03943886  1
  S2-  S229  1  0.10955696  0.51453945  0.53634952  1
  S2-  S230  1  0.12519285  0.75776327  0.04022430  1
  S2-  S231  1  0.11199294  0.75668869  0.54567263  1
  S2-  S232  1  0.37361511  0.00547084  0.04038262  1
  S2-  S233  1  0.35879447  0.01048832  0.54640690  1
  S2-  S234  1  0.37246607  0.25481957  0.04554315  1
  S2-  S235  1  0.36183220  0.26495406  0.54206541  1
  S2-  S236  1  0.36932104  0.50465141  0.04703057  1
  S2-  S237  1  0.35997996  0.51305601  0.53924677  1
  S2-  S238  1  0.37263649  0.75171088  0.05057312  1
  S2-  S239  1  0.35455544  0.75818444  0.54662732  1
  S2-  S240  1  0.61846280  0.00270323  0.03020546  1
  S2-  S241  1  0.61132898  0.00781485  0.54958663  1
  S2-  S242  1  0.61780329  0.25692123  0.04224485  1
  S2-  S243  1  0.60346180  0.26195641  0.54215197  1
  S2-  S244  1  0.62225327  0.50314545  0.04429788  1
  S2-  S245  1  0.60861945  0.51358927  0.53755808  1
  S2-  S246  1  0.61823044  0.75223518  0.04337961  1
  S2-  S247  1  0.61468433  0.76866840  0.54095500  1
  S2-  S248  1  0.86749336  0.00148108  0.03623236  1
  S2-  S249  1  0.86390803  0.01373785  0.55813894  1
  S2-  S250  1  0.87561446  0.25523859  0.04279301  1
  S2-  S251  1  0.86115369  0.25941215  0.54614898  1
  S2-  S252  1  0.88007365  0.50850963  0.04687832  1
  S2-  S253  1  0.85759120  0.50751292  0.54251373  1
  S2-  S254  1  0.86852175  0.75206590  0.03807455  1
  S2-  S255  1  0.86330903  0.76490597  0.54563625  1
