# generated using pymatgen
data_La6Ce6Pr19Nd20Sm13(BiS2)64
_symmetry_space_group_name_H-M   'P 1'
_cell_length_a   16.05911705
_cell_length_b   16.07154537
_cell_length_c   27.43816843
_cell_angle_alpha   89.63731848
_cell_angle_beta   90.28602166
_cell_angle_gamma   89.96390198
_symmetry_Int_Tables_number   1
_chemical_formula_structural   La6Ce6Pr19Nd20Sm13(BiS2)64
_chemical_formula_sum   'La6 Ce6 Pr19 Nd20 Sm13 Bi64 S128'
_cell_volume   7081.41770271
_cell_formula_units_Z   1
loop_
 _symmetry_equiv_pos_site_id
 _symmetry_equiv_pos_as_xyz
  1  'x, y, z'
loop_
 _atom_type_symbol
 _atom_type_oxidation_number
  La3+  3.0
  Ce3+  3.0
  Pr3+  3.0
  Nd3+  3.0
  Sm3+  3.0
  Bi2+  2.0
  S2-  -2.0
loop_
 _atom_site_type_symbol
 _atom_site_label
 _atom_site_symmetry_multiplicity
 _atom_site_fract_x
 _atom_site_fract_y
 _atom_site_fract_z
 _atom_site_occupancy
  La3+  La0  1  0.01307151  0.62540488  0.10818801  1
  La3+  La1  1  0.51258361  0.11543820  0.07612987  1
  La3+  La2  1  0.63530616  0.49193742  0.90935143  1
  La3+  La3  1  0.11012373  -0.00597317  0.42121895  1
  La3+  La4  1  0.74672129  0.37979971  0.07134445  1
  La3+  La5  1  0.36639216  0.49350026  0.91041261  1
  Ce3+  Ce6  1  0.88343107  -0.00298220  0.93584396  1
  Ce3+  Ce7  1  0.62494867  0.24862830  0.93927057  1
  Ce3+  Ce8  1  0.36164274  0.73669310  0.45631284  1
  Ce3+  Ce9  1  0.85886529  0.24183001  0.44106312  1
  Ce3+  Ce10  1  0.37845232  0.75084497  0.93435125  1
  Ce3+  Ce11  1  0.11621501  0.73792951  0.44725315  1
  Pr3+  Pr12  1  0.86365508  0.49609997  0.42140679  1
  Pr3+  Pr13  1  0.38007506  0.24721843  0.93637664  1
  Pr3+  Pr14  1  0.13093293  0.00785693  0.93011630  1
  Pr3+  Pr15  1  0.87698424  0.49797928  0.94206772  1
  Pr3+  Pr16  1  -0.01149230  0.11137868  0.55733874  1
  Pr3+  Pr17  1  0.75449947  0.12174385  0.06059647  1
  Pr3+  Pr18  1  0.61534631  0.23543321  0.42986693  1
  Pr3+  Pr19  1  0.00668764  0.11906164  0.07147141  1
  Pr3+  Pr20  1  0.25706931  0.62104747  0.05547222  1
  Pr3+  Pr21  1  0.73923609  0.61201923  0.58216725  1
  Pr3+  Pr22  1  0.49026672  0.86520211  0.55902855  1
  Pr3+  Pr23  1  0.63000820  0.75838544  0.90975425  1
  Pr3+  Pr24  1  0.73785829  0.11347043  0.56843951  1
  Pr3+  Pr25  1  0.36054795  0.24051917  0.44059221  1
  Pr3+  Pr26  1  0.24000866  0.60646517  0.57872229  1
  Pr3+  Pr27  1  0.61420932  0.49739041  0.42348921  1
  Pr3+  Pr28  1  0.25694788  0.37716571  0.06266462  1
  Pr3+  Pr29  1  0.86023345  -0.01385493  0.43241945  1
  Pr3+  Pr30  1  0.48743321  0.60120999  0.57845365  1
  Nd3+  Nd31  1  0.12534924  0.74939942  0.94096869  1
  Nd3+  Nd32  1  0.73716235  0.36583572  0.56363732  1
  Nd3+  Nd33  1  0.75265903  0.62146358  0.05486716  1
  Nd3+  Nd34  1  -0.00412240  0.37390981  0.07369218  1
  Nd3+  Nd35  1  0.23901744  0.11512128  0.56729351  1
  Nd3+  Nd36  1  0.50610232  0.62199923  0.03520988  1
  Nd3+  Nd37  1  -0.01404472  0.36613564  0.55519158  1
  Nd3+  Nd38  1  0.11322349  0.49089188  0.43284588  1
  Nd3+  Nd39  1  0.73957925  0.86215068  0.56798767  1
  Nd3+  Nd40  1  0.37971885  0.00055033  0.93548004  1
  Nd3+  Nd41  1  0.26446449  0.12249049  0.07194132  1
  Nd3+  Nd42  1  0.23423980  0.87189725  0.57068156  1
  Nd3+  Nd43  1  0.12284015  0.49729632  0.94199344  1
  Nd3+  Nd44  1  0.35635369  -0.01379505  0.43138767  1
  Nd3+  Nd45  1  0.00635485  0.87529691  0.06822193  1
  Nd3+  Nd46  1  0.25276075  0.87260858  0.05547748  1
  Nd3+  Nd47  1  0.61066309  -0.01013107  0.43521624  1
  Nd3+  Nd48  1  0.50065459  0.38049774  0.05780341  1
  Nd3+  Nd49  1  0.87795474  0.24526783  0.94118187  1
  Nd3+  Nd50  1  0.36284215  0.49783467  0.43405510  1
  Sm3+  Sm51  1  0.87866686  0.74750984  0.94552755  1
  Sm3+  Sm52  1  0.48933447  0.11377721  0.55265638  1
  Sm3+  Sm53  1  0.86091231  0.73597210  0.44218628  1
  Sm3+  Sm54  1  0.12721087  0.24546610  0.95718260  1
  Sm3+  Sm55  1  0.75648507  0.86831192  0.05467424  1
  Sm3+  Sm56  1  0.50520062  0.87040271  0.05835674  1
  Sm3+  Sm57  1  0.61288221  0.73482905  0.44832555  1
  Sm3+  Sm58  1  0.62857784  0.00141658  0.93747090  1
  Sm3+  Sm59  1  0.11230201  0.23731810  0.44002799  1
  Sm3+  Sm60  1  0.23671368  0.36216122  0.56674904  1
  Sm3+  Sm61  1  0.49070358  0.36534998  0.55241274  1
  Sm3+  Sm62  1  -0.01073069  0.86277405  0.55467072  1
  Sm3+  Sm63  1  -0.01155639  0.61055348  0.55919343  1
  Bi2+  Bi64  1  0.00033116  0.12795521  0.29257163  1
  Bi2+  Bi65  1  -0.03540512  0.11112284  0.81359578  1
  Bi2+  Bi66  1  -0.01345467  0.33032211  0.28915418  1
  Bi2+  Bi67  1  0.01183444  0.46213919  0.80644187  1
  Bi2+  Bi68  1  -0.00810795  0.61393589  0.29435770  1
  Bi2+  Bi69  1  0.01385170  0.65551106  0.79065017  1
  Bi2+  Bi70  1  0.03107552  0.86038476  0.29134775  1
  Bi2+  Bi71  1  0.02456979  0.93868874  0.74366183  1
  Bi2+  Bi72  1  0.27426184  0.08248736  0.30406639  1
  Bi2+  Bi73  1  0.24016394  0.14524963  0.79728425  1
  Bi2+  Bi74  1  0.27840495  0.37631343  0.29843391  1
  Bi2+  Bi75  1  0.22135485  0.38094173  0.78398852  1
  Bi2+  Bi76  1  0.25606561  0.63706273  0.29233319  1
  Bi2+  Bi77  1  0.23840373  0.63971891  0.78847689  1
  Bi2+  Bi78  1  0.32339740  0.82271127  0.25221649  1
  Bi2+  Bi79  1  0.20301336  0.89627709  0.78735154  1
  Bi2+  Bi80  1  0.50975310  0.14574489  0.30188349  1
  Bi2+  Bi81  1  0.50182068  0.12330410  0.84967667  1
  Bi2+  Bi82  1  0.49736169  0.38824382  0.26778444  1
  Bi2+  Bi83  1  0.48782968  0.30704676  0.79108202  1
  Bi2+  Bi84  1  0.47896303  0.61430204  0.29645007  1
  Bi2+  Bi85  1  0.49208643  0.65880393  0.77508403  1
  Bi2+  Bi86  1  0.52695583  0.83274297  0.28900527  1
  Bi2+  Bi87  1  0.48105123  0.93444635  0.80139645  1
  Bi2+  Bi88  1  0.80340430  0.10887976  0.21981052  1
  Bi2+  Bi89  1  0.67785934  0.11750187  0.78711692  1
  Bi2+  Bi90  1  0.76174477  0.34196634  0.28677073  1
  Bi2+  Bi91  1  0.76480304  0.34663517  0.78773740  1
  Bi2+  Bi92  1  0.69922014  0.60217718  0.28095508  1
  Bi2+  Bi93  1  0.75966163  0.61667489  0.79226097  1
  Bi2+  Bi94  1  0.69605886  0.92993184  0.32340604  1
  Bi2+  Bi95  1  0.75425491  0.92642015  0.77791532  1
  Bi2+  Bi96  1  0.12723319  -0.03314329  0.20895651  1
  Bi2+  Bi97  1  0.15080462  0.10574640  0.69764872  1
  Bi2+  Bi98  1  0.15166376  0.28354390  0.22381392  1
  Bi2+  Bi99  1  0.06063335  0.28011491  0.77162080  1
  Bi2+  Bi100  1  0.17106084  0.48142104  0.21817463  1
  Bi2+  Bi101  1  0.12110445  0.60413080  0.69752197  1
  Bi2+  Bi102  1  0.13958662  0.74567489  0.21896212  1
  Bi2+  Bi103  1  0.15911528  0.79826587  0.68733275  1
  Bi2+  Bi104  1  0.35948736  0.00809214  0.19687520  1
  Bi2+  Bi105  1  0.40125703  0.07523860  0.74084897  1
  Bi2+  Bi106  1  0.36054019  0.28451580  0.21178945  1
  Bi2+  Bi107  1  0.33939404  0.26389157  0.71864352  1
  Bi2+  Bi108  1  0.34829522  0.55230788  0.18606385  1
  Bi2+  Bi109  1  0.35562470  0.48925045  0.70431057  1
  Bi2+  Bi110  1  0.45877692  0.73030126  0.18877033  1
  Bi2+  Bi111  1  0.34137689  0.79333833  0.73729430  1
  Bi2+  Bi112  1  0.61948340  -0.04578231  0.21784868  1
  Bi2+  Bi113  1  0.59278008  0.01727654  0.69550726  1
  Bi2+  Bi114  1  0.66102556  0.24453086  0.21325228  1
  Bi2+  Bi115  1  0.62469193  0.26218208  0.71583402  1
  Bi2+  Bi116  1  0.61419188  0.49495215  0.20059609  1
  Bi2+  Bi117  1  0.61686337  0.48208376  0.70593644  1
  Bi2+  Bi118  1  0.65600269  0.75322579  0.21021457  1
  Bi2+  Bi119  1  0.63932371  0.77267255  0.70357649  1
  Bi2+  Bi120  1  0.88214287  -0.07001841  0.21588590  1
  Bi2+  Bi121  1  0.83877661  0.06664604  0.71152873  1
  Bi2+  Bi122  1  0.96432913  0.21437995  0.19103893  1
  Bi2+  Bi123  1  0.88768052  0.25659869  0.69957262  1
  Bi2+  Bi124  1  0.87443960  0.47576197  0.20502707  1
  Bi2+  Bi125  1  0.89861070  0.47690114  0.70920126  1
  Bi2+  Bi126  1  0.84007172  0.80796872  0.30551140  1
  Bi2+  Bi127  1  0.89272816  0.79511362  0.75168961  1
  S2-  S128  1  -0.00039274  -0.00355607  0.14454578  1
  S2-  S129  1  -0.01453879  0.12123090  0.65697231  1
  S2-  S130  1  0.02812799  0.46849336  0.15655913  1
  S2-  S131  1  -0.00678952  0.36521148  0.65482291  1
  S2-  S132  1  -0.08033798  0.62956881  0.20147386  1
  S2-  S133  1  -0.04322603  0.60575042  0.65639887  1
  S2-  S134  1  0.02351429  0.78420219  0.15302148  1
  S2-  S135  1  0.00076426  0.86233702  0.65267816  1
  S2-  S136  1  0.20235075  0.08959063  0.16545471  1
  S2-  S137  1  0.22877653  0.23822284  0.64038250  1
  S2-  S138  1  0.37587489  0.40052541  0.13499535  1
  S2-  S139  1  0.21954157  0.46858731  0.64452164  1
  S2-  S140  1  0.18914873  0.62350505  0.14766800  1
  S2-  S141  1  0.36655209  0.62321412  0.65371223  1
  S2-  S142  1  0.26150919  0.87357000  0.15499607  1
  S2-  S143  1  0.23753565  0.99755580  0.64243527  1
  S2-  S144  1  0.39564031  0.15016230  0.14703308  1
  S2-  S145  1  0.48542817  0.12253088  0.65010834  1
  S2-  S146  1  0.60612205  0.36007604  0.13920029  1
  S2-  S147  1  0.48589809  0.42976254  0.64393767  1
  S2-  S148  1  0.50062426  0.58529837  0.13299866  1
  S2-  S149  1  0.60078248  0.62170448  0.65644341  1
  S2-  S150  1  0.49866671  0.95943945  0.14303633  1
  S2-  S151  1  0.52164189  0.86733072  0.65796205  1
  S2-  S152  1  0.65617274  0.12265627  0.14390911  1
  S2-  S153  1  0.73435091  0.24238535  0.64023734  1
  S2-  S154  1  0.86374989  0.33879636  0.14388646  1
  S2-  S155  1  0.75060155  0.46994641  0.64648309  1
  S2-  S156  1  0.74709330  0.52753146  0.13899450  1
  S2-  S157  1  0.76470532  0.75238413  0.64627360  1
  S2-  S158  1  0.75449613  0.86701265  0.15296970  1
  S2-  S159  1  0.74427017  0.98611779  0.64015758  1
  S2-  S160  1  0.23643302  -0.04828278  0.35571014  1
  S2-  S161  1  0.00897709  -0.02535517  0.86022310  1
  S2-  S162  1  0.13470858  0.14848492  0.35564932  1
  S2-  S163  1  0.11101065  0.18961542  0.86527052  1
  S2-  S164  1  0.23487083  0.50030856  0.36102420  1
  S2-  S165  1  0.20113617  0.50372989  0.85380262  1
  S2-  S166  1  0.10115451  0.72115858  0.34996944  1
  S2-  S167  1  0.13203000  0.75473677  0.84108882  1
  S2-  S168  1  0.43128334  0.02024447  0.33909520  1
  S2-  S169  1  0.26266132  0.00467541  0.85942684  1
  S2-  S170  1  0.36261121  0.22308127  0.34065121  1
  S2-  S171  1  0.35667062  0.34320091  0.85210171  1
  S2-  S172  1  0.47574239  0.48287902  0.35555774  1
  S2-  S173  1  0.38845371  0.55147700  0.81118880  1
  S2-  S174  1  0.36408119  0.68681860  0.36412984  1
  S2-  S175  1  0.41238180  0.78408007  0.84029825  1
  S2-  S176  1  0.64027397  0.09986005  0.35765828  1
  S2-  S177  1  0.62668912  -0.08885887  0.85412755  1
  S2-  S178  1  0.59356218  0.29511456  0.33367781  1
  S2-  S179  1  0.63191565  0.33653511  0.85438250  1
  S2-  S180  1  0.73812857  0.46971640  0.34852003  1
  S2-  S181  1  0.60160910  0.53600423  0.80615108  1
  S2-  S182  1  0.61331858  0.65208997  0.36209968  1
  S2-  S183  1  0.63974350  0.72935021  0.80887287  1
  S2-  S184  1  0.96944788  -0.00660347  0.35235504  1
  S2-  S185  1  0.81179896  0.03773036  0.84799845  1
  S2-  S186  1  0.86683100  0.23064004  0.34310183  1
  S2-  S187  1  0.86790592  0.26024659  0.84142591  1
  S2-  S188  1  1.00177309  0.47940109  0.35092602  1
  S2-  S189  1  0.79211762  0.49508334  0.85399355  1
  S2-  S190  1  0.86298765  0.64839170  0.35722562  1
  S2-  S191  1  0.85101423  0.74018228  0.84796639  1
  S2-  S192  1  -0.01552957  0.11720506  0.45276302  1
  S2-  S193  1  0.00235490  0.12227603  0.96540348  1
  S2-  S194  1  -0.01151120  0.36113009  0.45054994  1
  S2-  S195  1  0.00297863  0.36958964  0.95864489  1
  S2-  S196  1  -0.01042344  0.61548204  0.45687948  1
  S2-  S197  1  0.00148639  0.62438320  0.94250189  1
  S2-  S198  1  -0.01307135  0.85921557  0.45076196  1
  S2-  S199  1  0.00247612  0.86859529  0.96169524  1
  S2-  S200  1  0.23855101  0.11417842  0.46028133  1
  S2-  S201  1  0.25629277  0.12712273  0.96400207  1
  S2-  S202  1  0.23371192  0.36068093  0.45835914  1
  S2-  S203  1  0.24584926  0.36951268  0.95744943  1
  S2-  S204  1  0.23681840  0.61409012  0.46801199  1
  S2-  S205  1  0.25280853  0.62642724  0.94900219  1
  S2-  S206  1  0.23799885  0.86188121  0.46494000  1
  S2-  S207  1  0.25262197  0.87240801  0.95129101  1
  S2-  S208  1  0.48471771  0.11269789  0.45061000  1
  S2-  S209  1  0.50477490  0.11949756  0.96461351  1
  S2-  S210  1  0.48897917  0.36287165  0.45105257  1
  S2-  S211  1  0.50122416  0.37718411  0.94925500  1
  S2-  S212  1  0.48771488  0.61491363  0.46776534  1
  S2-  S213  1  0.50731216  0.62634668  0.93033373  1
  S2-  S214  1  0.48859744  0.86259729  0.45060700  1
  S2-  S215  1  0.50461832  0.87352029  0.95447150  1
  S2-  S216  1  0.74191823  0.11141273  0.46034718  1
  S2-  S217  1  0.75081240  0.12299420  0.95461062  1
  S2-  S218  1  0.73606719  0.36425810  0.45487137  1
  S2-  S219  1  0.75640837  0.36907211  0.95942419  1
  S2-  S220  1  0.73920286  0.61565844  0.46212121  1
  S2-  S221  1  0.74743968  0.63128453  0.94969076  1
  S2-  S222  1  0.73685680  0.86011723  0.45676007  1
  S2-  S223  1  0.75449268  0.87138340  0.95112810  1
  S2-  S224  1  0.13465125  0.00065123  0.04307814  1
  S2-  S225  1  0.10983082  -0.01247609  0.53887368  1
  S2-  S226  1  0.13020972  0.24986142  0.06172096  1
  S2-  S227  1  0.11000967  0.23978026  0.54266781  1
  S2-  S228  1  0.12673500  0.49840671  0.04619090  1
  S2-  S229  1  0.11048844  0.48765656  0.54177696  1
  S2-  S230  1  0.12825034  0.74523487  0.04542183  1
  S2-  S231  1  0.11359558  0.73707284  0.55296273  1
  S2-  S232  1  0.37904294  -0.00629380  0.04137733  1
  S2-  S233  1  0.36613938  -0.00935766  0.54167481  1
  S2-  S234  1  0.38104364  0.25086244  0.04173945  1
  S2-  S235  1  0.36766308  0.24087199  0.54625291  1
  S2-  S236  1  0.37778698  0.50147433  0.02472602  1
  S2-  S237  1  0.36038257  0.48259655  0.54143830  1
  S2-  S238  1  0.38025006  0.74906657  0.04215234  1
  S2-  S239  1  0.36064976  0.74537092  0.55919513  1
  S2-  S240  1  0.63356104  -0.01121519  0.04131723  1
  S2-  S241  1  0.61234362  -0.00970005  0.54012161  1
  S2-  S242  1  0.62732942  0.24789797  0.04167319  1
  S2-  S243  1  0.60970590  0.23807580  0.53974234  1
  S2-  S244  1  0.62781526  0.50038196  0.02805784  1
  S2-  S245  1  0.61388236  0.48761692  0.54207937  1
  S2-  S246  1  0.62866411  0.74843778  0.04751209  1
  S2-  S247  1  0.61274102  0.73778412  0.54953290  1
  S2-  S248  1  0.87556572  -0.00490419  0.04462610  1
  S2-  S249  1  0.86659869  -0.01591919  0.54011962  1
  S2-  S250  1  0.88118603  0.24211751  0.04505293  1
  S2-  S251  1  0.86476634  0.23876831  0.54506478  1
  S2-  S252  1  0.88725886  0.50681551  0.04651718  1
  S2-  S253  1  0.86495795  0.49091386  0.54105675  1
  S2-  S254  1  0.88110384  0.74327546  0.05076325  1
  S2-  S255  1  0.86883959  0.73777055  0.54450569  1
