# generated using pymatgen
data_La6Ce6Pr19Nd20Sm13(BiS2)64
_symmetry_space_group_name_H-M   'P 1'
_cell_length_a   16.06579843
_cell_length_b   16.02331276
_cell_length_c   27.54855505
_cell_angle_alpha   90.20113691
_cell_angle_beta   90.10509448
_cell_angle_gamma   89.95045024
_symmetry_Int_Tables_number   1
_chemical_formula_structural   La6Ce6Pr19Nd20Sm13(BiS2)64
_chemical_formula_sum   'La6 Ce6 Pr19 Nd20 Sm13 Bi64 S128'
_cell_volume   7091.69226206
_cell_formula_units_Z   1
loop_
 _symmetry_equiv_pos_site_id
 _symmetry_equiv_pos_as_xyz
  1  'x, y, z'
loop_
 _atom_type_symbol
 _atom_type_oxidation_number
  La3+  3.0
  Ce3+  3.0
  Pr3+  3.0
  Nd3+  3.0
  Sm3+  3.0
  Bi2+  2.0
  S2-  -2.0
loop_
 _atom_site_type_symbol
 _atom_site_label
 _atom_site_symmetry_multiplicity
 _atom_site_fract_x
 _atom_site_fract_y
 _atom_site_fract_z
 _atom_site_occupancy
  La3+  La0  1  0.51333405  0.11512036  0.58847264  1
  La3+  La1  1  0.38498825  0.50117682  0.42593979  1
  La3+  La2  1  0.12164390  0.75206555  0.39406156  1
  La3+  La3  1  0.23941221  0.89874643  0.09149827  1
  La3+  La4  1  0.61964061  0.76945606  0.93054802  1
  La3+  La5  1  0.61043830  -0.04315666  0.38577538  1
  Ce3+  Ce6  1  0.74528485  0.89701473  0.06654781  1
  Ce3+  Ce7  1  0.12139034  0.52305021  0.93308350  1
  Ce3+  Ce8  1  0.49853525  0.65193072  0.06662785  1
  Ce3+  Ce9  1  0.38147104  -0.00569455  0.45153619  1
  Ce3+  Ce10  1  0.00169231  0.14482041  0.05564563  1
  Ce3+  Ce11  1  0.13059426  -0.00557509  0.44403771  1
  Pr3+  Pr12  1  0.61687940  0.25764798  0.89224888  1
  Pr3+  Pr13  1  0.12192616  0.01244865  0.93161653  1
  Pr3+  Pr14  1  0.38309054  0.51632337  0.93318063  1
  Pr3+  Pr15  1  0.49740527  0.14947175  0.06812774  1
  Pr3+  Pr16  1  0.24873317  0.87396823  0.57430594  1
  Pr3+  Pr17  1  0.87978954  0.49768670  0.43461678  1
  Pr3+  Pr18  1  0.87654749  0.74835850  0.43771201  1
  Pr3+  Pr19  1  0.62445039  0.23299823  0.43141620  1
  Pr3+  Pr20  1  0.13605560  0.49888019  0.42916448  1
  Pr3+  Pr21  1  0.74771918  0.39539073  0.07167517  1
  Pr3+  Pr22  1  0.13274056  0.24907843  0.44366346  1
  Pr3+  Pr23  1  0.74793234  0.14514700  0.07373783  1
  Pr3+  Pr24  1  0.00190031  0.39495767  0.05859179  1
  Pr3+  Pr25  1  0.63463803  0.51835993  0.92743016  1
  Pr3+  Pr26  1  0.00496880  0.37449952  0.56074216  1
  Pr3+  Pr27  1  0.38291715  0.76072360  0.43108050  1
  Pr3+  Pr28  1  0.49658811  0.89911461  0.06993042  1
  Pr3+  Pr29  1  0.12322486  0.26404561  0.92307693  1
  Pr3+  Pr30  1  0.74482048  0.64881615  0.07258811  1
  Nd3+  Nd31  1  0.00493882  0.64890498  0.06038078  1
  Nd3+  Nd32  1  0.75232715  0.37137001  0.55811826  1
  Nd3+  Nd33  1  0.62892206  0.49677017  0.43841816  1
  Nd3+  Nd34  1  0.25368771  0.12240664  0.56620478  1
  Nd3+  Nd35  1  0.87465800  0.25335110  0.42014101  1
  Nd3+  Nd36  1  0.25762653  0.37621694  0.56477278  1
  Nd3+  Nd37  1  0.12382506  0.76761057  0.92852953  1
  Nd3+  Nd38  1  0.00680561  0.62299842  0.55371840  1
  Nd3+  Nd39  1  0.75313764  0.11955315  0.55570887  1
  Nd3+  Nd40  1  0.87452498  -0.00295684  0.43055141  1
  Nd3+  Nd41  1  0.86825389  0.02122464  0.94544433  1
  Nd3+  Nd42  1  0.24938121  0.39510661  0.04909118  1
  Nd3+  Nd43  1  0.75549610  0.62328095  0.56700539  1
  Nd3+  Nd44  1  0.62138809  0.02377412  0.94405241  1
  Nd3+  Nd45  1  0.50122611  0.62191119  0.56472240  1
  Nd3+  Nd46  1  0.50690474  0.37279591  0.56366064  1
  Nd3+  Nd47  1  0.37369987  0.02005497  0.94153675  1
  Nd3+  Nd48  1  0.00496742  0.87288221  0.56407591  1
  Nd3+  Nd49  1  0.25528319  0.62774212  0.54699400  1
  Nd3+  Nd50  1  0.24735553  0.14607898  0.06072144  1
  Sm3+  Sm51  1  0.25189866  0.64558633  0.05316654  1
  Sm3+  Sm52  1  0.00156777  0.12422012  0.54854284  1
  Sm3+  Sm53  1  0.50214708  0.39397910  0.05286976  1
  Sm3+  Sm54  1  0.37645969  0.76855573  0.94430006  1
  Sm3+  Sm55  1  0.87032309  0.51999031  0.94742440  1
  Sm3+  Sm56  1  0.62816928  0.74603322  0.45692787  1
  Sm3+  Sm57  1  0.86902813  0.76906720  0.95052140  1
  Sm3+  Sm58  1  0.00213240  0.89461957  0.05701416  1
  Sm3+  Sm59  1  0.49837800  0.87149770  0.57091206  1
  Sm3+  Sm60  1  0.86502632  0.27173806  0.94532443  1
  Sm3+  Sm61  1  0.75392164  0.87507111  0.55581659  1
  Sm3+  Sm62  1  0.38456448  0.24294932  0.45536425  1
  Sm3+  Sm63  1  0.37032112  0.26717662  0.93243547  1
  Bi2+  Bi64  1  -0.06714021  0.14877134  0.30626948  1
  Bi2+  Bi65  1  -0.01053422  0.14408954  0.78567178  1
  Bi2+  Bi66  1  0.03969060  0.32435376  0.29531906  1
  Bi2+  Bi67  1  0.02276200  0.35802772  0.81864886  1
  Bi2+  Bi68  1  -0.06982007  0.61921016  0.30592105  1
  Bi2+  Bi69  1  0.07507322  0.74909596  0.78111301  1
  Bi2+  Bi70  1  -0.06958770  0.88123869  0.26606318  1
  Bi2+  Bi71  1  -0.08978305  0.89110585  0.78674313  1
  Bi2+  Bi72  1  0.22382315  0.13168823  0.24142697  1
  Bi2+  Bi73  1  0.25471000  0.12840149  0.79967575  1
  Bi2+  Bi74  1  0.28490620  0.32653252  0.29691653  1
  Bi2+  Bi75  1  0.20161131  0.36642215  0.76947239  1
  Bi2+  Bi76  1  0.23530623  0.58470856  0.28758073  1
  Bi2+  Bi77  1  0.22662517  0.57316993  0.78558493  1
  Bi2+  Bi78  1  0.25992088  0.89992177  0.28423037  1
  Bi2+  Bi79  1  0.22866840  0.90824739  0.78955605  1
  Bi2+  Bi80  1  0.47042133  0.16789145  0.27881683  1
  Bi2+  Bi81  1  0.49585026  0.11828832  0.78426901  1
  Bi2+  Bi82  1  0.56105035  0.35157958  0.28953163  1
  Bi2+  Bi83  1  0.46617479  0.37811402  0.78215548  1
  Bi2+  Bi84  1  0.48975281  0.59564030  0.28390866  1
  Bi2+  Bi85  1  0.49807745  0.62241670  0.80711210  1
  Bi2+  Bi86  1  0.47088810  0.80743744  0.29467621  1
  Bi2+  Bi87  1  0.55046635  0.87679297  0.74481003  1
  Bi2+  Bi88  1  0.72378958  0.12690624  0.28893120  1
  Bi2+  Bi89  1  0.76505737  0.13355793  0.79541428  1
  Bi2+  Bi90  1  0.77526237  0.39543788  0.29051579  1
  Bi2+  Bi91  1  0.83789674  0.37257946  0.77915936  1
  Bi2+  Bi92  1  0.75036226  0.57517987  0.33889921  1
  Bi2+  Bi93  1  0.78551373  0.62650099  0.79837778  1
  Bi2+  Bi94  1  0.74743417  0.82108405  0.29976040  1
  Bi2+  Bi95  1  0.71445266  0.87232200  0.80844590  1
  Bi2+  Bi96  1  0.07044630  0.01942533  0.27303921  1
  Bi2+  Bi97  1  0.10829810  -0.00375753  0.71066440  1
  Bi2+  Bi98  1  0.09953723  0.25837493  0.18627810  1
  Bi2+  Bi99  1  0.06725033  0.26450788  0.70640221  1
  Bi2+  Bi100  1  0.14554881  0.44084299  0.22703926  1
  Bi2+  Bi101  1  0.10118375  0.51810691  0.69497493  1
  Bi2+  Bi102  1  0.11027614  0.74165806  0.19799146  1
  Bi2+  Bi103  1  0.21650678  0.75834092  0.70142849  1
  Bi2+  Bi104  1  0.37802466  0.01439999  0.20958573  1
  Bi2+  Bi105  1  0.37266475  -0.04949264  0.71099214  1
  Bi2+  Bi106  1  0.35912538  0.25652205  0.19124037  1
  Bi2+  Bi107  1  0.30127788  0.20612144  0.70442124  1
  Bi2+  Bi108  1  0.42320944  0.44260688  0.22113851  1
  Bi2+  Bi109  1  0.37037643  0.51841535  0.68947914  1
  Bi2+  Bi110  1  0.37867491  0.70149553  0.19012627  1
  Bi2+  Bi111  1  0.33572746  0.73726647  0.80667487  1
  Bi2+  Bi112  1  0.62110842  -0.09706565  0.19408459  1
  Bi2+  Bi113  1  0.69873653  0.00360679  0.71918465  1
  Bi2+  Bi114  1  0.61545786  0.21771516  0.20710305  1
  Bi2+  Bi115  1  0.62158094  0.26921890  0.69074391  1
  Bi2+  Bi116  1  0.62939092  0.46991949  0.20736067  1
  Bi2+  Bi117  1  0.62373818  0.51745473  0.69665440  1
  Bi2+  Bi118  1  0.66571224  0.66013614  0.24590535  1
  Bi2+  Bi119  1  0.70658524  0.76277974  0.71144595  1
  Bi2+  Bi120  1  0.86658177  0.04321698  0.21115144  1
  Bi2+  Bi121  1  0.90121603  0.01079823  0.69362887  1
  Bi2+  Bi122  1  0.88173319  0.26189524  0.21064011  1
  Bi2+  Bi123  1  0.86486528  0.21911504  0.70736664  1
  Bi2+  Bi124  1  0.89087328  0.51441934  0.21404792  1
  Bi2+  Bi125  1  0.95625233  0.52801407  0.77257256  1
  Bi2+  Bi126  1  0.84810462  0.73023003  0.21098090  1
  Bi2+  Bi127  1  0.91357195  0.73355687  0.71659815  1
  S2-  S128  1  -0.00750277  0.13253436  0.15246164  1
  S2-  S129  1  0.02292624  0.10806842  0.64431299  1
  S2-  S130  1  -0.04830156  0.39623267  0.15446191  1
  S2-  S131  1  -0.00776687  0.40031080  0.65869966  1
  S2-  S132  1  -0.00357513  0.64334379  0.15929458  1
  S2-  S133  1  0.00443831  0.63867365  0.65238359  1
  S2-  S134  1  0.08459917  0.87369694  0.14202776  1
  S2-  S135  1  0.10997958  0.86813406  0.64515447  1
  S2-  S136  1  0.24044735  0.05535156  0.14521585  1
  S2-  S137  1  0.25121175  0.04942583  0.65556710  1
  S2-  S138  1  0.22394547  0.37601032  0.14607603  1
  S2-  S139  1  0.27838657  0.37086363  0.66255273  1
  S2-  S140  1  0.22793482  0.64551765  0.15047549  1
  S2-  S141  1  0.25262962  0.60373843  0.64614084  1
  S2-  S142  1  0.30677036  0.85323749  0.18334122  1
  S2-  S143  1  0.35559496  0.82120842  0.64908733  1
  S2-  S144  1  0.50286882  0.02549818  0.14599867  1
  S2-  S145  1  0.46428697  0.17715686  0.68426164  1
  S2-  S146  1  0.49588358  0.28961306  0.13569577  1
  S2-  S147  1  0.50083611  0.40275163  0.66235694  1
  S2-  S148  1  0.46226181  0.56050567  0.14720536  1
  S2-  S149  1  0.49743748  0.62504753  0.66450077  1
  S2-  S150  1  0.51059167  0.77829760  0.14560763  1
  S2-  S151  1  0.51136683  0.96601912  0.65281658  1
  S2-  S152  1  0.73675597  0.01125362  0.14626452  1
  S2-  S153  1  0.67305601  0.12620212  0.64488665  1
  S2-  S154  1  0.74930140  0.27038946  0.14874173  1
  S2-  S155  1  0.72520284  0.39082510  0.65546265  1
  S2-  S156  1  0.75185879  0.52215781  0.14620691  1
  S2-  S157  1  0.75015112  0.60286958  0.66500019  1
  S2-  S158  1  0.73130975  0.78713382  0.14307733  1
  S2-  S159  1  0.79338666  0.88182298  0.65059825  1
  S2-  S160  1  0.13984382  -0.07441357  0.35555897  1
  S2-  S161  1  0.11313003  0.12435316  0.85434588  1
  S2-  S162  1  0.16149958  0.23348594  0.34624440  1
  S2-  S163  1  0.25444477  0.27631253  0.85253812  1
  S2-  S164  1  0.09632858  0.58915675  0.34452064  1
  S2-  S165  1  0.11417256  0.63680619  0.85855718  1
  S2-  S166  1  0.18663214  0.75604640  0.29486388  1
  S2-  S167  1  0.10188218  0.88760720  0.85595200  1
  S2-  S168  1  0.39185855  -0.08923495  0.36368013  1
  S2-  S169  1  0.39427992  0.03383489  0.84063991  1
  S2-  S170  1  0.39710325  0.25619580  0.35791639  1
  S2-  S171  1  0.45692199  0.25118351  0.84799443  1
  S2-  S172  1  0.26354951  0.46717869  0.35592742  1
  S2-  S173  1  0.36384197  0.49568468  0.83350359  1
  S2-  S174  1  0.37706452  0.66648847  0.34502096  1
  S2-  S175  1  0.47308020  0.78111766  0.86235340  1
  S2-  S176  1  0.56555496  -0.05818264  0.27904838  1
  S2-  S177  1  0.61886765  0.09204493  0.85234025  1
  S2-  S178  1  0.58953437  0.11965822  0.35295357  1
  S2-  S179  1  0.61469333  0.28576611  0.78451070  1
  S2-  S180  1  0.52084026  0.48028074  0.36072708  1
  S2-  S181  1  0.56546542  0.46898407  0.83554493  1
  S2-  S182  1  0.60016072  0.78119538  0.36263889  1
  S2-  S183  1  0.63991832  0.65511599  0.85377560  1
  S2-  S184  1  0.77520270  -0.02358512  0.34807843  1
  S2-  S185  1  0.87995161  0.03644892  0.84715158  1
  S2-  S186  1  0.74148251  0.26015213  0.35309231  1
  S2-  S187  1  0.78496936  0.27147643  0.85875381  1
  S2-  S188  1  0.91197724  0.39063896  0.35492704  1
  S2-  S189  1  0.78782746  0.50251796  0.86199792  1
  S2-  S190  1  0.96109988  0.77565612  0.35141829  1
  S2-  S191  1  0.85868411  0.76166452  0.85357278  1
  S2-  S192  1  0.00172874  0.12403616  0.44512262  1
  S2-  S193  1  -0.00812665  0.14721149  0.95166412  1
  S2-  S194  1  0.00845823  0.37322310  0.45576324  1
  S2-  S195  1  -0.00422517  0.39554471  0.95174966  1
  S2-  S196  1  0.00411753  0.62469572  0.45070090  1
  S2-  S197  1  -0.00683950  0.64648595  0.95561558  1
  S2-  S198  1  0.00136506  0.87491822  0.45768343  1
  S2-  S199  1  -0.00858925  0.89208028  0.95522031  1
  S2-  S200  1  0.25638461  0.12148567  0.45874961  1
  S2-  S201  1  0.24846386  0.14201035  0.95508355  1
  S2-  S202  1  0.26075264  0.36879278  0.45995060  1
  S2-  S203  1  0.24603865  0.39945935  0.94591034  1
  S2-  S204  1  0.25046507  0.63473607  0.44432841  1
  S2-  S205  1  0.25525500  0.64261492  0.94962789  1
  S2-  S206  1  0.25117706  0.87182896  0.46241909  1
  S2-  S207  1  0.25420265  0.89031550  0.94565393  1
  S2-  S208  1  0.50048093  0.11659890  0.46508152  1
  S2-  S209  1  0.49624708  0.14673577  0.95727297  1
  S2-  S210  1  0.50758970  0.36657010  0.45969844  1
  S2-  S211  1  0.50389609  0.38579084  0.94970908  1
  S2-  S212  1  0.50614008  0.62625050  0.45815444  1
  S2-  S213  1  0.49997481  0.64065311  0.95873257  1
  S2-  S214  1  0.51119542  0.87531472  0.46580202  1
  S2-  S215  1  0.49783525  0.89879548  0.96077096  1
  S2-  S216  1  0.76204909  0.12485502  0.45260900  1
  S2-  S217  1  0.74574853  0.14638672  0.96033795  1
  S2-  S218  1  0.75333002  0.37291923  0.45428377  1
  S2-  S219  1  0.74997535  0.39647456  0.96527745  1
  S2-  S220  1  0.75338355  0.62316723  0.46174955  1
  S2-  S221  1  0.75045095  0.64531437  0.96502263  1
  S2-  S222  1  0.74872045  0.87286336  0.45351005  1
  S2-  S223  1  0.74598876  0.89520904  0.95698647  1
  S2-  S224  1  0.12419003  0.01756702  0.03829978  1
  S2-  S225  1  0.12595644  0.00193827  0.54588237  1
  S2-  S226  1  0.12470315  0.26979129  0.03573142  1
  S2-  S227  1  0.13020215  0.24788446  0.55057811  1
  S2-  S228  1  0.12583304  0.52209445  0.04131256  1
  S2-  S229  1  0.13242252  0.49777747  0.54059191  1
  S2-  S230  1  0.12907503  0.77020408  0.03699631  1
  S2-  S231  1  0.12757865  0.74682795  0.54690531  1
  S2-  S232  1  0.36758137  0.01850095  0.04539124  1
  S2-  S233  1  0.37835265  -0.00232261  0.55402543  1
  S2-  S234  1  0.37011287  0.27019119  0.03701774  1
  S2-  S235  1  0.38219625  0.24568639  0.55865549  1
  S2-  S236  1  0.37324983  0.51742705  0.03925949  1
  S2-  S237  1  0.38113527  0.49759423  0.54094161  1
  S2-  S238  1  0.36566792  0.77550100  0.04737558  1
  S2-  S239  1  0.38299303  0.74760236  0.53993639  1
  S2-  S240  1  0.62195803  0.02382381  0.04550346  1
  S2-  S241  1  0.63189791  -0.00896326  0.55208423  1
  S2-  S242  1  0.62458069  0.27038241  0.04715906  1
  S2-  S243  1  0.62819139  0.24719222  0.54375461  1
  S2-  S244  1  0.61892054  0.52130431  0.04517621  1
  S2-  S245  1  0.62913615  0.50032130  0.54549880  1
  S2-  S246  1  0.62205130  0.77274628  0.03901984  1
  S2-  S247  1  0.62909693  0.74940049  0.56029334  1
  S2-  S248  1  0.87737256  0.01827889  0.04956846  1
  S2-  S249  1  0.88068658  -0.00266650  0.53964172  1
  S2-  S250  1  0.87632954  0.26907762  0.04741178  1
  S2-  S251  1  0.87928180  0.24836215  0.54654461  1
  S2-  S252  1  0.87905774  0.52435161  0.04892470  1
  S2-  S253  1  0.87757093  0.49831883  0.54532880  1
  S2-  S254  1  0.87848855  0.77172616  0.05336970  1
  S2-  S255  1  0.87893816  0.74821898  0.54642325  1
