# generated using pymatgen
data_La6Ce6Pr19Nd20Sm13(BiS2)64
_symmetry_space_group_name_H-M   'P 1'
_cell_length_a   16.08096200
_cell_length_b   16.10691790
_cell_length_c   27.26383189
_cell_angle_alpha   89.84973968
_cell_angle_beta   89.91471593
_cell_angle_gamma   89.93196478
_symmetry_Int_Tables_number   1
_chemical_formula_structural   La6Ce6Pr19Nd20Sm13(BiS2)64
_chemical_formula_sum   'La6 Ce6 Pr19 Nd20 Sm13 Bi64 S128'
_cell_volume   7061.69712955
_cell_formula_units_Z   1
loop_
 _symmetry_equiv_pos_site_id
 _symmetry_equiv_pos_as_xyz
  1  'x, y, z'
loop_
 _atom_type_symbol
 _atom_type_oxidation_number
  La3+  3.0
  Ce3+  3.0
  Pr3+  3.0
  Nd3+  3.0
  Sm3+  3.0
  Bi2+  2.0
  S2-  -2.0
loop_
 _atom_site_type_symbol
 _atom_site_label
 _atom_site_symmetry_multiplicity
 _atom_site_fract_x
 _atom_site_fract_y
 _atom_site_fract_z
 _atom_site_occupancy
  La3+  La0  1  0.49567892  0.83879423  0.57174087  1
  La3+  La1  1  0.37556231  0.71967253  0.41474483  1
  La3+  La2  1  0.63411563  0.73836652  0.92345356  1
  La3+  La3  1  0.11707826  0.47358469  0.42264575  1
  La3+  La4  1  0.36630685  0.75467687  0.88697195  1
  La3+  La5  1  0.48592001  0.59110432  0.57090385  1
  Ce3+  Ce6  1  0.61854162  0.23203906  0.43935751  1
  Ce3+  Ce7  1  0.00143318  0.59630041  0.56041086  1
  Ce3+  Ce8  1  0.00152290  0.34152930  0.57086892  1
  Ce3+  Ce9  1  0.76061198  0.61902076  0.06081984  1
  Ce3+  Ce10  1  0.86701167  0.71906554  0.44731292  1
  Ce3+  Ce11  1  0.01914801  0.11741156  0.06629002  1
  Pr3+  Pr12  1  0.74228278  0.59671092  0.57422216  1
  Pr3+  Pr13  1  0.11488383  -0.02662280  0.42987291  1
  Pr3+  Pr14  1  0.88767337  0.74399041  0.93190073  1
  Pr3+  Pr15  1  0.61552423  -0.03036223  0.43881713  1
  Pr3+  Pr16  1  0.11442751  0.22121783  0.43048608  1
  Pr3+  Pr17  1  0.11725342  0.72518518  0.42385685  1
  Pr3+  Pr18  1  0.74103786  0.34543730  0.57118237  1
  Pr3+  Pr19  1  0.51336349  0.36584009  0.06214262  1
  Pr3+  Pr20  1  0.39327150  0.49254146  0.93682173  1
  Pr3+  Pr21  1  0.64798837  -0.00461607  0.92560457  1
  Pr3+  Pr22  1  0.27368027  0.86205603  0.09035511  1
  Pr3+  Pr23  1  0.76135963  0.86818753  0.06269095  1
  Pr3+  Pr24  1  0.89549048  -0.00654139  0.94006786  1
  Pr3+  Pr25  1  0.76575404  0.36653213  0.07046075  1
  Pr3+  Pr26  1  0.14697675  0.49485698  0.94399320  1
  Pr3+  Pr27  1  -0.00313138  0.84893511  0.56825400  1
  Pr3+  Pr28  1  0.49353221  0.09545894  0.55627397  1
  Pr3+  Pr29  1  -0.00646134  0.09424860  0.57004972  1
  Pr3+  Pr30  1  0.39026148  0.24344354  0.93014748  1
  Nd3+  Nd31  1  0.89215386  0.49250542  0.94034351  1
  Nd3+  Nd32  1  0.89949292  0.24490858  0.93848031  1
  Nd3+  Nd33  1  0.65104613  0.25298574  0.92644382  1
  Nd3+  Nd34  1  0.64294273  0.49315226  0.93561923  1
  Nd3+  Nd35  1  0.27120026  0.11806619  0.06326634  1
  Nd3+  Nd36  1  0.37073499  0.47233580  0.43415596  1
  Nd3+  Nd37  1  0.01473585  0.36883767  0.07203493  1
  Nd3+  Nd38  1  0.48657572  0.34409411  0.57243560  1
  Nd3+  Nd39  1  0.27200523  0.61807974  0.06871630  1
  Nd3+  Nd40  1  0.14165620  0.24309026  0.94191169  1
  Nd3+  Nd41  1  0.01610190  0.86636448  0.05874168  1
  Nd3+  Nd42  1  0.24316792  0.09594169  0.55718018  1
  Nd3+  Nd43  1  0.51947472  0.61965931  0.06535202  1
  Nd3+  Nd44  1  0.24141419  0.34555597  0.56022926  1
  Nd3+  Nd45  1  0.36787093  0.22853924  0.43176365  1
  Nd3+  Nd46  1  0.37066784  -0.02775115  0.43946930  1
  Nd3+  Nd47  1  0.51967026  0.11727442  0.05460307  1
  Nd3+  Nd48  1  0.26420792  0.37090849  0.07798444  1
  Nd3+  Nd49  1  0.51658482  0.86710506  0.05884467  1
  Nd3+  Nd50  1  0.23955417  0.59744907  0.55727785  1
  Sm3+  Sm51  1  0.74323753  0.84415259  0.55376836  1
  Sm3+  Sm52  1  0.74126276  0.09522948  0.55575837  1
  Sm3+  Sm53  1  0.86832704  0.47051859  0.45546815  1
  Sm3+  Sm54  1  0.24362950  0.84451654  0.54944262  1
  Sm3+  Sm55  1  0.39372482  -0.01055570  0.94036291  1
  Sm3+  Sm56  1  0.86659887  -0.02822031  0.44378516  1
  Sm3+  Sm57  1  0.01631149  0.62063289  0.05511653  1
  Sm3+  Sm58  1  0.14653510  0.74437733  0.94684045  1
  Sm3+  Sm59  1  0.76727579  0.11848348  0.05260113  1
  Sm3+  Sm60  1  0.86915043  0.22218737  0.44806311  1
  Sm3+  Sm61  1  0.62007592  0.47167677  0.44044242  1
  Sm3+  Sm62  1  0.61627260  0.71456293  0.43554886  1
  Sm3+  Sm63  1  0.14704643  -0.01052836  0.95366085  1
  Bi2+  Bi64  1  -0.03697687  0.13443346  0.29959290  1
  Bi2+  Bi65  1  -0.02161956  0.05159997  0.81061919  1
  Bi2+  Bi66  1  -0.05021487  0.45845718  0.26776860  1
  Bi2+  Bi67  1  0.00526743  0.35494250  0.78667179  1
  Bi2+  Bi68  1  -0.08578412  0.64857296  0.22652539  1
  Bi2+  Bi69  1  -0.00716389  0.64373847  0.76826694  1
  Bi2+  Bi70  1  -0.06261089  0.87203629  0.29578298  1
  Bi2+  Bi71  1  -0.04604386  0.82419253  0.81340714  1
  Bi2+  Bi72  1  0.37188864  0.16327406  0.30194791  1
  Bi2+  Bi73  1  0.22668355  0.20975874  0.82211649  1
  Bi2+  Bi74  1  0.23234434  0.41063986  0.29798740  1
  Bi2+  Bi75  1  0.26132412  0.39169288  0.78865297  1
  Bi2+  Bi76  1  0.24234868  0.61009545  0.28958446  1
  Bi2+  Bi77  1  0.23962276  0.61414640  0.78971028  1
  Bi2+  Bi78  1  0.21780238  0.90698482  0.29495065  1
  Bi2+  Bi79  1  0.13754524  0.87181950  0.78070595  1
  Bi2+  Bi80  1  0.55698235  0.18286725  0.25503420  1
  Bi2+  Bi81  1  0.55228571  0.15406704  0.82227611  1
  Bi2+  Bi82  1  0.50384890  0.36221429  0.28844284  1
  Bi2+  Bi83  1  0.50951305  0.33527063  0.78253483  1
  Bi2+  Bi84  1  0.51396651  0.63689788  0.29409200  1
  Bi2+  Bi85  1  0.50164198  0.63035256  0.78355670  1
  Bi2+  Bi86  1  0.50044684  0.91564875  0.29327618  1
  Bi2+  Bi87  1  0.49392504  0.89434445  0.77573666  1
  Bi2+  Bi88  1  0.75066281  0.22049187  0.23157849  1
  Bi2+  Bi89  1  0.73666604  0.16096838  0.78246145  1
  Bi2+  Bi90  1  0.77365613  0.36958745  0.30353320  1
  Bi2+  Bi91  1  0.77238505  0.39400447  0.79767512  1
  Bi2+  Bi92  1  0.75747345  0.64325120  0.29858597  1
  Bi2+  Bi93  1  0.75350265  0.63375705  0.78494174  1
  Bi2+  Bi94  1  0.70395516  0.88530538  0.28703258  1
  Bi2+  Bi95  1  0.76686098  0.89352219  0.78452467  1
  Bi2+  Bi96  1  0.01100045  0.00394043  0.22109202  1
  Bi2+  Bi97  1  0.15489469  0.06130860  0.75033544  1
  Bi2+  Bi98  1  0.17181609  0.21214525  0.28930707  1
  Bi2+  Bi99  1  0.12669710  0.24136028  0.70437446  1
  Bi2+  Bi100  1  0.12082660  0.48672087  0.21107547  1
  Bi2+  Bi101  1  0.12932296  0.49665675  0.71150377  1
  Bi2+  Bi102  1  0.11603312  0.76275768  0.20652125  1
  Bi2+  Bi103  1  0.09994267  0.76316874  0.68861395  1
  Bi2+  Bi104  1  0.35030476  0.02148584  0.19931730  1
  Bi2+  Bi105  1  0.37312565  0.08738206  0.80330192  1
  Bi2+  Bi106  1  0.30585271  0.26934988  0.21337978  1
  Bi2+  Bi107  1  0.36238034  0.20778072  0.70919928  1
  Bi2+  Bi108  1  0.38876095  0.48610850  0.20886022  1
  Bi2+  Bi109  1  0.38450795  0.46567722  0.70745026  1
  Bi2+  Bi110  1  0.38105650  0.75391693  0.21348297  1
  Bi2+  Bi111  1  0.36023127  0.75429928  0.67594314  1
  Bi2+  Bi112  1  0.59670225  0.00534566  0.19933026  1
  Bi2+  Bi113  1  0.62083114  0.07370856  0.70651865  1
  Bi2+  Bi114  1  0.61908856  0.32474702  0.17406617  1
  Bi2+  Bi115  1  0.62450119  0.27395396  0.69450957  1
  Bi2+  Bi116  1  0.63453456  0.48568122  0.23673312  1
  Bi2+  Bi117  1  0.65942396  0.47452717  0.70991110  1
  Bi2+  Bi118  1  0.64683372  0.74633596  0.21319264  1
  Bi2+  Bi119  1  0.61734515  0.80493805  0.70404858  1
  Bi2+  Bi120  1  0.80946175  0.00804528  0.21300182  1
  Bi2+  Bi121  1  0.89605216  -0.00016507  0.70794421  1
  Bi2+  Bi122  1  0.99777442  0.29035112  0.21481357  1
  Bi2+  Bi123  1  0.91795852  0.19723741  0.73847845  1
  Bi2+  Bi124  1  0.80126812  0.51325917  0.17931530  1
  Bi2+  Bi125  1  0.93579114  0.48285626  0.71369270  1
  Bi2+  Bi126  1  0.82853256  0.81553058  0.18767146  1
  Bi2+  Bi127  1  0.90543045  0.78346709  0.69994372  1
  S2-  S128  1  -0.01533169  0.14231808  0.16101170  1
  S2-  S129  1  -0.01019206  0.21633949  0.64436567  1
  S2-  S130  1  0.12501053  0.34703661  0.15007015  1
  S2-  S131  1  0.12984811  0.37217632  0.63811307  1
  S2-  S132  1  0.04341233  0.62369119  0.15295659  1
  S2-  S133  1  0.11602224  0.61173442  0.63321890  1
  S2-  S134  1  0.01024839  0.85718226  0.15776724  1
  S2-  S135  1  0.01400703  0.96963398  0.64277065  1
  S2-  S136  1  0.24039511  0.12647268  0.16169179  1
  S2-  S137  1  0.23471831  0.11547384  0.65645512  1
  S2-  S138  1  0.25900287  0.50545637  0.14779206  1
  S2-  S139  1  0.35216640  0.33454860  0.64200929  1
  S2-  S140  1  0.25110386  0.72001415  0.15421674  1
  S2-  S141  1  0.33760823  0.59051363  0.64336267  1
  S2-  S142  1  0.21502776  0.90933726  0.18865330  1
  S2-  S143  1  0.23661756  0.85731123  0.64796641  1
  S2-  S144  1  0.47395504  0.10736372  0.15115253  1
  S2-  S145  1  0.48690725  0.15093628  0.65167308  1
  S2-  S146  1  0.40150018  0.34819340  0.14261944  1
  S2-  S147  1  0.51933483  0.46619941  0.64558841  1
  S2-  S148  1  0.44075876  0.61808766  0.15974762  1
  S2-  S149  1  0.52587542  0.70440468  0.64583735  1
  S2-  S150  1  0.41981577  0.87172433  0.15152719  1
  S2-  S151  1  0.48272747  0.90654036  0.66777643  1
  S2-  S152  1  0.72204047  0.11133170  0.14734870  1
  S2-  S153  1  0.76247988  0.08865744  0.65309139  1
  S2-  S154  1  0.88764536  0.37034649  0.14562281  1
  S2-  S155  1  0.77274411  0.35021046  0.67068619  1
  S2-  S156  1  0.65503993  0.62690557  0.13824655  1
  S2-  S157  1  0.74234845  0.60778567  0.67689651  1
  S2-  S158  1  0.63510445  0.87504883  0.13543837  1
  S2-  S159  1  0.75329349  0.84667556  0.65211663  1
  S2-  S160  1  0.10980157  0.09344113  0.35523768  1
  S2-  S161  1  0.12954255  -0.00335608  0.85551867  1
  S2-  S162  1  0.10343634  0.34180528  0.35452361  1
  S2-  S163  1  0.02382928  0.25199968  0.86543916  1
  S2-  S164  1  0.11430444  0.60319222  0.34851646  1
  S2-  S165  1  0.14905216  0.49431396  0.84316116  1
  S2-  S166  1  0.09512762  0.85578155  0.35218627  1
  S2-  S167  1  0.19643722  0.74479517  0.85239825  1
  S2-  S168  1  0.35627972  -0.00687759  0.33999446  1
  S2-  S169  1  0.37243574  -0.07650240  0.84932378  1
  S2-  S170  1  0.37752272  0.35126128  0.35875380  1
  S2-  S171  1  0.39271112  0.36854818  0.85798868  1
  S2-  S172  1  0.39177111  0.57819612  0.34985424  1
  S2-  S173  1  0.38154325  0.58688610  0.84927658  1
  S2-  S174  1  0.29677660  0.77310692  0.32188212  1
  S2-  S175  1  0.36036768  0.73761241  0.77058136  1
  S2-  S176  1  0.61390197  0.00923073  0.34015024  1
  S2-  S177  1  0.62025118  -0.05837406  0.82866121  1
  S2-  S178  1  0.62401599  0.34830749  0.36595983  1
  S2-  S179  1  0.63219338  0.38124960  0.85530199  1
  S2-  S180  1  0.63449567  0.58715908  0.36404262  1
  S2-  S181  1  0.63284979  0.59359507  0.84779912  1
  S2-  S182  1  0.52021646  0.77075805  0.35562498  1
  S2-  S183  1  0.52557561  0.75954020  0.84103129  1
  S2-  S184  1  0.87517330  -0.00022868  0.34670252  1
  S2-  S185  1  0.81271968  0.01236671  0.85153752  1
  S2-  S186  1  0.87032592  0.24165747  0.35008454  1
  S2-  S187  1  0.79459204  0.25816451  0.85757725  1
  S2-  S188  1  0.86326475  0.48343903  0.35683678  1
  S2-  S189  1  0.85311350  0.52164816  0.84406779  1
  S2-  S190  1  0.87672662  0.72987570  0.34953947  1
  S2-  S191  1  0.77218574  0.75193563  0.85290465  1
  S2-  S192  1  -0.01369241  0.09550016  0.46052105  1
  S2-  S193  1  0.02157033  0.11279695  0.96152783  1
  S2-  S194  1  -0.01175784  0.34539147  0.46128032  1
  S2-  S195  1  0.01887510  0.37412892  0.96398631  1
  S2-  S196  1  -0.00956266  0.59661900  0.45538151  1
  S2-  S197  1  0.01763813  0.62174289  0.94842784  1
  S2-  S198  1  -0.01328788  0.84956803  0.45974961  1
  S2-  S199  1  0.01952289  0.86670363  0.95317209  1
  S2-  S200  1  0.24806178  0.09952484  0.44970354  1
  S2-  S201  1  0.26718830  0.11492249  0.95526749  1
  S2-  S202  1  0.24142277  0.34622135  0.45397091  1
  S2-  S203  1  0.26428402  0.36554332  0.96083633  1
  S2-  S204  1  0.24612594  0.60075743  0.44953134  1
  S2-  S205  1  0.26769142  0.62241183  0.95854038  1
  S2-  S206  1  0.24859962  0.84756014  0.44508136  1
  S2-  S207  1  0.26828034  0.86736041  0.95699688  1
  S2-  S208  1  0.49423367  0.10182297  0.44836197  1
  S2-  S209  1  0.51741983  0.11827728  0.94786541  1
  S2-  S210  1  0.49470799  0.34880195  0.46500410  1
  S2-  S211  1  0.51818612  0.36424591  0.95744584  1
  S2-  S212  1  0.49596376  0.59496489  0.45999661  1
  S2-  S213  1  0.51847866  0.61221407  0.95817718  1
  S2-  S214  1  0.49292762  0.84768660  0.46139447  1
  S2-  S215  1  0.51849515  0.87424891  0.95187158  1
  S2-  S216  1  0.74166149  0.09856465  0.45029544  1
  S2-  S217  1  0.76852097  0.12256077  0.95157892  1
  S2-  S218  1  0.74795114  0.34727994  0.46404281  1
  S2-  S219  1  0.77188213  0.37041556  0.96255823  1
  S2-  S220  1  0.74634192  0.59497764  0.46585238  1
  S2-  S221  1  0.76930495  0.61638619  0.95584726  1
  S2-  S222  1  0.74127298  0.84532382  0.44806994  1
  S2-  S223  1  0.76853209  0.87131109  0.95533114  1
  S2-  S224  1  0.14536660  -0.01193688  0.05850896  1
  S2-  S225  1  0.12289645  -0.02879349  0.53714421  1
  S2-  S226  1  0.14286752  0.24085027  0.04738793  1
  S2-  S227  1  0.11969511  0.21632828  0.53953232  1
  S2-  S228  1  0.13645506  0.49633194  0.04878209  1
  S2-  S229  1  0.11702795  0.47258067  0.53316151  1
  S2-  S230  1  0.14122858  0.74428393  0.04949961  1
  S2-  S231  1  0.11746282  0.72821426  0.53285366  1
  S2-  S232  1  0.39130174  -0.00667088  0.04482578  1
  S2-  S233  1  0.36813746  -0.02978361  0.54665042  1
  S2-  S234  1  0.39128970  0.23831141  0.03874838  1
  S2-  S235  1  0.36760010  0.21787744  0.53804495  1
  S2-  S236  1  0.39190211  0.49239562  0.04432479  1
  S2-  S237  1  0.36348112  0.46827068  0.53962355  1
  S2-  S238  1  0.39403838  0.74280707  0.05265301  1
  S2-  S239  1  0.36531434  0.72344350  0.54073098  1
  S2-  S240  1  0.64354011  -0.00217694  0.03479997  1
  S2-  S241  1  0.62038193  -0.03023664  0.54740680  1
  S2-  S242  1  0.64376232  0.24136452  0.03932787  1
  S2-  S243  1  0.61876223  0.22147990  0.54679938  1
  S2-  S244  1  0.64218942  0.48711130  0.04498991  1
  S2-  S245  1  0.62364822  0.47121379  0.54559388  1
  S2-  S246  1  0.64180085  0.74352118  0.03446850  1
  S2-  S247  1  0.62546841  0.71967937  0.54153434  1
  S2-  S248  1  0.89077401  -0.00709359  0.05017931  1
  S2-  S249  1  0.86304686  -0.02990832  0.54744767  1
  S2-  S250  1  0.89218202  0.23949856  0.04564254  1
  S2-  S251  1  0.86308213  0.21913433  0.55096153  1
  S2-  S252  1  0.89272496  0.49914889  0.04618848  1
  S2-  S253  1  0.87169133  0.47146241  0.56057377  1
  S2-  S254  1  0.89041955  0.74308839  0.04398175  1
  S2-  S255  1  0.87056790  0.72117157  0.55477794  1
