# generated using pymatgen
data_La6Ce6Pr19Nd20Sm13(BiS2)64
_symmetry_space_group_name_H-M   'P 1'
_cell_length_a   16.16180666
_cell_length_b   16.16797557
_cell_length_c   27.12965904
_cell_angle_alpha   89.94818749
_cell_angle_beta   90.06050877
_cell_angle_gamma   90.03700435
_symmetry_Int_Tables_number   1
_chemical_formula_structural   La6Ce6Pr19Nd20Sm13(BiS2)64
_chemical_formula_sum   'La6 Ce6 Pr19 Nd20 Sm13 Bi64 S128'
_cell_volume   7089.07183189
_cell_formula_units_Z   1
loop_
 _symmetry_equiv_pos_site_id
 _symmetry_equiv_pos_as_xyz
  1  'x, y, z'
loop_
 _atom_type_symbol
 _atom_type_oxidation_number
  La3+  3.0
  Ce3+  3.0
  Pr3+  3.0
  Nd3+  3.0
  Sm3+  3.0
  Bi2+  2.0
  S2-  -2.0
loop_
 _atom_site_type_symbol
 _atom_site_label
 _atom_site_symmetry_multiplicity
 _atom_site_fract_x
 _atom_site_fract_y
 _atom_site_fract_z
 _atom_site_occupancy
  La3+  La0  1  0.25345342  0.39257636  0.60591094  1
  La3+  La1  1  0.11590940  0.00855029  0.43373391  1
  La3+  La2  1  0.37209945  0.26376492  0.41982012  1
  La3+  La3  1  0.74721327  0.36405575  0.08041266  1
  La3+  La4  1  0.12052110  0.50926987  0.43395329  1
  La3+  La5  1  0.86375362  0.51204432  0.39945378  1
  Ce3+  Ce6  1  0.75157109  0.12059802  0.06162946  1
  Ce3+  Ce7  1  0.87355363  0.49312564  0.94550635  1
  Ce3+  Ce8  1  0.87192686  0.00530808  0.42701303  1
  Ce3+  Ce9  1  0.37503428  0.74612434  0.93743676  1
  Ce3+  Ce10  1  0.37112782  -0.00321806  0.94415287  1
  Ce3+  Ce11  1  0.12710169  0.74716975  0.93798921  1
  Pr3+  Pr12  1  0.25013982  0.62112663  0.05736270  1
  Pr3+  Pr13  1  0.87638264  0.74697953  0.94014042  1
  Pr3+  Pr14  1  0.35918733  -0.00514871  0.42094845  1
  Pr3+  Pr15  1  0.74586976  0.38339240  0.56634763  1
  Pr3+  Pr16  1  0.62126345  0.24850945  0.94168735  1
  Pr3+  Pr17  1  0.62675062  0.49256252  0.94153084  1
  Pr3+  Pr18  1  0.24201712  0.11164775  0.09127139  1
  Pr3+  Pr19  1  -0.00117084  0.88130869  0.55752174  1
  Pr3+  Pr20  1  0.61981523  0.50507992  0.43868430  1
  Pr3+  Pr21  1  0.62094029  0.75648139  0.43774518  1
  Pr3+  Pr22  1  0.49694201  0.37683846  0.07295252  1
  Pr3+  Pr23  1  0.24965149  0.37820212  0.07265068  1
  Pr3+  Pr24  1  0.37147338  0.50364564  0.44504744  1
  Pr3+  Pr25  1  0.11688033  0.26736056  0.42394093  1
  Pr3+  Pr26  1  0.74511178  0.63208954  0.55984374  1
  Pr3+  Pr27  1  0.62494854  -0.00341503  0.94283849  1
  Pr3+  Pr28  1  0.74855823  0.13082240  0.55259744  1
  Pr3+  Pr29  1  -0.00059895  0.62056962  0.05637598  1
  Pr3+  Pr30  1  0.49697396  0.12028418  0.06710266  1
  Nd3+  Nd31  1  0.87567044  0.24747293  0.94616235  1
  Nd3+  Nd32  1  0.50096381  0.36761850  0.57261516  1
  Nd3+  Nd33  1  0.12656092  0.49369108  0.93467871  1
  Nd3+  Nd34  1  0.00014847  0.86960562  0.05867278  1
  Nd3+  Nd35  1  0.37191191  0.75565605  0.44218946  1
  Nd3+  Nd36  1  0.49958407  0.87027632  0.06115140  1
  Nd3+  Nd37  1  0.49458111  0.62946525  0.56745999  1
  Nd3+  Nd38  1  0.36875571  0.24239083  0.94745847  1
  Nd3+  Nd39  1  0.24843382  0.88501780  0.56563937  1
  Nd3+  Nd40  1  0.74618210  0.88236322  0.55964327  1
  Nd3+  Nd41  1  0.24787315  0.14214519  0.55250027  1
  Nd3+  Nd42  1  0.24458258  0.63643247  0.56701883  1
  Nd3+  Nd43  1  0.00260527  0.38391749  0.55957074  1
  Nd3+  Nd44  1  0.62387842  0.74554134  0.94281861  1
  Nd3+  Nd45  1  0.49477739  0.88535031  0.55495245  1
  Nd3+  Nd46  1  0.75052268  0.87364183  0.06287979  1
  Nd3+  Nd47  1  0.11975239  0.75135516  0.43550029  1
  Nd3+  Nd48  1  0.62499466  0.26000030  0.43143690  1
  Nd3+  Nd49  1  0.87763653  -0.00155692  0.93985302  1
  Nd3+  Nd50  1  0.49996903  0.62175240  0.06531706  1
  Sm3+  Sm51  1  0.12825404  -0.00014611  0.94528961  1
  Sm3+  Sm52  1  -0.00211472  0.62980359  0.55764414  1
  Sm3+  Sm53  1  0.37896986  0.49452937  0.93546307  1
  Sm3+  Sm54  1  -0.00142887  0.13365470  0.55198836  1
  Sm3+  Sm55  1  0.12693316  0.24653078  0.95154219  1
  Sm3+  Sm56  1  0.49429085  0.13490874  0.54518161  1
  Sm3+  Sm57  1  0.62205746  0.00820308  0.43972812  1
  Sm3+  Sm58  1  0.25059502  0.86915151  0.06149284  1
  Sm3+  Sm59  1  0.75008034  0.62114123  0.05909760  1
  Sm3+  Sm60  1  0.00049798  0.37259704  0.06221764  1
  Sm3+  Sm61  1  0.86868006  0.75478366  0.43978264  1
  Sm3+  Sm62  1  0.00200096  0.12122717  0.06304656  1
  Sm3+  Sm63  1  0.86884700  0.26328063  0.44582425  1
  Bi2+  Bi64  1  -0.03479220  0.09957753  0.25839682  1
  Bi2+  Bi65  1  0.01305092  0.15300956  0.80747872  1
  Bi2+  Bi66  1  0.00698433  0.36031592  0.26959226  1
  Bi2+  Bi67  1  0.00704667  0.34709599  0.78825863  1
  Bi2+  Bi68  1  0.01193630  0.69055725  0.29133543  1
  Bi2+  Bi69  1  -0.04287501  0.60443224  0.75105717  1
  Bi2+  Bi70  1  -0.03193020  0.88215260  0.29548443  1
  Bi2+  Bi71  1  0.01612896  0.88383577  0.79108284  1
  Bi2+  Bi72  1  0.27841918  0.09422636  0.29201263  1
  Bi2+  Bi73  1  0.22752744  0.10740932  0.78243672  1
  Bi2+  Bi74  1  0.24467611  0.35332829  0.30577025  1
  Bi2+  Bi75  1  0.25318163  0.36529629  0.82339577  1
  Bi2+  Bi76  1  0.26947783  0.63605981  0.29064413  1
  Bi2+  Bi77  1  0.24081252  0.73162481  0.78968179  1
  Bi2+  Bi78  1  0.22544208  0.83075105  0.29343334  1
  Bi2+  Bi79  1  0.29827364  0.91933774  0.81039274  1
  Bi2+  Bi80  1  0.53796228  0.06122062  0.26258697  1
  Bi2+  Bi81  1  0.47612085  0.09630387  0.73832235  1
  Bi2+  Bi82  1  0.54268828  0.43313932  0.30990685  1
  Bi2+  Bi83  1  0.50538730  0.38855179  0.80818283  1
  Bi2+  Bi84  1  0.46980508  0.61649988  0.29942375  1
  Bi2+  Bi85  1  0.53279132  0.65274259  0.78913201  1
  Bi2+  Bi86  1  0.50427061  0.81225211  0.29053263  1
  Bi2+  Bi87  1  0.49445873  0.91538079  0.78805187  1
  Bi2+  Bi88  1  0.77852549  0.09891388  0.29145610  1
  Bi2+  Bi89  1  0.75906735  0.11469668  0.75185121  1
  Bi2+  Bi90  1  0.75841802  0.35565471  0.29984957  1
  Bi2+  Bi91  1  0.76716708  0.36518315  0.79600830  1
  Bi2+  Bi92  1  0.66809329  0.65808246  0.25076147  1
  Bi2+  Bi93  1  0.77706019  0.63158148  0.78921563  1
  Bi2+  Bi94  1  0.77481556  0.90249767  0.31305672  1
  Bi2+  Bi95  1  0.73275630  0.89108273  0.81041505  1
  Bi2+  Bi96  1  0.11168625  -0.03190511  0.21299832  1
  Bi2+  Bi97  1  0.14440694  -0.02829835  0.71184876  1
  Bi2+  Bi98  1  0.15346892  0.22607158  0.21676435  1
  Bi2+  Bi99  1  0.10327943  0.23784323  0.70810007  1
  Bi2+  Bi100  1  0.12998206  0.56421456  0.21677242  1
  Bi2+  Bi101  1  0.11850287  0.51139075  0.71572903  1
  Bi2+  Bi102  1  0.13381475  0.75615359  0.19400638  1
  Bi2+  Bi103  1  0.11389352  0.77602918  0.70163562  1
  Bi2+  Bi104  1  0.36701598  -0.10729516  0.21674970  1
  Bi2+  Bi105  1  0.32747214  0.00182457  0.68141291  1
  Bi2+  Bi106  1  0.40425948  0.26454752  0.21118340  1
  Bi2+  Bi107  1  0.37485466  0.25981655  0.70852911  1
  Bi2+  Bi108  1  0.35749670  0.52045037  0.21592649  1
  Bi2+  Bi109  1  0.37389363  0.52643095  0.72156472  1
  Bi2+  Bi110  1  0.32494229  0.72136853  0.16691958  1
  Bi2+  Bi111  1  0.37396240  0.81326671  0.71457133  1
  Bi2+  Bi112  1  0.65855574  -0.05935073  0.20556030  1
  Bi2+  Bi113  1  0.63063165  -0.01619078  0.70320848  1
  Bi2+  Bi114  1  0.63764803  0.21195207  0.22398211  1
  Bi2+  Bi115  1  0.61750470  0.24153056  0.70644477  1
  Bi2+  Bi116  1  0.61675342  0.48079597  0.20686540  1
  Bi2+  Bi117  1  0.69706552  0.49204292  0.71835833  1
  Bi2+  Bi118  1  0.51878757  0.72511942  0.18434226  1
  Bi2+  Bi119  1  0.62404407  0.74577383  0.69291783  1
  Bi2+  Bi120  1  0.83136546  0.01210074  0.18824351  1
  Bi2+  Bi121  1  0.93316292  0.03226491  0.72745818  1
  Bi2+  Bi122  1  0.88237213  0.25807281  0.20780879  1
  Bi2+  Bi123  1  0.88412617  0.25079132  0.70714670  1
  Bi2+  Bi124  1  0.87950187  0.52507382  0.19942758  1
  Bi2+  Bi125  1  0.88236432  0.44115522  0.69498211  1
  Bi2+  Bi126  1  0.84244348  0.75398473  0.24620775  1
  Bi2+  Bi127  1  0.87931109  0.78157956  0.72818961  1
  S2-  S128  1  0.08898367  0.11998283  0.14727997  1
  S2-  S129  1  0.00121555  0.13273610  0.65097922  1
  S2-  S130  1  -0.00121611  0.37738267  0.16132041  1
  S2-  S131  1  0.09080375  0.38353648  0.64605299  1
  S2-  S132  1  -0.00561537  0.62896211  0.15662470  1
  S2-  S133  1  0.03851622  0.62587470  0.65409271  1
  S2-  S134  1  0.01490063  0.87391833  0.15813483  1
  S2-  S135  1  -0.02965701  0.85655956  0.65571120  1
  S2-  S136  1  0.30098058  0.14240526  0.18900906  1
  S2-  S137  1  0.24742866  0.22323701  0.64176618  1
  S2-  S138  1  0.25951076  0.32637643  0.17177098  1
  S2-  S139  1  0.26365398  0.38714821  0.72715064  1
  S2-  S140  1  0.23425630  0.51909964  0.14016805  1
  S2-  S141  1  0.24942529  0.55377920  0.65570394  1
  S2-  S142  1  0.24651703  0.95560311  0.14652463  1
  S2-  S143  1  0.24813378  0.77030855  0.64071496  1
  S2-  S144  1  0.50609955  0.14038397  0.16735653  1
  S2-  S145  1  0.49596132  0.20725801  0.63550057  1
  S2-  S146  1  0.55868251  0.33297187  0.16646476  1
  S2-  S147  1  0.41501373  0.40522181  0.65719775  1
  S2-  S148  1  0.48339923  0.51443990  0.14482540  1
  S2-  S149  1  0.49109385  0.62311886  0.66948373  1
  S2-  S150  1  0.50030607  0.92836911  0.15497434  1
  S2-  S151  1  0.50979146  0.85525405  0.65283677  1
  S2-  S152  1  0.74973961  0.21038790  0.14526020  1
  S2-  S153  1  0.71496787  0.12204122  0.65106976  1
  S2-  S154  1  0.77534938  0.40575528  0.17899073  1
  S2-  S155  1  0.63565324  0.37275916  0.64521792  1
  S2-  S156  1  0.74786339  0.60832400  0.15683498  1
  S2-  S157  1  0.73313769  0.63836190  0.66035873  1
  S2-  S158  1  0.77817510  0.84021200  0.15902233  1
  S2-  S159  1  0.73336144  0.86911366  0.65908238  1
  S2-  S160  1  0.21460834  -0.02021168  0.35227185  1
  S2-  S161  1  0.08180280  0.00651205  0.85050929  1
  S2-  S162  1  0.15128606  0.20723063  0.32778767  1
  S2-  S163  1  0.17077633  0.22695422  0.85727735  1
  S2-  S164  1  0.10735980  0.40696759  0.34927177  1
  S2-  S165  1  0.11151772  0.46978636  0.83623622  1
  S2-  S166  1  0.12600979  0.63436195  0.35993503  1
  S2-  S167  1  0.08996068  0.74500806  0.84269655  1
  S2-  S168  1  0.42335675  0.03839269  0.33002695  1
  S2-  S169  1  0.34122630  0.07036976  0.85825249  1
  S2-  S170  1  0.37064900  0.23379307  0.31514087  1
  S2-  S171  1  0.40466173  0.28638745  0.85223416  1
  S2-  S172  1  0.38089418  0.42016833  0.35531191  1
  S2-  S173  1  0.36672784  0.49377320  0.83545395  1
  S2-  S174  1  0.36938673  0.83536132  0.35424972  1
  S2-  S175  1  0.39690336  0.71159225  0.84273152  1
  S2-  S176  1  0.64345999  0.01537065  0.34278995  1
  S2-  S177  1  0.61058806  0.00362545  0.84257689  1
  S2-  S178  1  0.60464912  0.27377304  0.33201642  1
  S2-  S179  1  0.62683500  0.28990356  0.84349475  1
  S2-  S180  1  0.70664777  0.49572856  0.35042542  1
  S2-  S181  1  0.58493653  0.53192987  0.84587214  1
  S2-  S182  1  0.65399440  0.76255998  0.33903665  1
  S2-  S183  1  0.62062882  0.76158767  0.84323152  1
  S2-  S184  1  0.99343713  0.01936034  0.35662961  1
  S2-  S185  1  0.83615094  -0.00380439  0.84344542  1
  S2-  S186  1  0.87558429  0.28164574  0.34768624  1
  S2-  S187  1  0.88032151  0.25268996  0.84700181  1
  S2-  S188  1  0.91103814  0.48214387  0.29894877  1
  S2-  S189  1  0.82633721  0.49275763  0.85208525  1
  S2-  S190  1  0.87250821  0.67398235  0.35315838  1
  S2-  S191  1  0.84441863  0.76126753  0.84159355  1
  S2-  S192  1  -0.00860485  0.14169451  0.44908152  1
  S2-  S193  1  0.00270414  0.12314777  0.95816349  1
  S2-  S194  1  -0.01659797  0.39131002  0.45253217  1
  S2-  S195  1  0.00217518  0.37000363  0.95523354  1
  S2-  S196  1  -0.01225304  0.62964030  0.45485891  1
  S2-  S197  1  0.00017015  0.61886788  0.94794422  1
  S2-  S198  1  -0.00568121  0.87351952  0.45021794  1
  S2-  S199  1  0.00173643  0.87437916  0.95240660  1
  S2-  S200  1  0.24645766  0.13519054  0.44534820  1
  S2-  S201  1  0.24508880  0.12187695  0.97102500  1
  S2-  S202  1  0.24419471  0.38218466  0.44780519  1
  S2-  S203  1  0.25063050  0.37300478  0.96013442  1
  S2-  S204  1  0.25233374  0.63298624  0.45861714  1
  S2-  S205  1  0.25133932  0.61750267  0.94786053  1
  S2-  S206  1  0.24035686  0.87333846  0.46016025  1
  S2-  S207  1  0.24795174  0.87240212  0.95431648  1
  S2-  S208  1  0.50075316  0.13340562  0.44149039  1
  S2-  S209  1  0.49843573  0.12233926  0.95774927  1
  S2-  S210  1  0.50128383  0.37866389  0.45769164  1
  S2-  S211  1  0.49691988  0.37269275  0.96196167  1
  S2-  S212  1  0.49623042  0.63173984  0.45594163  1
  S2-  S213  1  0.49936752  0.61984034  0.95748685  1
  S2-  S214  1  0.49946635  0.88574859  0.44890700  1
  S2-  S215  1  0.49918985  0.87158183  0.95273157  1
  S2-  S216  1  0.74850293  0.13261443  0.44563344  1
  S2-  S217  1  0.75042113  0.12320346  0.95331812  1
  S2-  S218  1  0.74825862  0.38546953  0.45803655  1
  S2-  S219  1  0.75007580  0.36822571  0.96379645  1
  S2-  S220  1  0.74587771  0.63113178  0.45388421  1
  S2-  S221  1  0.74916956  0.62227783  0.95350506  1
  S2-  S222  1  0.74656355  0.88209190  0.45288486  1
  S2-  S223  1  0.75078227  0.87215205  0.95542649  1
  S2-  S224  1  0.12178882  -0.00710160  0.04764518  1
  S2-  S225  1  0.12365536  0.00957419  0.54694347  1
  S2-  S226  1  0.12393454  0.25130455  0.05530680  1
  S2-  S227  1  0.11567038  0.25570355  0.53517359  1
  S2-  S228  1  0.12049464  0.49520689  0.04194971  1
  S2-  S229  1  0.12396994  0.51044604  0.54368009  1
  S2-  S230  1  0.12563982  0.74704747  0.04571301  1
  S2-  S231  1  0.11900764  0.75479268  0.54195355  1
  S2-  S232  1  0.37372397  -0.00555430  0.05018785  1
  S2-  S233  1  0.37060344  0.00988263  0.53722526  1
  S2-  S234  1  0.37214975  0.24708815  0.05670555  1
  S2-  S235  1  0.37432036  0.25792402  0.53449650  1
  S2-  S236  1  0.37439209  0.49866217  0.04084868  1
  S2-  S237  1  0.37294216  0.50521369  0.55036543  1
  S2-  S238  1  0.37616297  0.74734296  0.04342033  1
  S2-  S239  1  0.37581878  0.75785063  0.54710925  1
  S2-  S240  1  0.62586802  -0.00284751  0.05084766  1
  S2-  S241  1  0.61967634  0.00851086  0.54482068  1
  S2-  S242  1  0.62056967  0.24552450  0.04851295  1
  S2-  S243  1  0.62624734  0.25264961  0.53771234  1
  S2-  S244  1  0.62935763  0.49703162  0.04973040  1
  S2-  S245  1  0.61803815  0.50858597  0.54749961  1
  S2-  S246  1  0.62725797  0.74630827  0.05022124  1
  S2-  S247  1  0.61841985  0.75815150  0.54573071  1
  S2-  S248  1  0.87886894  -0.00239848  0.04770756  1
  S2-  S249  1  0.87445859  0.00624171  0.54142445  1
  S2-  S250  1  0.88176775  0.24644620  0.05189481  1
  S2-  S251  1  0.87334829  0.25845147  0.55145535  1
  S2-  S252  1  0.87292037  0.49422790  0.05249601  1
  S2-  S253  1  0.87282671  0.50901015  0.55894774  1
  S2-  S254  1  0.87299230  0.74590755  0.04786004  1
  S2-  S255  1  0.87194315  0.75582589  0.54691924  1
