# generated using pymatgen
data_La6Ce6Pr19Nd20Sm13(BiS2)64
_symmetry_space_group_name_H-M   'P 1'
_cell_length_a   16.07143929
_cell_length_b   16.09323041
_cell_length_c   27.40760798
_cell_angle_alpha   89.89353196
_cell_angle_beta   89.97536959
_cell_angle_gamma   90.03450013
_symmetry_Int_Tables_number   1
_chemical_formula_structural   La6Ce6Pr19Nd20Sm13(BiS2)64
_chemical_formula_sum   'La6 Ce6 Pr19 Nd20 Sm13 Bi64 S128'
_cell_volume   7088.72724659
_cell_formula_units_Z   1
loop_
 _symmetry_equiv_pos_site_id
 _symmetry_equiv_pos_as_xyz
  1  'x, y, z'
loop_
 _atom_type_symbol
 _atom_type_oxidation_number
  La3+  3.0
  Ce3+  3.0
  Pr3+  3.0
  Nd3+  3.0
  Sm3+  3.0
  Bi2+  2.0
  S2-  -2.0
loop_
 _atom_site_type_symbol
 _atom_site_label
 _atom_site_symmetry_multiplicity
 _atom_site_fract_x
 _atom_site_fract_y
 _atom_site_fract_z
 _atom_site_occupancy
  La3+  La0  1  0.86901056  0.25512181  0.89436665  1
  La3+  La1  1  0.48556748  0.64036614  0.06200434  1
  La3+  La2  1  0.24942305  0.60754793  0.61038406  1
  La3+  La3  1  0.25142144  0.89153912  0.08138608  1
  La3+  La4  1  0.35882758  0.76726503  0.91961738  1
  La3+  La5  1  0.01042771  0.36997668  0.57536711  1
  Ce3+  Ce6  1  0.00897249  0.62393389  0.55691903  1
  Ce3+  Ce7  1  0.62042779  0.27067050  0.92430934  1
  Ce3+  Ce8  1  0.75484890  0.37316824  0.56041152  1
  Ce3+  Ce9  1  -0.00874622  0.38754063  0.05480921  1
  Ce3+  Ce10  1  0.48981906  0.88790398  0.05434702  1
  Ce3+  Ce11  1  0.87851156  0.74966152  0.44570876  1
  Pr3+  Pr12  1  -0.00863095  0.13916840  0.07112700  1
  Pr3+  Pr13  1  0.37931821  0.24788239  0.43342506  1
  Pr3+  Pr14  1  0.61085293  0.51697691  0.92376934  1
  Pr3+  Pr15  1  0.13111518  0.49769326  0.43566803  1
  Pr3+  Pr16  1  0.75364979  0.62310513  0.56989354  1
  Pr3+  Pr17  1  0.24761109  0.13956937  0.06666326  1
  Pr3+  Pr18  1  0.38559799  0.51059687  0.42030574  1
  Pr3+  Pr19  1  0.11673213  0.51069517  0.93821716  1
  Pr3+  Pr20  1  0.37987313  0.00239300  0.43227255  1
  Pr3+  Pr21  1  0.87432610  0.51886067  0.92270446  1
  Pr3+  Pr22  1  0.73880903  0.14105683  0.06440001  1
  Pr3+  Pr23  1  0.36072831  0.51352990  0.93555447  1
  Pr3+  Pr24  1  0.74773636  0.12491753  0.56892183  1
  Pr3+  Pr25  1  -0.00738102  0.63720289  0.06646299  1
  Pr3+  Pr26  1  0.49895473  0.37850722  0.55704737  1
  Pr3+  Pr27  1  0.75541442  0.87751787  0.56202056  1
  Pr3+  Pr28  1  0.87100086  -0.00983199  0.41696337  1
  Pr3+  Pr29  1  0.61709481  0.76690269  0.93062614  1
  Pr3+  Pr30  1  0.12561135  0.24409847  0.44380296  1
  Nd3+  Nd31  1  0.88012228  0.24464935  0.44351897  1
  Nd3+  Nd32  1  0.13380560  -0.00364427  0.42866012  1
  Nd3+  Nd33  1  0.74218523  0.88702266  0.05888314  1
  Nd3+  Nd34  1  0.87006039  0.76539342  0.93427673  1
  Nd3+  Nd35  1  0.88015930  0.49871058  0.44494562  1
  Nd3+  Nd36  1  -0.00403752  0.11729831  0.57873088  1
  Nd3+  Nd37  1  0.62773019  0.00241677  0.43961463  1
  Nd3+  Nd38  1  0.50452132  0.62445590  0.57108345  1
  Nd3+  Nd39  1  0.74384426  0.38969435  0.04505997  1
  Nd3+  Nd40  1  0.23721577  0.63184853  0.07455730  1
  Nd3+  Nd41  1  0.62301802  0.01520009  0.93418447  1
  Nd3+  Nd42  1  0.49820222  0.12284207  0.56877442  1
  Nd3+  Nd43  1  0.50434399  0.39274704  0.06753221  1
  Nd3+  Nd44  1  0.63068397  0.24910815  0.44185402  1
  Nd3+  Nd45  1  0.36738038  0.26585982  0.93316396  1
  Nd3+  Nd46  1  0.12111854  0.76609480  0.94782449  1
  Nd3+  Nd47  1  0.36450520  0.01435764  0.93449945  1
  Nd3+  Nd48  1  0.25231563  0.38670496  0.06992464  1
  Nd3+  Nd49  1  0.12071204  0.26132695  0.93754337  1
  Nd3+  Nd50  1  0.00527918  0.88015599  0.55590004  1
  Sm3+  Sm51  1  0.74298824  0.63798383  0.05306181  1
  Sm3+  Sm52  1  0.11720350  0.01659694  0.94984015  1
  Sm3+  Sm53  1  0.49532462  0.14123342  0.04755987  1
  Sm3+  Sm54  1  0.13169329  0.74869978  0.44297709  1
  Sm3+  Sm55  1  0.87040865  0.01878422  0.94425929  1
  Sm3+  Sm56  1  0.25607520  0.11917299  0.56213868  1
  Sm3+  Sm57  1  0.50201097  0.87112578  0.55288556  1
  Sm3+  Sm58  1  -0.00746303  0.88886968  0.05837341  1
  Sm3+  Sm59  1  0.25454225  0.86826207  0.56516267  1
  Sm3+  Sm60  1  0.37806710  0.74576424  0.44634102  1
  Sm3+  Sm61  1  0.62995945  0.50133359  0.43867032  1
  Sm3+  Sm62  1  0.25696182  0.37741503  0.54811397  1
  Sm3+  Sm63  1  0.62936602  0.74746756  0.44404216  1
  Bi2+  Bi64  1  0.00216800  0.14520594  0.29270266  1
  Bi2+  Bi65  1  0.00996314  0.12104339  0.78548007  1
  Bi2+  Bi66  1  0.04029239  0.38543069  0.28751659  1
  Bi2+  Bi67  1  0.02029940  0.38922524  0.78639373  1
  Bi2+  Bi68  1  -0.08274107  0.60652189  0.29015907  1
  Bi2+  Bi69  1  -0.02627653  0.64936799  0.76968589  1
  Bi2+  Bi70  1  -0.06719652  0.81446503  0.25350942  1
  Bi2+  Bi71  1  0.03636057  0.90901816  0.80884674  1
  Bi2+  Bi72  1  0.24660876  0.10941762  0.30335856  1
  Bi2+  Bi73  1  0.27013641  0.11677352  0.79974009  1
  Bi2+  Bi74  1  0.34302980  0.29956148  0.29418006  1
  Bi2+  Bi75  1  0.28115620  0.30491374  0.76252714  1
  Bi2+  Bi76  1  0.24507646  0.60894861  0.30965148  1
  Bi2+  Bi77  1  0.27767133  0.61731924  0.80867260  1
  Bi2+  Bi78  1  0.26761750  0.84394876  0.29043245  1
  Bi2+  Bi79  1  0.23260013  0.87426743  0.78824293  1
  Bi2+  Bi80  1  0.51711880  0.10477329  0.25246440  1
  Bi2+  Bi81  1  0.46776972  0.13277365  0.82484662  1
  Bi2+  Bi82  1  0.50976148  0.38072078  0.25507149  1
  Bi2+  Bi83  1  0.46894405  0.33359266  0.81203176  1
  Bi2+  Bi84  1  0.51697899  0.62096108  0.29624165  1
  Bi2+  Bi85  1  0.52177951  0.60092497  0.77775348  1
  Bi2+  Bi86  1  0.48699211  0.91406656  0.29431843  1
  Bi2+  Bi87  1  0.49317454  0.94443449  0.78866179  1
  Bi2+  Bi88  1  0.74923583  0.10979405  0.30107833  1
  Bi2+  Bi89  1  0.71242191  0.02815518  0.81171158  1
  Bi2+  Bi90  1  0.68311091  0.34163098  0.30410776  1
  Bi2+  Bi91  1  0.75229948  0.47567797  0.79358443  1
  Bi2+  Bi92  1  0.74037437  0.53200664  0.30510584  1
  Bi2+  Bi93  1  0.74495175  0.70982350  0.78899245  1
  Bi2+  Bi94  1  0.74613557  0.83262493  0.29275242  1
  Bi2+  Bi95  1  0.84415173  0.88259235  0.81294353  1
  Bi2+  Bi96  1  0.10586141  -0.02348271  0.20582881  1
  Bi2+  Bi97  1  0.17181685  -0.02368179  0.67994140  1
  Bi2+  Bi98  1  0.18348077  0.25604443  0.22996048  1
  Bi2+  Bi99  1  0.15097293  0.16902619  0.70795482  1
  Bi2+  Bi100  1  0.09681401  0.51333131  0.20924830  1
  Bi2+  Bi101  1  0.10526987  0.47558224  0.70270085  1
  Bi2+  Bi102  1  0.11051393  0.72970192  0.23859005  1
  Bi2+  Bi103  1  0.08258566  0.79151072  0.72131866  1
  Bi2+  Bi104  1  0.35773154  -0.00202719  0.21716314  1
  Bi2+  Bi105  1  0.35521381  -0.00323042  0.71075706  1
  Bi2+  Bi106  1  0.35518193  0.21119897  0.18694666  1
  Bi2+  Bi107  1  0.45000942  0.23693846  0.70670110  1
  Bi2+  Bi108  1  0.38241233  0.50873029  0.19681562  1
  Bi2+  Bi109  1  0.37184312  0.46775957  0.70438420  1
  Bi2+  Bi110  1  0.39116042  0.76863885  0.21697409  1
  Bi2+  Bi111  1  0.38816477  0.75941060  0.71191513  1
  Bi2+  Bi112  1  0.62175751  -0.04342418  0.20970298  1
  Bi2+  Bi113  1  0.63039615  0.00246406  0.70902920  1
  Bi2+  Bi114  1  0.62945946  0.24409357  0.19956469  1
  Bi2+  Bi115  1  0.61919304  0.20205458  0.76109162  1
  Bi2+  Bi116  1  0.65719936  0.50544601  0.19869231  1
  Bi2+  Bi117  1  0.64123978  0.48329311  0.70527714  1
  Bi2+  Bi118  1  0.58926804  0.76435281  0.23044455  1
  Bi2+  Bi119  1  0.61935533  0.80437780  0.71967154  1
  Bi2+  Bi120  1  0.86324525  0.01450773  0.19282940  1
  Bi2+  Bi121  1  0.90131185  0.00856900  0.71998211  1
  Bi2+  Bi122  1  0.86475165  0.30786489  0.25279025  1
  Bi2+  Bi123  1  0.87759018  0.27487233  0.69734618  1
  Bi2+  Bi124  1  0.85973305  0.47108814  0.19247277  1
  Bi2+  Bi125  1  0.81872588  0.59376331  0.70057003  1
  Bi2+  Bi126  1  0.87703745  0.66729642  0.18287132  1
  Bi2+  Bi127  1  0.88872370  0.78283296  0.69841917  1
  S2-  S128  1  0.00121360  0.11287885  0.17160826  1
  S2-  S129  1  0.03023274  0.23738452  0.64925396  1
  S2-  S130  1  0.00332554  0.39942711  0.15248609  1
  S2-  S131  1  -0.04620311  0.42222189  0.66818301  1
  S2-  S132  1  0.09880509  0.64708928  0.14759134  1
  S2-  S133  1  0.07955831  0.61384091  0.64383559  1
  S2-  S134  1  -0.02098665  0.89293779  0.15628493  1
  S2-  S135  1  0.00586506  0.97560372  0.64007105  1
  S2-  S136  1  0.23373511  0.03849211  0.14858717  1
  S2-  S137  1  0.37003063  0.12327193  0.63873719  1
  S2-  S138  1  0.23209955  0.49386329  0.14966911  1
  S2-  S139  1  0.24009960  0.41496489  0.64273408  1
  S2-  S140  1  0.36262727  0.66028160  0.14381342  1
  S2-  S141  1  0.24164244  0.58085530  0.71807227  1
  S2-  S142  1  0.18509112  0.84351705  0.17573367  1
  S2-  S143  1  0.26749762  0.77510951  0.64960246  1
  S2-  S144  1  0.51017699  0.14303591  0.14541517  1
  S2-  S145  1  0.61751863  0.12305623  0.64161887  1
  S2-  S146  1  0.38481264  0.36140206  0.14075219  1
  S2-  S147  1  0.50654594  0.38663132  0.65745747  1
  S2-  S148  1  0.51799339  0.52811246  0.13888653  1
  S2-  S149  1  0.41110606  0.61159801  0.65666836  1
  S2-  S150  1  0.40952397  0.89202696  0.14032663  1
  S2-  S151  1  0.50002346  0.84235164  0.65015761  1
  S2-  S152  1  0.76336721  0.13214846  0.16514363  1
  S2-  S153  1  0.85300595  0.12156587  0.65005788  1
  S2-  S154  1  0.65259522  0.36831129  0.13100477  1
  S2-  S155  1  0.74601662  0.33468233  0.65510733  1
  S2-  S156  1  0.71379866  0.65098480  0.14994294  1
  S2-  S157  1  0.63206599  0.61823638  0.64290501  1
  S2-  S158  1  0.75292407  0.89360091  0.15765216  1
  S2-  S159  1  0.74894090  0.87626983  0.66200162  1
  S2-  S160  1  0.09063168  0.02534236  0.32918126  1
  S2-  S161  1  0.14149055  0.02770151  0.85295914  1
  S2-  S162  1  0.10405148  0.26589430  0.34492497  1
  S2-  S163  1  0.03291922  0.25727587  0.85023661  1
  S2-  S164  1  0.10849903  0.53120113  0.33740369  1
  S2-  S165  1  0.23190988  0.49651774  0.86235583  1
  S2-  S166  1  0.14316201  0.75897998  0.34388143  1
  S2-  S167  1  0.20224401  0.75026793  0.86000217  1
  S2-  S168  1  0.26725001  -0.03988066  0.35936742  1
  S2-  S169  1  0.35621968  -0.08794384  0.85435792  1
  S2-  S170  1  0.38649378  0.13499493  0.35767774  1
  S2-  S171  1  0.24747430  0.26221359  0.85993508  1
  S2-  S172  1  0.30579103  0.46560496  0.33240986  1
  S2-  S173  1  0.43715509  0.50668726  0.83934314  1
  S2-  S174  1  0.38965251  0.67128004  0.35733173  1
  S2-  S175  1  0.42316897  0.72154462  0.81858175  1
  S2-  S176  1  0.71271218  -0.02141222  0.35478140  1
  S2-  S177  1  0.61657088  -0.10198119  0.85785375  1
  S2-  S178  1  0.61938983  0.19244790  0.34921288  1
  S2-  S179  1  0.70718962  0.19896403  0.84829591  1
  S2-  S180  1  0.53021005  0.49743377  0.35855970  1
  S2-  S181  1  0.62036986  0.39472508  0.84999268  1
  S2-  S182  1  0.63658877  0.72849700  0.34704932  1
  S2-  S183  1  0.62312459  0.64744820  0.85440002  1
  S2-  S184  1  0.89461747  0.02870169  0.31640004  1
  S2-  S185  1  0.89345535  0.09232907  0.85638935  1
  S2-  S186  1  0.86092513  0.23088107  0.34475738  1
  S2-  S187  1  0.85259589  0.34055376  0.79925438  1
  S2-  S188  1  0.89356648  0.46573173  0.34795677  1
  S2-  S189  1  1.00919412  0.50217536  0.85436196  1
  S2-  S190  1  0.88243434  0.81703832  0.35653890  1
  S2-  S191  1  0.87714752  0.66058608  0.85447081  1
  S2-  S192  1  0.00084397  0.11665880  0.44932715  1
  S2-  S193  1  -0.00566806  0.14005626  0.96381237  1
  S2-  S194  1  0.00362768  0.37288975  0.45989143  1
  S2-  S195  1  -0.01336851  0.37880341  0.95206759  1
  S2-  S196  1  0.00468635  0.62569084  0.45020987  1
  S2-  S197  1  -0.00467566  0.64332046  0.95932250  1
  S2-  S198  1  0.00756450  0.87563747  0.45110995  1
  S2-  S199  1  -0.00706904  0.89137005  0.95343662  1
  S2-  S200  1  0.25331804  0.12322642  0.45785701  1
  S2-  S201  1  0.24349009  0.13637384  0.96043779  1
  S2-  S202  1  0.25461720  0.37186403  0.44549603  1
  S2-  S203  1  0.24199272  0.38224813  0.96452376  1
  S2-  S204  1  0.25176166  0.62548866  0.44899602  1
  S2-  S205  1  0.23935189  0.63925698  0.96465241  1
  S2-  S206  1  0.25576278  0.86709141  0.46141004  1
  S2-  S207  1  0.23941269  0.89559845  0.96215880  1
  S2-  S208  1  0.50558126  0.12461559  0.46148455  1
  S2-  S209  1  0.49541661  0.13853886  0.94441901  1
  S2-  S210  1  0.50348924  0.37272020  0.45123425  1
  S2-  S211  1  0.49013592  0.38865277  0.95508365  1
  S2-  S212  1  0.50937397  0.62624832  0.46274846  1
  S2-  S213  1  0.48633558  0.64536707  0.95142188  1
  S2-  S214  1  0.50395358  0.87117663  0.44819220  1
  S2-  S215  1  0.49133483  0.89147602  0.95218996  1
  S2-  S216  1  0.75346374  0.12267396  0.45747447  1
  S2-  S217  1  0.74776745  0.13815536  0.95838302  1
  S2-  S218  1  0.75407097  0.37502666  0.45214381  1
  S2-  S219  1  0.75714372  0.38679177  0.94192018  1
  S2-  S220  1  0.75391529  0.62338566  0.45774063  1
  S2-  S221  1  0.74623185  0.64125186  0.95147171  1
  S2-  S222  1  0.75068790  0.87098416  0.45717026  1
  S2-  S223  1  0.74926009  0.89073522  0.95397344  1
  S2-  S224  1  0.11482462  0.01231038  0.05220652  1
  S2-  S225  1  0.13444987  -0.00053872  0.53921929  1
  S2-  S226  1  0.12027142  0.26243499  0.05395004  1
  S2-  S227  1  0.13794353  0.24505065  0.54777282  1
  S2-  S228  1  0.11480144  0.50959094  0.04449937  1
  S2-  S229  1  0.13126347  0.49816080  0.54217604  1
  S2-  S230  1  0.11755333  0.76966044  0.05123076  1
  S2-  S231  1  0.12774160  0.75343133  0.54686563  1
  S2-  S232  1  0.37206697  0.01915416  0.04101001  1
  S2-  S233  1  0.37710079  -0.00846896  0.54174518  1
  S2-  S234  1  0.37312610  0.25926709  0.03818952  1
  S2-  S235  1  0.37551858  0.25064449  0.54046204  1
  S2-  S236  1  0.36810761  0.51111549  0.04155039  1
  S2-  S237  1  0.37487026  0.50385058  0.54441919  1
  S2-  S238  1  0.36337935  0.76814746  0.03772804  1
  S2-  S239  1  0.38061275  0.74741991  0.54697339  1
  S2-  S240  1  0.61708024  0.01236549  0.04300533  1
  S2-  S241  1  0.62408272  -0.00549365  0.54459571  1
  S2-  S242  1  0.61799664  0.26161842  0.03205146  1
  S2-  S243  1  0.62441795  0.25306387  0.54612795  1
  S2-  S244  1  0.62300565  0.51820777  0.03081492  1
  S2-  S245  1  0.63087553  0.49646049  0.54213102  1
  S2-  S246  1  0.61832610  0.76339767  0.04293239  1
  S2-  S247  1  0.63059527  0.75259198  0.54717039  1
  S2-  S248  1  0.86728981  0.01287531  0.04883099  1
  S2-  S249  1  0.87611741  -0.00020041  0.53809062  1
  S2-  S250  1  0.86454793  0.26465816  0.06237226  1
  S2-  S251  1  0.88061862  0.24839157  0.54751427  1
  S2-  S252  1  0.86725257  0.51607237  0.04038074  1
  S2-  S253  1  0.88033207  0.50032315  0.55082505  1
  S2-  S254  1  0.86858189  0.76430847  0.04350453  1
  S2-  S255  1  0.88096561  0.74982164  0.55215137  1
