# generated using pymatgen
data_La6Ce6Pr19Nd20Sm13(BiS2)64
_symmetry_space_group_name_H-M   'P 1'
_cell_length_a   16.11560937
_cell_length_b   16.01803062
_cell_length_c   27.36138086
_cell_angle_alpha   89.97093466
_cell_angle_beta   90.39022920
_cell_angle_gamma   90.11745991
_symmetry_Int_Tables_number   1
_chemical_formula_structural   La6Ce6Pr19Nd20Sm13(BiS2)64
_chemical_formula_sum   'La6 Ce6 Pr19 Nd20 Sm13 Bi64 S128'
_cell_volume   7062.89621022
_cell_formula_units_Z   1
loop_
 _symmetry_equiv_pos_site_id
 _symmetry_equiv_pos_as_xyz
  1  'x, y, z'
loop_
 _atom_type_symbol
 _atom_type_oxidation_number
  La3+  3.0
  Ce3+  3.0
  Pr3+  3.0
  Nd3+  3.0
  Sm3+  3.0
  Bi2+  2.0
  S2-  -2.0
loop_
 _atom_site_type_symbol
 _atom_site_label
 _atom_site_symmetry_multiplicity
 _atom_site_fract_x
 _atom_site_fract_y
 _atom_site_fract_z
 _atom_site_occupancy
  La3+  La0  1  0.85525780  -0.00916714  0.42324573  1
  La3+  La1  1  0.59618094  0.50848417  0.41187456  1
  La3+  La2  1  0.01211735  0.12371618  0.11485401  1
  La3+  La3  1  0.23225198  0.62902261  0.61106827  1
  La3+  La4  1  0.86206665  0.24876761  0.39577899  1
  La3+  La5  1  0.73544680  0.61556268  0.59845129  1
  Ce3+  Ce6  1  0.35790333  0.74338786  0.45455506  1
  Ce3+  Ce7  1  0.24703377  0.37972658  0.06498415  1
  Ce3+  Ce8  1  0.11025621  -0.00159029  0.44974873  1
  Ce3+  Ce9  1  0.85726481  0.49545505  0.43646481  1
  Ce3+  Ce10  1  0.60919122  0.24961051  0.43004357  1
  Ce3+  Ce11  1  0.23645426  0.87499327  0.56679588  1
  Pr3+  Pr12  1  0.75210398  0.88139129  0.05229067  1
  Pr3+  Pr13  1  -0.01929660  0.62121934  0.57486494  1
  Pr3+  Pr14  1  0.61007183  -0.00298014  0.43351536  1
  Pr3+  Pr15  1  0.36105919  0.25035522  0.43138905  1
  Pr3+  Pr16  1  0.50310012  0.38618118  0.05957596  1
  Pr3+  Pr17  1  0.87539401  0.75664861  0.91795314  1
  Pr3+  Pr18  1  -0.01825645  0.12605214  0.55267817  1
  Pr3+  Pr19  1  0.62197204  0.75984311  0.91019370  1
  Pr3+  Pr20  1  0.86028830  0.74623561  0.44208832  1
  Pr3+  Pr21  1  0.11455422  0.25369932  0.42362008  1
  Pr3+  Pr22  1  0.62606652  0.25357949  0.93795040  1
  Pr3+  Pr23  1  0.12470338  0.74849919  0.92821031  1
  Pr3+  Pr24  1  0.87603522  0.00659140  0.93209725  1
  Pr3+  Pr25  1  0.25346038  0.12382490  0.07388214  1
  Pr3+  Pr26  1  0.23561650  0.37281633  0.56944670  1
  Pr3+  Pr27  1  0.74596806  0.39042351  0.07480806  1
  Pr3+  Pr28  1  0.75159907  0.12940230  0.06717407  1
  Pr3+  Pr29  1  0.50231652  0.63072376  0.04083383  1
  Pr3+  Pr30  1  -0.01771711  0.87094214  0.56813168  1
  Nd3+  Nd31  1  0.12420976  0.24898122  0.93763756  1
  Nd3+  Nd32  1  0.37209517  0.50122199  0.93449387  1
  Nd3+  Nd33  1  -0.01706806  0.37337007  0.55497988  1
  Nd3+  Nd34  1  0.74995136  0.62878026  0.04232235  1
  Nd3+  Nd35  1  0.49105313  0.37504898  0.56021326  1
  Nd3+  Nd36  1  0.00101016  0.62836442  0.05864128  1
  Nd3+  Nd37  1  0.10879747  0.49727367  0.44627342  1
  Nd3+  Nd38  1  0.62522402  0.00692525  0.92847264  1
  Nd3+  Nd39  1  0.87557571  0.50056199  0.93455272  1
  Nd3+  Nd40  1  0.12404149  0.49821246  0.93305481  1
  Nd3+  Nd41  1  0.62667712  0.49625060  0.91592377  1
  Nd3+  Nd42  1  0.35638427  -0.00450001  0.44093751  1
  Nd3+  Nd43  1  0.37053258  0.75635062  0.93091450  1
  Nd3+  Nd44  1  0.24981608  0.87659421  0.06413878  1
  Nd3+  Nd45  1  0.23732280  0.12825138  0.56699776  1
  Nd3+  Nd46  1  0.48662723  0.87089229  0.56263065  1
  Nd3+  Nd47  1  0.25172080  0.62750337  0.06449895  1
  Nd3+  Nd48  1  0.73049440  0.87591332  0.57555017  1
  Nd3+  Nd49  1  0.50346660  0.87830106  0.05075410  1
  Nd3+  Nd50  1  0.00158254  0.37988650  0.06660624  1
  Sm3+  Sm51  1  0.48975903  0.62094594  0.56995978  1
  Sm3+  Sm52  1  0.35842629  0.49945033  0.45368758  1
  Sm3+  Sm53  1  0.11009120  0.74503119  0.45026298  1
  Sm3+  Sm54  1  0.73311777  0.37648841  0.55099263  1
  Sm3+  Sm55  1  0.87647930  0.25280044  0.95333522  1
  Sm3+  Sm56  1  0.48771816  0.12465448  0.55385940  1
  Sm3+  Sm57  1  0.37326781  0.00530347  0.94304261  1
  Sm3+  Sm58  1  0.37327975  0.25197524  0.95225567  1
  Sm3+  Sm59  1  0.73674538  0.12033738  0.55398584  1
  Sm3+  Sm60  1  0.61108365  0.74504003  0.44848215  1
  Sm3+  Sm61  1  -0.00040124  0.88218365  0.05268786  1
  Sm3+  Sm62  1  0.50763593  0.12993471  0.06425224  1
  Sm3+  Sm63  1  0.12481668  0.00648951  0.94225109  1
  Bi2+  Bi64  1  0.03837646  0.09555698  0.31512419  1
  Bi2+  Bi65  1  -0.04479177  0.12012602  0.80818777  1
  Bi2+  Bi66  1  -0.00570154  0.45896581  0.28584176  1
  Bi2+  Bi67  1  0.01769299  0.31400620  0.78238088  1
  Bi2+  Bi68  1  -0.04420646  0.64082915  0.32043931  1
  Bi2+  Bi69  1  -0.00633726  0.56081402  0.79080506  1
  Bi2+  Bi70  1  0.03720266  0.85115551  0.29597854  1
  Bi2+  Bi71  1  0.01796807  0.93553165  0.79321804  1
  Bi2+  Bi72  1  0.28000281  0.10430673  0.27826398  1
  Bi2+  Bi73  1  0.23038486  0.15284064  0.79162292  1
  Bi2+  Bi74  1  0.25502855  0.37190053  0.29564754  1
  Bi2+  Bi75  1  0.24327876  0.37784145  0.79354592  1
  Bi2+  Bi76  1  0.22523592  0.65113581  0.28342493  1
  Bi2+  Bi77  1  0.27622041  0.64050474  0.81273338  1
  Bi2+  Bi78  1  0.32608546  0.83076023  0.27312432  1
  Bi2+  Bi79  1  0.28593647  0.88237788  0.79177202  1
  Bi2+  Bi80  1  0.52255510  0.10554716  0.30131346  1
  Bi2+  Bi81  1  0.56961906  0.14149944  0.82491850  1
  Bi2+  Bi82  1  0.47044826  0.37844030  0.28837699  1
  Bi2+  Bi83  1  0.46496311  0.29394901  0.78731686  1
  Bi2+  Bi84  1  0.46416589  0.63032499  0.29985318  1
  Bi2+  Bi85  1  0.44296661  0.65454664  0.70879488  1
  Bi2+  Bi86  1  0.50908924  0.91072590  0.28277267  1
  Bi2+  Bi87  1  0.48408549  0.97765777  0.78418125  1
  Bi2+  Bi88  1  0.71960552  0.09116339  0.28726459  1
  Bi2+  Bi89  1  0.75968007  0.10012901  0.83062915  1
  Bi2+  Bi90  1  0.74082157  0.35798090  0.27486874  1
  Bi2+  Bi91  1  0.75034668  0.31178670  0.79164330  1
  Bi2+  Bi92  1  0.77228803  0.63144087  0.28008646  1
  Bi2+  Bi93  1  0.74209662  0.58314774  0.78507865  1
  Bi2+  Bi94  1  0.77418825  0.83765679  0.28758544  1
  Bi2+  Bi95  1  0.74655969  0.92208728  0.78485015  1
  Bi2+  Bi96  1  0.17712457  -0.07360785  0.22643746  1
  Bi2+  Bi97  1  0.14809225  0.00979669  0.72043610  1
  Bi2+  Bi98  1  0.14630683  0.32630117  0.20421652  1
  Bi2+  Bi99  1  0.10701624  0.20490707  0.70334238  1
  Bi2+  Bi100  1  0.12407538  0.54176969  0.20591261  1
  Bi2+  Bi101  1  0.11576061  0.46996095  0.72004387  1
  Bi2+  Bi102  1  0.10968800  0.74384276  0.19533470  1
  Bi2+  Bi103  1  0.11151015  0.74905113  0.71909000  1
  Bi2+  Bi104  1  0.40864268  0.05803994  0.19378689  1
  Bi2+  Bi105  1  0.31719018  0.00833269  0.66754801  1
  Bi2+  Bi106  1  0.33033085  0.24436380  0.19967533  1
  Bi2+  Bi107  1  0.36823051  0.18304094  0.70953181  1
  Bi2+  Bi108  1  0.34014424  0.51616071  0.23037882  1
  Bi2+  Bi109  1  0.38308905  0.44818731  0.72588775  1
  Bi2+  Bi110  1  0.40675250  0.72373350  0.18791438  1
  Bi2+  Bi111  1  0.42457634  0.84958328  0.69474823  1
  Bi2+  Bi112  1  0.62331801  -0.03825932  0.19334375  1
  Bi2+  Bi113  1  0.62254507  0.03322299  0.70881796  1
  Bi2+  Bi114  1  0.53255374  0.21930676  0.20634738  1
  Bi2+  Bi115  1  0.63206198  0.23191141  0.70996793  1
  Bi2+  Bi116  1  0.60472193  0.51806056  0.19783725  1
  Bi2+  Bi117  1  0.61351086  0.47264346  0.71807203  1
  Bi2+  Bi118  1  0.61158214  0.74471146  0.25552436  1
  Bi2+  Bi119  1  0.61203451  0.76335699  0.72050532  1
  Bi2+  Bi120  1  0.88343928  -0.02238871  0.20616782  1
  Bi2+  Bi121  1  0.87091612  0.01573077  0.71259037  1
  Bi2+  Bi122  1  0.88529611  0.24240257  0.22197527  1
  Bi2+  Bi123  1  0.82627977  0.21052876  0.69728475  1
  Bi2+  Bi124  1  0.86333314  0.51090743  0.20269299  1
  Bi2+  Bi125  1  0.86377289  0.40346541  0.70896160  1
  Bi2+  Bi126  1  0.91529655  0.71625271  0.21315046  1
  Bi2+  Bi127  1  0.87177453  0.73788985  0.72087848  1
  S2-  S128  1  0.00508292  0.10347356  0.22332174  1
  S2-  S129  1  -0.03009121  0.12502576  0.65322070  1
  S2-  S130  1  -0.00387995  0.29262232  0.15523894  1
  S2-  S131  1  0.00013490  0.38463279  0.65407296  1
  S2-  S132  1  -0.00784881  0.51571702  0.13632486  1
  S2-  S133  1  0.07964901  0.61739957  0.66111636  1
  S2-  S134  1  0.00189255  0.94521290  0.14413258  1
  S2-  S135  1  -0.01911774  0.83188077  0.66785316  1
  S2-  S136  1  0.17118347  0.17571049  0.15719053  1
  S2-  S137  1  0.24241843  0.24501460  0.64258368  1
  S2-  S138  1  0.25689146  0.49964960  0.13771476  1
  S2-  S139  1  0.24716435  0.46678337  0.65590342  1
  S2-  S140  1  0.26010203  0.74957339  0.13672855  1
  S2-  S141  1  0.26266131  0.65310600  0.71819524  1
  S2-  S142  1  0.26501236  0.98217178  0.14474190  1
  S2-  S143  1  0.20902906  0.80249492  0.65219102  1
  S2-  S144  1  0.62102966  0.11646587  0.13880937  1
  S2-  S145  1  0.51228493  0.13828082  0.65104386  1
  S2-  S146  1  0.55857460  0.38022241  0.15524808  1
  S2-  S147  1  0.49677779  0.39127145  0.66074782  1
  S2-  S148  1  0.50054440  0.59338695  0.13958989  1
  S2-  S149  1  0.58581253  0.61519472  0.65489984  1
  S2-  S150  1  0.50500581  0.84963768  0.14808202  1
  S2-  S151  1  0.58064484  0.88422357  0.64607622  1
  S2-  S152  1  0.84489183  0.11336919  0.15331601  1
  S2-  S153  1  0.74960714  0.01964031  0.63567229  1
  S2-  S154  1  0.77452968  0.32646472  0.17219600  1
  S2-  S155  1  0.72804708  0.44204948  0.64482568  1
  S2-  S156  1  0.73269225  0.54723197  0.13088708  1
  S2-  S157  1  0.87591450  0.60960528  0.66060008  1
  S2-  S158  1  0.75635127  0.88726219  0.15322571  1
  S2-  S159  1  0.74669403  0.76990076  0.65878620  1
  S2-  S160  1  0.13455077  -0.03913148  0.35543448  1
  S2-  S161  1  0.12347911  0.11920199  0.86498970  1
  S2-  S162  1  0.24452872  0.22442939  0.35505798  1
  S2-  S163  1  0.11933220  0.36998965  0.86093900  1
  S2-  S164  1  0.12706764  0.44077712  0.35245036  1
  S2-  S165  1  0.12363030  0.61224630  0.85629737  1
  S2-  S166  1  0.10573437  0.71769212  0.35217822  1
  S2-  S167  1  0.13474727  0.83752054  0.83928627  1
  S2-  S168  1  0.37737190  0.01767567  0.34376279  1
  S2-  S169  1  0.34201609  0.00680222  0.84588283  1
  S2-  S170  1  0.48291177  0.25762073  0.35533840  1
  S2-  S171  1  0.34148016  0.25718519  0.85555813  1
  S2-  S172  1  0.42743960  0.49601814  0.36340515  1
  S2-  S173  1  0.36350103  0.49872236  0.83529555  1
  S2-  S174  1  0.35617072  0.73533854  0.35718375  1
  S2-  S175  1  0.39771661  0.76126838  0.83312287  1
  S2-  S176  1  0.70404419  -0.03996430  0.35156969  1
  S2-  S177  1  0.60504214  -0.09523893  0.84797110  1
  S2-  S178  1  0.70541493  0.23848308  0.34538500  1
  S2-  S179  1  0.63047656  0.35285994  0.85527240  1
  S2-  S180  1  0.62437551  0.45183614  0.31236728  1
  S2-  S181  1  0.59637195  0.54278913  0.81721999  1
  S2-  S182  1  0.59044898  0.67231073  0.35878446  1
  S2-  S183  1  0.69047897  0.72935782  0.81530211  1
  S2-  S184  1  0.86793914  0.09307413  0.33860911  1
  S2-  S185  1  0.87713809  -0.10506913  0.85156142  1
  S2-  S186  1  1.01188418  0.24876751  0.33912280  1
  S2-  S187  1  0.89603290  0.26693256  0.85475534  1
  S2-  S188  1  0.85627111  0.41306488  0.34839647  1
  S2-  S189  1  0.86455284  0.48298384  0.83589429  1
  S2-  S190  1  0.89127181  0.85001629  0.35925460  1
  S2-  S191  1  0.91360985  0.69158503  0.82257792  1
  S2-  S192  1  -0.01476119  0.12393443  0.44757393  1
  S2-  S193  1  -0.00329082  0.12879097  0.95717649  1
  S2-  S194  1  -0.01801694  0.36970751  0.45092472  1
  S2-  S195  1  -0.00257153  0.37783935  0.95922478  1
  S2-  S196  1  -0.01537552  0.62149788  0.46112448  1
  S2-  S197  1  -0.00624157  0.63026706  0.95293929  1
  S2-  S198  1  -0.00933160  0.87028134  0.46239134  1
  S2-  S199  1  0.00385315  0.87885267  0.94999046  1
  S2-  S200  1  0.23692744  0.12124703  0.46105203  1
  S2-  S201  1  0.25370939  0.12646986  0.96469041  1
  S2-  S202  1  0.23866723  0.37510454  0.46052458  1
  S2-  S203  1  0.25244778  0.37650980  0.95922992  1
  S2-  S204  1  0.23364624  0.61968670  0.45426533  1
  S2-  S205  1  0.25244791  0.62797743  0.95565164  1
  S2-  S206  1  0.23436887  0.86956290  0.46011613  1
  S2-  S207  1  0.24898067  0.88207289  0.95458978  1
  S2-  S208  1  0.48406985  0.11950816  0.45139625  1
  S2-  S209  1  0.49786608  0.12859379  0.95840483  1
  S2-  S210  1  0.48701209  0.37727137  0.45738286  1
  S2-  S211  1  0.49486525  0.37768729  0.95169101  1
  S2-  S212  1  0.48418192  0.62338978  0.46629402  1
  S2-  S213  1  0.50034538  0.63006370  0.93481886  1
  S2-  S214  1  0.48528872  0.87040263  0.45418739  1
  S2-  S215  1  0.49551108  0.88034830  0.94611412  1
  S2-  S216  1  0.73609702  0.12348827  0.45132810  1
  S2-  S217  1  0.75013527  0.12962396  0.95783838  1
  S2-  S218  1  0.72562903  0.37976532  0.44803834  1
  S2-  S219  1  0.75302267  0.37899765  0.95661659  1
  S2-  S220  1  0.73433376  0.62157223  0.44459709  1
  S2-  S221  1  0.74879487  0.63024260  0.93685993  1
  S2-  S222  1  0.73113505  0.86745244  0.46209935  1
  S2-  S223  1  0.74733375  0.87703344  0.94627021  1
  S2-  S224  1  0.12411856  0.00434294  0.04564422  1
  S2-  S225  1  0.11019840  0.00034140  0.55729215  1
  S2-  S226  1  0.12643354  0.25511714  0.04564380  1
  S2-  S227  1  0.10883394  0.24922013  0.54027749  1
  S2-  S228  1  0.12564298  0.50600084  0.03826246  1
  S2-  S229  1  0.11026968  0.49915251  0.55139169  1
  S2-  S230  1  0.12148785  0.75447001  0.03906366  1
  S2-  S231  1  0.10928976  0.74443929  0.55232859  1
  S2-  S232  1  0.38358065  0.00479815  0.04583741  1
  S2-  S233  1  0.36436793  -0.00042869  0.54644625  1
  S2-  S234  1  0.38055948  0.25415683  0.05687247  1
  S2-  S235  1  0.36708699  0.24851640  0.54261703  1
  S2-  S236  1  0.37630780  0.50480254  0.03911444  1
  S2-  S237  1  0.36458902  0.50127924  0.55652481  1
  S2-  S238  1  0.37698573  0.75522557  0.03635186  1
  S2-  S239  1  0.36123847  0.74295848  0.56049145  1
  S2-  S240  1  0.62500430  0.00346714  0.03535293  1
  S2-  S241  1  0.60750076  0.00033359  0.53940171  1
  S2-  S242  1  0.62618933  0.25920770  0.04486679  1
  S2-  S243  1  0.61367401  0.24677401  0.54376951  1
  S2-  S244  1  0.62486068  0.50511240  0.02572580  1
  S2-  S245  1  0.61073185  0.50167122  0.54446009  1
  S2-  S246  1  0.62763206  0.75476236  0.03169705  1
  S2-  S247  1  0.61161765  0.74390471  0.55007099  1
  S2-  S248  1  0.87628666  0.00319715  0.03966316  1
  S2-  S249  1  0.86168057  -0.00416652  0.53748466  1
  S2-  S250  1  0.86920022  0.26215225  0.05380595  1
  S2-  S251  1  0.85404715  0.25040677  0.55052031  1
  S2-  S252  1  0.87359106  0.50503368  0.03850731  1
  S2-  S253  1  0.85741116  0.49803383  0.54323248  1
  S2-  S254  1  0.87672597  0.75372230  0.04074568  1
  S2-  S255  1  0.85623526  0.74674919  0.54910437  1
