# generated using pymatgen
data_La6Ce6Pr19Nd20Sm13(BiS2)64
_symmetry_space_group_name_H-M   'P 1'
_cell_length_a   16.17666605
_cell_length_b   16.13690285
_cell_length_c   27.32994160
_cell_angle_alpha   90.12827135
_cell_angle_beta   90.00523148
_cell_angle_gamma   89.99781659
_symmetry_Int_Tables_number   1
_chemical_formula_structural   La6Ce6Pr19Nd20Sm13(BiS2)64
_chemical_formula_sum   'La6 Ce6 Pr19 Nd20 Sm13 Bi64 S128'
_cell_volume   7134.22525759
_cell_formula_units_Z   1
loop_
 _symmetry_equiv_pos_site_id
 _symmetry_equiv_pos_as_xyz
  1  'x, y, z'
loop_
 _atom_type_symbol
 _atom_type_oxidation_number
  La3+  3.0
  Ce3+  3.0
  Pr3+  3.0
  Nd3+  3.0
  Sm3+  3.0
  Bi2+  2.0
  S2-  -2.0
loop_
 _atom_site_type_symbol
 _atom_site_label
 _atom_site_symmetry_multiplicity
 _atom_site_fract_x
 _atom_site_fract_y
 _atom_site_fract_z
 _atom_site_occupancy
  La3+  La0  1  0.37234780  0.72714844  0.89645319  1
  La3+  La1  1  0.51424176  0.87664611  0.61133505  1
  La3+  La2  1  0.62658904  0.49522615  0.39083805  1
  La3+  La3  1  0.86422552  0.24037561  0.90719827  1
  La3+  La4  1  0.36952893  0.00053671  0.92063826  1
  La3+  La5  1  0.24098640  0.62666821  0.10076514  1
  Ce3+  Ce6  1  0.87631730  0.75155430  0.45149914  1
  Ce3+  Ce7  1  0.74711414  0.62997377  0.55595018  1
  Ce3+  Ce8  1  -0.00400824  0.12561582  0.05923029  1
  Ce3+  Ce9  1  0.25380575  0.86879602  0.57522401  1
  Ce3+  Ce10  1  0.37669593  -0.00239482  0.44383523  1
  Ce3+  Ce11  1  0.87406982  0.74698202  0.93117474  1
  Pr3+  Pr12  1  -0.00340876  0.37283303  0.05101164  1
  Pr3+  Pr13  1  0.74522300  0.12064482  0.06273301  1
  Pr3+  Pr14  1  0.74846599  0.37913155  0.56642572  1
  Pr3+  Pr15  1  0.00742457  0.87907348  0.56986080  1
  Pr3+  Pr16  1  0.11933850  0.24942143  0.93856573  1
  Pr3+  Pr17  1  0.49193468  0.87447818  0.06299380  1
  Pr3+  Pr18  1  0.62724352  0.75382434  0.43131578  1
  Pr3+  Pr19  1  0.74613317  0.62280954  0.06049594  1
  Pr3+  Pr20  1  0.00217188  0.62619432  0.56148556  1
  Pr3+  Pr21  1  0.87338160  0.49755753  0.43271287  1
  Pr3+  Pr22  1  0.00529094  0.12950588  0.56879177  1
  Pr3+  Pr23  1  0.12500442  0.75053718  0.43800081  1
  Pr3+  Pr24  1  0.37854959  0.25359856  0.43524579  1
  Pr3+  Pr25  1  0.11972088  0.74664372  0.93386803  1
  Pr3+  Pr26  1  0.87725283  0.24638281  0.44482864  1
  Pr3+  Pr27  1  0.37187623  0.24916934  0.93443931  1
  Pr3+  Pr28  1  0.25436640  0.62185433  0.56243788  1
  Pr3+  Pr29  1  0.50370122  0.63086819  0.08810478  1
  Pr3+  Pr30  1  0.12838725  0.00153460  0.44134849  1
  Nd3+  Nd31  1  0.37028274  0.50282679  0.95062791  1
  Nd3+  Nd32  1  0.49363668  0.37331407  0.06356007  1
  Nd3+  Nd33  1  0.37450761  0.49839407  0.42847963  1
  Nd3+  Nd34  1  0.25658064  0.12681137  0.55968744  1
  Nd3+  Nd35  1  0.50314038  0.37948922  0.55296244  1
  Nd3+  Nd36  1  -0.00005436  0.87026489  0.06196598  1
  Nd3+  Nd37  1  0.62492653  -0.00221760  0.43246238  1
  Nd3+  Nd38  1  0.62237923  -0.00454148  0.93428877  1
  Nd3+  Nd39  1  0.74889729  0.87238737  0.05379574  1
  Nd3+  Nd40  1  0.74934423  0.87947090  0.56030536  1
  Nd3+  Nd41  1  0.37768663  0.74794945  0.43703974  1
  Nd3+  Nd42  1  0.61615097  0.74896888  0.94128960  1
  Nd3+  Nd43  1  0.12345064  0.50087883  0.93670865  1
  Nd3+  Nd44  1  0.62267632  0.24921052  0.94412605  1
  Nd3+  Nd45  1  0.24953937  0.86647925  0.04885232  1
  Nd3+  Nd46  1  0.49351370  0.11970767  0.05781698  1
  Nd3+  Nd47  1  0.24567056  0.12005080  0.05401023  1
  Nd3+  Nd48  1  0.86704031  0.49786581  0.93739213  1
  Nd3+  Nd49  1  -0.00245078  0.62173559  0.06011170  1
  Nd3+  Nd50  1  0.61453979  0.50329976  0.94467382  1
  Sm3+  Sm51  1  0.75022802  0.12561592  0.55757295  1
  Sm3+  Sm52  1  0.12581408  0.49970277  0.44449016  1
  Sm3+  Sm53  1  0.50228655  0.12036249  0.55476272  1
  Sm3+  Sm54  1  0.62986212  0.25342770  0.44457915  1
  Sm3+  Sm55  1  -0.00154863  0.37707726  0.56235980  1
  Sm3+  Sm56  1  0.87929322  0.00249906  0.44708981  1
  Sm3+  Sm57  1  0.25584486  0.37729772  0.56376910  1
  Sm3+  Sm58  1  0.11763084  -0.00294065  0.94057017  1
  Sm3+  Sm59  1  0.50252211  0.63158014  0.55221782  1
  Sm3+  Sm60  1  0.74568334  0.37182824  0.05840697  1
  Sm3+  Sm61  1  0.87174294  -0.00078709  0.94199086  1
  Sm3+  Sm62  1  0.24840606  0.37778692  0.05945063  1
  Sm3+  Sm63  1  0.12599357  0.25231986  0.44726577  1
  Bi2+  Bi64  1  0.03469951  0.12902580  0.29819028  1
  Bi2+  Bi65  1  0.00017831  0.11005899  0.78163186  1
  Bi2+  Bi66  1  -0.00480086  0.41588012  0.31220667  1
  Bi2+  Bi67  1  0.03782735  0.33429227  0.76449213  1
  Bi2+  Bi68  1  -0.02159003  0.59911392  0.27880625  1
  Bi2+  Bi69  1  -0.03374064  0.61054664  0.78880533  1
  Bi2+  Bi70  1  -0.00515239  0.86246037  0.30332581  1
  Bi2+  Bi71  1  -0.04568393  0.88956709  0.81511692  1
  Bi2+  Bi72  1  0.27489555  0.13864321  0.25431313  1
  Bi2+  Bi73  1  0.25279431  0.17912196  0.78707175  1
  Bi2+  Bi74  1  0.24408633  0.32724916  0.28861463  1
  Bi2+  Bi75  1  0.27227144  0.37743329  0.78789697  1
  Bi2+  Bi76  1  0.24347126  0.64562828  0.30902091  1
  Bi2+  Bi77  1  0.22450879  0.57570098  0.79028290  1
  Bi2+  Bi78  1  0.24222884  0.94244084  0.28026470  1
  Bi2+  Bi79  1  0.23939817  0.86003338  0.79194898  1
  Bi2+  Bi80  1  0.50166698  0.13147679  0.28501352  1
  Bi2+  Bi81  1  0.45835546  0.18454801  0.75873429  1
  Bi2+  Bi82  1  0.49574170  0.32479415  0.29407780  1
  Bi2+  Bi83  1  0.46471779  0.35205799  0.81586155  1
  Bi2+  Bi84  1  0.49027985  0.65202384  0.28640376  1
  Bi2+  Bi85  1  0.50389614  0.56218336  0.79291198  1
  Bi2+  Bi86  1  0.50797093  0.92940286  0.29485239  1
  Bi2+  Bi87  1  0.52682896  0.86637081  0.81345860  1
  Bi2+  Bi88  1  0.68675946  0.08179179  0.30530769  1
  Bi2+  Bi89  1  0.74920746  0.10321238  0.79036794  1
  Bi2+  Bi90  1  0.75670890  0.36027785  0.28376968  1
  Bi2+  Bi91  1  0.73837469  0.37347543  0.79539058  1
  Bi2+  Bi92  1  0.78616408  0.61426719  0.25976936  1
  Bi2+  Bi93  1  0.77325693  0.70640043  0.80189140  1
  Bi2+  Bi94  1  0.76729662  0.82306624  0.28607095  1
  Bi2+  Bi95  1  0.75664895  0.90083104  0.79858267  1
  Bi2+  Bi96  1  0.11404906  0.00106163  0.19837941  1
  Bi2+  Bi97  1  0.09858930  -0.03772553  0.73897945  1
  Bi2+  Bi98  1  0.10109055  0.26403964  0.20285242  1
  Bi2+  Bi99  1  0.12545001  0.19114646  0.68842761  1
  Bi2+  Bi100  1  0.12943072  0.45042357  0.22754747  1
  Bi2+  Bi101  1  0.13005294  0.48237527  0.70452842  1
  Bi2+  Bi102  1  0.11165284  0.75546764  0.20584172  1
  Bi2+  Bi103  1  0.08576137  0.74381532  0.69720198  1
  Bi2+  Bi104  1  0.38901373  0.00147856  0.20136800  1
  Bi2+  Bi105  1  0.38602086  0.00890432  0.71626671  1
  Bi2+  Bi106  1  0.38174961  0.26405070  0.19138388  1
  Bi2+  Bi107  1  0.29992329  0.27142913  0.68406114  1
  Bi2+  Bi108  1  0.36328754  0.45073777  0.21676437  1
  Bi2+  Bi109  1  0.38222181  0.48610462  0.71093273  1
  Bi2+  Bi110  1  0.35371080  0.80438342  0.21028109  1
  Bi2+  Bi111  1  0.37277374  0.71459089  0.70080808  1
  Bi2+  Bi112  1  0.67643446  0.01243489  0.18398498  1
  Bi2+  Bi113  1  0.64428618  0.01016437  0.70816016  1
  Bi2+  Bi114  1  0.65704669  0.19799839  0.21348531  1
  Bi2+  Bi115  1  0.58792520  0.32396910  0.72487954  1
  Bi2+  Bi116  1  0.61478137  0.49656436  0.19633319  1
  Bi2+  Bi117  1  0.63413929  0.52017046  0.71165915  1
  Bi2+  Bi118  1  0.61120151  0.82885365  0.21628173  1
  Bi2+  Bi119  1  0.65563920  0.71706076  0.70970560  1
  Bi2+  Bi120  1  0.85828860  -0.00404540  0.27296646  1
  Bi2+  Bi121  1  0.89228437  -0.02537993  0.70794970  1
  Bi2+  Bi122  1  0.91828321  0.26353289  0.24875996  1
  Bi2+  Bi123  1  0.82757296  0.22696238  0.71226984  1
  Bi2+  Bi124  1  0.87833432  0.47076314  0.20218168  1
  Bi2+  Bi125  1  0.82880219  0.50957530  0.72759651  1
  Bi2+  Bi126  1  0.90829487  0.73829889  0.20796313  1
  Bi2+  Bi127  1  0.89568053  0.78211245  0.71690800  1
  S2-  S128  1  0.02677887  0.12413539  0.15519810  1
  S2-  S129  1  -0.03933614  0.12946768  0.66572084  1
  S2-  S130  1  0.01352047  0.39728805  0.14989054  1
  S2-  S131  1  0.03601573  0.35859942  0.65730306  1
  S2-  S132  1  0.08034504  0.63107576  0.14654565  1
  S2-  S133  1  0.02137750  0.59572813  0.65992611  1
  S2-  S134  1  0.00346852  0.88427941  0.16133279  1
  S2-  S135  1  0.12365092  0.89154457  0.64428162  1
  S2-  S136  1  0.24811828  0.07935146  0.15015743  1
  S2-  S137  1  0.26430510  0.09356187  0.65705598  1
  S2-  S138  1  0.24606182  0.46439718  0.14534382  1
  S2-  S139  1  0.26214998  0.49428804  0.63595924  1
  S2-  S140  1  0.26541887  0.66580434  0.20595881  1
  S2-  S141  1  0.23145178  0.71131117  0.64924992  1
  S2-  S142  1  0.22585707  0.84446723  0.14714533  1
  S2-  S143  1  0.35380976  0.87523067  0.65654454  1
  S2-  S144  1  0.51041161  0.01031335  0.13352512  1
  S2-  S145  1  0.50854292  0.05750222  0.64577948  1
  S2-  S146  1  0.51290004  0.36207603  0.16184761  1
  S2-  S147  1  0.48191663  0.38661335  0.65109681  1
  S2-  S148  1  0.45952707  0.57029582  0.18201265  1
  S2-  S149  1  0.51622664  0.70248571  0.64339589  1
  S2-  S150  1  0.49440876  0.78016573  0.14936894  1
  S2-  S151  1  0.51728774  0.89551614  0.71955753  1
  S2-  S152  1  0.79019054  0.14399519  0.15849177  1
  S2-  S153  1  0.72381396  0.13822373  0.65365379  1
  S2-  S154  1  0.74371697  0.39958849  0.15499099  1
  S2-  S155  1  0.79852369  0.36786118  0.66304196  1
  S2-  S156  1  0.66238813  0.62622327  0.14784491  1
  S2-  S157  1  0.76164962  0.61336650  0.65316963  1
  S2-  S158  1  0.75279899  0.86834458  0.15222828  1
  S2-  S159  1  0.68348671  0.87100802  0.65134781  1
  S2-  S160  1  0.10925317  -0.01542311  0.34194538  1
  S2-  S161  1  0.13709732  -0.02071315  0.84441052  1
  S2-  S162  1  0.13582114  0.22772661  0.35081211  1
  S2-  S163  1  0.10252357  0.22280085  0.84001068  1
  S2-  S164  1  0.15099786  0.51770991  0.34892113  1
  S2-  S165  1  0.08932260  0.51119556  0.83874821  1
  S2-  S166  1  0.11597753  0.76381083  0.33785808  1
  S2-  S167  1  0.20828281  0.72712448  0.84613162  1
  S2-  S168  1  0.36666456  0.00258195  0.34702402  1
  S2-  S169  1  0.37464998  -0.04754579  0.82285576  1
  S2-  S170  1  0.36530513  0.36355032  0.35934515  1
  S2-  S171  1  0.37753359  0.14771228  0.85394142  1
  S2-  S172  1  0.37287910  0.56275394  0.33410451  1
  S2-  S173  1  0.36570743  0.56217268  0.85620309  1
  S2-  S174  1  0.37416509  0.75510266  0.33547942  1
  S2-  S175  1  0.38417381  0.76424715  0.79171233  1
  S2-  S176  1  0.63347726  -0.11833143  0.35624078  1
  S2-  S177  1  0.60571774  0.02123467  0.83698313  1
  S2-  S178  1  0.63856348  0.31997654  0.35481807  1
  S2-  S179  1  0.70714961  0.24118621  0.85729523  1
  S2-  S180  1  0.55198157  0.48097923  0.29467786  1
  S2-  S181  1  0.62372243  0.47659773  0.84706009  1
  S2-  S182  1  0.61284525  0.65696754  0.34711157  1
  S2-  S183  1  0.54527535  0.70980114  0.85425289  1
  S2-  S184  1  0.89630083  0.07635214  0.35992283  1
  S2-  S185  1  0.88734286  0.08664758  0.85582371  1
  S2-  S186  1  0.87726756  0.30059446  0.35061653  1
  S2-  S187  1  0.90516312  0.31986352  0.81782234  1
  S2-  S188  1  0.78318307  0.49989857  0.34496050  1
  S2-  S189  1  0.84989204  0.53324799  0.84048447  1
  S2-  S190  1  0.88179901  0.76132530  0.35490648  1
  S2-  S191  1  0.99324905  0.74366554  0.85874825  1
  S2-  S192  1  0.00566079  0.12736994  0.46213380  1
  S2-  S193  1  -0.00384329  0.12404467  0.95397776  1
  S2-  S194  1  0.00205248  0.37585021  0.45729222  1
  S2-  S195  1  -0.00929082  0.37242091  0.94405421  1
  S2-  S196  1  -0.00005679  0.62204125  0.45305323  1
  S2-  S197  1  -0.00623526  0.61692063  0.95513155  1
  S2-  S198  1  0.00090830  0.87942814  0.46027474  1
  S2-  S199  1  -0.00647490  0.87705550  0.95623788  1
  S2-  S200  1  0.25243623  0.13008880  0.45217163  1
  S2-  S201  1  0.24079502  0.12244848  0.94874853  1
  S2-  S202  1  0.24698587  0.37567303  0.45961106  1
  S2-  S203  1  0.24716380  0.37372023  0.95221732  1
  S2-  S204  1  0.24951859  0.62317277  0.45434967  1
  S2-  S205  1  0.24527423  0.62220625  0.95316527  1
  S2-  S206  1  0.25059618  0.87352347  0.45266446  1
  S2-  S207  1  0.24513565  0.87388621  0.94451913  1
  S2-  S208  1  0.50524920  0.12899909  0.44834164  1
  S2-  S209  1  0.50077391  0.12275293  0.95295989  1
  S2-  S210  1  0.50988211  0.38027639  0.44918456  1
  S2-  S211  1  0.49576751  0.37283104  0.95724241  1
  S2-  S212  1  0.50139134  0.62071606  0.44912625  1
  S2-  S213  1  0.49255261  0.62559221  0.96268676  1
  S2-  S214  1  0.49681711  0.87592868  0.44770238  1
  S2-  S215  1  0.49103536  0.87155782  0.94823460  1
  S2-  S216  1  0.74886783  0.12395163  0.45320266  1
  S2-  S217  1  0.74548802  0.11945293  0.95592198  1
  S2-  S218  1  0.75201922  0.37556546  0.45955417  1
  S2-  S219  1  0.74362490  0.37596368  0.95445998  1
  S2-  S220  1  0.75228746  0.62513234  0.45159586  1
  S2-  S221  1  0.74319596  0.62450907  0.95296105  1
  S2-  S222  1  0.75751755  0.88182740  0.45532867  1
  S2-  S223  1  0.74917406  0.87235451  0.94689128  1
  S2-  S224  1  0.12161277  -0.00437942  0.04478071  1
  S2-  S225  1  0.13000610  0.00713785  0.54682533  1
  S2-  S226  1  0.12669711  0.25104467  0.04613726  1
  S2-  S227  1  0.13002157  0.25593775  0.55085626  1
  S2-  S228  1  0.12404163  0.49769566  0.04243271  1
  S2-  S229  1  0.12229763  0.49577128  0.54744211  1
  S2-  S230  1  0.12087471  0.74583951  0.04222711  1
  S2-  S231  1  0.12429312  0.74992178  0.54356400  1
  S2-  S232  1  0.36848392  -0.00235187  0.03526637  1
  S2-  S233  1  0.37783138  0.00016690  0.54746516  1
  S2-  S234  1  0.36941584  0.24695501  0.04331805  1
  S2-  S235  1  0.38108911  0.25130147  0.54216223  1
  S2-  S236  1  0.37435001  0.50015074  0.05447658  1
  S2-  S237  1  0.38190904  0.50084551  0.53674118  1
  S2-  S238  1  0.36507271  0.73920945  0.05899570  1
  S2-  S239  1  0.37718763  0.74900439  0.54328404  1
  S2-  S240  1  0.62359759  -0.00587214  0.03866857  1
  S2-  S241  1  0.62768975  0.00310679  0.54060029  1
  S2-  S242  1  0.61952206  0.24682849  0.05122638  1
  S2-  S243  1  0.62472968  0.24872957  0.54945822  1
  S2-  S244  1  0.61938464  0.49529912  0.04962181  1
  S2-  S245  1  0.62407039  0.50489318  0.55568070  1
  S2-  S246  1  0.62281583  0.75181777  0.04583660  1
  S2-  S247  1  0.62638930  0.75597942  0.53974812  1
  S2-  S248  1  0.87424529  -0.00264357  0.04725576  1
  S2-  S249  1  0.87755327  0.00378439  0.55218501  1
  S2-  S250  1  0.86893977  0.24998108  0.04728194  1
  S2-  S251  1  0.87508505  0.25079564  0.55207138  1
  S2-  S252  1  0.86949772  0.49704275  0.04525924  1
  S2-  S253  1  0.87656259  0.50081059  0.54720994  1
  S2-  S254  1  0.87361772  0.74678438  0.04384497  1
  S2-  S255  1  0.87854670  0.75622331  0.55823099  1
