# generated using pymatgen
data_La6Ce6Pr19Nd20Sm13(BiS2)64
_symmetry_space_group_name_H-M   'P 1'
_cell_length_a   16.14924798
_cell_length_b   16.14065568
_cell_length_c   27.23886926
_cell_angle_alpha   89.97674004
_cell_angle_beta   90.06894904
_cell_angle_gamma   90.01231322
_symmetry_Int_Tables_number   1
_chemical_formula_structural   La6Ce6Pr19Nd20Sm13(BiS2)64
_chemical_formula_sum   'La6 Ce6 Pr19 Nd20 Sm13 Bi64 S128'
_cell_volume   7100.06281779
_cell_formula_units_Z   1
loop_
 _symmetry_equiv_pos_site_id
 _symmetry_equiv_pos_as_xyz
  1  'x, y, z'
loop_
 _atom_type_symbol
 _atom_type_oxidation_number
  La3+  3.0
  Ce3+  3.0
  Pr3+  3.0
  Nd3+  3.0
  Sm3+  3.0
  Bi2+  2.0
  S2-  -2.0
loop_
 _atom_site_type_symbol
 _atom_site_label
 _atom_site_symmetry_multiplicity
 _atom_site_fract_x
 _atom_site_fract_y
 _atom_site_fract_z
 _atom_site_occupancy
  La3+  La0  1  0.25158066  0.62181832  0.61294352  1
  La3+  La1  1  0.25585256  0.63849537  0.06790388  1
  La3+  La2  1  0.74410954  0.14942793  0.08624983  1
  La3+  La3  1  0.00396132  0.14316637  0.09192955  1
  La3+  La4  1  0.63124610  0.02651045  0.91706722  1
  La3+  La5  1  0.37166832  0.23587377  0.42700252  1
  Ce3+  Ce6  1  0.74859152  0.37115921  0.55549340  1
  Ce3+  Ce7  1  0.24915817  0.87086296  0.56271547  1
  Ce3+  Ce8  1  0.25168415  0.36667987  0.56442707  1
  Ce3+  Ce9  1  0.62215555  0.74527143  0.44094231  1
  Ce3+  Ce10  1  0.62728522  0.26745132  0.94059356  1
  Ce3+  Ce11  1  0.62214386  0.24427474  0.44052302  1
  Pr3+  Pr12  1  0.25298309  0.89402197  0.06052556  1
  Pr3+  Pr13  1  -0.00192511  0.88967930  0.07296023  1
  Pr3+  Pr14  1  0.00252083  0.61973556  0.56315522  1
  Pr3+  Pr15  1  0.87194722  0.25175566  0.42468136  1
  Pr3+  Pr16  1  0.87533684  0.02436505  0.94700848  1
  Pr3+  Pr17  1  0.49537864  0.62226258  0.56032885  1
  Pr3+  Pr18  1  0.00437303  0.39322759  0.06756211  1
  Pr3+  Pr19  1  0.62443929  -0.00711226  0.43252884  1
  Pr3+  Pr20  1  0.37644414  0.52030272  0.92264810  1
  Pr3+  Pr21  1  0.87255517  0.49853057  0.43282526  1
  Pr3+  Pr22  1  0.50299937  0.89902083  0.05652690  1
  Pr3+  Pr23  1  0.74895458  0.61537994  0.56839401  1
  Pr3+  Pr24  1  0.74993177  0.39702944  0.06347022  1
  Pr3+  Pr25  1  0.12416545  0.76862835  0.94331626  1
  Pr3+  Pr26  1  -0.00018928  0.37019136  0.56425348  1
  Pr3+  Pr27  1  0.36917565  0.49637769  0.43564687  1
  Pr3+  Pr28  1  -0.00293421  0.12114796  0.55742654  1
  Pr3+  Pr29  1  0.62760565  0.52543621  0.93225172  1
  Pr3+  Pr30  1  0.37529413  0.77160182  0.93600237  1
  Nd3+  Nd31  1  0.74751041  0.12134643  0.55434170  1
  Nd3+  Nd32  1  0.49786512  0.63980005  0.06118417  1
  Nd3+  Nd33  1  0.37051640  0.26639040  0.93472607  1
  Nd3+  Nd34  1  0.37496870  0.02296650  0.94744952  1
  Nd3+  Nd35  1  0.24789095  0.15077298  0.06731823  1
  Nd3+  Nd36  1  0.49817761  0.12082590  0.56307228  1
  Nd3+  Nd37  1  0.00545937  0.64129889  0.07161061  1
  Nd3+  Nd38  1  0.87472550  0.76971294  0.94012430  1
  Nd3+  Nd39  1  0.11286789  0.51472588  0.92742185  1
  Nd3+  Nd40  1  0.12512480  0.49627068  0.44143658  1
  Nd3+  Nd41  1  0.10791576  0.25425060  0.91736003  1
  Nd3+  Nd42  1  0.74856419  0.89725615  0.06056853  1
  Nd3+  Nd43  1  0.87317653  0.74453545  0.44251154  1
  Nd3+  Nd44  1  0.74653929  0.87107677  0.55926524  1
  Nd3+  Nd45  1  0.75199678  0.64110773  0.06970649  1
  Nd3+  Nd46  1  0.36654947  0.74663784  0.43622423  1
  Nd3+  Nd47  1  0.50012739  0.14891243  0.06459624  1
  Nd3+  Nd48  1  0.12222974  0.24576585  0.43751621  1
  Nd3+  Nd49  1  0.62100184  0.49866338  0.44281798  1
  Nd3+  Nd50  1  0.87345665  0.52477192  0.93653310  1
  Sm3+  Sm51  1  0.49718003  0.87134333  0.55353135  1
  Sm3+  Sm52  1  0.49675989  0.39707757  0.04554236  1
  Sm3+  Sm53  1  0.24654627  0.39444191  0.03960857  1
  Sm3+  Sm54  1  0.49422425  0.36998112  0.55316659  1
  Sm3+  Sm55  1  0.12142984  -0.00313532  0.44382359  1
  Sm3+  Sm56  1  -0.00122443  0.87070835  0.55450449  1
  Sm3+  Sm57  1  0.62414974  0.77074456  0.95126039  1
  Sm3+  Sm58  1  0.24865953  0.12435705  0.56533080  1
  Sm3+  Sm59  1  0.87442221  -0.00403425  0.43972022  1
  Sm3+  Sm60  1  0.12324225  0.74552521  0.44346687  1
  Sm3+  Sm61  1  0.12120222  0.02155199  0.95073050  1
  Sm3+  Sm62  1  0.87546863  0.26961557  0.95280442  1
  Sm3+  Sm63  1  0.37047723  -0.00501298  0.44303997  1
  Bi2+  Bi64  1  0.01527416  0.08114133  0.30509985  1
  Bi2+  Bi65  1  -0.02614534  0.08718363  0.80919008  1
  Bi2+  Bi66  1  0.01207720  0.44198270  0.29914888  1
  Bi2+  Bi67  1  -0.03904262  0.34826792  0.78763558  1
  Bi2+  Bi68  1  -0.02184414  0.63178370  0.29525808  1
  Bi2+  Bi69  1  -0.00692288  0.61719173  0.80806738  1
  Bi2+  Bi70  1  0.03849769  0.86932118  0.22614360  1
  Bi2+  Bi71  1  0.01143920  0.89529224  0.80432990  1
  Bi2+  Bi72  1  0.27525148  0.17777719  0.29389050  1
  Bi2+  Bi73  1  0.24242117  0.10078261  0.78488059  1
  Bi2+  Bi74  1  0.26437260  0.35715826  0.23979638  1
  Bi2+  Bi75  1  0.29280661  0.33751702  0.77963821  1
  Bi2+  Bi76  1  0.26412288  0.59842217  0.31176279  1
  Bi2+  Bi77  1  0.25176544  0.64479790  0.81522995  1
  Bi2+  Bi78  1  0.33419062  0.87931528  0.31267517  1
  Bi2+  Bi79  1  0.21711410  0.90081156  0.76664767  1
  Bi2+  Bi80  1  0.51103150  0.14849790  0.30581353  1
  Bi2+  Bi81  1  0.49795179  0.11213727  0.79879773  1
  Bi2+  Bi82  1  0.47186280  0.34400300  0.23591337  1
  Bi2+  Bi83  1  0.53636125  0.34663566  0.74399092  1
  Bi2+  Bi84  1  0.51012354  0.60805337  0.28923016  1
  Bi2+  Bi85  1  0.51051258  0.64743236  0.79275727  1
  Bi2+  Bi86  1  0.52260041  0.87297336  0.28723417  1
  Bi2+  Bi87  1  0.43283467  0.90706870  0.77808299  1
  Bi2+  Bi88  1  0.75840027  0.10220868  0.30517914  1
  Bi2+  Bi89  1  0.76303977  0.13708437  0.79185280  1
  Bi2+  Bi90  1  0.73869511  0.41451481  0.28511464  1
  Bi2+  Bi91  1  0.76081588  0.34749344  0.78731175  1
  Bi2+  Bi92  1  0.78471601  0.60077121  0.31528218  1
  Bi2+  Bi93  1  0.73410270  0.54207374  0.80112101  1
  Bi2+  Bi94  1  0.77556683  0.79929790  0.28440133  1
  Bi2+  Bi95  1  0.81643216  0.85124812  0.80933814  1
  Bi2+  Bi96  1  0.20396805  -0.02646827  0.24519005  1
  Bi2+  Bi97  1  0.09941568  0.03726073  0.70608794  1
  Bi2+  Bi98  1  0.10092450  0.23194308  0.22795148  1
  Bi2+  Bi99  1  0.14012113  0.23651020  0.72119385  1
  Bi2+  Bi100  1  0.11857149  0.48743997  0.20450087  1
  Bi2+  Bi101  1  0.11768880  0.48843237  0.71359561  1
  Bi2+  Bi102  1  0.15323974  0.71002123  0.24149944  1
  Bi2+  Bi103  1  0.09977182  0.77158019  0.71230266  1
  Bi2+  Bi104  1  0.39526476  0.01655085  0.22050993  1
  Bi2+  Bi105  1  0.29394035  0.01998101  0.68155930  1
  Bi2+  Bi106  1  0.35913459  0.19633953  0.18352653  1
  Bi2+  Bi107  1  0.39739380  0.20259308  0.69263044  1
  Bi2+  Bi108  1  0.35402719  0.51777042  0.19392778  1
  Bi2+  Bi109  1  0.37870493  0.49094701  0.71636900  1
  Bi2+  Bi110  1  0.36721727  0.79083352  0.20886677  1
  Bi2+  Bi111  1  0.40818275  0.77440928  0.70135942  1
  Bi2+  Bi112  1  0.60892318  -0.01625547  0.20835477  1
  Bi2+  Bi113  1  0.63365268  -0.02465725  0.69682691  1
  Bi2+  Bi114  1  0.63257653  0.23923653  0.22388976  1
  Bi2+  Bi115  1  0.67396381  0.23074491  0.70298742  1
  Bi2+  Bi116  1  0.60711274  0.50486699  0.20702352  1
  Bi2+  Bi117  1  0.63744416  0.50200356  0.70163998  1
  Bi2+  Bi118  1  0.64401775  0.69410056  0.21649555  1
  Bi2+  Bi119  1  0.67087915  0.74464354  0.76110590  1
  Bi2+  Bi120  1  0.86922156  -0.03877306  0.21342270  1
  Bi2+  Bi121  1  0.88321493  -0.05444553  0.71616059  1
  Bi2+  Bi122  1  0.86531251  0.25793671  0.21870840  1
  Bi2+  Bi123  1  0.87761867  0.22480223  0.71417604  1
  Bi2+  Bi124  1  0.86652788  0.50826948  0.21583936  1
  Bi2+  Bi125  1  0.82938231  0.56509685  0.69464417  1
  Bi2+  Bi126  1  0.83886274  0.70315974  0.19173995  1
  Bi2+  Bi127  1  0.90131072  0.73785134  0.72516649  1
  S2-  S128  1  0.00413884  -0.00415529  0.15499784  1
  S2-  S129  1  0.00988732  0.16255319  0.65456560  1
  S2-  S130  1  -0.00684551  0.28834907  0.15454389  1
  S2-  S131  1  0.01699280  0.39965048  0.66466424  1
  S2-  S132  1  -0.00797931  0.51557523  0.14170374  1
  S2-  S133  1  0.08293440  0.62303445  0.65255359  1
  S2-  S134  1  -0.01470458  0.76261238  0.14564239  1
  S2-  S135  1  0.00448938  0.87164588  0.65190483  1
  S2-  S136  1  0.15723845  0.14923665  0.15245789  1
  S2-  S137  1  0.24727812  0.24041415  0.63910356  1
  S2-  S138  1  0.24098921  0.41349772  0.13777383  1
  S2-  S139  1  0.25182734  0.45546806  0.65023457  1
  S2-  S140  1  0.16369386  0.63086325  0.15430035  1
  S2-  S141  1  0.25500119  0.61058566  0.72260084  1
  S2-  S142  1  0.24439940  0.86777004  0.15994209  1
  S2-  S143  1  0.25385407  0.78951995  0.64892476  1
  S2-  S144  1  0.59656210  0.12837698  0.14776343  1
  S2-  S145  1  0.51051448  0.09193040  0.66178068  1
  S2-  S146  1  0.48491866  0.43233716  0.14103595  1
  S2-  S147  1  0.46597286  0.35678585  0.65046837  1
  S2-  S148  1  0.39251103  0.64998928  0.14117705  1
  S2-  S149  1  0.42323650  0.61906659  0.65128710  1
  S2-  S150  1  0.48711082  0.88710290  0.15605246  1
  S2-  S151  1  0.52058875  0.86471869  0.65155001  1
  S2-  S152  1  0.83780855  0.11710770  0.17459699  1
  S2-  S153  1  0.73468965  0.09072795  0.65143454  1
  S2-  S154  1  0.74186450  0.29810848  0.15111399  1
  S2-  S155  1  0.76995618  0.42487289  0.64666605  1
  S2-  S156  1  0.73816578  0.51639551  0.13922020  1
  S2-  S157  1  0.67022661  0.64856091  0.65628696  1
  S2-  S158  1  0.72796391  0.90672201  0.15991970  1
  S2-  S159  1  0.74449041  0.87969307  0.65899819  1
  S2-  S160  1  0.11981778  -0.01946774  0.34564399  1
  S2-  S161  1  0.12041744  0.09983643  0.86339783  1
  S2-  S162  1  0.11406319  0.21550705  0.33889672  1
  S2-  S163  1  0.14513336  0.30696550  0.82022306  1
  S2-  S164  1  0.16762622  0.46847612  0.34555566  1
  S2-  S165  1  0.14071664  0.52680538  0.82613477  1
  S2-  S166  1  0.15775579  0.72878581  0.34897872  1
  S2-  S167  1  0.10751962  0.73597486  0.84492355  1
  S2-  S168  1  0.36877355  0.08695638  0.36067584  1
  S2-  S169  1  0.36819971  0.02478319  0.84847802  1
  S2-  S170  1  0.41558261  0.28762758  0.33370781  1
  S2-  S171  1  0.40259854  0.25191018  0.83753251  1
  S2-  S172  1  0.39685286  0.50499103  0.33511060  1
  S2-  S173  1  0.34953820  0.49755028  0.82347008  1
  S2-  S174  1  0.39501992  0.71440284  0.33907221  1
  S2-  S175  1  0.38657672  0.75834769  0.83611362  1
  S2-  S176  1  0.61278519  0.01184074  0.33259323  1
  S2-  S177  1  0.57201352  -0.02845309  0.82079200  1
  S2-  S178  1  0.65208848  0.23252890  0.34434923  1
  S2-  S179  1  0.62297270  0.17673020  0.85752605  1
  S2-  S180  1  0.62493390  0.50598966  0.34348735  1
  S2-  S181  1  0.56372648  0.51460824  0.83903041  1
  S2-  S182  1  0.63168266  0.79208954  0.34808418  1
  S2-  S183  1  0.61814461  0.73600592  0.85539277  1
  S2-  S184  1  0.86705154  -0.00718917  0.34119205  1
  S2-  S185  1  0.78354007  0.01346170  0.86023219  1
  S2-  S186  1  0.88537535  0.19541636  0.32641299  1
  S2-  S187  1  0.94916996  0.23282945  0.86581942  1
  S2-  S188  1  0.87187422  0.38899181  0.35499779  1
  S2-  S189  1  0.96199785  0.46826490  0.85610255  1
  S2-  S190  1  0.91251135  0.76581081  0.34631968  1
  S2-  S191  1  0.86147990  0.65580150  0.86492579  1
  S2-  S192  1  -0.00445581  0.12080915  0.45036814  1
  S2-  S193  1  0.00003458  0.14159033  0.97249441  1
  S2-  S194  1  0.00003592  0.37060800  0.45520115  1
  S2-  S195  1  0.00276517  0.38730010  0.96050700  1
  S2-  S196  1  -0.00017655  0.62144097  0.45370048  1
  S2-  S197  1  0.00143006  0.64522118  0.96110694  1
  S2-  S198  1  -0.00129106  0.87190004  0.45058045  1
  S2-  S199  1  -0.00124805  0.89522992  0.95896612  1
  S2-  S200  1  0.24224810  0.11745356  0.45953805  1
  S2-  S201  1  0.24827431  0.14476640  0.95868578  1
  S2-  S202  1  0.24895085  0.36601666  0.45208988  1
  S2-  S203  1  0.24462189  0.39152677  0.93598785  1
  S2-  S204  1  0.24621824  0.62216335  0.45120660  1
  S2-  S205  1  0.25031908  0.64257619  0.94903283  1
  S2-  S206  1  0.24435882  0.87373214  0.45441296  1
  S2-  S207  1  0.24827320  0.89832059  0.95102751  1
  S2-  S208  1  0.50149907  0.11571039  0.45580047  1
  S2-  S209  1  0.49792118  0.14585393  0.95799892  1
  S2-  S210  1  0.49831724  0.37126578  0.44840571  1
  S2-  S211  1  0.49897465  0.39205614  0.94138591  1
  S2-  S212  1  0.49531651  0.62303751  0.45220881  1
  S2-  S213  1  0.49886339  0.64546955  0.95428414  1
  S2-  S214  1  0.49402867  0.87246967  0.44802915  1
  S2-  S215  1  0.50255675  0.89731973  0.94906592  1
  S2-  S216  1  0.75155682  0.12003422  0.44847829  1
  S2-  S217  1  0.75218347  0.14940016  0.96296377  1
  S2-  S218  1  0.74387321  0.37260414  0.45141557  1
  S2-  S219  1  0.75184576  0.39569112  0.95001727  1
  S2-  S220  1  0.74761764  0.62169030  0.45841417  1
  S2-  S221  1  0.74466610  0.64852201  0.96383195  1
  S2-  S222  1  0.75224354  0.87173683  0.45220765  1
  S2-  S223  1  0.74750430  0.89153084  0.95591843  1
  S2-  S224  1  0.12895689  0.01662019  0.05259020  1
  S2-  S225  1  0.12325719  -0.00345132  0.54988975  1
  S2-  S226  1  0.12898496  0.27122743  0.04330600  1
  S2-  S227  1  0.12148092  0.24416171  0.54311694  1
  S2-  S228  1  0.12833093  0.51979748  0.03576170  1
  S2-  S229  1  0.12498153  0.49406907  0.54683135  1
  S2-  S230  1  0.13004030  0.76884050  0.04869850  1
  S2-  S231  1  0.12166703  0.74908619  0.54727919  1
  S2-  S232  1  0.37490916  0.02388365  0.05390257  1
  S2-  S233  1  0.37391175  -0.00275917  0.54728740  1
  S2-  S234  1  0.37454299  0.27258000  0.04230515  1
  S2-  S235  1  0.37634726  0.24126604  0.53800367  1
  S2-  S236  1  0.37415947  0.51684142  0.03114485  1
  S2-  S237  1  0.37452776  0.49373910  0.54299899  1
  S2-  S238  1  0.37811099  0.77159748  0.04194138  1
  S2-  S239  1  0.37427984  0.74964512  0.54302337  1
  S2-  S240  1  0.62623411  0.02143587  0.04287351  1
  S2-  S241  1  0.62252959  -0.00525970  0.54132404  1
  S2-  S242  1  0.61951864  0.27547664  0.04562102  1
  S2-  S243  1  0.62116023  0.24660028  0.54858118  1
  S2-  S244  1  0.62008325  0.51991031  0.03929306  1
  S2-  S245  1  0.61885812  0.49407009  0.54882328  1
  S2-  S246  1  0.62352645  0.76613282  0.05623889  1
  S2-  S247  1  0.62179744  0.74808727  0.54635304  1
  S2-  S248  1  0.87168146  0.01914021  0.05361160  1
  S2-  S249  1  0.87284903  -0.00556572  0.54621319  1
  S2-  S250  1  0.87367057  0.26830930  0.05363960  1
  S2-  S251  1  0.87239204  0.24630478  0.54275766  1
  S2-  S252  1  0.87496887  0.52141402  0.04126670  1
  S2-  S253  1  0.87664471  0.49646837  0.54135584  1
  S2-  S254  1  0.86929241  0.76838164  0.04536067  1
  S2-  S255  1  0.87395246  0.74581140  0.55114793  1
