# generated using pymatgen
data_La6Ce6Pr19Nd20Sm13(BiS2)64
_symmetry_space_group_name_H-M   'P 1'
_cell_length_a   16.13889515
_cell_length_b   16.12849857
_cell_length_c   27.28674358
_cell_angle_alpha   89.93463444
_cell_angle_beta   90.15967366
_cell_angle_gamma   90.02286306
_symmetry_Int_Tables_number   1
_chemical_formula_structural   La6Ce6Pr19Nd20Sm13(BiS2)64
_chemical_formula_sum   'La6 Ce6 Pr19 Nd20 Sm13 Bi64 S128'
_cell_volume   7102.60147005
_cell_formula_units_Z   1
loop_
 _symmetry_equiv_pos_site_id
 _symmetry_equiv_pos_as_xyz
  1  'x, y, z'
loop_
 _atom_type_symbol
 _atom_type_oxidation_number
  La3+  3.0
  Ce3+  3.0
  Pr3+  3.0
  Nd3+  3.0
  Sm3+  3.0
  Bi2+  2.0
  S2-  -2.0
loop_
 _atom_site_type_symbol
 _atom_site_label
 _atom_site_symmetry_multiplicity
 _atom_site_fract_x
 _atom_site_fract_y
 _atom_site_fract_z
 _atom_site_occupancy
  La3+  La0  1  0.10595032  0.49996049  0.92159979  1
  La3+  La1  1  0.25759762  0.62151241  0.61911269  1
  La3+  La2  1  0.00589352  0.60636592  0.08219965  1
  La3+  La3  1  0.36413057  0.23412066  0.91489017  1
  La3+  La4  1  0.63037240  0.75260186  0.89186166  1
  La3+  La5  1  0.62199547  0.51541285  0.41338484  1
  Ce3+  Ce6  1  0.61970526  -0.00738044  0.94326862  1
  Ce3+  Ce7  1  -0.00530073  0.12096187  0.06671919  1
  Ce3+  Ce8  1  0.63396723  0.00642147  0.43418414  1
  Ce3+  Ce9  1  0.38235459  0.26014664  0.43982057  1
  Ce3+  Ce10  1  0.74636088  0.12178791  0.05490497  1
  Ce3+  Ce11  1  0.49591020  0.36684876  0.05255177  1
  Pr3+  Pr12  1  0.12005449  -0.00743642  0.94363571  1
  Pr3+  Pr13  1  0.75563372  0.39046817  0.54999289  1
  Pr3+  Pr14  1  0.75617641  0.13114865  0.56734960  1
  Pr3+  Pr15  1  0.74432342  0.86822325  0.06336775  1
  Pr3+  Pr16  1  0.75673853  0.63847769  0.56595959  1
  Pr3+  Pr17  1  0.62194048  0.49209379  0.93927273  1
  Pr3+  Pr18  1  0.87985916  0.75771035  0.43284798  1
  Pr3+  Pr19  1  0.24238740  0.86768404  0.06463928  1
  Pr3+  Pr20  1  0.50624133  0.63785166  0.57570418  1
  Pr3+  Pr21  1  0.88826040  0.51386908  0.40541424  1
  Pr3+  Pr22  1  0.49754700  0.86491076  0.06148794  1
  Pr3+  Pr23  1  0.87902719  0.26013517  0.43781271  1
  Pr3+  Pr24  1  0.86744750  0.49297776  0.95103371  1
  Pr3+  Pr25  1  0.86705524  -0.00713945  0.94390431  1
  Pr3+  Pr26  1  0.01177567  0.63448203  0.56131237  1
  Pr3+  Pr27  1  0.87463834  0.24571570  0.93497052  1
  Pr3+  Pr28  1  0.50511625  0.88400434  0.55881236  1
  Pr3+  Pr29  1  0.24844878  0.11954392  0.06548149  1
  Pr3+  Pr30  1  0.25825378  0.88251019  0.56925665  1
  Nd3+  Nd31  1  0.50024047  0.61506079  0.06407095  1
  Nd3+  Nd32  1  0.00512443  0.13359588  0.55424876  1
  Nd3+  Nd33  1  0.38460886  0.00846358  0.43393657  1
  Nd3+  Nd34  1  0.00394321  0.36200617  0.07168322  1
  Nd3+  Nd35  1  0.13226897  0.75789203  0.44475862  1
  Nd3+  Nd36  1  0.75742414  0.88409817  0.56557266  1
  Nd3+  Nd37  1  0.86732765  0.73915816  0.94357942  1
  Nd3+  Nd38  1  0.13222307  0.50802819  0.43949265  1
  Nd3+  Nd39  1  0.25774734  0.13444106  0.56448049  1
  Nd3+  Nd40  1  0.74219059  0.36044799  0.07634613  1
  Nd3+  Nd41  1  0.11942742  0.74268347  0.94255384  1
  Nd3+  Nd42  1  0.11829147  0.24262262  0.93497960  1
  Nd3+  Nd43  1  0.25580278  0.37777849  0.56696301  1
  Nd3+  Nd44  1  0.38094531  0.75633592  0.44404876  1
  Nd3+  Nd45  1  0.36983760  0.49330883  0.94017580  1
  Nd3+  Nd46  1  0.49501373  0.12095458  0.05275782  1
  Nd3+  Nd47  1  0.50794784  0.38580279  0.56356868  1
  Nd3+  Nd48  1  0.13176896  0.25779947  0.43966386  1
  Nd3+  Nd49  1  0.37261990  -0.01156153  0.93962108  1
  Nd3+  Nd50  1  0.38112235  0.51031058  0.44948687  1
  Sm3+  Sm51  1  0.24322022  0.61488287  0.05744012  1
  Sm3+  Sm52  1  0.62236319  0.24816522  0.93114091  1
  Sm3+  Sm53  1  0.24519836  0.36666303  0.04982286  1
  Sm3+  Sm54  1  0.87980066  0.00786721  0.44260623  1
  Sm3+  Sm55  1  0.00861005  0.88251163  0.55526546  1
  Sm3+  Sm56  1  0.63292877  0.26011608  0.44365807  1
  Sm3+  Sm57  1  0.13410934  0.00902252  0.44451140  1
  Sm3+  Sm58  1  0.00594974  0.38576697  0.55805797  1
  Sm3+  Sm59  1  0.75021583  0.61778767  0.06815263  1
  Sm3+  Sm60  1  0.37394418  0.73929580  0.94814485  1
  Sm3+  Sm61  1  0.63205788  0.75444225  0.44074605  1
  Sm3+  Sm62  1  -0.00555964  0.86600200  0.05751054  1
  Sm3+  Sm63  1  0.50638194  0.13304046  0.55224649  1
  Bi2+  Bi64  1  -0.01754645  0.10986909  0.28175654  1
  Bi2+  Bi65  1  -0.03383133  0.12912316  0.79575974  1
  Bi2+  Bi66  1  -0.00184962  0.36557270  0.29516441  1
  Bi2+  Bi67  1  -0.03659715  0.33685628  0.74540304  1
  Bi2+  Bi68  1  0.06809717  0.63179928  0.28081002  1
  Bi2+  Bi69  1  -0.03710970  0.61310913  0.79235669  1
  Bi2+  Bi70  1  -0.02607841  0.80561425  0.31106885  1
  Bi2+  Bi71  1  -0.01147955  0.87894614  0.75239329  1
  Bi2+  Bi72  1  0.24219961  0.12738009  0.30832138  1
  Bi2+  Bi73  1  0.23654977  0.09720864  0.79082792  1
  Bi2+  Bi74  1  0.24416241  0.37613609  0.29354483  1
  Bi2+  Bi75  1  0.29555830  0.35653504  0.79361290  1
  Bi2+  Bi76  1  0.26316568  0.57171583  0.29307153  1
  Bi2+  Bi77  1  0.24992954  0.61665751  0.82496632  1
  Bi2+  Bi78  1  0.24047289  0.88324605  0.29611283  1
  Bi2+  Bi79  1  0.22420133  0.88492648  0.79045167  1
  Bi2+  Bi80  1  0.42806963  0.14812654  0.25256311  1
  Bi2+  Bi81  1  0.59132536  0.14463512  0.79663703  1
  Bi2+  Bi82  1  0.50324050  0.36244517  0.30781160  1
  Bi2+  Bi83  1  0.55998697  0.36545914  0.77533449  1
  Bi2+  Bi84  1  0.48991487  0.64043179  0.29548094  1
  Bi2+  Bi85  1  0.47813250  0.63286352  0.79059942  1
  Bi2+  Bi86  1  0.56102137  0.90007502  0.26205411  1
  Bi2+  Bi87  1  0.47624373  0.97666744  0.79306879  1
  Bi2+  Bi88  1  0.70282853  0.13161474  0.27607983  1
  Bi2+  Bi89  1  0.77885016  0.19358387  0.81639375  1
  Bi2+  Bi90  1  0.75137515  0.33614408  0.28880487  1
  Bi2+  Bi91  1  0.80984365  0.39012253  0.81325056  1
  Bi2+  Bi92  1  0.75353451  0.75143771  0.29806858  1
  Bi2+  Bi93  1  0.75075983  0.59925751  0.79882381  1
  Bi2+  Bi94  1  0.73510934  0.94123718  0.31740729  1
  Bi2+  Bi95  1  0.74433180  0.98807851  0.78972085  1
  Bi2+  Bi96  1  0.07480970  -0.05477900  0.24484076  1
  Bi2+  Bi97  1  0.14684769  -0.00284070  0.70234362  1
  Bi2+  Bi98  1  0.13673655  0.20351896  0.20965697  1
  Bi2+  Bi99  1  0.13323462  0.19897042  0.71525496  1
  Bi2+  Bi100  1  0.12074540  0.47757802  0.21239609  1
  Bi2+  Bi101  1  0.12137882  0.48718267  0.72021431  1
  Bi2+  Bi102  1  0.14498354  0.74984616  0.20240002  1
  Bi2+  Bi103  1  0.11795518  0.74805896  0.71405746  1
  Bi2+  Bi104  1  0.35608124  -0.00896476  0.19517751  1
  Bi2+  Bi105  1  0.33145093  0.02148474  0.66899024  1
  Bi2+  Bi106  1  0.31547309  0.28205743  0.19504942  1
  Bi2+  Bi107  1  0.39338221  0.20213777  0.69530935  1
  Bi2+  Bi108  1  0.38996786  0.45666654  0.23006599  1
  Bi2+  Bi109  1  0.38906439  0.46771195  0.71463276  1
  Bi2+  Bi110  1  0.33958220  0.73840508  0.24761591  1
  Bi2+  Bi111  1  0.37756928  0.85376905  0.72139389  1
  Bi2+  Bi112  1  0.70089604  -0.01235044  0.19475592  1
  Bi2+  Bi113  1  0.60328634  0.00826690  0.70849028  1
  Bi2+  Bi114  1  0.58740644  0.22423025  0.19979038  1
  Bi2+  Bi115  1  0.68795554  0.25939485  0.71312830  1
  Bi2+  Bi116  1  0.62178672  0.48659109  0.20504271  1
  Bi2+  Bi117  1  0.64300726  0.50836293  0.71460432  1
  Bi2+  Bi118  1  0.58249091  0.73721291  0.19749577  1
  Bi2+  Bi119  1  0.64097355  0.76852406  0.69973246  1
  Bi2+  Bi120  1  0.90174007  0.01293601  0.19166086  1
  Bi2+  Bi121  1  0.87515342  0.01657211  0.70403289  1
  Bi2+  Bi122  1  0.86232352  0.20471600  0.20757077  1
  Bi2+  Bi123  1  0.86228940  0.20485499  0.68119665  1
  Bi2+  Bi124  1  0.86034000  0.53860521  0.21050913  1
  Bi2+  Bi125  1  0.84895093  0.49512197  0.71373534  1
  Bi2+  Bi126  1  0.87832029  0.80897440  0.21416367  1
  Bi2+  Bi127  1  0.84939021  0.74149501  0.73724253  1
  S2-  S128  1  0.00049988  0.23031802  0.14322087  1
  S2-  S129  1  0.02203950  0.12290766  0.65259331  1
  S2-  S130  1  -0.01551029  0.46592517  0.15279212  1
  S2-  S131  1  0.03060510  0.38262087  0.65522350  1
  S2-  S132  1  -0.08573237  0.66449074  0.16169246  1
  S2-  S133  1  0.07957149  0.61356572  0.65311980  1
  S2-  S134  1  0.05352719  0.86619913  0.14920400  1
  S2-  S135  1  0.00983143  0.84359368  0.65014609  1
  S2-  S136  1  0.21489121  0.07623694  0.16152199  1
  S2-  S137  1  0.25135121  0.24569520  0.64202871  1
  S2-  S138  1  0.18539093  0.36354267  0.14174183  1
  S2-  S139  1  0.24437420  0.45566314  0.65681117  1
  S2-  S140  1  0.16170837  0.61145633  0.14305035  1
  S2-  S141  1  0.23423245  0.62271737  0.73064612  1
  S2-  S142  1  0.28106285  0.85622584  0.16242655  1
  S2-  S143  1  0.25457855  0.78726416  0.65434904  1
  S2-  S144  1  0.47606906  0.10722638  0.15136066  1
  S2-  S145  1  0.52720379  0.13136169  0.64967862  1
  S2-  S146  1  0.54693397  0.36181851  0.14630003  1
  S2-  S147  1  0.46744518  0.35115334  0.65930267  1
  S2-  S148  1  0.48317602  0.61989287  0.16358531  1
  S2-  S149  1  0.41790809  0.60248900  0.66298736  1
  S2-  S150  1  0.49366059  0.87746559  0.16195269  1
  S2-  S151  1  0.50664130  0.80891797  0.64980240  1
  S2-  S152  1  0.73293304  0.21194692  0.13730784  1
  S2-  S153  1  0.74103593  0.00665983  0.64006421  1
  S2-  S154  1  0.75754539  0.41069427  0.17549929  1
  S2-  S155  1  0.73751826  0.39930314  0.65062121  1
  S2-  S156  1  0.71261974  0.60425039  0.16580531  1
  S2-  S157  1  0.63976774  0.62066419  0.64301754  1
  S2-  S158  1  0.72878585  0.82439182  0.16019074  1
  S2-  S159  1  0.78660612  0.76840494  0.64061810  1
  S2-  S160  1  0.12830126  0.03251309  0.34740972  1
  S2-  S161  1  0.12369693  -0.01122082  0.84382349  1
  S2-  S162  1  0.12880322  0.27326498  0.34094686  1
  S2-  S163  1  0.22134944  0.24169143  0.85261957  1
  S2-  S164  1  0.04440632  0.50420436  0.35331235  1
  S2-  S165  1  0.16450833  0.46423875  0.82634310  1
  S2-  S166  1  0.13889924  0.76615860  0.34529154  1
  S2-  S167  1  0.09554975  0.67885296  0.85201445  1
  S2-  S168  1  0.34207634  -0.00276912  0.33784504  1
  S2-  S169  1  0.37199209  0.07334176  0.85354032  1
  S2-  S170  1  0.38457814  0.23717874  0.34291182  1
  S2-  S171  1  0.43406767  0.28038045  0.82450845  1
  S2-  S172  1  0.46078205  0.50268607  0.36098566  1
  S2-  S173  1  0.38524003  0.50252058  0.84004004  1
  S2-  S174  1  0.40967657  0.76377298  0.34488982  1
  S2-  S175  1  0.38017536  0.73377709  0.85042842  1
  S2-  S176  1  0.56347162  -0.00407978  0.34558226  1
  S2-  S177  1  0.61767097  -0.07642007  0.85504702  1
  S2-  S178  1  0.63050422  0.24589847  0.34595778  1
  S2-  S179  1  0.64794560  0.37295439  0.86244346  1
  S2-  S180  1  0.64877607  0.45895036  0.31264245  1
  S2-  S181  1  0.59909842  0.59208002  0.85627643  1
  S2-  S182  1  0.62625944  0.66705042  0.35567993  1
  S2-  S183  1  0.57830277  0.75802102  0.78872742  1
  S2-  S184  1  0.88532163  0.01562099  0.34506848  1
  S2-  S185  1  0.88766834  -0.01199591  0.84478300  1
  S2-  S186  1  0.89374849  0.26107299  0.33823399  1
  S2-  S187  1  0.99805575  0.24606183  0.86033083  1
  S2-  S188  1  0.85697261  0.46082924  0.30756053  1
  S2-  S189  1  0.95176250  0.49829343  0.86202451  1
  S2-  S190  1  0.86957186  0.66087588  0.34893093  1
  S2-  S191  1  0.79623575  0.74485815  0.85285748  1
  S2-  S192  1  0.00587254  0.13145131  0.44887792  1
  S2-  S193  1  -0.00552575  0.11400851  0.95939932  1
  S2-  S194  1  0.00284933  0.38455765  0.45321515  1
  S2-  S195  1  -0.00356498  0.36917696  0.96330177  1
  S2-  S196  1  0.00713138  0.63275157  0.45380962  1
  S2-  S197  1  -0.00695131  0.62197247  0.96694831  1
  S2-  S198  1  0.00788493  0.88716154  0.45029656  1
  S2-  S199  1  -0.00642822  0.86591342  0.95164007  1
  S2-  S200  1  0.25692327  0.13308390  0.45562520  1
  S2-  S201  1  0.24605153  0.11250107  0.95796869  1
  S2-  S202  1  0.25633960  0.38297233  0.45364634  1
  S2-  S203  1  0.24327128  0.37272972  0.94728640  1
  S2-  S204  1  0.25588519  0.63210643  0.44430089  1
  S2-  S205  1  0.24482678  0.61846131  0.95383521  1
  S2-  S206  1  0.25662413  0.88539230  0.45625396  1
  S2-  S207  1  0.24767373  0.86478053  0.95514877  1
  S2-  S208  1  0.50878905  0.13482477  0.44795082  1
  S2-  S209  1  0.49924103  0.12085962  0.94772669  1
  S2-  S210  1  0.50994691  0.38069675  0.45670250  1
  S2-  S211  1  0.49051389  0.36506587  0.94850227  1
  S2-  S212  1  0.50496761  0.63625746  0.46226615  1
  S2-  S213  1  0.49254687  0.61703830  0.95921158  1
  S2-  S214  1  0.50734703  0.88040663  0.45191235  1
  S2-  S215  1  0.49658128  0.86186136  0.95418136  1
  S2-  S216  1  0.75644316  0.13299334  0.45415665  1
  S2-  S217  1  0.74296613  0.12059946  0.94904107  1
  S2-  S218  1  0.75564712  0.38939659  0.44233866  1
  S2-  S219  1  0.74847837  0.36423096  0.96540495  1
  S2-  S220  1  0.75772275  0.62924224  0.45562367  1
  S2-  S221  1  0.74306116  0.61953588  0.96038331  1
  S2-  S222  1  0.75688091  0.88157161  0.45459111  1
  S2-  S223  1  0.74289525  0.86579413  0.95694119  1
  S2-  S224  1  0.11833111  -0.00723570  0.04970276  1
  S2-  S225  1  0.13155237  0.00867553  0.54923763  1
  S2-  S226  1  0.12539011  0.23893961  0.04075694  1
  S2-  S227  1  0.12653249  0.25822693  0.54427976  1
  S2-  S228  1  0.12515852  0.48994267  0.03700784  1
  S2-  S229  1  0.13249062  0.50331869  0.54426432  1
  S2-  S230  1  0.12046546  0.74290927  0.04692218  1
  S2-  S231  1  0.13333072  0.76057580  0.54784389  1
  S2-  S232  1  0.37137439  -0.00880152  0.04575738  1
  S2-  S233  1  0.38173659  0.01059765  0.54097229  1
  S2-  S234  1  0.36972929  0.24398133  0.04228151  1
  S2-  S235  1  0.38547332  0.25668951  0.54423900  1
  S2-  S236  1  0.36770485  0.49267496  0.04975547  1
  S2-  S237  1  0.37876171  0.50517458  0.55266686  1
  S2-  S238  1  0.36851629  0.73896874  0.05357213  1
  S2-  S239  1  0.37842305  0.75684324  0.54873695  1
  S2-  S240  1  0.61910904  -0.00439323  0.05032651  1
  S2-  S241  1  0.62877745  0.00907668  0.54016916  1
  S2-  S242  1  0.61776803  0.24289174  0.03580817  1
  S2-  S243  1  0.63257991  0.25704271  0.54879421  1
  S2-  S244  1  0.62454382  0.49242991  0.04835142  1
  S2-  S245  1  0.62809460  0.50810133  0.54068813  1
  S2-  S246  1  0.62197192  0.73881605  0.05589940  1
  S2-  S247  1  0.63202110  0.76288941  0.54252067  1
  S2-  S248  1  0.87157538  -0.00783819  0.05071814  1
  S2-  S249  1  0.88490287  0.00621321  0.54683972  1
  S2-  S250  1  0.87249464  0.24277155  0.04251371  1
  S2-  S251  1  0.88068582  0.26007235  0.54492918  1
  S2-  S252  1  0.86568130  0.48885143  0.05583925  1
  S2-  S253  1  0.88427737  0.51017225  0.55521577  1
  S2-  S254  1  0.87056539  0.74456556  0.04993131  1
  S2-  S255  1  0.88840335  0.75976379  0.53893216  1
