# generated using pymatgen
data_La6Ce6Pr19Nd20Sm13(BiS2)64
_symmetry_space_group_name_H-M   'P 1'
_cell_length_a   16.06902230
_cell_length_b   16.05108767
_cell_length_c   27.39559710
_cell_angle_alpha   90.17392124
_cell_angle_beta   90.08070325
_cell_angle_gamma   90.01123843
_symmetry_Int_Tables_number   1
_chemical_formula_structural   La6Ce6Pr19Nd20Sm13(BiS2)64
_chemical_formula_sum   'La6 Ce6 Pr19 Nd20 Sm13 Bi64 S128'
_cell_volume   7065.97750273
_cell_formula_units_Z   1
loop_
 _symmetry_equiv_pos_site_id
 _symmetry_equiv_pos_as_xyz
  1  'x, y, z'
loop_
 _atom_type_symbol
 _atom_type_oxidation_number
  La3+  3.0
  Ce3+  3.0
  Pr3+  3.0
  Nd3+  3.0
  Sm3+  3.0
  Bi2+  2.0
  S2-  -2.0
loop_
 _atom_site_type_symbol
 _atom_site_label
 _atom_site_symmetry_multiplicity
 _atom_site_fract_x
 _atom_site_fract_y
 _atom_site_fract_z
 _atom_site_occupancy
  La3+  La0  1  0.13385002  0.51207722  0.40724797  1
  La3+  La1  1  0.38131962  -0.00579001  0.91910961  1
  La3+  La2  1  0.00583114  0.11292756  0.10097353  1
  La3+  La3  1  0.74417893  0.62934707  0.60311675  1
  La3+  La4  1  0.88737096  0.00026903  0.89378202  1
  La3+  La5  1  -0.00373280  0.89408344  0.57563271  1
  Ce3+  Ce6  1  0.37735093  0.74186636  0.93254379  1
  Ce3+  Ce7  1  0.62127320  0.76365369  0.43632930  1
  Ce3+  Ce8  1  0.74402244  0.89186581  0.55952361  1
  Ce3+  Ce9  1  0.50565233  0.36921843  0.05391263  1
  Ce3+  Ce10  1  0.37100220  0.01927434  0.43755843  1
  Ce3+  Ce11  1  0.50654943  0.11479054  0.06783293  1
  Pr3+  Pr12  1  0.87698213  0.01756254  0.42592958  1
  Pr3+  Pr13  1  0.24293978  0.13884323  0.56607720  1
  Pr3+  Pr14  1  0.59299014  0.26171364  0.39417883  1
  Pr3+  Pr15  1  0.10890940  0.76261767  0.43043394  1
  Pr3+  Pr16  1  0.87298227  0.75986399  0.45254416  1
  Pr3+  Pr17  1  0.75557960  0.11430434  0.07726889  1
  Pr3+  Pr18  1  0.63268697  0.23829161  0.94374970  1
  Pr3+  Pr19  1  0.36577031  0.76280545  0.43900272  1
  Pr3+  Pr20  1  0.63316295  -0.00653834  0.93229000  1
  Pr3+  Pr21  1  0.50130508  0.14059130  0.56247075  1
  Pr3+  Pr22  1  0.26032434  0.61774113  0.06787091  1
  Pr3+  Pr23  1  0.76007343  0.87126221  0.05819670  1
  Pr3+  Pr24  1  0.88049731  0.23830976  0.94471039  1
  Pr3+  Pr25  1  0.49699673  0.64473365  0.56380127  1
  Pr3+  Pr26  1  0.62920466  0.49350220  0.93053020  1
  Pr3+  Pr27  1  0.75724927  0.36992361  0.05962447  1
  Pr3+  Pr28  1  0.12632536  0.23834591  0.94367112  1
  Pr3+  Pr29  1  0.12773831  0.49320490  0.93438996  1
  Pr3+  Pr30  1  -0.00911812  0.14487239  0.56007267  1
  Nd3+  Nd31  1  0.88126268  0.74432294  0.93232628  1
  Nd3+  Nd32  1  0.50740757  0.61877866  0.06591116  1
  Nd3+  Nd33  1  0.74428575  0.14312111  0.54525556  1
  Nd3+  Nd34  1  0.38106500  0.49397467  0.92989692  1
  Nd3+  Nd35  1  0.50146467  0.39399025  0.56574818  1
  Nd3+  Nd36  1  0.01033488  0.61546535  0.07190170  1
  Nd3+  Nd37  1  0.87942406  0.49752526  0.92356942  1
  Nd3+  Nd38  1  0.75578494  0.61822868  0.06198275  1
  Nd3+  Nd39  1  0.50475166  0.87102998  0.05268921  1
  Nd3+  Nd40  1  0.62915085  0.00794362  0.41850748  1
  Nd3+  Nd41  1  0.11622738  0.02099151  0.43144179  1
  Nd3+  Nd42  1  0.49807635  0.89121811  0.55249199  1
  Nd3+  Nd43  1  0.00639007  0.36868989  0.06644418  1
  Nd3+  Nd44  1  0.87117707  0.51380205  0.43778540  1
  Nd3+  Nd45  1  0.24283093  0.39091660  0.56573629  1
  Nd3+  Nd46  1  -0.00183001  0.64048912  0.56578872  1
  Nd3+  Nd47  1  0.12081337  0.26436880  0.43291379  1
  Nd3+  Nd48  1  0.85996327  0.27142433  0.41499462  1
  Nd3+  Nd49  1  0.25999393  0.11324116  0.06888781  1
  Nd3+  Nd50  1  0.25587263  0.86855709  0.05258764  1
  Sm3+  Sm51  1  -0.00564816  0.39509643  0.55118658  1
  Sm3+  Sm52  1  0.12497167  0.74154173  0.94135156  1
  Sm3+  Sm53  1  0.61859477  0.51329407  0.43890157  1
  Sm3+  Sm54  1  0.25377605  0.36771593  0.05456454  1
  Sm3+  Sm55  1  0.37106043  0.26627679  0.45218710  1
  Sm3+  Sm56  1  0.00384862  0.87036180  0.06131113  1
  Sm3+  Sm57  1  0.24337115  0.64280119  0.56320133  1
  Sm3+  Sm58  1  0.37814168  0.23727768  0.94707336  1
  Sm3+  Sm59  1  0.74569950  0.39230927  0.55391345  1
  Sm3+  Sm60  1  0.63206843  0.74303726  0.93994765  1
  Sm3+  Sm61  1  0.12359001  -0.00731337  0.94299990  1
  Sm3+  Sm62  1  0.36882802  0.51415186  0.45384970  1
  Sm3+  Sm63  1  0.24267836  0.89284395  0.54868008  1
  Bi2+  Bi64  1  0.02059743  0.09499272  0.28797802  1
  Bi2+  Bi65  1  0.02189603  0.14343468  0.79422192  1
  Bi2+  Bi66  1  -0.00823386  0.39701879  0.27505259  1
  Bi2+  Bi67  1  0.00317925  0.34657624  0.78380836  1
  Bi2+  Bi68  1  0.01299882  0.59213298  0.29668878  1
  Bi2+  Bi69  1  0.04569820  0.61210654  0.80481719  1
  Bi2+  Bi70  1  -0.02652581  0.84289656  0.28362671  1
  Bi2+  Bi71  1  0.02505057  0.88527727  0.77322128  1
  Bi2+  Bi72  1  0.27450798  0.11889784  0.29028590  1
  Bi2+  Bi73  1  0.25969406  0.11683391  0.78737236  1
  Bi2+  Bi74  1  0.25356493  0.39348535  0.28717712  1
  Bi2+  Bi75  1  0.26251435  0.43085523  0.81824643  1
  Bi2+  Bi76  1  0.28321480  0.62681479  0.28704115  1
  Bi2+  Bi77  1  0.24694595  0.62247375  0.84793558  1
  Bi2+  Bi78  1  0.25251518  0.90063899  0.30074203  1
  Bi2+  Bi79  1  0.26904200  0.91790587  0.77834567  1
  Bi2+  Bi80  1  0.48798654  0.17337736  0.26866709  1
  Bi2+  Bi81  1  0.48464311  0.13179103  0.78554118  1
  Bi2+  Bi82  1  0.47297932  0.37798395  0.28424187  1
  Bi2+  Bi83  1  0.56232413  0.37185351  0.79882448  1
  Bi2+  Bi84  1  0.57313884  0.63367850  0.31559504  1
  Bi2+  Bi85  1  0.43332368  0.63923367  0.80575857  1
  Bi2+  Bi86  1  0.50200289  0.80765280  0.28134816  1
  Bi2+  Bi87  1  0.47427251  0.89562296  0.77720592  1
  Bi2+  Bi88  1  0.75060716  0.11948169  0.28959929  1
  Bi2+  Bi89  1  0.73910517  0.14610155  0.78645957  1
  Bi2+  Bi90  1  0.74053734  0.42400526  0.29200069  1
  Bi2+  Bi91  1  0.80465590  0.33548574  0.76867868  1
  Bi2+  Bi92  1  0.77528225  0.63316506  0.30119904  1
  Bi2+  Bi93  1  0.74199100  0.61235909  0.80046236  1
  Bi2+  Bi94  1  0.75734296  0.83274405  0.29712096  1
  Bi2+  Bi95  1  0.75436398  0.86972073  0.78581433  1
  Bi2+  Bi96  1  0.14069523  -0.01331058  0.22199925  1
  Bi2+  Bi97  1  0.15005669  0.05715055  0.69840988  1
  Bi2+  Bi98  1  0.14012517  0.25282837  0.21510004  1
  Bi2+  Bi99  1  0.12212924  0.26293489  0.70739274  1
  Bi2+  Bi100  1  0.12710746  0.49188601  0.20568067  1
  Bi2+  Bi101  1  0.18020754  0.51179665  0.72506713  1
  Bi2+  Bi102  1  0.09411548  0.72490880  0.22190691  1
  Bi2+  Bi103  1  0.21119092  0.73286862  0.74673703  1
  Bi2+  Bi104  1  0.34465522  -0.02788680  0.20791155  1
  Bi2+  Bi105  1  0.36768506  -0.01775286  0.67964364  1
  Bi2+  Bi106  1  0.33742016  0.26624341  0.21255841  1
  Bi2+  Bi107  1  0.38562359  0.30675386  0.76890769  1
  Bi2+  Bi108  1  0.44511634  0.55664452  0.23697070  1
  Bi2+  Bi109  1  0.38283181  0.50031234  0.72203572  1
  Bi2+  Bi110  1  0.37442467  0.75019292  0.19914502  1
  Bi2+  Bi111  1  0.37815308  0.69447651  0.69151967  1
  Bi2+  Bi112  1  0.58710740  -0.01974813  0.19616422  1
  Bi2+  Bi113  1  0.61818506  0.00120050  0.68860531  1
  Bi2+  Bi114  1  0.61851754  0.27657327  0.20794987  1
  Bi2+  Bi115  1  0.64714073  0.26762537  0.70988343  1
  Bi2+  Bi116  1  0.65022312  0.47384884  0.19481712  1
  Bi2+  Bi117  1  0.58596531  0.48124843  0.70396671  1
  Bi2+  Bi118  1  0.65762203  0.72528471  0.22176098  1
  Bi2+  Bi119  1  0.55732062  0.73110407  0.73864187  1
  Bi2+  Bi120  1  0.86750068  -0.05352579  0.20764728  1
  Bi2+  Bi121  1  0.84567018  0.02745408  0.67758687  1
  Bi2+  Bi122  1  0.87852999  0.25768707  0.21840168  1
  Bi2+  Bi123  1  0.92570548  0.23097636  0.69225374  1
  Bi2+  Bi124  1  0.88045715  0.56480999  0.20955409  1
  Bi2+  Bi125  1  0.87935977  0.48960247  0.70670763  1
  Bi2+  Bi126  1  0.91592187  0.75014393  0.17525209  1
  Bi2+  Bi127  1  0.93627933  0.71994605  0.73019180  1
  S2-  S128  1  -0.14373121  0.12255079  0.16451746  1
  S2-  S129  1  0.00440788  0.03699327  0.63908032  1
  S2-  S130  1  0.00932632  0.27146123  0.15208569  1
  S2-  S131  1  -0.02898585  0.37910595  0.64832585  1
  S2-  S132  1  -0.01165033  0.48779947  0.14187182  1
  S2-  S133  1  -0.02289814  0.59642723  0.66182430  1
  S2-  S134  1  0.01568592  0.95166898  0.15054955  1
  S2-  S135  1  0.00869421  0.82668439  0.67120198  1
  S2-  S136  1  0.16206905  0.11906302  0.15338615  1
  S2-  S137  1  0.28936608  0.13729402  0.66284646  1
  S2-  S138  1  0.24250371  0.38505528  0.15192819  1
  S2-  S139  1  0.22556982  0.37648291  0.66394368  1
  S2-  S140  1  0.14502451  0.62715588  0.14435722  1
  S2-  S141  1  0.20082879  0.65183293  0.65828901  1
  S2-  S142  1  0.25901277  0.84436981  0.15133933  1
  S2-  S143  1  0.22933118  0.91269480  0.64532181  1
  S2-  S144  1  0.38877857  0.08382261  0.13850974  1
  S2-  S145  1  0.49995873  0.10324286  0.66149343  1
  S2-  S146  1  0.51797162  0.37642681  0.15099413  1
  S2-  S147  1  0.51262868  0.34103149  0.65991002  1
  S2-  S148  1  0.38831139  0.60553501  0.13943191  1
  S2-  S149  1  0.58609950  0.63964388  0.64992192  1
  S2-  S150  1  0.50969346  0.85059697  0.15193922  1
  S2-  S151  1  0.51623326  0.88511906  0.65112700  1
  S2-  S152  1  0.62084085  0.12259014  0.14750328  1
  S2-  S153  1  0.71728171  0.13611644  0.64548285  1
  S2-  S154  1  0.77530825  0.35456738  0.16004942  1
  S2-  S155  1  0.73804535  0.46430235  0.64432469  1
  S2-  S156  1  0.63843582  0.61715148  0.13836396  1
  S2-  S157  1  0.78399460  0.66596864  0.70194156  1
  S2-  S158  1  0.72443266  0.92698548  0.15328475  1
  S2-  S159  1  0.74974110  0.88807063  0.65887417  1
  S2-  S160  1  0.00687881  -0.02788397  0.35752500  1
  S2-  S161  1  0.05449359  -0.00602721  0.85029285  1
  S2-  S162  1  0.14217572  0.14380238  0.35737602  1
  S2-  S163  1  0.14701792  0.21794621  0.84379208  1
  S2-  S164  1  0.12162250  0.36601850  0.34878281  1
  S2-  S165  1  0.01346413  0.46491659  0.85740435  1
  S2-  S166  1  0.15137737  0.65758836  0.35023016  1
  S2-  S167  1  0.08148851  0.76487795  0.84598682  1
  S2-  S168  1  0.37747668  0.00439588  0.34072943  1
  S2-  S169  1  0.51931323  0.00434246  0.85003192  1
  S2-  S170  1  0.42209818  0.26375895  0.35902284  1
  S2-  S171  1  0.37262370  0.15060151  0.86187881  1
  S2-  S172  1  0.30990856  0.50613996  0.36205442  1
  S2-  S173  1  0.50511775  0.50461029  0.85704682  1
  S2-  S174  1  0.35337378  0.76528773  0.33898595  1
  S2-  S175  1  0.36809720  0.84810778  0.85368909  1
  S2-  S176  1  0.59438930  0.10932462  0.33838682  1
  S2-  S177  1  0.72815762  -0.00206685  0.84481638  1
  S2-  S178  1  0.73637430  0.26811868  0.33581941  1
  S2-  S179  1  0.61189795  0.21369779  0.84473280  1
  S2-  S180  1  0.59684504  0.42791735  0.35317209  1
  S2-  S181  1  0.74544565  0.47696025  0.85233112  1
  S2-  S182  1  0.61040441  0.86259149  0.35481483  1
  S2-  S183  1  0.65513172  0.75163871  0.84152055  1
  S2-  S184  1  0.76933315  -0.00937625  0.34632359  1
  S2-  S185  1  0.88946798  -0.02023354  0.76514216  1
  S2-  S186  1  0.90083734  0.15676489  0.34138773  1
  S2-  S187  1  0.87186879  0.16650305  0.85137016  1
  S2-  S188  1  0.87868492  0.41722581  0.35303768  1
  S2-  S189  1  0.88036206  0.63114883  0.85169556  1
  S2-  S190  1  0.96072688  0.75059330  0.36597697  1
  S2-  S191  1  0.87460610  0.84102807  0.84690165  1
  S2-  S192  1  -0.00822000  0.14862745  0.45487444  1
  S2-  S193  1  0.00298745  0.11322945  0.95246079  1
  S2-  S194  1  0.00073427  0.39254975  0.45071701  1
  S2-  S195  1  0.00364969  0.36571777  0.96005708  1
  S2-  S196  1  0.00279303  0.62690945  0.45964926  1
  S2-  S197  1  0.00595715  0.61842462  0.95961612  1
  S2-  S198  1  -0.00491721  0.88884002  0.46668367  1
  S2-  S199  1  0.00357442  0.86861423  0.95756145  1
  S2-  S200  1  0.24941810  0.14320028  0.45929418  1
  S2-  S201  1  0.25124667  0.11359616  0.95993388  1
  S2-  S202  1  0.24595698  0.38873755  0.46061889  1
  S2-  S203  1  0.25664009  0.36510348  0.94986348  1
  S2-  S204  1  0.24315539  0.63740185  0.46048974  1
  S2-  S205  1  0.25405770  0.61814713  0.96040044  1
  S2-  S206  1  0.23910304  0.89014880  0.44479736  1
  S2-  S207  1  0.24598218  0.86724485  0.94840546  1
  S2-  S208  1  0.49663165  0.14180941  0.45541135  1
  S2-  S209  1  0.50510444  0.11883596  0.96064272  1
  S2-  S210  1  0.49244878  0.39187826  0.46018970  1
  S2-  S211  1  0.50127449  0.36132398  0.94917440  1
  S2-  S212  1  0.49240782  0.63773492  0.45540835  1
  S2-  S213  1  0.50486760  0.62273824  0.95751871  1
  S2-  S214  1  0.49061781  0.88988307  0.44904447  1
  S2-  S215  1  0.50763761  0.86346496  0.94857629  1
  S2-  S216  1  0.74082262  0.14442818  0.44291891  1
  S2-  S217  1  0.75717228  0.11404500  0.95941329  1
  S2-  S218  1  0.74106507  0.39257644  0.45226340  1
  S2-  S219  1  0.75663796  0.36659202  0.95359122  1
  S2-  S220  1  0.74389286  0.63657221  0.44275394  1
  S2-  S221  1  0.75291651  0.62044180  0.95688903  1
  S2-  S222  1  0.75005795  0.88569594  0.45481523  1
  S2-  S223  1  0.75566224  0.86580439  0.95317012  1
  S2-  S224  1  0.12974204  -0.00780772  0.04637471  1
  S2-  S225  1  0.12186396  0.01828602  0.53825288  1
  S2-  S226  1  0.13366863  0.24154832  0.04877802  1
  S2-  S227  1  0.11843512  0.26769109  0.54705590  1
  S2-  S228  1  0.13348679  0.49120166  0.04130038  1
  S2-  S229  1  0.12167471  0.51496353  0.55661153  1
  S2-  S230  1  0.12751148  0.74663073  0.04565727  1
  S2-  S231  1  0.12177566  0.76603388  0.54545846  1
  S2-  S232  1  0.37993558  -0.01153638  0.03213314  1
  S2-  S233  1  0.37075385  0.01555191  0.54397299  1
  S2-  S234  1  0.37938173  0.24527246  0.04969886  1
  S2-  S235  1  0.37260214  0.26725974  0.55630887  1
  S2-  S236  1  0.37988345  0.48913575  0.03659587  1
  S2-  S237  1  0.36966283  0.51742049  0.55871194  1
  S2-  S238  1  0.38155153  0.74479019  0.03978947  1
  S2-  S239  1  0.36728655  0.76784175  0.54671408  1
  S2-  S240  1  0.63120849  -0.00773665  0.04089518  1
  S2-  S241  1  0.62136625  0.01486513  0.53627392  1
  S2-  S242  1  0.63220973  0.24504360  0.04840944  1
  S2-  S243  1  0.62244004  0.27032300  0.55001250  1
  S2-  S244  1  0.63039619  0.49271487  0.03804436  1
  S2-  S245  1  0.62248837  0.51943279  0.54247545  1
  S2-  S246  1  0.63130023  0.74693267  0.04409903  1
  S2-  S247  1  0.62420625  0.76345379  0.54409225  1
  S2-  S248  1  0.88389429  -0.00508904  0.05534829  1
  S2-  S249  1  0.86724748  0.01696185  0.53920915  1
  S2-  S250  1  0.88034526  0.24088521  0.05044090  1
  S2-  S251  1  0.86801121  0.27124260  0.54022952  1
  S2-  S252  1  0.87802429  0.49699789  0.04039828  1
  S2-  S253  1  0.86843851  0.51916202  0.54402630  1
  S2-  S254  1  0.88218238  0.74077249  0.04430136  1
  S2-  S255  1  0.86536076  0.75742090  0.55899085  1
