# generated using pymatgen
data_La6Ce6Pr19Nd20Sm13(BiS2)64
_symmetry_space_group_name_H-M   'P 1'
_cell_length_a   16.16829498
_cell_length_b   16.13244538
_cell_length_c   27.26631314
_cell_angle_alpha   89.91096949
_cell_angle_beta   90.06741095
_cell_angle_gamma   89.85503059
_symmetry_Int_Tables_number   1
_chemical_formula_structural   La6Ce6Pr19Nd20Sm13(BiS2)64
_chemical_formula_sum   'La6 Ce6 Pr19 Nd20 Sm13 Bi64 S128'
_cell_volume   7111.94891451
_cell_formula_units_Z   1
loop_
 _symmetry_equiv_pos_site_id
 _symmetry_equiv_pos_as_xyz
  1  'x, y, z'
loop_
 _atom_type_symbol
 _atom_type_oxidation_number
  La3+  3.0
  Ce3+  3.0
  Pr3+  3.0
  Nd3+  3.0
  Sm3+  3.0
  Bi2+  2.0
  S2-  -2.0
loop_
 _atom_site_type_symbol
 _atom_site_label
 _atom_site_symmetry_multiplicity
 _atom_site_fract_x
 _atom_site_fract_y
 _atom_site_fract_z
 _atom_site_occupancy
  La3+  La0  1  0.75546887  0.13164410  0.56274907  1
  La3+  La1  1  0.76411453  0.12489907  0.08270222  1
  La3+  La2  1  0.12207710  0.49083184  0.89133763  1
  La3+  La3  1  0.61971661  -0.00134494  0.38836440  1
  La3+  La4  1  0.49930370  0.37556078  0.57563721  1
  La3+  La5  1  0.38721721  0.75731133  0.91240477  1
  Ce3+  Ce6  1  0.63109573  0.24960004  0.95260694  1
  Ce3+  Ce7  1  -0.00124031  0.12943103  0.55691519  1
  Ce3+  Ce8  1  0.00617616  0.87593147  0.06225467  1
  Ce3+  Ce9  1  -0.00169295  0.88405641  0.56099023  1
  Ce3+  Ce10  1  0.88150976  0.25209955  0.94816331  1
  Ce3+  Ce11  1  0.37418857  0.00581846  0.43439310  1
  Pr3+  Pr12  1  0.25900878  0.63828673  0.58088336  1
  Pr3+  Pr13  1  0.12864772  0.00173582  0.43392893  1
  Pr3+  Pr14  1  0.37620387  0.75743878  0.43817332  1
  Pr3+  Pr15  1  0.75053473  0.88452389  0.55249056  1
  Pr3+  Pr16  1  0.38691844  0.00093463  0.93306811  1
  Pr3+  Pr17  1  0.87390998  0.00424438  0.41657845  1
  Pr3+  Pr18  1  0.62413883  0.50137039  0.93628439  1
  Pr3+  Pr19  1  0.87675692  0.25324272  0.42943029  1
  Pr3+  Pr20  1  0.62659561  0.75405699  0.43785641  1
  Pr3+  Pr21  1  0.75304267  0.38016166  0.05786251  1
  Pr3+  Pr22  1  0.12656060  0.25911528  0.43675568  1
  Pr3+  Pr23  1  0.62604803  0.25315746  0.43182700  1
  Pr3+  Pr24  1  0.01098529  0.38189754  0.06418213  1
  Pr3+  Pr25  1  0.00004039  0.62858574  0.56132427  1
  Pr3+  Pr26  1  0.37913229  0.49791807  0.93226124  1
  Pr3+  Pr27  1  0.75233969  0.62844903  0.55755421  1
  Pr3+  Pr28  1  0.25809565  0.12496935  0.06182665  1
  Pr3+  Pr29  1  0.25235950  0.88403359  0.56899573  1
  Pr3+  Pr30  1  0.12724330  0.74759707  0.93363381  1
  Nd3+  Nd31  1  0.25162867  0.12980041  0.55574942  1
  Nd3+  Nd32  1  0.63124017  0.75670722  0.93875205  1
  Nd3+  Nd33  1  0.64140469  0.01397187  0.93591200  1
  Nd3+  Nd34  1  0.88391803  0.00214541  0.94298808  1
  Nd3+  Nd35  1  0.50401917  0.87200537  0.06421296  1
  Nd3+  Nd36  1  0.01108427  0.62335318  0.06557686  1
  Nd3+  Nd37  1  0.12797968  0.51070991  0.44503581  1
  Nd3+  Nd38  1  0.62374581  0.50010236  0.43471763  1
  Nd3+  Nd39  1  0.00237636  0.38023407  0.55838703  1
  Nd3+  Nd40  1  0.88011335  0.50252602  0.93978030  1
  Nd3+  Nd41  1  0.50652555  0.37474537  0.07123168  1
  Nd3+  Nd42  1  0.37862528  0.26082174  0.43300733  1
  Nd3+  Nd43  1  0.50283711  0.62961986  0.55833077  1
  Nd3+  Nd44  1  0.25791138  0.37995938  0.05663954  1
  Nd3+  Nd45  1  0.50299355  0.88396123  0.56157599  1
  Nd3+  Nd46  1  0.75268474  0.38024778  0.55496616  1
  Nd3+  Nd47  1  0.50559898  0.11848874  0.07622038  1
  Nd3+  Nd48  1  0.50736295  0.13210223  0.55893035  1
  Nd3+  Nd49  1  0.13210716  0.24344019  0.93618999  1
  Nd3+  Nd50  1  0.25607367  0.87409059  0.05299314  1
  Sm3+  Sm51  1  0.87988426  0.75128149  0.94689469  1
  Sm3+  Sm52  1  0.25199139  0.37726019  0.55966525  1
  Sm3+  Sm53  1  0.12663284  0.75432801  0.44991501  1
  Sm3+  Sm54  1  0.75490495  0.62682100  0.05715016  1
  Sm3+  Sm55  1  0.87598449  0.75745284  0.44075906  1
  Sm3+  Sm56  1  0.50221905  0.63143834  0.05984999  1
  Sm3+  Sm57  1  0.00806084  0.13488044  0.07414582  1
  Sm3+  Sm58  1  0.75689844  0.87519223  0.05838492  1
  Sm3+  Sm59  1  0.87572644  0.50244337  0.43015930  1
  Sm3+  Sm60  1  0.13098031  0.00578204  0.94548031  1
  Sm3+  Sm61  1  0.38541203  0.24966002  0.94764672  1
  Sm3+  Sm62  1  0.37618288  0.50526937  0.44891178  1
  Sm3+  Sm63  1  0.25878772  0.62737001  0.04491728  1
  Bi2+  Bi64  1  -0.04257817  0.13035577  0.25165965  1
  Bi2+  Bi65  1  -0.00365172  0.10613521  0.76504696  1
  Bi2+  Bi66  1  0.00942565  0.41152403  0.28706597  1
  Bi2+  Bi67  1  -0.00917826  0.35333734  0.78765300  1
  Bi2+  Bi68  1  -0.03152478  0.61490984  0.29790066  1
  Bi2+  Bi69  1  -0.09502295  0.63669257  0.81050259  1
  Bi2+  Bi70  1  0.01673900  0.90682285  0.30292988  1
  Bi2+  Bi71  1  0.04964300  0.95170458  0.82916329  1
  Bi2+  Bi72  1  0.25649111  0.12622072  0.29396069  1
  Bi2+  Bi73  1  0.26819430  0.10818863  0.79052788  1
  Bi2+  Bi74  1  0.19257170  0.33717766  0.28479405  1
  Bi2+  Bi75  1  0.25658828  0.36213526  0.78849555  1
  Bi2+  Bi76  1  0.17859865  0.62447674  0.29987357  1
  Bi2+  Bi77  1  0.22431157  0.61987069  0.77991017  1
  Bi2+  Bi78  1  0.23611178  0.86799611  0.28794897  1
  Bi2+  Bi79  1  0.22614310  0.91342473  0.77917393  1
  Bi2+  Bi80  1  0.50050758  0.12621753  0.27576006  1
  Bi2+  Bi81  1  0.45987138  0.06346762  0.75038155  1
  Bi2+  Bi82  1  0.47190138  0.37607966  0.29445035  1
  Bi2+  Bi83  1  0.52481192  0.32297476  0.81002310  1
  Bi2+  Bi84  1  0.53514444  0.61478553  0.31341095  1
  Bi2+  Bi85  1  0.52501750  0.59517581  0.78663882  1
  Bi2+  Bi86  1  0.48165223  0.86548864  0.28540055  1
  Bi2+  Bi87  1  0.49079731  0.86637874  0.78813214  1
  Bi2+  Bi88  1  0.76100622  0.13352981  0.28415442  1
  Bi2+  Bi89  1  0.75392996  0.17754971  0.80397471  1
  Bi2+  Bi90  1  0.74198562  0.38857630  0.29312144  1
  Bi2+  Bi91  1  0.71059852  0.36928332  0.79021468  1
  Bi2+  Bi92  1  0.73927625  0.57945253  0.33180570  1
  Bi2+  Bi93  1  0.72480793  0.55822524  0.82591073  1
  Bi2+  Bi94  1  0.75473452  0.76483948  0.29502969  1
  Bi2+  Bi95  1  0.73398457  0.91220944  0.79877090  1
  Bi2+  Bi96  1  0.12375576  0.00833661  0.22737632  1
  Bi2+  Bi97  1  0.17354405  0.03694306  0.68905367  1
  Bi2+  Bi98  1  0.13894653  0.20635827  0.20404083  1
  Bi2+  Bi99  1  0.11657313  0.22301559  0.71077670  1
  Bi2+  Bi100  1  0.16173231  0.51942728  0.20200769  1
  Bi2+  Bi101  1  0.12618121  0.46328675  0.67528285  1
  Bi2+  Bi102  1  0.07381626  0.70037317  0.21010144  1
  Bi2+  Bi103  1  0.05868954  0.81167786  0.75243193  1
  Bi2+  Bi104  1  0.33788659  -0.00475657  0.20101115  1
  Bi2+  Bi105  1  0.35361697  -0.04409430  0.67953311  1
  Bi2+  Bi106  1  0.37667468  0.31330475  0.20217015  1
  Bi2+  Bi107  1  0.37419578  0.22731823  0.72157636  1
  Bi2+  Bi108  1  0.36223655  0.56667637  0.26684546  1
  Bi2+  Bi109  1  0.39798203  0.49699980  0.70421631  1
  Bi2+  Bi110  1  0.35240372  0.72510480  0.20081762  1
  Bi2+  Bi111  1  0.39899294  0.76633124  0.70439759  1
  Bi2+  Bi112  1  0.65290207  -0.01955225  0.17895405  1
  Bi2+  Bi113  1  0.63898275  -0.02962478  0.69716426  1
  Bi2+  Bi114  1  0.62182946  0.29986267  0.20381110  1
  Bi2+  Bi115  1  0.61895136  0.26113776  0.69802832  1
  Bi2+  Bi116  1  0.64045380  0.54105215  0.22778272  1
  Bi2+  Bi117  1  0.68556916  0.53393310  0.70883708  1
  Bi2+  Bi118  1  0.58868319  0.73258947  0.22491169  1
  Bi2+  Bi119  1  0.66133848  0.72495324  0.76557110  1
  Bi2+  Bi120  1  0.91033245  -0.05399034  0.20887432  1
  Bi2+  Bi121  1  0.90333972  -0.01783731  0.69891057  1
  Bi2+  Bi122  1  0.89218091  0.30947820  0.21385212  1
  Bi2+  Bi123  1  0.86872632  0.24927334  0.70545337  1
  Bi2+  Bi124  1  0.88750834  0.50714142  0.20833087  1
  Bi2+  Bi125  1  0.88339521  0.53961277  0.70859162  1
  Bi2+  Bi126  1  0.86983775  0.70222531  0.20861898  1
  Bi2+  Bi127  1  0.86442713  0.78970005  0.74503327  1
  S2-  S128  1  -0.09532127  0.08888350  0.14988828  1
  S2-  S129  1  -0.11016568  0.12485817  0.63468576  1
  S2-  S130  1  0.02345455  0.26953024  0.14292522  1
  S2-  S131  1  -0.00024514  0.33885966  0.65587139  1
  S2-  S132  1  0.01754870  0.50481845  0.14022184  1
  S2-  S133  1  0.01700506  0.60076085  0.66027295  1
  S2-  S134  1  0.02966197  0.85016168  0.15713611  1
  S2-  S135  1  0.02762410  0.87843829  0.65768918  1
  S2-  S136  1  0.28967786  0.14085077  0.15969628  1
  S2-  S137  1  0.24959839  0.18813503  0.64947408  1
  S2-  S138  1  0.25137062  0.38123309  0.15675606  1
  S2-  S139  1  0.28554364  0.39195270  0.65577575  1
  S2-  S140  1  0.27112433  0.62179729  0.14413054  1
  S2-  S141  1  0.24006094  0.58108878  0.67611693  1
  S2-  S142  1  0.27701860  0.86405112  0.15207043  1
  S2-  S143  1  0.26257395  0.77796429  0.64887064  1
  S2-  S144  1  0.49764554  0.19794533  0.16914882  1
  S2-  S145  1  0.48113644  0.23647935  0.63919601  1
  S2-  S146  1  0.49679994  0.42344682  0.16616352  1
  S2-  S147  1  0.53579134  0.43478058  0.67065007  1
  S2-  S148  1  0.49229117  0.74161413  0.13654778  1
  S2-  S149  1  0.45866087  0.63375683  0.65436491  1
  S2-  S150  1  0.49072497  0.98132833  0.14246353  1
  S2-  S151  1  0.54866497  0.85211091  0.65726395  1
  S2-  S152  1  0.70338538  0.14763259  0.18047147  1
  S2-  S153  1  0.65413661  0.12529663  0.64894543  1
  S2-  S154  1  0.75262827  0.36577039  0.15740822  1
  S2-  S155  1  0.75905169  0.33354079  0.65174984  1
  S2-  S156  1  0.73807518  0.61858193  0.15406370  1
  S2-  S157  1  0.78386179  0.64699203  0.65533629  1
  S2-  S158  1  0.77062088  0.87029963  0.15665546  1
  S2-  S159  1  0.77760119  0.90103790  0.65220713  1
  S2-  S160  1  0.24742536  -0.00305892  0.35995673  1
  S2-  S161  1  0.13875544  0.10611590  0.86472612  1
  S2-  S162  1  0.12702009  0.20644843  0.34078542  1
  S2-  S163  1  0.12767303  0.32605179  0.84883021  1
  S2-  S164  1  0.14455294  0.46969470  0.34980247  1
  S2-  S165  1  0.11762915  0.47267338  0.77117574  1
  S2-  S166  1  0.13013699  0.79297985  0.35402225  1
  S2-  S167  1  0.10836475  0.66008315  0.84764060  1
  S2-  S168  1  0.45731383  0.00596145  0.34720491  1
  S2-  S169  1  0.36524164  -0.09565774  0.85028692  1
  S2-  S170  1  0.39138191  0.22692195  0.33517259  1
  S2-  S171  1  0.37983181  0.27193739  0.84975809  1
  S2-  S172  1  0.37479454  0.45727656  0.35410716  1
  S2-  S173  1  0.28244014  0.49081015  0.84477168  1
  S2-  S174  1  0.36026870  0.78386494  0.33821911  1
  S2-  S175  1  0.34369793  0.70063393  0.81349812  1
  S2-  S176  1  0.59650396  -0.00690260  0.26793314  1
  S2-  S177  1  0.59213049  -0.03684808  0.84512883  1
  S2-  S178  1  0.62114469  0.16346703  0.34140611  1
  S2-  S179  1  0.61379826  0.18832569  0.86169865  1
  S2-  S180  1  0.60750033  0.38299557  0.35944112  1
  S2-  S181  1  0.50605496  0.48438412  0.85980899  1
  S2-  S182  1  0.61446677  0.82939260  0.34773483  1
  S2-  S183  1  0.54242346  0.73723183  0.85466166  1
  S2-  S184  1  0.76862016  -0.00029169  0.33423684  1
  S2-  S185  1  0.79477873  0.03529432  0.85985867  1
  S2-  S186  1  0.89484743  0.14696499  0.34880282  1
  S2-  S187  1  0.89376842  0.25491879  0.85049805  1
  S2-  S188  1  0.87982801  0.38207221  0.35687881  1
  S2-  S189  1  0.95654734  0.47898675  0.85171482  1
  S2-  S190  1  0.88808619  0.83369340  0.35349335  1
  S2-  S191  1  0.84918368  0.79185842  0.85294095  1
  S2-  S192  1  0.00736732  0.12807819  0.45158288  1
  S2-  S193  1  0.00413919  0.12579628  0.96644015  1
  S2-  S194  1  0.00492844  0.38628082  0.45318961  1
  S2-  S195  1  0.00780269  0.37688689  0.95750640  1
  S2-  S196  1  -0.00106639  0.63116591  0.45187085  1
  S2-  S197  1  -0.00003293  0.62770350  0.95859885  1
  S2-  S198  1  0.00402828  0.87783452  0.45603003  1
  S2-  S199  1  0.00473874  0.87515060  0.95588991  1
  S2-  S200  1  0.25160044  0.13556083  0.45134808  1
  S2-  S201  1  0.26424229  0.12450267  0.95641008  1
  S2-  S202  1  0.25071935  0.38346298  0.45487686  1
  S2-  S203  1  0.25904542  0.36951704  0.95235926  1
  S2-  S204  1  0.25324530  0.63184359  0.45801820  1
  S2-  S205  1  0.26143483  0.63138962  0.94287922  1
  S2-  S206  1  0.24963631  0.87594586  0.46212951  1
  S2-  S207  1  0.24869250  0.87834091  0.94795688  1
  S2-  S208  1  0.49780981  0.13334433  0.45264641  1
  S2-  S209  1  0.50557663  0.12419175  0.96431006  1
  S2-  S210  1  0.49674054  0.38341970  0.46329629  1
  S2-  S211  1  0.50548701  0.37205386  0.96422495  1
  S2-  S212  1  0.50052994  0.62765624  0.45234623  1
  S2-  S213  1  0.50506041  0.62921274  0.95747663  1
  S2-  S214  1  0.50176608  0.88073370  0.45426094  1
  S2-  S215  1  0.51280072  0.88244900  0.95690986  1
  S2-  S216  1  0.75159208  0.12998507  0.45100669  1
  S2-  S217  1  0.76060506  0.13057355  0.97005307  1
  S2-  S218  1  0.75300674  0.38361560  0.45223088  1
  S2-  S219  1  0.75295002  0.37814802  0.95131853  1
  S2-  S220  1  0.75445201  0.62878833  0.45163490  1
  S2-  S221  1  0.75474798  0.62876936  0.95304706  1
  S2-  S222  1  0.74919496  0.87944233  0.44799535  1
  S2-  S223  1  0.75630746  0.87824893  0.95522252  1
  S2-  S224  1  0.12985079  0.00311392  0.05164771  1
  S2-  S225  1  0.12613883  0.00575697  0.54434503  1
  S2-  S226  1  0.13776022  0.25107573  0.04335396  1
  S2-  S227  1  0.12647534  0.25593145  0.54458273  1
  S2-  S228  1  0.13900349  0.50558570  0.04207461  1
  S2-  S229  1  0.13159333  0.50680820  0.55051824  1
  S2-  S230  1  0.13172251  0.74829295  0.04328269  1
  S2-  S231  1  0.12379097  0.75416798  0.55317315  1
  S2-  S232  1  0.37881167  -0.00185186  0.04057116  1
  S2-  S233  1  0.37832027  0.00825739  0.54449708  1
  S2-  S234  1  0.38417028  0.25056817  0.05247942  1
  S2-  S235  1  0.37077810  0.25518349  0.53985683  1
  S2-  S236  1  0.38494191  0.50408209  0.04522873  1
  S2-  S237  1  0.37351465  0.50635740  0.55230945  1
  S2-  S238  1  0.37851201  0.75330629  0.03227769  1
  S2-  S239  1  0.38102228  0.75711368  0.54521878  1
  S2-  S240  1  0.63722516  0.00120067  0.04775494  1
  S2-  S241  1  0.62576317  0.00563206  0.54687152  1
  S2-  S242  1  0.62998766  0.24865992  0.05828215  1
  S2-  S243  1  0.62897801  0.25799792  0.53942321  1
  S2-  S244  1  0.62588956  0.50732716  0.04822268  1
  S2-  S245  1  0.62698270  0.50463286  0.54604915  1
  S2-  S246  1  0.63512290  0.75091376  0.04481903  1
  S2-  S247  1  0.62744948  0.75372004  0.54584993  1
  S2-  S248  1  0.88211373  -0.00398883  0.04740651  1
  S2-  S249  1  0.87881581  0.00314220  0.53287164  1
  S2-  S250  1  0.88033945  0.25535431  0.05309700  1
  S2-  S251  1  0.88042522  0.25993791  0.53695799  1
  S2-  S252  1  0.87734960  0.50504982  0.04627637  1
  S2-  S253  1  0.87773500  0.50357393  0.54078337  1
  S2-  S254  1  0.88093010  0.74825376  0.05190715  1
  S2-  S255  1  0.87654927  0.75523662  0.54586477  1
