# generated using pymatgen
data_La6Ce6Pr19Nd20Sm13(BiS2)64
_symmetry_space_group_name_H-M   'P 1'
_cell_length_a   16.12757429
_cell_length_b   16.10841725
_cell_length_c   27.32871540
_cell_angle_alpha   89.79450112
_cell_angle_beta   90.20929058
_cell_angle_gamma   89.99190060
_symmetry_Int_Tables_number   1
_chemical_formula_structural   La6Ce6Pr19Nd20Sm13(BiS2)64
_chemical_formula_sum   'La6 Ce6 Pr19 Nd20 Sm13 Bi64 S128'
_cell_volume   7099.62554555
_cell_formula_units_Z   1
loop_
 _symmetry_equiv_pos_site_id
 _symmetry_equiv_pos_as_xyz
  1  'x, y, z'
loop_
 _atom_type_symbol
 _atom_type_oxidation_number
  La3+  3.0
  Ce3+  3.0
  Pr3+  3.0
  Nd3+  3.0
  Sm3+  3.0
  Bi2+  2.0
  S2-  -2.0
loop_
 _atom_site_type_symbol
 _atom_site_label
 _atom_site_symmetry_multiplicity
 _atom_site_fract_x
 _atom_site_fract_y
 _atom_site_fract_z
 _atom_site_occupancy
  La3+  La0  1  0.25062152  0.38577001  0.11008342  1
  La3+  La1  1  0.86721842  0.75927754  0.41151707  1
  La3+  La2  1  0.23410936  0.36271647  0.61284476  1
  La3+  La3  1  0.13160059  0.51214325  0.91337657  1
  La3+  La4  1  0.11510619  0.50118811  0.42714480  1
  La3+  La5  1  0.50656669  0.37538097  0.07717667  1
  Ce3+  Ce6  1  0.87138753  0.50224752  0.43560171  1
  Ce3+  Ce7  1  0.49944052  0.12997797  0.06509121  1
  Ce3+  Ce8  1  0.75366862  0.12872115  0.05507134  1
  Ce3+  Ce9  1  0.24637263  0.12805510  0.55338696  1
  Ce3+  Ce10  1  0.25082483  0.87950023  0.06282875  1
  Ce3+  Ce11  1  0.74997151  0.37556579  0.55928359  1
  Pr3+  Pr12  1  0.36989419  0.50233762  0.43250362  1
  Pr3+  Pr13  1  0.00327760  0.88422482  0.06014752  1
  Pr3+  Pr14  1  0.49762762  0.87539136  0.56456270  1
  Pr3+  Pr15  1  0.50104006  0.88404293  0.06549178  1
  Pr3+  Pr16  1  0.37385110  0.75340129  0.42953082  1
  Pr3+  Pr17  1  0.00198958  0.62273248  0.55803621  1
  Pr3+  Pr18  1  0.37578365  0.50469539  0.94011688  1
  Pr3+  Pr19  1  0.12652774  0.25675330  0.93485076  1
  Pr3+  Pr20  1  0.74584944  0.11817430  0.57230447  1
  Pr3+  Pr21  1  0.49211896  0.37856514  0.56249027  1
  Pr3+  Pr22  1  0.75261297  0.62724095  0.05991242  1
  Pr3+  Pr23  1  0.62493481  0.00426498  0.92790516  1
  Pr3+  Pr24  1  0.12837252  0.76225013  0.93067788  1
  Pr3+  Pr25  1  0.00234931  0.13019723  0.05328025  1
  Pr3+  Pr26  1  0.62388455  0.25046437  0.44157729  1
  Pr3+  Pr27  1  0.00623725  0.62932970  0.06079334  1
  Pr3+  Pr28  1  0.75217746  0.87996200  0.06284992  1
  Pr3+  Pr29  1  0.75863950  0.86457533  0.58075128  1
  Pr3+  Pr30  1  0.49243174  0.12965304  0.56009601  1
  Nd3+  Nd31  1  0.37981847  0.00630572  0.93914408  1
  Nd3+  Nd32  1  0.62327605  0.50341171  0.93240247  1
  Nd3+  Nd33  1  0.87126757  0.00348407  0.92498644  1
  Nd3+  Nd34  1  0.24887567  0.87038560  0.56693694  1
  Nd3+  Nd35  1  0.87762583  0.75303199  0.93826209  1
  Nd3+  Nd36  1  -0.00163703  0.87451100  0.56421409  1
  Nd3+  Nd37  1  0.86973991  0.00002951  0.44405072  1
  Nd3+  Nd38  1  0.25074438  0.63236293  0.06526573  1
  Nd3+  Nd39  1  0.75198346  0.37793709  0.06269555  1
  Nd3+  Nd40  1  0.75047971  0.62702179  0.55776525  1
  Nd3+  Nd41  1  0.50030093  0.62574220  0.06171212  1
  Nd3+  Nd42  1  0.62281446  0.50174903  0.44297722  1
  Nd3+  Nd43  1  0.12147919  -0.00265220  0.43947638  1
  Nd3+  Nd44  1  0.87528229  0.25766982  0.93793292  1
  Nd3+  Nd45  1  0.37335611  0.00075917  0.44103005  1
  Nd3+  Nd46  1  0.12405503  0.00832918  0.91939355  1
  Nd3+  Nd47  1  0.12083423  0.25023895  0.43664805  1
  Nd3+  Nd48  1  0.01196979  0.38137010  0.05311052  1
  Nd3+  Nd49  1  0.12119992  0.75143556  0.44134583  1
  Nd3+  Nd50  1  0.37442195  0.25184994  0.43304059  1
  Sm3+  Sm51  1  0.24843545  0.62029231  0.55989217  1
  Sm3+  Sm52  1  0.62382116  0.25635965  0.94350303  1
  Sm3+  Sm53  1  0.37631248  0.25746455  0.94710561  1
  Sm3+  Sm54  1  0.62680572  0.75489046  0.94751148  1
  Sm3+  Sm55  1  0.00186752  0.12575242  0.55688647  1
  Sm3+  Sm56  1  0.62469642  -0.00057100  0.44916209  1
  Sm3+  Sm57  1  0.87226511  0.24835722  0.44942066  1
  Sm3+  Sm58  1  0.00018111  0.37711077  0.55812989  1
  Sm3+  Sm59  1  0.37714271  0.75616975  0.94581188  1
  Sm3+  Sm60  1  0.87704998  0.50561005  0.94480484  1
  Sm3+  Sm61  1  0.25051025  0.13310691  0.05951545  1
  Sm3+  Sm62  1  0.49649390  0.62753960  0.55448759  1
  Sm3+  Sm63  1  0.61900532  0.75544594  0.43758490  1
  Bi2+  Bi64  1  -0.03006523  0.09837727  0.28270900  1
  Bi2+  Bi65  1  -0.06180618  0.10649131  0.77485881  1
  Bi2+  Bi66  1  0.00768764  0.35439979  0.29451357  1
  Bi2+  Bi67  1  0.00184278  0.29232836  0.79415403  1
  Bi2+  Bi68  1  0.04757415  0.62753138  0.29807769  1
  Bi2+  Bi69  1  -0.02897901  0.66660841  0.78899195  1
  Bi2+  Bi70  1  0.01088087  0.89366436  0.29697412  1
  Bi2+  Bi71  1  0.02837040  0.88441427  0.78152371  1
  Bi2+  Bi72  1  0.27846694  0.04809330  0.19139167  1
  Bi2+  Bi73  1  0.21281437  0.08765411  0.77203888  1
  Bi2+  Bi74  1  0.25318376  0.37933355  0.32274656  1
  Bi2+  Bi75  1  0.23760200  0.34623511  0.81603479  1
  Bi2+  Bi76  1  0.32763220  0.70557695  0.30055048  1
  Bi2+  Bi77  1  0.25786245  0.64389433  0.79426691  1
  Bi2+  Bi78  1  0.27590834  0.90008914  0.28442502  1
  Bi2+  Bi79  1  0.29398010  0.91065928  0.79069429  1
  Bi2+  Bi80  1  0.48382447  0.14396031  0.28960270  1
  Bi2+  Bi81  1  0.51970155  0.09264788  0.78247198  1
  Bi2+  Bi82  1  0.53082455  0.39141344  0.28912554  1
  Bi2+  Bi83  1  0.49608950  0.33295794  0.80330303  1
  Bi2+  Bi84  1  0.52035595  0.65744225  0.28361964  1
  Bi2+  Bi85  1  0.52439779  0.57177095  0.78003528  1
  Bi2+  Bi86  1  0.49426104  0.91811341  0.29541543  1
  Bi2+  Bi87  1  0.48859075  0.84043617  0.79859784  1
  Bi2+  Bi88  1  0.77795204  0.12042523  0.30102708  1
  Bi2+  Bi89  1  0.68564966  0.18194601  0.75100361  1
  Bi2+  Bi90  1  0.76319679  0.31988025  0.28666199  1
  Bi2+  Bi91  1  0.68636890  0.43888819  0.80754336  1
  Bi2+  Bi92  1  0.72030120  0.61127429  0.29493130  1
  Bi2+  Bi93  1  0.70855965  0.63478836  0.80954174  1
  Bi2+  Bi94  1  0.73967271  0.89543403  0.29412263  1
  Bi2+  Bi95  1  0.70923084  0.90066343  0.78102370  1
  Bi2+  Bi96  1  0.11068071  -0.04347877  0.20133037  1
  Bi2+  Bi97  1  0.13566380  -0.06127318  0.69040601  1
  Bi2+  Bi98  1  0.03943497  0.22631387  0.20543162  1
  Bi2+  Bi99  1  0.09431653  0.20364258  0.70598956  1
  Bi2+  Bi100  1  0.08875672  0.51193865  0.20913731  1
  Bi2+  Bi101  1  0.10840178  0.49580973  0.71330804  1
  Bi2+  Bi102  1  0.17079845  0.75516125  0.23169701  1
  Bi2+  Bi103  1  0.11081475  0.74772936  0.70561732  1
  Bi2+  Bi104  1  0.46271982  -0.00021318  0.17770045  1
  Bi2+  Bi105  1  0.33371110  -0.03582215  0.67933740  1
  Bi2+  Bi106  1  0.38245608  0.26311858  0.21542402  1
  Bi2+  Bi107  1  0.37513217  0.15005989  0.71363694  1
  Bi2+  Bi108  1  0.35807186  0.52637103  0.22041048  1
  Bi2+  Bi109  1  0.37255817  0.49865987  0.70845602  1
  Bi2+  Bi110  1  0.37127408  0.80321339  0.20037321  1
  Bi2+  Bi111  1  0.34286256  0.75884766  0.71975239  1
  Bi2+  Bi112  1  0.63233219  0.05599833  0.22590981  1
  Bi2+  Bi113  1  0.54515840  -0.05026242  0.70538251  1
  Bi2+  Bi114  1  0.66131187  0.25126245  0.19489873  1
  Bi2+  Bi115  1  0.57417843  0.32521375  0.69832199  1
  Bi2+  Bi116  1  0.62910207  0.55373266  0.19871913  1
  Bi2+  Bi117  1  0.66626279  0.49507141  0.69347255  1
  Bi2+  Bi118  1  0.64643889  0.77555918  0.22503695  1
  Bi2+  Bi119  1  0.60438993  0.68949327  0.70120271  1
  Bi2+  Bi120  1  0.84250677  0.01377286  0.20882594  1
  Bi2+  Bi121  1  0.85244547  0.00705852  0.69492573  1
  Bi2+  Bi122  1  0.87747360  0.32832608  0.19026277  1
  Bi2+  Bi123  1  0.84366567  0.30275551  0.72419509  1
  Bi2+  Bi124  1  0.86122865  0.48524065  0.25766985  1
  Bi2+  Bi125  1  0.85439634  0.49623738  0.75503812  1
  Bi2+  Bi126  1  0.88945930  0.74483882  0.20475793  1
  Bi2+  Bi127  1  0.81112043  0.75233418  0.73894876  1
  S2-  S128  1  0.02820991  0.08328037  0.14879749  1
  S2-  S129  1  -0.00770634  0.10874935  0.65444231  1
  S2-  S130  1  0.08391298  0.37952212  0.14404402  1
  S2-  S131  1  0.06411533  0.37354212  0.64970970  1
  S2-  S132  1  -0.00661399  0.62204868  0.16203327  1
  S2-  S133  1  0.01909112  0.61669468  0.66006284  1
  S2-  S134  1  -0.00432575  0.83930040  0.15852542  1
  S2-  S135  1  -0.09432625  0.87316231  0.64775878  1
  S2-  S136  1  0.25835587  0.21085486  0.14830810  1
  S2-  S137  1  0.23982783  0.19177324  0.64404382  1
  S2-  S138  1  0.25516210  0.38179705  0.22729789  1
  S2-  S139  1  0.24142375  0.37848781  0.72419657  1
  S2-  S140  1  0.23581485  0.54945239  0.15519074  1
  S2-  S141  1  0.23413733  0.53057207  0.64548418  1
  S2-  S142  1  0.23725047  0.76311575  0.13810744  1
  S2-  S143  1  0.25174985  0.74183836  0.63607514  1
  S2-  S144  1  0.50644646  0.22350185  0.14764348  1
  S2-  S145  1  0.51623368  0.17328355  0.65592044  1
  S2-  S146  1  0.40935160  0.40494918  0.15921178  1
  S2-  S147  1  0.40391607  0.37543461  0.64847509  1
  S2-  S148  1  0.47858923  0.60755031  0.16016779  1
  S2-  S149  1  0.48074464  0.58837214  0.64967194  1
  S2-  S150  1  0.53603429  0.82977254  0.15941788  1
  S2-  S151  1  0.49853014  0.80358380  0.65549796  1
  S2-  S152  1  0.78905010  0.14785753  0.14950482  1
  S2-  S153  1  0.77153533  0.18064597  0.66490052  1
  S2-  S154  1  0.65203948  0.40062262  0.14329708  1
  S2-  S155  1  0.80694839  0.41918868  0.64821099  1
  S2-  S156  1  0.76704937  0.63707226  0.15934037  1
  S2-  S157  1  0.74836519  0.71792414  0.64315577  1
  S2-  S158  1  0.77836035  0.86565844  0.16223404  1
  S2-  S159  1  0.70608508  0.97696816  0.65285200  1
  S2-  S160  1  0.09657524  0.01748633  0.34189448  1
  S2-  S161  1  0.15269829  -0.12109897  0.85247196  1
  S2-  S162  1  0.12389465  0.25870512  0.33753990  1
  S2-  S163  1  0.14605073  0.17581470  0.84668188  1
  S2-  S164  1  0.18984485  0.53020856  0.33721310  1
  S2-  S165  1  0.09587086  0.43304519  0.82008486  1
  S2-  S166  1  0.11203069  0.77287993  0.34296874  1
  S2-  S167  1  0.11786419  0.65424304  0.85044227  1
  S2-  S168  1  0.37684450  0.01068263  0.34223414  1
  S2-  S169  1  0.48812903  -0.00772275  0.86071662  1
  S2-  S170  1  0.36092850  0.23396508  0.33321290  1
  S2-  S171  1  0.37841131  0.24456269  0.84790826  1
  S2-  S172  1  0.40843581  0.46635115  0.33420822  1
  S2-  S173  1  0.28197393  0.50572417  0.85067695  1
  S2-  S174  1  0.50107333  0.77119165  0.35899387  1
  S2-  S175  1  0.38790880  0.72963247  0.84907602  1
  S2-  S176  1  0.61912874  -0.01433832  0.35162505  1
  S2-  S177  1  0.74500973  0.00149749  0.85285410  1
  S2-  S178  1  0.57934471  0.25051691  0.34414996  1
  S2-  S179  1  0.61610087  0.22727045  0.84693614  1
  S2-  S180  1  0.63003791  0.48231927  0.34430493  1
  S2-  S181  1  0.49621286  0.48417710  0.86409995  1
  S2-  S182  1  0.71745276  0.75926471  0.35706915  1
  S2-  S183  1  0.63459822  0.78669009  0.85106216  1
  S2-  S184  1  0.87489068  -0.08493566  0.35779262  1
  S2-  S185  1  0.98774486  0.00976238  0.85039669  1
  S2-  S186  1  0.88115969  0.24076592  0.35211798  1
  S2-  S187  1  0.86203375  0.22843311  0.84092827  1
  S2-  S188  1  0.96958853  0.49369533  0.35560263  1
  S2-  S189  1  0.89747726  0.53694684  0.84992709  1
  S2-  S190  1  0.91179084  0.71414046  0.30923452  1
  S2-  S191  1  0.90245557  0.79189886  0.84224077  1
  S2-  S192  1  -0.00345117  0.12393038  0.45235502  1
  S2-  S193  1  -0.00245853  0.13112215  0.94826545  1
  S2-  S194  1  -0.00595406  0.37026833  0.45453610  1
  S2-  S195  1  0.00148972  0.38357977  0.94656862  1
  S2-  S196  1  -0.00797688  0.63318988  0.44956421  1
  S2-  S197  1  -0.00077804  0.62894437  0.95423491  1
  S2-  S198  1  -0.00290508  0.87520081  0.45732413  1
  S2-  S199  1  -0.00150053  0.88241052  0.95295946  1
  S2-  S200  1  0.24681183  0.12476364  0.44627965  1
  S2-  S201  1  0.25401607  0.12637626  0.95274732  1
  S2-  S202  1  0.24663216  0.37388429  0.44008521  1
  S2-  S203  1  0.25136279  0.37692733  0.94573774  1
  S2-  S204  1  0.24758965  0.62925425  0.45159052  1
  S2-  S205  1  0.25373755  0.63682871  0.95710580  1
  S2-  S206  1  0.24833775  0.87564181  0.45346447  1
  S2-  S207  1  0.25769065  0.88328657  0.95607085  1
  S2-  S208  1  0.49865006  0.12429826  0.45271718  1
  S2-  S209  1  0.50258275  0.13270719  0.95786210  1
  S2-  S210  1  0.49790887  0.37636753  0.45409691  1
  S2-  S211  1  0.50278414  0.37470025  0.96466089  1
  S2-  S212  1  0.49866039  0.62505957  0.44944446  1
  S2-  S213  1  0.50393957  0.63401668  0.95525726  1
  S2-  S214  1  0.49772039  0.88091263  0.45858505  1
  S2-  S215  1  0.50400532  0.87652453  0.95980216  1
  S2-  S216  1  0.74753085  0.12523690  0.46000537  1
  S2-  S217  1  0.74967910  0.13358918  0.95054523  1
  S2-  S218  1  0.75026917  0.37489933  0.45102830  1
  S2-  S219  1  0.75006098  0.38149353  0.95334501  1
  S2-  S220  1  0.74727819  0.62686239  0.45222857  1
  S2-  S221  1  0.75063923  0.62811158  0.95249460  1
  S2-  S222  1  0.74554932  0.87763489  0.46423740  1
  S2-  S223  1  0.75076847  0.87714870  0.95626758  1
  S2-  S224  1  0.13039609  0.00600543  0.03870684  1
  S2-  S225  1  0.12441881  -0.00130549  0.54696529  1
  S2-  S226  1  0.12845002  0.25242513  0.04053859  1
  S2-  S227  1  0.12081071  0.25270171  0.54292469  1
  S2-  S228  1  0.12955396  0.50745814  0.04119900  1
  S2-  S229  1  0.12334467  0.49751003  0.53709996  1
  S2-  S230  1  0.12303130  0.75813769  0.03830572  1
  S2-  S231  1  0.12180238  0.75104926  0.54538178  1
  S2-  S232  1  0.37339023  0.00682611  0.04497392  1
  S2-  S233  1  0.37008130  0.00031707  0.54679938  1
  S2-  S234  1  0.37366375  0.25520571  0.04868659  1
  S2-  S235  1  0.36887229  0.25373400  0.54017356  1
  S2-  S236  1  0.37364029  0.50568124  0.04755187  1
  S2-  S237  1  0.37457951  0.50637960  0.53808896  1
  S2-  S238  1  0.38148226  0.75593725  0.04875798  1
  S2-  S239  1  0.37483648  0.74956468  0.53750660  1
  S2-  S240  1  0.62767137  0.00596238  0.04773583  1
  S2-  S241  1  0.61642533  0.00290699  0.55065889  1
  S2-  S242  1  0.63109896  0.25114373  0.04609963  1
  S2-  S243  1  0.62423627  0.25182760  0.54833459  1
  S2-  S244  1  0.62768085  0.50622244  0.03887699  1
  S2-  S245  1  0.62304113  0.50258602  0.54832790  1
  S2-  S246  1  0.62738951  0.75241494  0.05126047  1
  S2-  S247  1  0.62136654  0.74951304  0.54251172  1
  S2-  S248  1  0.87608877  0.00382916  0.04133678  1
  S2-  S249  1  0.87575570  0.00374526  0.54817978  1
  S2-  S250  1  0.87963620  0.25933807  0.04406073  1
  S2-  S251  1  0.87744663  0.24899212  0.55331823  1
  S2-  S252  1  0.87885257  0.50104738  0.05037023  1
  S2-  S253  1  0.87552823  0.50100459  0.54120285  1
  S2-  S254  1  0.87741227  0.75443237  0.04596028  1
  S2-  S255  1  0.87840396  0.74647431  0.54134393  1
