# generated using pymatgen
data_La6Ce6Pr19Nd20Sm13(BiS2)64
_symmetry_space_group_name_H-M   'P 1'
_cell_length_a   16.15310112
_cell_length_b   16.11763692
_cell_length_c   27.28597419
_cell_angle_alpha   89.76626195
_cell_angle_beta   90.00402984
_cell_angle_gamma   90.00077709
_symmetry_Int_Tables_number   1
_chemical_formula_structural   La6Ce6Pr19Nd20Sm13(BiS2)64
_chemical_formula_sum   'La6 Ce6 Pr19 Nd20 Sm13 Bi64 S128'
_cell_volume   7103.83931245
_cell_formula_units_Z   1
loop_
 _symmetry_equiv_pos_site_id
 _symmetry_equiv_pos_as_xyz
  1  'x, y, z'
loop_
 _atom_type_symbol
 _atom_type_oxidation_number
  La3+  3.0
  Ce3+  3.0
  Pr3+  3.0
  Nd3+  3.0
  Sm3+  3.0
  Bi2+  2.0
  S2-  -2.0
loop_
 _atom_site_type_symbol
 _atom_site_label
 _atom_site_symmetry_multiplicity
 _atom_site_fract_x
 _atom_site_fract_y
 _atom_site_fract_z
 _atom_site_occupancy
  La3+  La0  1  0.13315220  0.01015931  0.91824862  1
  La3+  La1  1  0.87514185  0.25515002  0.93153422  1
  La3+  La2  1  0.12857377  0.50946852  0.89292908  1
  La3+  La3  1  0.12341318  0.26281029  0.42053790  1
  La3+  La4  1  0.76286980  0.13547296  0.08293923  1
  La3+  La5  1  0.24993407  0.37738568  0.57906464  1
  Ce3+  Ce6  1  0.74559416  0.88419028  0.54951602  1
  Ce3+  Ce7  1  0.86426479  0.25563410  0.42939620  1
  Ce3+  Ce8  1  0.37792275  0.00955963  0.93707942  1
  Ce3+  Ce9  1  -0.00649582  0.38054090  0.55288798  1
  Ce3+  Ce10  1  0.62878539  0.76045406  0.94631423  1
  Ce3+  Ce11  1  0.61557002  0.26191555  0.43237720  1
  Pr3+  Pr12  1  0.50161478  0.38022502  0.57044750  1
  Pr3+  Pr13  1  0.75606822  0.88246583  0.06202740  1
  Pr3+  Pr14  1  0.50363767  0.13285313  0.05910980  1
  Pr3+  Pr15  1  0.88336278  0.75728147  0.94130626  1
  Pr3+  Pr16  1  0.49454074  0.12791017  0.56221613  1
  Pr3+  Pr17  1  0.61523274  0.50642440  0.43403388  1
  Pr3+  Pr18  1  0.50183337  0.88450625  0.06313087  1
  Pr3+  Pr19  1  0.00962172  0.88273162  0.05599910  1
  Pr3+  Pr20  1  0.01027772  0.13455075  0.06712415  1
  Pr3+  Pr21  1  0.23012803  0.63468935  0.57912760  1
  Pr3+  Pr22  1  0.13600161  0.76003884  0.91181377  1
  Pr3+  Pr23  1  0.36929993  0.25812561  0.44549774  1
  Pr3+  Pr24  1  0.38104943  0.75765471  0.93401629  1
  Pr3+  Pr25  1  0.36471804  0.75820029  0.45318279  1
  Pr3+  Pr26  1  0.75624931  0.62905904  0.05846292  1
  Pr3+  Pr27  1  0.37303295  0.25799741  0.93591293  1
  Pr3+  Pr28  1  0.25496672  0.62948492  0.05172564  1
  Pr3+  Pr29  1  0.86663469  0.50637605  0.43027063  1
  Pr3+  Pr30  1  0.88200081  0.50895210  0.93390517  1
  Nd3+  Nd31  1  0.49389943  0.88149211  0.56032936  1
  Nd3+  Nd32  1  0.74286909  0.37885095  0.56175327  1
  Nd3+  Nd33  1  0.86814396  0.75705700  0.43247931  1
  Nd3+  Nd34  1  0.50346879  0.37979266  0.06026910  1
  Nd3+  Nd35  1  0.12008592  0.50826081  0.43995399  1
  Nd3+  Nd36  1  0.75769641  0.38207004  0.06099588  1
  Nd3+  Nd37  1  -0.01340546  0.62474343  0.56814687  1
  Nd3+  Nd38  1  -0.01068547  0.13211070  0.55263023  1
  Nd3+  Nd39  1  0.50404831  0.62965873  0.06002005  1
  Nd3+  Nd40  1  0.00933777  0.62904865  0.05311334  1
  Nd3+  Nd41  1  0.63193964  0.25469525  0.94406552  1
  Nd3+  Nd42  1  0.25305778  0.88203211  0.05327176  1
  Nd3+  Nd43  1  0.49459547  0.63305723  0.56567603  1
  Nd3+  Nd44  1  0.23567873  0.88356108  0.56764578  1
  Nd3+  Nd45  1  0.74488583  0.63264840  0.56355773  1
  Nd3+  Nd46  1  0.61347084  0.75355832  0.43318588  1
  Nd3+  Nd47  1  0.11542627  0.75883998  0.44866986  1
  Nd3+  Nd48  1  0.87867817  0.00983732  0.94242766  1
  Nd3+  Nd49  1  0.60579612  0.01447637  0.40911861  1
  Nd3+  Nd50  1  0.38726072  0.50555422  0.92878343  1
  Sm3+  Sm51  1  0.62776103  0.50763274  0.94032601  1
  Sm3+  Sm52  1  0.36558883  0.50759616  0.45440492  1
  Sm3+  Sm53  1  0.25094946  0.13737241  0.06696596  1
  Sm3+  Sm54  1  0.85804572  0.00702298  0.41669384  1
  Sm3+  Sm55  1  0.25436870  0.38419642  0.05086783  1
  Sm3+  Sm56  1  0.11318812  0.00689093  0.44181602  1
  Sm3+  Sm57  1  0.12727682  0.25728841  0.93752979  1
  Sm3+  Sm58  1  -0.02041120  0.88633458  0.56477198  1
  Sm3+  Sm59  1  0.74378594  0.12952353  0.54905076  1
  Sm3+  Sm60  1  0.63134242  0.00951910  0.94775579  1
  Sm3+  Sm61  1  0.23952732  0.12969346  0.55513249  1
  Sm3+  Sm62  1  0.36800677  0.00628943  0.44329071  1
  Sm3+  Sm63  1  0.00714567  0.38087345  0.05151824  1
  Bi2+  Bi64  1  -0.00347993  0.09076633  0.28572407  1
  Bi2+  Bi65  1  0.03670337  0.07001894  0.79143149  1
  Bi2+  Bi66  1  -0.03547695  0.41303163  0.26890188  1
  Bi2+  Bi67  1  -0.06624490  0.35021792  0.76958572  1
  Bi2+  Bi68  1  0.01947530  0.57955291  0.31620051  1
  Bi2+  Bi69  1  -0.04311327  0.62672805  0.78505357  1
  Bi2+  Bi70  1  0.01346207  0.84672263  0.28661538  1
  Bi2+  Bi71  1  -0.01737229  0.87741794  0.78195695  1
  Bi2+  Bi72  1  0.25014873  0.15219404  0.30310098  1
  Bi2+  Bi73  1  0.25729281  0.12468754  0.76265920  1
  Bi2+  Bi74  1  0.24434711  0.44381117  0.28349520  1
  Bi2+  Bi75  1  0.28794915  0.36737893  0.79883180  1
  Bi2+  Bi76  1  0.20850752  0.64786195  0.28948686  1
  Bi2+  Bi77  1  0.26081670  0.65479378  0.78167700  1
  Bi2+  Bi78  1  0.29141610  0.84811234  0.29470951  1
  Bi2+  Bi79  1  0.31677382  0.90999811  0.78599501  1
  Bi2+  Bi80  1  0.46993467  0.13728032  0.29161432  1
  Bi2+  Bi81  1  0.52202607  0.04734746  0.81381072  1
  Bi2+  Bi82  1  0.50132985  0.43383620  0.28685130  1
  Bi2+  Bi83  1  0.54391721  0.35662602  0.78712786  1
  Bi2+  Bi84  1  0.45623885  0.62760083  0.29481405  1
  Bi2+  Bi85  1  0.56001305  0.62122430  0.79518979  1
  Bi2+  Bi86  1  0.47200660  0.91457497  0.26364072  1
  Bi2+  Bi87  1  0.49233033  0.84977833  0.82420332  1
  Bi2+  Bi88  1  0.73768216  0.12508119  0.28425717  1
  Bi2+  Bi89  1  0.80184275  0.13010651  0.80504530  1
  Bi2+  Bi90  1  0.74302368  0.38300783  0.28344231  1
  Bi2+  Bi91  1  0.73781046  0.39329039  0.79860611  1
  Bi2+  Bi92  1  0.74047693  0.57783772  0.28978052  1
  Bi2+  Bi93  1  0.76012738  0.58778338  0.78910854  1
  Bi2+  Bi94  1  0.77043290  0.84687717  0.27920945  1
  Bi2+  Bi95  1  0.70624477  0.85768935  0.76840698  1
  Bi2+  Bi96  1  0.18132427  -0.00943935  0.24865100  1
  Bi2+  Bi97  1  0.14058191  0.02785989  0.68935061  1
  Bi2+  Bi98  1  0.13020306  0.24729986  0.20110439  1
  Bi2+  Bi99  1  0.09565017  0.23998777  0.75782348  1
  Bi2+  Bi100  1  0.11042486  0.53014061  0.21148827  1
  Bi2+  Bi101  1  0.11441816  0.50840512  0.70708106  1
  Bi2+  Bi102  1  0.13123124  0.79734377  0.19909769  1
  Bi2+  Bi103  1  0.13799864  0.77974512  0.70810574  1
  Bi2+  Bi104  1  0.34235071  0.08240570  0.20522108  1
  Bi2+  Bi105  1  0.41752176  0.02131636  0.71102523  1
  Bi2+  Bi106  1  0.33563839  0.28737524  0.22952090  1
  Bi2+  Bi107  1  0.42545662  0.23606497  0.72293591  1
  Bi2+  Bi108  1  0.38023661  0.50642698  0.20193222  1
  Bi2+  Bi109  1  0.37409916  0.49205366  0.70817757  1
  Bi2+  Bi110  1  0.31592823  0.72809853  0.20115204  1
  Bi2+  Bi111  1  0.46893329  0.75007051  0.72601179  1
  Bi2+  Bi112  1  0.61845808  -0.02540402  0.20098482  1
  Bi2+  Bi113  1  0.61609838  -0.00609183  0.71172487  1
  Bi2+  Bi114  1  0.58708072  0.25362857  0.20926760  1
  Bi2+  Bi115  1  0.63284059  0.18409393  0.74659923  1
  Bi2+  Bi116  1  0.61849848  0.52089877  0.20325607  1
  Bi2+  Bi117  1  0.63061860  0.50574431  0.70407959  1
  Bi2+  Bi118  1  0.59897731  0.76697152  0.29107796  1
  Bi2+  Bi119  1  0.65977069  0.71132791  0.69191382  1
  Bi2+  Bi120  1  0.89416290  -0.01654916  0.21161941  1
  Bi2+  Bi121  1  0.87879734  0.03799507  0.69371424  1
  Bi2+  Bi122  1  0.88263566  0.26671152  0.20725080  1
  Bi2+  Bi123  1  0.78926320  0.29997523  0.69483900  1
  Bi2+  Bi124  1  0.86142200  0.52555428  0.19310911  1
  Bi2+  Bi125  1  0.84815998  0.49185111  0.69353861  1
  Bi2+  Bi126  1  0.89215761  0.69779240  0.24993200  1
  Bi2+  Bi127  1  0.84552800  0.77086643  0.70944670  1
  S2-  S128  1  -0.09824167  0.12450768  0.14722230  1
  S2-  S129  1  0.00161859  0.12434148  0.65298130  1
  S2-  S130  1  0.01451740  0.33146943  0.14649643  1
  S2-  S131  1  -0.00546458  0.44152134  0.64406541  1
  S2-  S132  1  -0.00233112  0.61751693  0.15207812  1
  S2-  S133  1  0.08916431  0.65282371  0.64695484  1
  S2-  S134  1  0.00545563  0.89735279  0.15643350  1
  S2-  S135  1  0.04480477  0.88312659  0.65830752  1
  S2-  S136  1  0.13623069  0.12209547  0.14092484  1
  S2-  S137  1  0.24188378  0.14576263  0.65278439  1
  S2-  S138  1  0.25552656  0.31914100  0.14257719  1
  S2-  S139  1  0.21427936  0.39732879  0.67752709  1
  S2-  S140  1  0.25288870  0.57982655  0.14896327  1
  S2-  S141  1  0.27935810  0.62266678  0.67811864  1
  S2-  S142  1  0.27123370  0.87212996  0.15177006  1
  S2-  S143  1  0.25405850  0.87518957  0.66730825  1
  S2-  S144  1  0.48575913  0.14430621  0.15847347  1
  S2-  S145  1  0.53097898  0.17097091  0.65718547  1
  S2-  S146  1  0.53026163  0.37443323  0.15844196  1
  S2-  S147  1  0.39762481  0.36332304  0.65004523  1
  S2-  S148  1  0.49699491  0.61578193  0.15861260  1
  S2-  S149  1  0.48537320  0.60212229  0.66360658  1
  S2-  S150  1  0.51292074  0.86640713  0.16228735  1
  S2-  S151  1  0.49725140  0.88792653  0.65958631  1
  S2-  S152  1  0.69718298  0.12780331  0.17981253  1
  S2-  S153  1  0.77767055  0.13943702  0.64632912  1
  S2-  S154  1  0.76431512  0.33536275  0.15625958  1
  S2-  S155  1  0.63503679  0.37755940  0.64093793  1
  S2-  S156  1  0.73066413  0.62630506  0.15719671  1
  S2-  S157  1  0.86127427  0.64180431  0.63909908  1
  S2-  S158  1  0.75745525  0.89858491  0.16165810  1
  S2-  S159  1  0.83875324  0.90136696  0.63189052  1
  S2-  S160  1  0.09636710  -0.01772888  0.34516054  1
  S2-  S161  1  0.10796321  -0.11006942  0.84211399  1
  S2-  S162  1  0.08624698  0.21140969  0.32341102  1
  S2-  S163  1  0.19159023  0.24583779  0.84681395  1
  S2-  S164  1  0.14818210  0.40743568  0.35989829  1
  S2-  S165  1  0.14483672  0.44137713  0.79755927  1
  S2-  S166  1  0.09962881  0.73633953  0.35099886  1
  S2-  S167  1  0.11056905  0.65175215  0.83275995  1
  S2-  S168  1  0.45296797  0.00352888  0.35727078  1
  S2-  S169  1  0.28218781  0.02930759  0.85541150  1
  S2-  S170  1  0.37396005  0.25626837  0.34548111  1
  S2-  S171  1  0.42653605  0.27027723  0.84028477  1
  S2-  S172  1  0.38359394  0.50162815  0.35684826  1
  S2-  S173  1  0.31510413  0.52213945  0.83835546  1
  S2-  S174  1  0.39697187  0.75691264  0.35507291  1
  S2-  S175  1  0.28605704  0.76692690  0.84880881  1
  S2-  S176  1  0.72292520  -0.00977438  0.33605612  1
  S2-  S177  1  0.68241962  0.03384413  0.85563419  1
  S2-  S178  1  0.60834167  0.16494679  0.34873726  1
  S2-  S179  1  0.73450848  0.25172885  0.86466546  1
  S2-  S180  1  0.61430089  0.38404648  0.35776013  1
  S2-  S181  1  0.52888214  0.49431849  0.86017657  1
  S2-  S182  1  0.61450766  0.63196340  0.36079602  1
  S2-  S183  1  0.64464419  0.75957273  0.84984972  1
  S2-  S184  1  0.88905993  -0.12857650  0.35585980  1
  S2-  S185  1  0.89679111  -0.00106399  0.84283688  1
  S2-  S186  1  0.86705966  0.14301866  0.35072063  1
  S2-  S187  1  0.95072325  0.22978583  0.84053820  1
  S2-  S188  1  0.86295228  0.37807863  0.35550578  1
  S2-  S189  1  0.95934808  0.49081098  0.84486692  1
  S2-  S190  1  0.86507212  0.63510342  0.35953700  1
  S2-  S191  1  0.89819272  0.75844261  0.84176928  1
  S2-  S192  1  -0.00163066  0.13434272  0.44745257  1
  S2-  S193  1  0.00848671  0.13109063  0.95336066  1
  S2-  S194  1  -0.00461077  0.38094249  0.44999150  1
  S2-  S195  1  0.00892902  0.38194535  0.94680236  1
  S2-  S196  1  -0.00437341  0.63061801  0.46087794  1
  S2-  S197  1  0.01051963  0.63157035  0.94752924  1
  S2-  S198  1  -0.00558327  0.88435732  0.45811307  1
  S2-  S199  1  0.00561734  0.88358907  0.95043135  1
  S2-  S200  1  0.24197440  0.12894633  0.44964502  1
  S2-  S201  1  0.25193636  0.13565080  0.96050229  1
  S2-  S202  1  0.24704079  0.38207046  0.46618359  1
  S2-  S203  1  0.25026697  0.38711706  0.94609695  1
  S2-  S204  1  0.24130472  0.63267015  0.46278943  1
  S2-  S205  1  0.25483862  0.62785798  0.94619250  1
  S2-  S206  1  0.24060779  0.88603156  0.45716755  1
  S2-  S207  1  0.25574385  0.88319840  0.94980535  1
  S2-  S208  1  0.49093759  0.12932363  0.45668168  1
  S2-  S209  1  0.50514826  0.13358812  0.95226979  1
  S2-  S210  1  0.48875250  0.38511455  0.46333848  1
  S2-  S211  1  0.50664926  0.37648155  0.95616602  1
  S2-  S212  1  0.48795833  0.63214671  0.46100619  1
  S2-  S213  1  0.50632781  0.63439473  0.95380219  1
  S2-  S214  1  0.49402107  0.88239028  0.45531358  1
  S2-  S215  1  0.50498900  0.88694789  0.95613336  1
  S2-  S216  1  0.73503841  0.12770505  0.44745941  1
  S2-  S217  1  0.75437211  0.12914741  0.96865691  1
  S2-  S218  1  0.74156137  0.38228461  0.45748289  1
  S2-  S219  1  0.75304039  0.38905920  0.95510834  1
  S2-  S220  1  0.74082749  0.63477942  0.45920489  1
  S2-  S221  1  0.75359913  0.63067510  0.95073144  1
  S2-  S222  1  0.73289964  0.88193234  0.44582234  1
  S2-  S223  1  0.75555236  0.88389442  0.95444339  1
  S2-  S224  1  0.13349792  0.00687781  0.03758668  1
  S2-  S225  1  0.11438582  0.00706434  0.54647441  1
  S2-  S226  1  0.13233700  0.26092345  0.03956788  1
  S2-  S227  1  0.11951466  0.25430176  0.54631897  1
  S2-  S228  1  0.12965652  0.50212858  0.04708787  1
  S2-  S229  1  0.12144986  0.50363265  0.54635947  1
  S2-  S230  1  0.13172799  0.75491071  0.04302707  1
  S2-  S231  1  0.11040253  0.76511708  0.55108499  1
  S2-  S232  1  0.37531329  0.01058584  0.04722845  1
  S2-  S233  1  0.36478128  0.00462478  0.54897049  1
  S2-  S234  1  0.37736309  0.25708600  0.04399762  1
  S2-  S235  1  0.36753070  0.24821862  0.55052502  1
  S2-  S236  1  0.38187552  0.50355434  0.03951350  1
  S2-  S237  1  0.36704658  0.51332486  0.55766517  1
  S2-  S238  1  0.38090831  0.75582475  0.04317442  1
  S2-  S239  1  0.36440326  0.75733846  0.56000700  1
  S2-  S240  1  0.63050022  0.00879973  0.05363757  1
  S2-  S241  1  0.62018213  0.00522600  0.55236786  1
  S2-  S242  1  0.63176931  0.25690814  0.05006107  1
  S2-  S243  1  0.61993587  0.25095261  0.54025298  1
  S2-  S244  1  0.62865101  0.50439769  0.04569816  1
  S2-  S245  1  0.61950712  0.51212873  0.54403147  1
  S2-  S246  1  0.62862594  0.75620120  0.05295588  1
  S2-  S247  1  0.61871936  0.75760675  0.54449181  1
  S2-  S248  1  0.88228569  0.00482740  0.04748887  1
  S2-  S249  1  0.86690794  0.01114983  0.52740219  1
  S2-  S250  1  0.88227947  0.26008312  0.04131022  1
  S2-  S251  1  0.86622951  0.25615371  0.53965265  1
  S2-  S252  1  0.88297553  0.50485406  0.04218009  1
  S2-  S253  1  0.86438244  0.50261129  0.53907983  1
  S2-  S254  1  0.88186797  0.75499061  0.04891559  1
  S2-  S255  1  0.86832042  0.75824254  0.53790768  1
