# generated using pymatgen
data_La6Ce6Pr19Nd20Sm13(BiS2)64
_symmetry_space_group_name_H-M   'P 1'
_cell_length_a   16.14874245
_cell_length_b   16.16294888
_cell_length_c   27.22974535
_cell_angle_alpha   90.05515293
_cell_angle_beta   90.15470505
_cell_angle_gamma   89.98939942
_symmetry_Int_Tables_number   1
_chemical_formula_structural   La6Ce6Pr19Nd20Sm13(BiS2)64
_chemical_formula_sum   'La6 Ce6 Pr19 Nd20 Sm13 Bi64 S128'
_cell_volume   7107.24188019
_cell_formula_units_Z   1
loop_
 _symmetry_equiv_pos_site_id
 _symmetry_equiv_pos_as_xyz
  1  'x, y, z'
loop_
 _atom_type_symbol
 _atom_type_oxidation_number
  La3+  3.0
  Ce3+  3.0
  Pr3+  3.0
  Nd3+  3.0
  Sm3+  3.0
  Bi2+  2.0
  S2-  -2.0
loop_
 _atom_site_type_symbol
 _atom_site_label
 _atom_site_symmetry_multiplicity
 _atom_site_fract_x
 _atom_site_fract_y
 _atom_site_fract_z
 _atom_site_occupancy
  La3+  La0  1  0.86273569  0.01068835  0.92605053  1
  La3+  La1  1  0.86463660  0.51690635  0.92671393  1
  La3+  La2  1  -0.01766025  0.12019315  0.60971863  1
  La3+  La3  1  0.75156739  0.36976463  0.56291884  1
  La3+  La4  1  0.24847757  0.11635710  0.10288099  1
  La3+  La5  1  0.48787126  0.62907958  0.59712942  1
  Ce3+  Ce6  1  0.49233658  0.38382325  0.06738465  1
  Ce3+  Ce7  1  0.24840391  0.86904057  0.55515087  1
  Ce3+  Ce8  1  0.87554954  -0.00375802  0.43438863  1
  Ce3+  Ce9  1  0.73996264  0.88657571  0.05932029  1
  Ce3+  Ce10  1  0.11799061  0.24512824  0.43959785  1
  Ce3+  Ce11  1  0.10934999  0.01018235  0.93079045  1
  Pr3+  Pr12  1  0.74575421  0.12696275  0.07056243  1
  Pr3+  Pr13  1  0.12299402  -0.00452536  0.43676261  1
  Pr3+  Pr14  1  0.49899697  0.36936996  0.56620130  1
  Pr3+  Pr15  1  -0.00084372  0.37329450  0.56613032  1
  Pr3+  Pr16  1  0.11316439  0.26192453  0.93550764  1
  Pr3+  Pr17  1  0.36468649  0.25893013  0.94084456  1
  Pr3+  Pr18  1  0.37334711  0.24431093  0.43473333  1
  Pr3+  Pr19  1  0.74260928  0.39666146  0.08522563  1
  Pr3+  Pr20  1  -0.00718700  0.63542324  0.07023868  1
  Pr3+  Pr21  1  0.24361525  0.12180326  0.56517021  1
  Pr3+  Pr22  1  0.86722189  0.48540386  0.40803772  1
  Pr3+  Pr23  1  -0.01158010  0.38358825  0.06392709  1
  Pr3+  Pr24  1  0.24576777  0.63318503  0.06001972  1
  Pr3+  Pr25  1  0.75029164  0.87275411  0.55603446  1
  Pr3+  Pr26  1  0.87329975  0.74186990  0.44641039  1
  Pr3+  Pr27  1  -0.00506469  0.89024052  0.05862603  1
  Pr3+  Pr28  1  0.74088569  0.62096326  0.56781167  1
  Pr3+  Pr29  1  0.61893798  0.01373010  0.93178911  1
  Pr3+  Pr30  1  0.85299290  0.26852172  0.91907248  1
  Nd3+  Nd31  1  0.49731733  0.12331672  0.56608632  1
  Nd3+  Nd32  1  0.49030193  0.63543456  0.06262421  1
  Nd3+  Nd33  1  0.61394526  0.50810611  0.93836065  1
  Nd3+  Nd34  1  0.00603402  0.87310349  0.56369898  1
  Nd3+  Nd35  1  0.11978596  0.74210038  0.43864533  1
  Nd3+  Nd36  1  0.87268242  0.23850193  0.43509417  1
  Nd3+  Nd37  1  0.25148730  0.62088091  0.55544239  1
  Nd3+  Nd38  1  0.11673281  0.75716127  0.94003107  1
  Nd3+  Nd39  1  0.62246372  0.24399242  0.43499532  1
  Nd3+  Nd40  1  0.62458992  0.49567563  0.43933287  1
  Nd3+  Nd41  1  0.62072219  -0.00664159  0.44402606  1
  Nd3+  Nd42  1  -0.00795687  0.13928789  0.05239538  1
  Nd3+  Nd43  1  -0.00580075  0.61363797  0.56266865  1
  Nd3+  Nd44  1  0.36854241  0.50777018  0.93329327  1
  Nd3+  Nd45  1  0.49173346  0.88761692  0.05090411  1
  Nd3+  Nd46  1  0.37393672  0.74149053  0.43369028  1
  Nd3+  Nd47  1  0.24450972  0.37937997  0.06387487  1
  Nd3+  Nd48  1  0.36574883  0.76012434  0.93884041  1
  Nd3+  Nd49  1  0.24959716  0.36853322  0.54971353  1
  Nd3+  Nd50  1  0.36318426  0.01314842  0.93842639  1
  Sm3+  Sm51  1  0.61990663  0.26222392  0.95213558  1
  Sm3+  Sm52  1  0.86630289  0.75526696  0.94935099  1
  Sm3+  Sm53  1  0.75102906  0.11907640  0.55404678  1
  Sm3+  Sm54  1  0.49100159  0.13414096  0.06060653  1
  Sm3+  Sm55  1  0.37449847  0.49568854  0.44060683  1
  Sm3+  Sm56  1  0.62215010  0.74278533  0.44231295  1
  Sm3+  Sm57  1  0.23965464  0.88623053  0.05069094  1
  Sm3+  Sm58  1  0.11939256  0.49333711  0.43874902  1
  Sm3+  Sm59  1  0.37120296  -0.00455929  0.44279727  1
  Sm3+  Sm60  1  0.73829928  0.63563671  0.06410467  1
  Sm3+  Sm61  1  0.61664431  0.75951914  0.94189996  1
  Sm3+  Sm62  1  0.49615704  0.87089779  0.55411093  1
  Sm3+  Sm63  1  0.11346886  0.50796798  0.95028856  1
  Bi2+  Bi64  1  0.00522397  0.09389774  0.29412098  1
  Bi2+  Bi65  1  0.05108907  0.10820264  0.80383251  1
  Bi2+  Bi66  1  0.02583739  0.35939298  0.29638473  1
  Bi2+  Bi67  1  0.00973469  0.35610529  0.80557250  1
  Bi2+  Bi68  1  0.02129851  0.62484233  0.30705960  1
  Bi2+  Bi69  1  -0.01400019  0.61764108  0.78990360  1
  Bi2+  Bi70  1  -0.03577349  0.84638748  0.31842334  1
  Bi2+  Bi71  1  0.03062607  0.86249176  0.77572436  1
  Bi2+  Bi72  1  0.25526941  0.09925571  0.30486447  1
  Bi2+  Bi73  1  0.33647699  0.15387228  0.77630435  1
  Bi2+  Bi74  1  0.29832899  0.35709628  0.27149670  1
  Bi2+  Bi75  1  0.27098392  0.45702103  0.81051543  1
  Bi2+  Bi76  1  0.29099557  0.61879804  0.27964551  1
  Bi2+  Bi77  1  0.22602224  0.64647826  0.79625273  1
  Bi2+  Bi78  1  0.31895621  0.82559019  0.23891553  1
  Bi2+  Bi79  1  0.27495196  0.87386631  0.78915700  1
  Bi2+  Bi80  1  0.53096311  0.11601534  0.28547421  1
  Bi2+  Bi81  1  0.52062178  0.10642412  0.81379201  1
  Bi2+  Bi82  1  0.49429391  0.33075512  0.29370936  1
  Bi2+  Bi83  1  0.49080333  0.38220100  0.79907195  1
  Bi2+  Bi84  1  0.49110903  0.61604289  0.30410007  1
  Bi2+  Bi85  1  0.41783943  0.60905012  0.78025414  1
  Bi2+  Bi86  1  0.49916515  0.81340947  0.28519379  1
  Bi2+  Bi87  1  0.49521502  0.91612766  0.77884800  1
  Bi2+  Bi88  1  0.74548502  0.12107869  0.28862527  1
  Bi2+  Bi89  1  0.70736089  0.12959299  0.78575189  1
  Bi2+  Bi90  1  0.75581039  0.37310750  0.28830797  1
  Bi2+  Bi91  1  0.72345902  0.38678440  0.79410291  1
  Bi2+  Bi92  1  0.69213476  0.61672973  0.26815404  1
  Bi2+  Bi93  1  0.74625593  0.65501304  0.79302412  1
  Bi2+  Bi94  1  0.70376338  0.88904639  0.28579972  1
  Bi2+  Bi95  1  0.74150557  0.85458064  0.79415174  1
  Bi2+  Bi96  1  0.11637317  -0.04116909  0.20528438  1
  Bi2+  Bi97  1  0.23557445  0.00288190  0.70594037  1
  Bi2+  Bi98  1  0.09619512  0.23335932  0.20125701  1
  Bi2+  Bi99  1  0.14647701  0.27069959  0.70773851  1
  Bi2+  Bi100  1  0.17221256  0.48523514  0.23123525  1
  Bi2+  Bi101  1  0.12182634  0.51074947  0.73373702  1
  Bi2+  Bi102  1  0.09784789  0.73830150  0.21651648  1
  Bi2+  Bi103  1  0.12411991  0.73374299  0.70734926  1
  Bi2+  Bi104  1  0.43261186  -0.01477416  0.22295484  1
  Bi2+  Bi105  1  0.42096096  0.04207778  0.68216562  1
  Bi2+  Bi106  1  0.40537081  0.27889491  0.18260012  1
  Bi2+  Bi107  1  0.35321070  0.24413457  0.68023287  1
  Bi2+  Bi108  1  0.34672170  0.47133579  0.17364818  1
  Bi2+  Bi109  1  0.37806190  0.45345492  0.71402959  1
  Bi2+  Bi110  1  0.38060386  0.66883295  0.17848751  1
  Bi2+  Bi111  1  0.31693621  0.77345677  0.69152480  1
  Bi2+  Bi112  1  0.62669099  -0.00825043  0.19345563  1
  Bi2+  Bi113  1  0.61366799  0.00590663  0.70557196  1
  Bi2+  Bi114  1  0.59459533  0.24537006  0.20769991  1
  Bi2+  Bi115  1  0.58033825  0.25321890  0.73682773  1
  Bi2+  Bi116  1  0.55474442  0.48529601  0.22997212  1
  Bi2+  Bi117  1  0.66725308  0.50302091  0.69411596  1
  Bi2+  Bi118  1  0.64887165  0.76762326  0.19403307  1
  Bi2+  Bi119  1  0.59913708  0.79177337  0.71314687  1
  Bi2+  Bi120  1  0.87612825  -0.03701659  0.24711735  1
  Bi2+  Bi121  1  0.84085553  -0.01168681  0.70288188  1
  Bi2+  Bi122  1  0.88199908  0.21620056  0.21185994  1
  Bi2+  Bi123  1  0.86674061  0.24180744  0.71885607  1
  Bi2+  Bi124  1  0.89878602  0.49629659  0.19877237  1
  Bi2+  Bi125  1  0.89973678  0.48239024  0.71055226  1
  Bi2+  Bi126  1  0.82999219  0.75513255  0.23801146  1
  Bi2+  Bi127  1  0.88098857  0.76299121  0.73305618  1
  S2-  S128  1  -0.00478828  0.11877752  0.15192927  1
  S2-  S129  1  -0.03822263  0.10945781  0.71728472  1
  S2-  S130  1  0.02049701  0.38399010  0.16408026  1
  S2-  S131  1  -0.00733403  0.28329140  0.65470474  1
  S2-  S132  1  -0.00860903  0.63261366  0.17081063  1
  S2-  S133  1  0.01579838  0.50531402  0.64104203  1
  S2-  S134  1  0.01393478  0.86111345  0.15735560  1
  S2-  S135  1  -0.03394390  0.95287376  0.64697106  1
  S2-  S136  1  0.20384908  0.10717688  0.20543725  1
  S2-  S137  1  0.15046833  0.12356533  0.65126117  1
  S2-  S138  1  0.22778267  0.27850947  0.14447833  1
  S2-  S139  1  0.22857255  0.36917643  0.64938981  1
  S2-  S140  1  0.20292075  0.68210496  0.15368021  1
  S2-  S141  1  0.32944892  0.62412920  0.64489185  1
  S2-  S142  1  0.24190117  0.93762113  0.14358292  1
  S2-  S143  1  0.17259977  0.86899136  0.64301317  1
  S2-  S144  1  0.40975446  0.11503941  0.14703498  1
  S2-  S145  1  0.51542281  0.24437126  0.63918996  1
  S2-  S146  1  0.59696738  0.39520808  0.14613325  1
  S2-  S147  1  0.51476469  0.47422604  0.64883422  1
  S2-  S148  1  0.55724784  0.64030126  0.15456587  1
  S2-  S149  1  0.63184146  0.65293556  0.65274453  1
  S2-  S150  1  0.50763836  0.88330612  0.14943835  1
  S2-  S151  1  0.47266929  0.79956055  0.64315207  1
  S2-  S152  1  0.73712600  0.17024547  0.17007261  1
  S2-  S153  1  0.79543269  0.13258320  0.64872372  1
  S2-  S154  1  0.80380927  0.35683468  0.18446992  1
  S2-  S155  1  0.75828607  0.36483147  0.66532246  1
  S2-  S156  1  0.77473580  0.54691428  0.14446024  1
  S2-  S157  1  0.81626174  0.58800384  0.66021926  1
  S2-  S158  1  0.76827781  0.97537679  0.13918466  1
  S2-  S159  1  0.72518899  0.87900858  0.65501808  1
  S2-  S160  1  0.12311665  -0.00444437  0.33450457  1
  S2-  S161  1  0.16671594  0.00277705  0.83796330  1
  S2-  S162  1  0.10229920  0.23338299  0.33963377  1
  S2-  S163  1  0.13363829  0.25863143  0.83367705  1
  S2-  S164  1  0.12052622  0.49195260  0.34015566  1
  S2-  S165  1  0.04588814  0.50389143  0.86072767  1
  S2-  S166  1  0.11518919  0.76771474  0.34070841  1
  S2-  S167  1  0.08913407  0.75053352  0.84236095  1
  S2-  S168  1  0.36433957  0.00632823  0.34572315  1
  S2-  S169  1  0.37669089  -0.00488621  0.83996169  1
  S2-  S170  1  0.34435097  0.22628184  0.33629729  1
  S2-  S171  1  0.36149768  0.29000198  0.84161900  1
  S2-  S172  1  0.36809637  0.50603089  0.34260165  1
  S2-  S173  1  0.48922426  0.52287517  0.86191740  1
  S2-  S174  1  0.35354359  0.77385833  0.33660962  1
  S2-  S175  1  0.36957208  0.74885419  0.84028756  1
  S2-  S176  1  0.62912099  0.01788928  0.34594152  1
  S2-  S177  1  0.73241992  0.00328544  0.85496626  1
  S2-  S178  1  0.69340586  0.25693337  0.34387708  1
  S2-  S179  1  0.69563272  0.26029524  0.86311852  1
  S2-  S180  1  0.71378031  0.49290401  0.35311596  1
  S2-  S181  1  0.70493437  0.51961558  0.85260736  1
  S2-  S182  1  0.62809861  0.71562239  0.34518440  1
  S2-  S183  1  0.62586059  0.75264524  0.84388839  1
  S2-  S184  1  0.87156704  0.10848699  0.35812722  1
  S2-  S185  1  0.96424650  -0.01693700  0.84438186  1
  S2-  S186  1  0.89069652  0.33312951  0.35097229  1
  S2-  S187  1  0.91491286  0.21333836  0.82626895  1
  S2-  S188  1  0.90957260  0.51086556  0.30553335  1
  S2-  S189  1  0.86077390  0.40274819  0.84985014  1
  S2-  S190  1  0.87641009  0.70761891  0.34775765  1
  S2-  S191  1  0.86875429  0.66507220  0.86551775  1
  S2-  S192  1  0.00091918  0.11867482  0.45123351  1
  S2-  S193  1  -0.01444052  0.14112650  0.94658032  1
  S2-  S194  1  -0.00315642  0.37405148  0.45516457  1
  S2-  S195  1  -0.01208824  0.38336037  0.95771149  1
  S2-  S196  1  -0.00404014  0.61370971  0.45383406  1
  S2-  S197  1  -0.00428718  0.63623293  0.96332096  1
  S2-  S198  1  -0.00116116  0.86867810  0.45590044  1
  S2-  S199  1  -0.01029180  0.87773876  0.95212886  1
  S2-  S200  1  0.24872415  0.11995446  0.45401409  1
  S2-  S201  1  0.23950149  0.13480069  0.94232460  1
  S2-  S202  1  0.24811363  0.37264406  0.44348166  1
  S2-  S203  1  0.24068981  0.38771565  0.95554626  1
  S2-  S204  1  0.24687613  0.61730056  0.44715563  1
  S2-  S205  1  0.24165656  0.63085180  0.95129407  1
  S2-  S206  1  0.24903315  0.86772221  0.44816917  1
  S2-  S207  1  0.24075950  0.88500002  0.94623625  1
  S2-  S208  1  0.49720745  0.11851390  0.45424394  1
  S2-  S209  1  0.49343505  0.13659720  0.95456967  1
  S2-  S210  1  0.49799867  0.37061410  0.45128286  1
  S2-  S211  1  0.49206303  0.38084161  0.95902152  1
  S2-  S212  1  0.49844843  0.61887243  0.44807491  1
  S2-  S213  1  0.49069514  0.64098063  0.95654156  1
  S2-  S214  1  0.49599324  0.86901744  0.44783705  1
  S2-  S215  1  0.49262495  0.88617705  0.94462664  1
  S2-  S216  1  0.74305060  0.11758476  0.45220474  1
  S2-  S217  1  0.74219540  0.13705343  0.96083905  1
  S2-  S218  1  0.74802290  0.36707463  0.45451247  1
  S2-  S219  1  0.73785576  0.38752001  0.96538400  1
  S2-  S220  1  0.74630840  0.62102320  0.45706267  1
  S2-  S221  1  0.73642806  0.63861747  0.96117525  1
  S2-  S222  1  0.74648331  0.86874846  0.44791268  1
  S2-  S223  1  0.74224918  0.87813816  0.95412229  1
  S2-  S224  1  0.12044679  0.01493183  0.04157398  1
  S2-  S225  1  0.12517995  -0.00488211  0.54305858  1
  S2-  S226  1  0.11600925  0.26072234  0.04248716  1
  S2-  S227  1  0.12302821  0.24795239  0.54442109  1
  S2-  S228  1  0.11975366  0.50786504  0.05554711  1
  S2-  S229  1  0.12912213  0.49658876  0.54200367  1
  S2-  S230  1  0.11855979  0.76126722  0.04590250  1
  S2-  S231  1  0.12089542  0.73835498  0.54521073  1
  S2-  S232  1  0.36525943  0.00979659  0.04270292  1
  S2-  S233  1  0.37311952  -0.00395513  0.54796718  1
  S2-  S234  1  0.36741553  0.25506821  0.04629446  1
  S2-  S235  1  0.37241604  0.24332344  0.54095797  1
  S2-  S236  1  0.36887370  0.50836966  0.04071800  1
  S2-  S237  1  0.37386096  0.49426549  0.54407833  1
  S2-  S238  1  0.36556155  0.76471885  0.04491989  1
  S2-  S239  1  0.37421504  0.74583756  0.53803059  1
  S2-  S240  1  0.61422048  0.01161255  0.04037581  1
  S2-  S241  1  0.62014176  -0.00286931  0.54996849  1
  S2-  S242  1  0.61694641  0.25353009  0.05470358  1
  S2-  S243  1  0.62732471  0.24189740  0.54125999  1
  S2-  S244  1  0.61476435  0.51516036  0.04534096  1
  S2-  S245  1  0.62237447  0.49493033  0.54417745  1
  S2-  S246  1  0.61590082  0.76094385  0.04690670  1
  S2-  S247  1  0.61941789  0.75088068  0.54435479  1
  S2-  S248  1  0.87143543  0.01024404  0.03636361  1
  S2-  S249  1  0.87401918  -0.00280148  0.54044671  1
  S2-  S250  1  0.86302638  0.26025447  0.05634538  1
  S2-  S251  1  0.87518166  0.24060946  0.54422005  1
  S2-  S252  1  0.87005029  0.51411640  0.04292005  1
  S2-  S253  1  0.86980396  0.49630816  0.54339741  1
  S2-  S254  1  0.86550949  0.75996755  0.05475412  1
  S2-  S255  1  0.87617272  0.74589010  0.55458606  1
