# generated using pymatgen
data_La6Ce6Pr19Nd20Sm13(BiS2)64
_symmetry_space_group_name_H-M   'P 1'
_cell_length_a   16.02718790
_cell_length_b   16.07265251
_cell_length_c   27.54473104
_cell_angle_alpha   89.76157334
_cell_angle_beta   90.16414939
_cell_angle_gamma   90.01563892
_symmetry_Int_Tables_number   1
_chemical_formula_structural   La6Ce6Pr19Nd20Sm13(BiS2)64
_chemical_formula_sum   'La6 Ce6 Pr19 Nd20 Sm13 Bi64 S128'
_cell_volume   7095.41599241
_cell_formula_units_Z   1
loop_
 _symmetry_equiv_pos_site_id
 _symmetry_equiv_pos_as_xyz
  1  'x, y, z'
loop_
 _atom_type_symbol
 _atom_type_oxidation_number
  La3+  3.0
  Ce3+  3.0
  Pr3+  3.0
  Nd3+  3.0
  Sm3+  3.0
  Bi2+  2.0
  S2-  -2.0
loop_
 _atom_site_type_symbol
 _atom_site_label
 _atom_site_symmetry_multiplicity
 _atom_site_fract_x
 _atom_site_fract_y
 _atom_site_fract_z
 _atom_site_occupancy
  La3+  La0  1  0.38955943  0.01169020  0.88617137  1
  La3+  La1  1  0.62862889  0.49122283  0.38300919  1
  La3+  La2  1  0.11904088  0.25974610  0.91951245  1
  La3+  La3  1  0.85752680  0.26032756  0.91402745  1
  La3+  La4  1  -0.02370221  0.11709430  0.60863960  1
  La3+  La5  1  0.48302032  0.11265472  0.58035809  1
  Ce3+  Ce6  1  0.24279501  0.12854714  0.04167669  1
  Ce3+  Ce7  1  0.86561691  0.50521197  0.93442225  1
  Ce3+  Ce8  1  0.74583635  0.37978195  0.06761813  1
  Ce3+  Ce9  1  0.22792288  0.61724186  0.56678170  1
  Ce3+  Ce10  1  0.61591693  0.75992904  0.94763631  1
  Ce3+  Ce11  1  0.85330063  0.23775770  0.43749401  1
  Pr3+  Pr12  1  0.11804514  0.75445242  0.93500836  1
  Pr3+  Pr13  1  0.22705452  0.36026373  0.56445083  1
  Pr3+  Pr14  1  0.49179348  0.12667018  0.06154646  1
  Pr3+  Pr15  1  0.59520861  0.73547466  0.43060039  1
  Pr3+  Pr16  1  0.36930843  0.76114296  0.94179559  1
  Pr3+  Pr17  1  0.24320074  0.88284300  0.06250455  1
  Pr3+  Pr18  1  0.10198936  -0.01109482  0.45327010  1
  Pr3+  Pr19  1  0.49084430  0.62634768  0.06279763  1
  Pr3+  Pr20  1  0.22435023  0.85945248  0.56991161  1
  Pr3+  Pr21  1  0.59633737  -0.00853705  0.42742364  1
  Pr3+  Pr22  1  -0.02040308  0.36066312  0.56490367  1
  Pr3+  Pr23  1  0.49379036  0.36903691  0.07805290  1
  Pr3+  Pr24  1  0.23998716  0.37716826  0.06424581  1
  Pr3+  Pr25  1  0.10621307  0.48617362  0.44001877  1
  Pr3+  Pr26  1  0.35121109  0.73470283  0.43913183  1
  Pr3+  Pr27  1  0.72870480  0.35995944  0.55329176  1
  Pr3+  Pr28  1  0.73100951  0.86424136  0.54827341  1
  Pr3+  Pr29  1  0.73347403  0.11053396  0.55942164  1
  Pr3+  Pr30  1  0.48297311  0.36269683  0.57157697  1
  Nd3+  Nd31  1  -0.02072183  0.61521910  0.56567354  1
  Nd3+  Nd32  1  0.72868981  0.61265877  0.55406232  1
  Nd3+  Nd33  1  0.35297590  -0.01140971  0.44656269  1
  Nd3+  Nd34  1  -0.00349055  0.88113392  0.06652159  1
  Nd3+  Nd35  1  0.75739910  0.12893294  0.07183398  1
  Nd3+  Nd36  1  0.86747251  0.75965365  0.93707736  1
  Nd3+  Nd37  1  0.10122303  0.73805951  0.43525235  1
  Nd3+  Nd38  1  0.37233445  0.25954405  0.93181776  1
  Nd3+  Nd39  1  0.48281497  0.86314450  0.56691436  1
  Nd3+  Nd40  1  0.12136207  -0.00037706  0.92103731  1
  Nd3+  Nd41  1  0.74983249  0.87796513  0.07204961  1
  Nd3+  Nd42  1  0.48253845  0.61143257  0.56862845  1
  Nd3+  Nd43  1  0.61643138  0.50418807  0.94293220  1
  Nd3+  Nd44  1  0.11600721  0.50493038  0.93306482  1
  Nd3+  Nd45  1  0.87154461  0.00378534  0.93175716  1
  Nd3+  Nd46  1  0.22725440  0.10390172  0.59523572  1
  Nd3+  Nd47  1  -0.00564224  0.62915046  0.05845374  1
  Nd3+  Nd48  1  0.85503735  0.73549337  0.43346944  1
  Nd3+  Nd49  1  -0.01145864  0.37769454  0.05946570  1
  Nd3+  Nd50  1  -0.03293612  0.86173687  0.58724531  1
  Sm3+  Sm51  1  0.24444370  0.62612104  0.04920697  1
  Sm3+  Sm52  1  0.62055893  0.25343631  0.94877136  1
  Sm3+  Sm53  1  0.35616825  0.23646331  0.45170803  1
  Sm3+  Sm54  1  0.36484309  0.48569465  0.44837439  1
  Sm3+  Sm55  1  0.85558019  0.48650501  0.44403183  1
  Sm3+  Sm56  1  0.49829639  0.88225750  0.06852099  1
  Sm3+  Sm57  1  -0.00757419  0.13190825  0.04674435  1
  Sm3+  Sm58  1  0.10485153  0.23488883  0.45084074  1
  Sm3+  Sm59  1  0.62067659  0.00672540  0.95005486  1
  Sm3+  Sm60  1  0.85463419  -0.01008948  0.44104867  1
  Sm3+  Sm61  1  0.37048675  0.49979584  0.93727915  1
  Sm3+  Sm62  1  0.59819624  0.23704859  0.43428536  1
  Sm3+  Sm63  1  0.74382438  0.63002516  0.05489417  1
  Bi2+  Bi64  1  0.01157498  0.15996224  0.28316368  1
  Bi2+  Bi65  1  0.02063701  0.10563739  0.77653078  1
  Bi2+  Bi66  1  0.04186970  0.38082352  0.30362301  1
  Bi2+  Bi67  1  0.00227193  0.44108737  0.79120518  1
  Bi2+  Bi68  1  0.06635915  0.60861291  0.30711023  1
  Bi2+  Bi69  1  0.07059587  0.62850904  0.82303886  1
  Bi2+  Bi70  1  0.05421996  0.89390061  0.27897156  1
  Bi2+  Bi71  1  -0.02968668  0.81875561  0.79739446  1
  Bi2+  Bi72  1  0.20342306  0.11314766  0.29914238  1
  Bi2+  Bi73  1  0.26734400  0.12434627  0.77601936  1
  Bi2+  Bi74  1  0.28269585  0.36889789  0.24050665  1
  Bi2+  Bi75  1  0.26578962  0.44215905  0.78842920  1
  Bi2+  Bi76  1  0.26493403  0.65130165  0.24567312  1
  Bi2+  Bi77  1  0.35553966  0.60543394  0.82183184  1
  Bi2+  Bi78  1  0.24550439  0.84207269  0.30115946  1
  Bi2+  Bi79  1  0.23484376  0.76040420  0.80748695  1
  Bi2+  Bi80  1  0.48336823  0.12617849  0.30643692  1
  Bi2+  Bi81  1  0.52104215  0.12698334  0.78265122  1
  Bi2+  Bi82  1  0.46983181  0.36693509  0.29816765  1
  Bi2+  Bi83  1  0.51572355  0.38474681  0.78781823  1
  Bi2+  Bi84  1  0.49724084  0.63685480  0.29785746  1
  Bi2+  Bi85  1  0.55058582  0.59181493  0.78842078  1
  Bi2+  Bi86  1  0.57474260  0.89813093  0.29961980  1
  Bi2+  Bi87  1  0.49431514  0.82153549  0.78027287  1
  Bi2+  Bi88  1  0.76475549  0.11408904  0.29084059  1
  Bi2+  Bi89  1  0.77996557  0.10618195  0.80829032  1
  Bi2+  Bi90  1  0.78027314  0.32150335  0.25486880  1
  Bi2+  Bi91  1  0.81705205  0.48795883  0.75808736  1
  Bi2+  Bi92  1  0.82031716  0.67941197  0.30600906  1
  Bi2+  Bi93  1  0.86935473  0.64351909  0.82271794  1
  Bi2+  Bi94  1  0.77085086  0.88391813  0.28581180  1
  Bi2+  Bi95  1  0.73210939  0.79232028  0.79949697  1
  Bi2+  Bi96  1  0.15424982  -0.00585446  0.19339875  1
  Bi2+  Bi97  1  0.11653691  -0.08500350  0.73050867  1
  Bi2+  Bi98  1  0.14265551  0.23880254  0.20295552  1
  Bi2+  Bi99  1  0.11318028  0.28772363  0.71721505  1
  Bi2+  Bi100  1  0.12480191  0.49897763  0.20024425  1
  Bi2+  Bi101  1  0.17339754  0.51406639  0.68680551  1
  Bi2+  Bi102  1  0.06904638  0.73227941  0.21085228  1
  Bi2+  Bi103  1  0.10177106  0.71762431  0.71942960  1
  Bi2+  Bi104  1  0.33949141  -0.00424080  0.24509318  1
  Bi2+  Bi105  1  0.38940845  -0.04224947  0.68476688  1
  Bi2+  Bi106  1  0.35668482  0.19090328  0.21293196  1
  Bi2+  Bi107  1  0.42120947  0.27100281  0.71026890  1
  Bi2+  Bi108  1  0.39070013  0.52335057  0.19725449  1
  Bi2+  Bi109  1  0.36976555  0.54433987  0.70827612  1
  Bi2+  Bi110  1  0.37459324  0.80192437  0.21575341  1
  Bi2+  Bi111  1  0.35652044  0.74463372  0.71097921  1
  Bi2+  Bi112  1  0.56471294  -0.00167681  0.20346691  1
  Bi2+  Bi113  1  0.65243047  -0.02409608  0.76358382  1
  Bi2+  Bi114  1  0.62895291  0.23863756  0.20757523  1
  Bi2+  Bi115  1  0.66304059  0.25864154  0.76189473  1
  Bi2+  Bi116  1  0.66468799  0.53002259  0.19486347  1
  Bi2+  Bi117  1  0.64869671  0.46504030  0.69599108  1
  Bi2+  Bi118  1  0.65118278  0.77229622  0.22362456  1
  Bi2+  Bi119  1  0.61612128  0.72155337  0.70919495  1
  Bi2+  Bi120  1  0.96004551  0.01710196  0.20682350  1
  Bi2+  Bi121  1  0.83310167  -0.01496479  0.71560172  1
  Bi2+  Bi122  1  0.93400232  0.27002060  0.19625868  1
  Bi2+  Bi123  1  0.84620826  0.25274162  0.71787202  1
  Bi2+  Bi124  1  0.90363096  0.50704490  0.27030269  1
  Bi2+  Bi125  1  0.97789405  0.50163953  0.68461643  1
  Bi2+  Bi126  1  0.87256461  0.76119140  0.20780339  1
  Bi2+  Bi127  1  0.83237050  0.73255438  0.70492171  1
  S2-  S128  1  -0.09278168  0.13182531  0.13377967  1
  S2-  S129  1  0.12019276  0.14412468  0.67293581  1
  S2-  S130  1  0.10902602  0.37601203  0.13519342  1
  S2-  S131  1  -0.02964525  0.28144286  0.65526416  1
  S2-  S132  1  0.00525882  0.59786716  0.15564859  1
  S2-  S133  1  -0.02753232  0.71873631  0.64595154  1
  S2-  S134  1  -0.12233729  0.89282245  0.14202375  1
  S2-  S135  1  -0.01511576  0.96702683  0.66858710  1
  S2-  S136  1  0.23475919  0.13357309  0.13960656  1
  S2-  S137  1  0.35935330  0.12694674  0.66133896  1
  S2-  S138  1  0.35600465  0.38570752  0.14222273  1
  S2-  S139  1  0.23780417  0.34489023  0.66459466  1
  S2-  S140  1  0.24705157  0.59775697  0.14510543  1
  S2-  S141  1  0.22461092  0.72907485  0.64172218  1
  S2-  S142  1  0.12597626  0.85594770  0.13816843  1
  S2-  S143  1  0.21655852  0.95396346  0.65752578  1
  S2-  S144  1  0.48728555  0.21200924  0.14945492  1
  S2-  S145  1  0.53396175  0.24830270  0.64617295  1
  S2-  S146  1  0.62745402  0.38731394  0.14637392  1
  S2-  S147  1  0.49193070  0.48975449  0.64669010  1
  S2-  S148  1  0.52084144  0.61513594  0.16135295  1
  S2-  S149  1  0.48857931  0.73804676  0.64051113  1
  S2-  S150  1  0.41525753  0.92718350  0.15264458  1
  S2-  S151  1  0.53393235  0.97516274  0.64141260  1
  S2-  S152  1  0.69253756  0.10111337  0.16735825  1
  S2-  S153  1  0.81043414  0.11739825  0.65130631  1
  S2-  S154  1  0.86914236  0.38748251  0.13633127  1
  S2-  S155  1  0.75066528  0.35805346  0.65343049  1
  S2-  S156  1  0.76050293  0.65528459  0.15063444  1
  S2-  S157  1  0.72660054  0.61304685  0.65394450  1
  S2-  S158  1  0.62518071  0.87135596  0.14509535  1
  S2-  S159  1  0.79952795  0.86444928  0.64132083  1
  S2-  S160  1  0.14408067  -0.02287673  0.35443750  1
  S2-  S161  1  0.22967650  0.01672949  0.84013312  1
  S2-  S162  1  0.12060497  0.24569718  0.35319452  1
  S2-  S163  1  0.14337041  0.20777315  0.81843738  1
  S2-  S164  1  0.16362387  0.47829740  0.34556650  1
  S2-  S165  1  0.13593788  0.40300562  0.85392527  1
  S2-  S166  1  0.22455930  0.71904913  0.36496739  1
  S2-  S167  1  0.10646605  0.85521720  0.85381107  1
  S2-  S168  1  0.45006692  -0.01219984  0.36265540  1
  S2-  S169  1  0.39739594  0.00477973  0.77575684  1
  S2-  S170  1  0.38374496  0.24185349  0.35342276  1
  S2-  S171  1  0.39085171  0.17687925  0.84323315  1
  S2-  S172  1  0.44008092  0.50149809  0.35928224  1
  S2-  S173  1  0.38436389  0.39108673  0.86063519  1
  S2-  S174  1  0.45994994  0.74902243  0.35850819  1
  S2-  S175  1  0.37870683  0.84225461  0.85369976  1
  S2-  S176  1  0.62599540  0.11908217  0.35558186  1
  S2-  S177  1  0.56873948  0.00372377  0.85707805  1
  S2-  S178  1  0.59813512  0.32767542  0.34961946  1
  S2-  S179  1  0.69821677  0.23997498  0.86141834  1
  S2-  S180  1  0.59697863  0.49094766  0.27631939  1
  S2-  S181  1  0.62935298  0.47852756  0.84532692  1
  S2-  S182  1  0.65024967  0.66027844  0.34382881  1
  S2-  S183  1  0.58721468  0.73901243  0.85354335  1
  S2-  S184  1  0.85346490  0.00616896  0.34257744  1
  S2-  S185  1  0.98858529  0.02505522  0.85330324  1
  S2-  S186  1  0.83456999  0.24652321  0.34013129  1
  S2-  S187  1  0.91844732  0.21865284  0.81578861  1
  S2-  S188  1  0.80449115  0.49194836  0.35056360  1
  S2-  S189  1  0.85863117  0.41360245  0.85254389  1
  S2-  S190  1  0.97461381  0.72652792  0.35940709  1
  S2-  S191  1  0.84176953  0.87465944  0.86240219  1
  S2-  S192  1  -0.02079994  0.11458089  0.44325672  1
  S2-  S193  1  -0.01013662  0.13973893  0.94588683  1
  S2-  S194  1  -0.01989432  0.36138483  0.45593328  1
  S2-  S195  1  -0.00936521  0.38148155  0.95171064  1
  S2-  S196  1  -0.02155718  0.60744872  0.45903959  1
  S2-  S197  1  -0.00974435  0.63010752  0.95262380  1
  S2-  S198  1  -0.02485167  0.86625280  0.45109119  1
  S2-  S199  1  -0.00655071  0.87823845  0.95985215  1
  S2-  S200  1  0.22997041  0.11477873  0.45724987  1
  S2-  S201  1  0.24547176  0.13287640  0.94063605  1
  S2-  S202  1  0.23157564  0.36084610  0.45809086  1
  S2-  S203  1  0.24491037  0.38187720  0.95720766  1
  S2-  S204  1  0.23143213  0.60442430  0.46291931  1
  S2-  S205  1  0.24670986  0.62658137  0.94628335  1
  S2-  S206  1  0.22841679  0.86362072  0.46251433  1
  S2-  S207  1  0.24149321  0.87898307  0.95758475  1
  S2-  S208  1  0.47640630  0.11486064  0.46416639  1
  S2-  S209  1  0.49634355  0.13086318  0.95518652  1
  S2-  S210  1  0.47693185  0.35762380  0.46449204  1
  S2-  S211  1  0.49950853  0.37768427  0.96385033  1
  S2-  S212  1  0.47845239  0.61188563  0.46354430  1
  S2-  S213  1  0.49081131  0.62863507  0.95579013  1
  S2-  S214  1  0.47770599  0.86389327  0.46260291  1
  S2-  S215  1  0.49468120  0.88509610  0.96310916  1
  S2-  S216  1  0.73215127  0.11291127  0.45449543  1
  S2-  S217  1  0.74532341  0.12590630  0.95981400  1
  S2-  S218  1  0.72805284  0.36499922  0.44870537  1
  S2-  S219  1  0.73965789  0.38190857  0.95998751  1
  S2-  S220  1  0.73055522  0.60898269  0.45125594  1
  S2-  S221  1  0.74011620  0.63292433  0.95024638  1
  S2-  S222  1  0.72901946  0.86262887  0.44165861  1
  S2-  S223  1  0.73958173  0.88100660  0.96507109  1
  S2-  S224  1  0.11449540  0.00740581  0.03701884  1
  S2-  S225  1  0.09453627  -0.00973745  0.55762410  1
  S2-  S226  1  0.11535907  0.25322288  0.03288242  1
  S2-  S227  1  0.10399461  0.23005606  0.55360678  1
  S2-  S228  1  0.11790792  0.50707796  0.03762503  1
  S2-  S229  1  0.10268983  0.48841419  0.54814884  1
  S2-  S230  1  0.12128634  0.74798886  0.04040988  1
  S2-  S231  1  0.09596102  0.74136825  0.54149929  1
  S2-  S232  1  0.36789106  0.00493342  0.04653120  1
  S2-  S233  1  0.35083335  -0.01202571  0.55122244  1
  S2-  S234  1  0.36784827  0.25320844  0.03914956  1
  S2-  S235  1  0.35007933  0.23531147  0.55456114  1
  S2-  S236  1  0.36876685  0.50286404  0.04012323  1
  S2-  S237  1  0.35035912  0.48782930  0.55200571  1
  S2-  S238  1  0.36751786  0.75494267  0.05072206  1
  S2-  S239  1  0.35406160  0.73695095  0.54495434  1
  S2-  S240  1  0.62329412  0.00709640  0.05199001  1
  S2-  S241  1  0.60957980  -0.01114875  0.53482837  1
  S2-  S242  1  0.62528242  0.24710151  0.04981161  1
  S2-  S243  1  0.60900658  0.23340685  0.53950265  1
  S2-  S244  1  0.61888383  0.50727204  0.04718394  1
  S2-  S245  1  0.60910935  0.48710864  0.54947944  1
  S2-  S246  1  0.61756951  0.75152095  0.05032978  1
  S2-  S247  1  0.60897419  0.73873824  0.53958461  1
  S2-  S248  1  0.87148990  0.00368694  0.03734799  1
  S2-  S249  1  0.86225560  -0.01054430  0.54404009  1
  S2-  S250  1  0.86695009  0.25508080  0.03477488  1
  S2-  S251  1  0.85960899  0.23457321  0.54322396  1
  S2-  S252  1  0.86731629  0.51041353  0.03985193  1
  S2-  S253  1  0.85590353  0.48759730  0.54817474  1
  S2-  S254  1  0.86976238  0.75263828  0.04313653  1
  S2-  S255  1  0.85578090  0.73719757  0.53782218  1
