# generated using pymatgen
data_La6Ce6Pr19Nd20Sm13(BiS2)64
_symmetry_space_group_name_H-M   'P 1'
_cell_length_a   16.00328562
_cell_length_b   16.08974765
_cell_length_c   27.40002734
_cell_angle_alpha   89.77869535
_cell_angle_beta   90.39432527
_cell_angle_gamma   89.89518138
_symmetry_Int_Tables_number   1
_chemical_formula_structural   La6Ce6Pr19Nd20Sm13(BiS2)64
_chemical_formula_sum   'La6 Ce6 Pr19 Nd20 Sm13 Bi64 S128'
_cell_volume   7054.96904173
_cell_formula_units_Z   1
loop_
 _symmetry_equiv_pos_site_id
 _symmetry_equiv_pos_as_xyz
  1  'x, y, z'
loop_
 _atom_type_symbol
 _atom_type_oxidation_number
  La3+  3.0
  Ce3+  3.0
  Pr3+  3.0
  Nd3+  3.0
  Sm3+  3.0
  Bi2+  2.0
  S2-  -2.0
loop_
 _atom_site_type_symbol
 _atom_site_label
 _atom_site_symmetry_multiplicity
 _atom_site_fract_x
 _atom_site_fract_y
 _atom_site_fract_z
 _atom_site_occupancy
  La3+  La0  1  0.15688828  0.76375360  0.92799162  1
  La3+  La1  1  0.39787224  0.51934671  0.90442259  1
  La3+  La2  1  0.90379006  0.00778099  0.92766575  1
  La3+  La3  1  0.50489279  0.36765174  0.60488242  1
  La3+  La4  1  0.75826412  0.62035381  0.56639975  1
  La3+  La5  1  0.28471007  0.13209950  0.07537527  1
  Ce3+  Ce6  1  0.87756591  0.74351950  0.42732828  1
  Ce3+  Ce7  1  0.50877613  0.62024755  0.56943651  1
  Ce3+  Ce8  1  0.13121687  0.25060126  0.43286465  1
  Ce3+  Ce9  1  0.03668601  0.63294795  0.06308262  1
  Ce3+  Ce10  1  0.15977626  0.00972827  0.94135772  1
  Ce3+  Ce11  1  0.50438044  0.12320291  0.55994689  1
  Pr3+  Pr12  1  0.28893343  0.63219376  0.06423259  1
  Pr3+  Pr13  1  0.25506506  0.12277623  0.56470425  1
  Pr3+  Pr14  1  0.75811625  0.36739674  0.56820149  1
  Pr3+  Pr15  1  0.13491592  -0.00690657  0.43891176  1
  Pr3+  Pr16  1  0.37747516  0.73654756  0.42469933  1
  Pr3+  Pr17  1  0.62895561  0.74291333  0.42886466  1
  Pr3+  Pr18  1  0.03692265  0.88027134  0.06519013  1
  Pr3+  Pr19  1  0.25385357  0.36879729  0.57707999  1
  Pr3+  Pr20  1  0.62767479  -0.00598823  0.44374803  1
  Pr3+  Pr21  1  0.87897129  0.49298193  0.43607741  1
  Pr3+  Pr22  1  0.00565468  0.62141164  0.56301503  1
  Pr3+  Pr23  1  0.37784711  0.49205624  0.44124948  1
  Pr3+  Pr24  1  0.62672931  0.49337667  0.44334512  1
  Pr3+  Pr25  1  0.78903323  0.63038750  0.06802135  1
  Pr3+  Pr26  1  0.53586952  0.63032632  0.06484411  1
  Pr3+  Pr27  1  0.65802588  0.51236907  0.93233816  1
  Pr3+  Pr28  1  0.00762436  0.11629218  0.55303832  1
  Pr3+  Pr29  1  0.91102094  0.25340215  0.93040848  1
  Pr3+  Pr30  1  0.65726725  0.25798391  0.94014342  1
  Nd3+  Nd31  1  0.78920329  0.88144278  0.06839408  1
  Nd3+  Nd32  1  0.53685612  0.38576660  0.05965520  1
  Nd3+  Nd33  1  0.25737931  0.61715874  0.56408289  1
  Nd3+  Nd34  1  0.75657198  0.86767142  0.55710649  1
  Nd3+  Nd35  1  0.25623665  0.86167920  0.56497084  1
  Nd3+  Nd36  1  0.62785531  0.24616448  0.44034998  1
  Nd3+  Nd37  1  0.75725742  0.11557567  0.56161728  1
  Nd3+  Nd38  1  0.12867300  0.49160310  0.43753570  1
  Nd3+  Nd39  1  0.37792691  -0.00780632  0.44388029  1
  Nd3+  Nd40  1  0.90621111  0.51063395  0.93068228  1
  Nd3+  Nd41  1  0.53857159  0.13284924  0.07520514  1
  Nd3+  Nd42  1  0.50359663  0.86336864  0.56324517  1
  Nd3+  Nd43  1  0.03328970  0.38107856  0.05685608  1
  Nd3+  Nd44  1  0.53662193  0.88019200  0.07345065  1
  Nd3+  Nd45  1  0.88105739  -0.00630646  0.43372526  1
  Nd3+  Nd46  1  0.38127622  0.25062609  0.43546925  1
  Nd3+  Nd47  1  0.65846436  0.75932416  0.93966617  1
  Nd3+  Nd48  1  0.40719118  0.25747008  0.94319800  1
  Nd3+  Nd49  1  0.41347224  0.75937841  0.93371165  1
  Nd3+  Nd50  1  0.28811034  0.38451305  0.05660574  1
  Sm3+  Sm51  1  0.12652422  0.73511556  0.42332186  1
  Sm3+  Sm52  1  0.78690317  0.38141693  0.05310024  1
  Sm3+  Sm53  1  0.79033456  0.13096782  0.06757934  1
  Sm3+  Sm54  1  0.90783260  0.75976207  0.92414490  1
  Sm3+  Sm55  1  0.40913822  0.00793811  0.94778881  1
  Sm3+  Sm56  1  0.66013500  0.00731034  0.94851648  1
  Sm3+  Sm57  1  0.00255646  0.36772357  0.56373903  1
  Sm3+  Sm58  1  0.16148400  0.25727804  0.94398066  1
  Sm3+  Sm59  1  0.87883828  0.24372028  0.44333575  1
  Sm3+  Sm60  1  0.28702612  0.87994529  0.06679321  1
  Sm3+  Sm61  1  0.15724052  0.51105014  0.94417289  1
  Sm3+  Sm62  1  0.00646303  0.86648764  0.55226468  1
  Sm3+  Sm63  1  0.03268971  0.12874707  0.06621257  1
  Bi2+  Bi64  1  -0.02214294  0.17036348  0.27408854  1
  Bi2+  Bi65  1  0.06899601  0.08590825  0.72476036  1
  Bi2+  Bi66  1  -0.03192755  0.38785657  0.29632371  1
  Bi2+  Bi67  1  -0.03590404  0.37133255  0.82133812  1
  Bi2+  Bi68  1  -0.00338877  0.63086498  0.29144187  1
  Bi2+  Bi69  1  -0.01214889  0.57136678  0.80777052  1
  Bi2+  Bi70  1  -0.01777530  0.90789701  0.28629499  1
  Bi2+  Bi71  1  -0.02037044  0.91858268  0.75633707  1
  Bi2+  Bi72  1  0.17284271  0.16720935  0.30936595  1
  Bi2+  Bi73  1  0.21530239  0.07367721  0.80162829  1
  Bi2+  Bi74  1  0.23099070  0.36226415  0.28662121  1
  Bi2+  Bi75  1  0.24071170  0.34732118  0.80879227  1
  Bi2+  Bi76  1  0.24793544  0.64507673  0.28688529  1
  Bi2+  Bi77  1  0.18824410  0.66463493  0.80482576  1
  Bi2+  Bi78  1  0.22447115  0.89794291  0.28452563  1
  Bi2+  Bi79  1  0.20064211  0.85203577  0.76263913  1
  Bi2+  Bi80  1  0.36716859  0.13414908  0.30759395  1
  Bi2+  Bi81  1  0.46312548  0.08957662  0.76450261  1
  Bi2+  Bi82  1  0.47795571  0.37447338  0.29220874  1
  Bi2+  Bi83  1  0.51575043  0.35688961  0.82504288  1
  Bi2+  Bi84  1  0.49658550  0.63175635  0.28953964  1
  Bi2+  Bi85  1  0.50569040  0.67116393  0.79531034  1
  Bi2+  Bi86  1  0.47901223  0.89404720  0.28296051  1
  Bi2+  Bi87  1  0.41816307  0.88603142  0.79737719  1
  Bi2+  Bi88  1  0.68381968  0.10266705  0.29113672  1
  Bi2+  Bi89  1  0.80379324  0.11333124  0.78627982  1
  Bi2+  Bi90  1  0.67432613  0.37342533  0.30712125  1
  Bi2+  Bi91  1  0.77140625  0.36112026  0.79756940  1
  Bi2+  Bi92  1  0.74497041  0.64156298  0.23436455  1
  Bi2+  Bi93  1  0.79990889  0.62665855  0.78094908  1
  Bi2+  Bi94  1  0.73735121  0.87638713  0.29538518  1
  Bi2+  Bi95  1  0.76516479  0.87702985  0.80240645  1
  Bi2+  Bi96  1  0.00482538  0.02526652  0.19534987  1
  Bi2+  Bi97  1  0.23218491  0.00068381  0.68231817  1
  Bi2+  Bi98  1  0.11280539  0.27013964  0.21295744  1
  Bi2+  Bi99  1  0.08867660  0.32903049  0.73442034  1
  Bi2+  Bi100  1  0.06309465  0.53332501  0.19787556  1
  Bi2+  Bi101  1  0.07504565  0.51828415  0.70454610  1
  Bi2+  Bi102  1  0.09839332  0.77828545  0.22289377  1
  Bi2+  Bi103  1  0.10895315  0.71308169  0.69695601  1
  Bi2+  Bi104  1  0.22534458  0.00388569  0.19586711  1
  Bi2+  Bi105  1  0.42687955  -0.04277062  0.67864518  1
  Bi2+  Bi106  1  0.37734389  0.25813124  0.21832027  1
  Bi2+  Bi107  1  0.33907699  0.20384348  0.70385831  1
  Bi2+  Bi108  1  0.34629486  0.50945176  0.18819279  1
  Bi2+  Bi109  1  0.34507909  0.51100418  0.71150989  1
  Bi2+  Bi110  1  0.38360011  0.76617129  0.21448046  1
  Bi2+  Bi111  1  0.37557040  0.75678622  0.71312606  1
  Bi2+  Bi112  1  0.50420699  0.06629453  0.23057516  1
  Bi2+  Bi113  1  0.59341388  -0.05831853  0.74399762  1
  Bi2+  Bi114  1  0.60371167  0.23963463  0.21490390  1
  Bi2+  Bi115  1  0.63032352  0.23626842  0.71371392  1
  Bi2+  Bi116  1  0.62945188  0.48436833  0.20349034  1
  Bi2+  Bi117  1  0.61952752  0.50221847  0.71536610  1
  Bi2+  Bi118  1  0.60243074  0.78028444  0.22261480  1
  Bi2+  Bi119  1  0.63008373  0.75621089  0.70996420  1
  Bi2+  Bi120  1  0.74546974  0.00235458  0.20266685  1
  Bi2+  Bi121  1  0.83441455  -0.00109397  0.69097676  1
  Bi2+  Bi122  1  0.79655001  0.25237779  0.24856534  1
  Bi2+  Bi123  1  0.89780379  0.26128906  0.72950836  1
  Bi2+  Bi124  1  0.86737518  0.48692933  0.20288061  1
  Bi2+  Bi125  1  0.87251285  0.49169089  0.70858961  1
  Bi2+  Bi126  1  0.89177829  0.77119039  0.21587624  1
  Bi2+  Bi127  1  0.89863273  0.75527024  0.70866553  1
  S2-  S128  1  -0.08634800  0.13360105  0.14006286  1
  S2-  S129  1  -0.04324888  0.10613653  0.64818262  1
  S2-  S130  1  0.01431044  0.37258722  0.15544130  1
  S2-  S131  1  -0.10675478  0.36137091  0.64112765  1
  S2-  S132  1  -0.07432056  0.61798673  0.13828949  1
  S2-  S133  1  -0.11030335  0.62685588  0.64015810  1
  S2-  S134  1  -0.08390740  0.88570031  0.14230940  1
  S2-  S135  1  0.01674228  0.84617613  0.64976002  1
  S2-  S136  1  0.14997195  0.13326607  0.14470056  1
  S2-  S137  1  0.21324243  0.22466849  0.64405117  1
  S2-  S138  1  0.27515264  0.36728725  0.15551410  1
  S2-  S139  1  0.35725273  0.36164739  0.66264589  1
  S2-  S140  1  0.19611473  0.59930270  0.15348135  1
  S2-  S141  1  0.22678251  0.51160532  0.64514460  1
  S2-  S142  1  0.16579467  0.86725770  0.14154749  1
  S2-  S143  1  0.25584128  0.74087779  0.63872082  1
  S2-  S144  1  0.41435053  0.13486752  0.14797359  1
  S2-  S145  1  0.50065385  0.19694846  0.64744659  1
  S2-  S146  1  0.49757474  0.43308549  0.15383973  1
  S2-  S147  1  0.52366987  0.35606729  0.73075644  1
  S2-  S148  1  0.41434610  0.63685686  0.14232346  1
  S2-  S149  1  0.48537704  0.52729699  0.65444606  1
  S2-  S150  1  0.40474388  0.87671971  0.14333079  1
  S2-  S151  1  0.50078959  0.75171707  0.64050858  1
  S2-  S152  1  0.67362092  0.13321839  0.14380117  1
  S2-  S153  1  0.71803459  0.10910691  0.65804348  1
  S2-  S154  1  0.76010436  0.39477805  0.15002963  1
  S2-  S155  1  0.66741294  0.36760128  0.65451609  1
  S2-  S156  1  0.66049911  0.62119938  0.14106162  1
  S2-  S157  1  0.66622598  0.61733288  0.65356606  1
  S2-  S158  1  0.66749353  0.88268972  0.14645197  1
  S2-  S159  1  0.76094540  0.84112776  0.65555571  1
  S2-  S160  1  0.11029300  -0.00582499  0.33989604  1
  S2-  S161  1  0.16007938  -0.07209166  0.85602221  1
  S2-  S162  1  0.11104148  0.37160972  0.36132663  1
  S2-  S163  1  0.15144455  0.21028560  0.84933264  1
  S2-  S164  1  0.13237799  0.59288869  0.35325408  1
  S2-  S165  1  0.19676855  0.50571014  0.84944542  1
  S2-  S166  1  0.24749795  0.76732471  0.35387777  1
  S2-  S167  1  0.03836828  0.71897501  0.85409678  1
  S2-  S168  1  0.35339551  -0.03002424  0.34695566  1
  S2-  S169  1  0.37916671  0.02968257  0.85043031  1
  S2-  S170  1  0.35339553  0.37241148  0.36188337  1
  S2-  S171  1  0.37943594  0.25869096  0.84496278  1
  S2-  S172  1  0.37039299  0.59293975  0.35324334  1
  S2-  S173  1  0.37646001  0.45377707  0.80700647  1
  S2-  S174  1  0.50833776  0.75524082  0.35286645  1
  S2-  S175  1  0.35956680  0.67012676  0.85014899  1
  S2-  S176  1  0.60636241  -0.02580499  0.34550109  1
  S2-  S177  1  0.71708485  0.01518132  0.85559874  1
  S2-  S178  1  0.55280015  0.25454932  0.34998946  1
  S2-  S179  1  0.66008069  0.25040644  0.83902996  1
  S2-  S180  1  0.60623158  0.52230819  0.34330393  1
  S2-  S181  1  0.55514367  0.52605397  0.84861276  1
  S2-  S182  1  0.75473965  0.74378944  0.35530790  1
  S2-  S183  1  0.54217524  0.78956589  0.86169905  1
  S2-  S184  1  0.85657003  -0.00889874  0.33619063  1
  S2-  S185  1  0.91459736  -0.10862264  0.85074617  1
  S2-  S186  1  0.87844238  0.25818040  0.34649902  1
  S2-  S187  1  0.91600273  0.13478009  0.85467783  1
  S2-  S188  1  0.88063852  0.50969953  0.33589419  1
  S2-  S189  1  0.77987049  0.50824142  0.85680891  1
  S2-  S190  1  0.99483482  0.76030210  0.35414277  1
  S2-  S191  1  0.76756603  0.74097672  0.85877267  1
  S2-  S192  1  0.00514813  0.12065667  0.44550388  1
  S2-  S193  1  0.03785365  0.13487980  0.96034083  1
  S2-  S194  1  -0.00169327  0.36627874  0.46023529  1
  S2-  S195  1  0.03579701  0.38240181  0.95054097  1
  S2-  S196  1  0.00192646  0.61707463  0.45608030  1
  S2-  S197  1  0.03155497  0.62897528  0.95786452  1
  S2-  S198  1  0.00715046  0.87215636  0.44998842  1
  S2-  S199  1  0.03295482  0.88316622  0.95736147  1
  S2-  S200  1  0.25606335  0.12264392  0.45517302  1
  S2-  S201  1  0.28530419  0.13384708  0.96185536  1
  S2-  S202  1  0.25141221  0.36764992  0.46532123  1
  S2-  S203  1  0.28387809  0.38511932  0.95095785  1
  S2-  S204  1  0.24937923  0.61725452  0.45904234  1
  S2-  S205  1  0.27996163  0.63296856  0.95667524  1
  S2-  S206  1  0.25459902  0.86782301  0.45890697  1
  S2-  S207  1  0.28791922  0.88475831  0.95758048  1
  S2-  S208  1  0.50152238  0.12004701  0.45325809  1
  S2-  S209  1  0.53400939  0.13099542  0.95734863  1
  S2-  S210  1  0.50606257  0.36805135  0.45575106  1
  S2-  S211  1  0.53010093  0.38491304  0.95177975  1
  S2-  S212  1  0.50594605  0.61864743  0.45982988  1
  S2-  S213  1  0.53051031  0.63247016  0.95680319  1
  S2-  S214  1  0.50282148  0.87019006  0.45756688  1
  S2-  S215  1  0.53414311  0.88989656  0.96476231  1
  S2-  S216  1  0.75537174  0.11920875  0.45184629  1
  S2-  S217  1  0.78110963  0.13519421  0.96089661  1
  S2-  S218  1  0.75592300  0.36627206  0.45520616  1
  S2-  S219  1  0.78618063  0.37863858  0.95044553  1
  S2-  S220  1  0.75513018  0.61682982  0.45635594  1
  S2-  S221  1  0.78762508  0.63406489  0.95989690  1
  S2-  S222  1  0.75528694  0.87276288  0.45221057  1
  S2-  S223  1  0.78203465  0.88277584  0.96049174  1
  S2-  S224  1  0.16194183  0.00626227  0.04495694  1
  S2-  S225  1  0.13291721  -0.00962194  0.54652761  1
  S2-  S226  1  0.16001875  0.25976352  0.04707755  1
  S2-  S227  1  0.12327215  0.24649029  0.53945595  1
  S2-  S228  1  0.15835252  0.50369432  0.04685026  1
  S2-  S229  1  0.12177235  0.49033194  0.54457098  1
  S2-  S230  1  0.16245801  0.75455684  0.03969826  1
  S2-  S231  1  0.12761756  0.74392494  0.53786556  1
  S2-  S232  1  0.41152613  0.00862085  0.04911367  1
  S2-  S233  1  0.37848832  -0.00663330  0.54880750  1
  S2-  S234  1  0.41394409  0.25929252  0.04854513  1
  S2-  S235  1  0.38023656  0.24525965  0.54399425  1
  S2-  S236  1  0.41065264  0.50490298  0.04045793  1
  S2-  S237  1  0.38145619  0.49165516  0.54817556  1
  S2-  S238  1  0.41122399  0.75953784  0.04037066  1
  S2-  S239  1  0.37997956  0.74275359  0.53722624  1
  S2-  S240  1  0.66130396  0.00887085  0.04865578  1
  S2-  S241  1  0.62824279  -0.00784425  0.55104681  1
  S2-  S242  1  0.66080589  0.25943412  0.04613670  1
  S2-  S243  1  0.63407366  0.24121157  0.54578285  1
  S2-  S244  1  0.66354134  0.50330235  0.03926632  1
  S2-  S245  1  0.63090360  0.48989751  0.54880693  1
  S2-  S246  1  0.66126453  0.75804129  0.04529932  1
  S2-  S247  1  0.63305582  0.74703287  0.53973900  1
  S2-  S248  1  0.90883642  0.00863533  0.03913877  1
  S2-  S249  1  0.88152698  -0.00868029  0.54034922  1
  S2-  S250  1  0.90918806  0.25817117  0.03940357  1
  S2-  S251  1  0.88020150  0.23865471  0.54536209  1
  S2-  S252  1  0.90919027  0.50216910  0.03766922  1
  S2-  S253  1  0.88259156  0.49172113  0.54221505  1
  S2-  S254  1  0.91135212  0.75616589  0.03974397  1
  S2-  S255  1  0.88245848  0.74859768  0.53721502  1
