# generated using pymatgen
data_La6Ce6Pr19Nd20Sm13(BiS2)64
_symmetry_space_group_name_H-M   'P 1'
_cell_length_a   16.14477442
_cell_length_b   16.08990371
_cell_length_c   27.18012613
_cell_angle_alpha   90.27267562
_cell_angle_beta   90.20266678
_cell_angle_gamma   90.04106295
_symmetry_Int_Tables_number   1
_chemical_formula_structural   La6Ce6Pr19Nd20Sm13(BiS2)64
_chemical_formula_sum   'La6 Ce6 Pr19 Nd20 Sm13 Bi64 S128'
_cell_volume   7060.39733405
_cell_formula_units_Z   1
loop_
 _symmetry_equiv_pos_site_id
 _symmetry_equiv_pos_as_xyz
  1  'x, y, z'
loop_
 _atom_type_symbol
 _atom_type_oxidation_number
  La3+  3.0
  Ce3+  3.0
  Pr3+  3.0
  Nd3+  3.0
  Sm3+  3.0
  Bi2+  2.0
  S2-  -2.0
loop_
 _atom_site_type_symbol
 _atom_site_label
 _atom_site_symmetry_multiplicity
 _atom_site_fract_x
 _atom_site_fract_y
 _atom_site_fract_z
 _atom_site_occupancy
  La3+  La0  1  0.11081926  0.52100033  0.42763090  1
  La3+  La1  1  0.24744934  0.15360125  0.58117158  1
  La3+  La2  1  0.38402800  0.72590519  0.92249809  1
  La3+  La3  1  0.61329892  0.78094411  0.40150845  1
  La3+  La4  1  0.36223258  0.27209289  0.42320869  1
  La3+  La5  1  0.87155647  -0.02226294  0.90236319  1
  Ce3+  Ce6  1  0.23977551  0.39658240  0.55428221  1
  Ce3+  Ce7  1  0.73841847  0.90070846  0.56067171  1
  Ce3+  Ce8  1  0.23964076  0.64767855  0.55436346  1
  Ce3+  Ce9  1  -0.00992369  0.39808912  0.55522880  1
  Ce3+  Ce10  1  0.50648732  0.61351723  0.07582537  1
  Ce3+  Ce11  1  0.86252385  0.01939590  0.44255506  1
  Pr3+  Pr12  1  0.85713719  0.52533519  0.43846400  1
  Pr3+  Pr13  1  0.12542604  0.23137470  0.92677522  1
  Pr3+  Pr14  1  0.49541625  0.10276311  0.09415201  1
  Pr3+  Pr15  1  0.13494505  -0.01804417  0.91773810  1
  Pr3+  Pr16  1  0.38049105  0.23253842  0.94150473  1
  Pr3+  Pr17  1  0.63204599  0.48549843  0.94726985  1
  Pr3+  Pr18  1  0.00870544  0.61940589  0.07880554  1
  Pr3+  Pr19  1  0.00800912  0.10884926  0.05422901  1
  Pr3+  Pr20  1  -0.00909780  0.64983775  0.56189482  1
  Pr3+  Pr21  1  0.75678962  0.35892686  0.07325454  1
  Pr3+  Pr22  1  0.75575367  0.10941611  0.07078456  1
  Pr3+  Pr23  1  0.12747859  0.73344296  0.92261790  1
  Pr3+  Pr24  1  0.73669510  0.65113020  0.55879160  1
  Pr3+  Pr25  1  0.87222532  0.23065420  0.93579009  1
  Pr3+  Pr26  1  0.73764461  0.15265117  0.56919868  1
  Pr3+  Pr27  1  0.62765041  0.72878801  0.93756290  1
  Pr3+  Pr28  1  0.35492863  0.02001576  0.43465715  1
  Pr3+  Pr29  1  0.11497631  0.27339934  0.42964987  1
  Pr3+  Pr30  1  0.75562493  0.62192555  0.08379058  1
  Nd3+  Nd31  1  0.61286290  0.26850464  0.43442891  1
  Nd3+  Nd32  1  0.87797630  0.73114346  0.93788028  1
  Nd3+  Nd33  1  0.38148707  0.48379490  0.94348825  1
  Nd3+  Nd34  1  0.62733806  -0.01856876  0.94418976  1
  Nd3+  Nd35  1  0.73703582  0.39953561  0.56065352  1
  Nd3+  Nd36  1  0.36584891  0.52267438  0.43014530  1
  Nd3+  Nd37  1  0.37851497  -0.01485435  0.93490996  1
  Nd3+  Nd38  1  0.75290799  0.86310302  0.06118949  1
  Nd3+  Nd39  1  0.50221256  0.35952221  0.06467292  1
  Nd3+  Nd40  1  0.11204255  0.76952713  0.42998669  1
  Nd3+  Nd41  1  0.11697776  0.02300553  0.44365115  1
  Nd3+  Nd42  1  0.86033453  0.26799266  0.43914459  1
  Nd3+  Nd43  1  0.61425693  0.52319020  0.43694377  1
  Nd3+  Nd44  1  0.48759401  0.65173143  0.55466681  1
  Nd3+  Nd45  1  0.49769566  0.85707386  0.06862721  1
  Nd3+  Nd46  1  0.24911068  0.10885093  0.06494963  1
  Nd3+  Nd47  1  -0.00776974  0.14899397  0.55904591  1
  Nd3+  Nd48  1  0.36152228  0.77257287  0.43031441  1
  Nd3+  Nd49  1  0.00757620  0.86034756  0.05358864  1
  Nd3+  Nd50  1  0.12391611  0.48117296  0.92896762  1
  Sm3+  Sm51  1  0.00538101  0.36009122  0.05449308  1
  Sm3+  Sm52  1  0.48808282  0.39908556  0.55211130  1
  Sm3+  Sm53  1  0.24152376  0.89266273  0.56811173  1
  Sm3+  Sm54  1  0.87686769  0.48782111  0.95407806  1
  Sm3+  Sm55  1  0.61196206  0.01924316  0.44125284  1
  Sm3+  Sm56  1  0.86268729  0.77369244  0.44655303  1
  Sm3+  Sm57  1  0.48715538  0.89854290  0.55524545  1
  Sm3+  Sm58  1  0.48596999  0.14958200  0.55387820  1
  Sm3+  Sm59  1  -0.00793463  0.90054632  0.55688424  1
  Sm3+  Sm60  1  0.25074761  0.61044217  0.05474774  1
  Sm3+  Sm61  1  0.25284163  0.35894346  0.05473435  1
  Sm3+  Sm62  1  0.25430284  0.85855641  0.04749015  1
  Sm3+  Sm63  1  0.63103567  0.22963654  0.95511852  1
  Bi2+  Bi64  1  0.06156141  0.07421914  0.31229124  1
  Bi2+  Bi65  1  0.00856112  0.20194337  0.79510183  1
  Bi2+  Bi66  1  0.01169234  0.30087928  0.27904907  1
  Bi2+  Bi67  1  -0.03272819  0.44494382  0.74325914  1
  Bi2+  Bi68  1  0.03687130  0.61753519  0.26150292  1
  Bi2+  Bi69  1  -0.02326935  0.60680917  0.80747751  1
  Bi2+  Bi70  1  0.06126014  0.87720800  0.30431510  1
  Bi2+  Bi71  1  -0.01022383  0.79608058  0.77376325  1
  Bi2+  Bi72  1  0.30972483  0.10841333  0.29676183  1
  Bi2+  Bi73  1  0.26048234  0.11377522  0.78600729  1
  Bi2+  Bi74  1  0.23654284  0.36259451  0.29255112  1
  Bi2+  Bi75  1  0.23595639  0.37356865  0.78934103  1
  Bi2+  Bi76  1  0.25266119  0.60195873  0.31993136  1
  Bi2+  Bi77  1  0.27035115  0.60628448  0.78987782  1
  Bi2+  Bi78  1  0.24321240  0.79851768  0.31063446  1
  Bi2+  Bi79  1  0.22698038  0.86998343  0.77475341  1
  Bi2+  Bi80  1  0.55517710  0.12745343  0.27954387  1
  Bi2+  Bi81  1  0.50906936  0.11624819  0.79735178  1
  Bi2+  Bi82  1  0.52400576  0.35331523  0.30250471  1
  Bi2+  Bi83  1  0.44020752  0.38915652  0.80341583  1
  Bi2+  Bi84  1  0.44872685  0.60860119  0.30100847  1
  Bi2+  Bi85  1  0.52668823  0.63462474  0.79386004  1
  Bi2+  Bi86  1  0.50079307  0.89044375  0.27824227  1
  Bi2+  Bi87  1  0.50837404  0.91961872  0.80234600  1
  Bi2+  Bi88  1  0.81522696  0.12334145  0.24964037  1
  Bi2+  Bi89  1  0.76808715  0.14355162  0.80307925  1
  Bi2+  Bi90  1  0.77460121  0.38839185  0.29484728  1
  Bi2+  Bi91  1  0.63775784  0.36836343  0.78784369  1
  Bi2+  Bi92  1  0.79629735  0.63195103  0.28562252  1
  Bi2+  Bi93  1  0.77675342  0.62501391  0.80619926  1
  Bi2+  Bi94  1  0.84752373  0.89374429  0.30004595  1
  Bi2+  Bi95  1  0.72224992  0.86456962  0.79390574  1
  Bi2+  Bi96  1  0.15161513  -0.01261628  0.20607186  1
  Bi2+  Bi97  1  0.09004639  0.00385488  0.70162824  1
  Bi2+  Bi98  1  0.14545903  0.18699463  0.22940113  1
  Bi2+  Bi99  1  0.12809689  0.26881168  0.70079750  1
  Bi2+  Bi100  1  0.18652801  0.50340254  0.22126785  1
  Bi2+  Bi101  1  0.15237700  0.49609267  0.70729358  1
  Bi2+  Bi102  1  0.15353855  0.74825473  0.20218222  1
  Bi2+  Bi103  1  0.11974497  0.69391680  0.70872772  1
  Bi2+  Bi104  1  0.37203022  -0.02884881  0.20593474  1
  Bi2+  Bi105  1  0.41571595  -0.00110675  0.71072478  1
  Bi2+  Bi106  1  0.38440397  0.26763929  0.19634398  1
  Bi2+  Bi107  1  0.43473396  0.24770178  0.71558572  1
  Bi2+  Bi108  1  0.38191612  0.52498272  0.20131277  1
  Bi2+  Bi109  1  0.34954144  0.47938071  0.71165098  1
  Bi2+  Bi110  1  0.35443193  0.72069626  0.22077185  1
  Bi2+  Bi111  1  0.39845386  0.73610505  0.70736234  1
  Bi2+  Bi112  1  0.67503180  -0.03026125  0.25239469  1
  Bi2+  Bi113  1  0.61161886  -0.00714638  0.71208794  1
  Bi2+  Bi114  1  0.70535204  0.26011734  0.19837744  1
  Bi2+  Bi115  1  0.62313594  0.19267285  0.71446532  1
  Bi2+  Bi116  1  0.57428125  0.50130401  0.23640872  1
  Bi2+  Bi117  1  0.55500914  0.48765487  0.70921046  1
  Bi2+  Bi118  1  0.61735241  0.73700114  0.20794208  1
  Bi2+  Bi119  1  0.66174439  0.72179532  0.72510543  1
  Bi2+  Bi120  1  0.95772758  -0.01180778  0.22063517  1
  Bi2+  Bi121  1  0.85147103  -0.02679686  0.71659676  1
  Bi2+  Bi122  1  0.90252643  0.26098467  0.17986926  1
  Bi2+  Bi123  1  0.87693996  0.24330321  0.69633867  1
  Bi2+  Bi124  1  0.95446106  0.46371816  0.21431786  1
  Bi2+  Bi125  1  0.77414656  0.46087425  0.72284116  1
  Bi2+  Bi126  1  0.89059496  0.73942968  0.20941643  1
  Bi2+  Bi127  1  0.85526405  0.71008212  0.70383308  1
  S2-  S128  1  0.11729686  0.11368697  0.13432966  1
  S2-  S129  1  0.00498640  0.14372873  0.65908780  1
  S2-  S130  1  0.03803233  0.36316583  0.15111399  1
  S2-  S131  1  -0.01212235  0.36725085  0.65182738  1
  S2-  S132  1  -0.11422979  0.59836584  0.15343997  1
  S2-  S133  1  -0.01962410  0.62067997  0.66028810  1
  S2-  S134  1  0.01560569  0.77366494  0.14099538  1
  S2-  S135  1  -0.02717265  0.90297951  0.65485767  1
  S2-  S136  1  0.34650942  0.11559781  0.15031420  1
  S2-  S137  1  0.20706782  0.11670998  0.68292294  1
  S2-  S138  1  0.26144400  0.33640013  0.15236832  1
  S2-  S139  1  0.24567170  0.30871647  0.63827226  1
  S2-  S140  1  0.15563774  0.60598384  0.13748259  1
  S2-  S141  1  0.26014841  0.69896293  0.64698868  1
  S2-  S142  1  0.25177141  0.87386589  0.14696955  1
  S2-  S143  1  0.20489274  0.90778240  0.66668640  1
  S2-  S144  1  0.54090941  0.18657869  0.18171006  1
  S2-  S145  1  0.40453168  0.13353092  0.63934299  1
  S2-  S146  1  0.49011943  0.39630426  0.16236989  1
  S2-  S147  1  0.50006039  0.36171982  0.64729951  1
  S2-  S148  1  0.47969753  0.73949072  0.14591290  1
  S2-  S149  1  0.48604221  0.62972071  0.65368058  1
  S2-  S150  1  0.50828259  0.95794375  0.15250077  1
  S2-  S151  1  0.44187075  0.86020245  0.64814521  1
  S2-  S152  1  0.73903280  0.05011307  0.16545640  1
  S2-  S153  1  0.79714046  0.11298025  0.66233673  1
  S2-  S154  1  0.75388923  0.40965701  0.17151193  1
  S2-  S155  1  0.74675637  0.33116907  0.65091030  1
  S2-  S156  1  0.62855029  0.60012250  0.15469879  1
  S2-  S157  1  0.73567531  0.59986242  0.65520541  1
  S2-  S158  1  0.74870146  0.78482168  0.15067063  1
  S2-  S159  1  0.73979384  0.89932820  0.65869762  1
  S2-  S160  1  0.21858590  0.01856109  0.36222975  1
  S2-  S161  1  0.12344758  0.11516180  0.84829271  1
  S2-  S162  1  0.23218143  0.23494469  0.35563131  1
  S2-  S163  1  0.10976119  0.35604633  0.85322038  1
  S2-  S164  1  0.10012118  0.39736723  0.35166374  1
  S2-  S165  1  0.13064135  0.59947591  0.85449793  1
  S2-  S166  1  0.08912240  0.64719614  0.35637619  1
  S2-  S167  1  0.10413830  0.85490600  0.84490209  1
  S2-  S168  1  0.42576297  0.00721495  0.33956790  1
  S2-  S169  1  0.28412583  -0.01722737  0.84800760  1
  S2-  S170  1  0.44100026  0.21518711  0.33133253  1
  S2-  S171  1  0.36452531  0.18836332  0.84372779  1
  S2-  S172  1  0.37779873  0.41312432  0.35009159  1
  S2-  S173  1  0.39949259  0.57356990  0.85892889  1
  S2-  S174  1  0.46226378  0.77127160  0.34814372  1
  S2-  S175  1  0.29417602  0.75915184  0.83110741  1
  S2-  S176  1  0.63160948  -0.06064868  0.35420424  1
  S2-  S177  1  0.71320787  0.00236521  0.85652533  1
  S2-  S178  1  0.64450167  0.23249680  0.33739171  1
  S2-  S179  1  0.65860772  0.24012506  0.85866136  1
  S2-  S180  1  0.64008826  0.47390779  0.34214133  1
  S2-  S181  1  0.63968433  0.59097939  0.86700849  1
  S2-  S182  1  0.66398632  0.71072061  0.30987371  1
  S2-  S183  1  0.51983918  0.76940687  0.85743781  1
  S2-  S184  1  0.84303776  0.04956582  0.34807219  1
  S2-  S185  1  0.91716841  0.05071454  0.80931456  1
  S2-  S186  1  0.86734629  0.28130696  0.33990025  1
  S2-  S187  1  0.87536197  0.26664393  0.83543101  1
  S2-  S188  1  0.87233681  0.49931857  0.33879736  1
  S2-  S189  1  0.85937566  0.49813436  0.85639864  1
  S2-  S190  1  0.87400180  0.74548201  0.34977027  1
  S2-  S191  1  0.86649464  0.82236647  0.84983065  1
  S2-  S192  1  -0.01089351  0.14683613  0.45169140  1
  S2-  S193  1  -0.00608460  0.10178468  0.94766419  1
  S2-  S194  1  -0.01973880  0.39675893  0.45097412  1
  S2-  S195  1  -0.00584481  0.35937888  0.95174906  1
  S2-  S196  1  -0.01677384  0.64857120  0.45658289  1
  S2-  S197  1  0.00067170  0.60868079  0.95860720  1
  S2-  S198  1  -0.01026388  0.89548844  0.45084871  1
  S2-  S199  1  -0.00354379  0.86309830  0.94955755  1
  S2-  S200  1  0.23802157  0.14718168  0.46537859  1
  S2-  S201  1  0.25460308  0.10993833  0.95622451  1
  S2-  S202  1  0.24034002  0.40175806  0.45104852  1
  S2-  S203  1  0.25678220  0.35938920  0.94912378  1
  S2-  S204  1  0.24087938  0.64716292  0.45050684  1
  S2-  S205  1  0.25311643  0.60446858  0.95273980  1
  S2-  S206  1  0.23494954  0.88888616  0.45918409  1
  S2-  S207  1  0.25788110  0.85452226  0.94592503  1
  S2-  S208  1  0.48967213  0.14174674  0.45018974  1
  S2-  S209  1  0.50682517  0.10879903  0.94944980  1
  S2-  S210  1  0.49363584  0.39717105  0.44928566  1
  S2-  S211  1  0.50802551  0.35734266  0.95643520  1
  S2-  S212  1  0.49208995  0.64856466  0.44817717  1
  S2-  S213  1  0.50504967  0.60603544  0.96754415  1
  S2-  S214  1  0.48954237  0.89627263  0.45269450  1
  S2-  S215  1  0.50053837  0.86299596  0.96107578  1
  S2-  S216  1  0.73478614  0.14362939  0.45851330  1
  S2-  S217  1  0.75499951  0.10518607  0.96267259  1
  S2-  S218  1  0.73662910  0.39417309  0.45338722  1
  S2-  S219  1  0.75377192  0.35823080  0.96330503  1
  S2-  S220  1  0.73265394  0.65485810  0.45006490  1
  S2-  S221  1  0.75707579  0.61061890  0.97001894  1
  S2-  S222  1  0.73723852  0.89366587  0.45516526  1
  S2-  S223  1  0.75269497  0.85828635  0.95580964  1
  S2-  S224  1  0.13156485  -0.01896887  0.03375539  1
  S2-  S225  1  0.11842186  0.02083418  0.55069983  1
  S2-  S226  1  0.12914372  0.23974615  0.03517788  1
  S2-  S227  1  0.11253078  0.27374002  0.53957354  1
  S2-  S228  1  0.12969469  0.47984062  0.03802912  1
  S2-  S229  1  0.11405575  0.52317863  0.54311815  1
  S2-  S230  1  0.13201937  0.73611020  0.03314367  1
  S2-  S231  1  0.11391147  0.77536094  0.54359203  1
  S2-  S232  1  0.37616588  -0.01411781  0.04232344  1
  S2-  S233  1  0.36123729  0.01606327  0.54329492  1
  S2-  S234  1  0.38008850  0.23462614  0.04752686  1
  S2-  S235  1  0.36952908  0.27568878  0.53577478  1
  S2-  S236  1  0.37557824  0.48505420  0.04991243  1
  S2-  S237  1  0.36595297  0.52275420  0.54109043  1
  S2-  S238  1  0.37195482  0.73155231  0.04036418  1
  S2-  S239  1  0.36362703  0.77401167  0.53779300  1
  S2-  S240  1  0.62707736  -0.01203737  0.04966479  1
  S2-  S241  1  0.61019422  0.02550084  0.54954818  1
  S2-  S242  1  0.62564602  0.23192611  0.05919209  1
  S2-  S243  1  0.61088990  0.27185559  0.54300704  1
  S2-  S244  1  0.63042329  0.48056575  0.05334044  1
  S2-  S245  1  0.61221526  0.52298758  0.54483278  1
  S2-  S246  1  0.62788461  0.73943499  0.04546025  1
  S2-  S247  1  0.61136244  0.77566327  0.55488017  1
  S2-  S248  1  0.88292632  -0.01603558  0.05994407  1
  S2-  S249  1  0.86587652  0.02374786  0.54890034  1
  S2-  S250  1  0.88097901  0.23392313  0.04592848  1
  S2-  S251  1  0.86383769  0.27168089  0.54532124  1
  S2-  S252  1  0.88303536  0.48227050  0.05645210  1
  S2-  S253  1  0.86172843  0.52335808  0.54698868  1
  S2-  S254  1  0.87929507  0.73907796  0.04380288  1
  S2-  S255  1  0.86537537  0.77622412  0.55174132  1
