# generated using pymatgen
data_La6Ce6Pr19Nd20Sm13(BiS2)64
_symmetry_space_group_name_H-M   'P 1'
_cell_length_a   16.03439106
_cell_length_b   16.13480637
_cell_length_c   27.21001381
_cell_angle_alpha   90.03291733
_cell_angle_beta   90.07070013
_cell_angle_gamma   89.78185721
_symmetry_Int_Tables_number   1
_chemical_formula_structural   La6Ce6Pr19Nd20Sm13(BiS2)64
_chemical_formula_sum   'La6 Ce6 Pr19 Nd20 Sm13 Bi64 S128'
_cell_volume   7039.49399252
_cell_formula_units_Z   1
loop_
 _symmetry_equiv_pos_site_id
 _symmetry_equiv_pos_as_xyz
  1  'x, y, z'
loop_
 _atom_type_symbol
 _atom_type_oxidation_number
  La3+  3.0
  Ce3+  3.0
  Pr3+  3.0
  Nd3+  3.0
  Sm3+  3.0
  Bi2+  2.0
  S2-  -2.0
loop_
 _atom_site_type_symbol
 _atom_site_label
 _atom_site_symmetry_multiplicity
 _atom_site_fract_x
 _atom_site_fract_y
 _atom_site_fract_z
 _atom_site_occupancy
  La3+  La0  1  0.74045772  0.12653723  0.57835303  1
  La3+  La1  1  0.61787227  0.74812771  0.91794313  1
  La3+  La2  1  0.75730162  0.37352017  0.06532930  1
  La3+  La3  1  0.88017961  -0.00824614  0.88705872  1
  La3+  La4  1  0.11420937  -0.01205493  0.40215268  1
  La3+  La5  1  0.36920519  0.24070905  0.40912601  1
  Ce3+  Ce6  1  0.88108673  0.76043399  0.94996321  1
  Ce3+  Ce7  1  0.51011144  0.37606471  0.06955005  1
  Ce3+  Ce8  1  0.62361112  0.00102174  0.44428078  1
  Ce3+  Ce9  1  0.12443223  0.74805480  0.44021865  1
  Ce3+  Ce10  1  0.25967981  0.88319201  0.07359764  1
  Ce3+  Ce11  1  0.00437646  0.62309216  0.07052421  1
  Pr3+  Pr12  1  0.88258369  0.50247499  0.93096670  1
  Pr3+  Pr13  1  0.62131493  0.75183117  0.44349160  1
  Pr3+  Pr14  1  0.74688034  0.87880653  0.57405634  1
  Pr3+  Pr15  1  0.38180583  0.00315135  0.93863002  1
  Pr3+  Pr16  1  0.37064533  0.75348776  0.94249801  1
  Pr3+  Pr17  1  0.24116455  0.14093821  0.09556582  1
  Pr3+  Pr18  1  -0.00053981  0.87426102  0.56379207  1
  Pr3+  Pr19  1  0.50903594  0.87836543  0.06740300  1
  Pr3+  Pr20  1  0.74893405  0.37474707  0.57659504  1
  Pr3+  Pr21  1  -0.00350328  0.62074830  0.55728284  1
  Pr3+  Pr22  1  0.75687392  0.88479639  0.05892978  1
  Pr3+  Pr23  1  -0.00278391  0.12368874  0.55804062  1
  Pr3+  Pr24  1  0.00019095  0.36866167  0.57188071  1
  Pr3+  Pr25  1  0.11676355  0.25435394  0.42516116  1
  Pr3+  Pr26  1  0.62720208  0.50391107  0.42767219  1
  Pr3+  Pr27  1  0.37919357  0.49326008  0.41050686  1
  Pr3+  Pr28  1  0.24996345  0.87340266  0.55964544  1
  Pr3+  Pr29  1  0.51736011  0.63204326  0.07059381  1
  Pr3+  Pr30  1  0.24885232  0.36898990  0.56176425  1
  Nd3+  Nd31  1  0.49237533  0.87329797  0.57139965  1
  Nd3+  Nd32  1  0.87104223  0.49668394  0.43657436  1
  Nd3+  Nd33  1  0.87220289  0.24543609  0.43779997  1
  Nd3+  Nd34  1  0.01279735  0.88704929  0.07735381  1
  Nd3+  Nd35  1  0.38014222  0.50393327  0.94741923  1
  Nd3+  Nd36  1  0.49886017  0.62006854  0.56110821  1
  Nd3+  Nd37  1  0.12527776  0.49670335  0.43876903  1
  Nd3+  Nd38  1  0.62933345  0.50266522  0.93573225  1
  Nd3+  Nd39  1  0.63242700  0.25527572  0.93251803  1
  Nd3+  Nd40  1  0.13009341  0.50663434  0.94346964  1
  Nd3+  Nd41  1  0.50428216  0.12810457  0.05907442  1
  Nd3+  Nd42  1  0.87040331  -0.00101091  0.43642917  1
  Nd3+  Nd43  1  0.14080720  0.25791912  0.93881597  1
  Nd3+  Nd44  1  0.12776125  0.75847582  0.95084328  1
  Nd3+  Nd45  1  0.89287329  0.25093883  0.92398444  1
  Nd3+  Nd46  1  0.26085913  0.38643743  0.08271475  1
  Nd3+  Nd47  1  0.75588722  0.63071955  0.05361167  1
  Nd3+  Nd48  1  0.24680456  0.12329912  0.54483368  1
  Nd3+  Nd49  1  0.49843811  0.37333914  0.55752652  1
  Nd3+  Nd50  1  0.38053206  -0.00486677  0.42748703  1
  Sm3+  Sm51  1  0.75986162  0.12761494  0.04330028  1
  Sm3+  Sm52  1  0.24834207  0.61871746  0.55535554  1
  Sm3+  Sm53  1  0.62245883  0.24901124  0.44010465  1
  Sm3+  Sm54  1  0.25919891  0.62662989  0.06917226  1
  Sm3+  Sm55  1  0.62833345  0.00212504  0.92776764  1
  Sm3+  Sm56  1  0.87336331  0.75232408  0.44822180  1
  Sm3+  Sm57  1  0.49459591  0.12566180  0.55932419  1
  Sm3+  Sm58  1  0.37298413  0.74720733  0.43926497  1
  Sm3+  Sm59  1  0.12692400  0.00808706  0.94970778  1
  Sm3+  Sm60  1  0.00184031  0.14046204  0.06571570  1
  Sm3+  Sm61  1  0.37610916  0.25640730  0.95064630  1
  Sm3+  Sm62  1  0.74504778  0.62355540  0.56028115  1
  Sm3+  Sm63  1  0.00685578  0.38112841  0.06091058  1
  Bi2+  Bi64  1  -0.08456043  0.12953865  0.29265095  1
  Bi2+  Bi65  1  0.02230900  0.12834686  0.78938225  1
  Bi2+  Bi66  1  -0.02432359  0.38958353  0.29111398  1
  Bi2+  Bi67  1  0.00793525  0.38009182  0.78816086  1
  Bi2+  Bi68  1  -0.03081527  0.60371024  0.28987044  1
  Bi2+  Bi69  1  0.02332886  0.56862672  0.82704100  1
  Bi2+  Bi70  1  -0.04070086  0.82311268  0.29842544  1
  Bi2+  Bi71  1  0.13934671  0.87691429  0.80135871  1
  Bi2+  Bi72  1  0.26697688  0.12794345  0.26549692  1
  Bi2+  Bi73  1  0.26609318  0.13797267  0.79525319  1
  Bi2+  Bi74  1  0.22625901  0.36195036  0.27818642  1
  Bi2+  Bi75  1  0.28829871  0.39998783  0.79972054  1
  Bi2+  Bi76  1  0.18432947  0.65426622  0.27753547  1
  Bi2+  Bi77  1  0.20586144  0.66930906  0.77485923  1
  Bi2+  Bi78  1  0.20665204  0.86728564  0.26671435  1
  Bi2+  Bi79  1  0.32344557  0.94698973  0.81190809  1
  Bi2+  Bi80  1  0.51991964  0.10880071  0.29632267  1
  Bi2+  Bi81  1  0.45237724  0.18422402  0.76158796  1
  Bi2+  Bi82  1  0.50567522  0.36440212  0.27763341  1
  Bi2+  Bi83  1  0.52763046  0.35616195  0.80986699  1
  Bi2+  Bi84  1  0.46669290  0.63920462  0.30139051  1
  Bi2+  Bi85  1  0.46899288  0.61802645  0.79791498  1
  Bi2+  Bi86  1  0.56151840  0.84190953  0.29950955  1
  Bi2+  Bi87  1  0.51032396  0.87930548  0.78997649  1
  Bi2+  Bi88  1  0.74326230  0.11878895  0.35189641  1
  Bi2+  Bi89  1  0.77040852  0.09665410  0.76737367  1
  Bi2+  Bi90  1  0.77693352  0.37681727  0.29711978  1
  Bi2+  Bi91  1  0.72289473  0.39617227  0.79621805  1
  Bi2+  Bi92  1  0.74571193  0.64945551  0.29014444  1
  Bi2+  Bi93  1  0.81771350  0.57390337  0.80991481  1
  Bi2+  Bi94  1  0.72574843  0.94952171  0.28520280  1
  Bi2+  Bi95  1  0.78935780  0.84524142  0.77617191  1
  Bi2+  Bi96  1  0.05561452  -0.03014559  0.21584746  1
  Bi2+  Bi97  1  0.16429054  0.01199776  0.70628442  1
  Bi2+  Bi98  1  0.07609784  0.23972911  0.21367931  1
  Bi2+  Bi99  1  0.21679061  0.27527553  0.71487856  1
  Bi2+  Bi100  1  0.09869897  0.49968044  0.21503630  1
  Bi2+  Bi101  1  0.15558567  0.52298020  0.70067052  1
  Bi2+  Bi102  1  0.05284647  0.69971630  0.19608719  1
  Bi2+  Bi103  1  0.15154238  0.81284509  0.68991694  1
  Bi2+  Bi104  1  0.43366291  -0.04600659  0.22441884  1
  Bi2+  Bi105  1  0.36351696  0.03027333  0.70541396  1
  Bi2+  Bi106  1  0.41763379  0.23159100  0.20770982  1
  Bi2+  Bi107  1  0.39429241  0.29835985  0.66777632  1
  Bi2+  Bi108  1  0.36465087  0.50008918  0.21809692  1
  Bi2+  Bi109  1  0.42385673  0.46406256  0.72525249  1
  Bi2+  Bi110  1  0.35308076  0.76186068  0.23126964  1
  Bi2+  Bi111  1  0.33495251  0.78549641  0.72349879  1
  Bi2+  Bi112  1  0.61449810  0.02647430  0.19794956  1
  Bi2+  Bi113  1  0.65275799  -0.02886216  0.69999682  1
  Bi2+  Bi114  1  0.67511187  0.22659689  0.25765838  1
  Bi2+  Bi115  1  0.60443643  0.25168785  0.70116416  1
  Bi2+  Bi116  1  0.62670631  0.50872114  0.20561658  1
  Bi2+  Bi117  1  0.62491878  0.49691870  0.71574481  1
  Bi2+  Bi118  1  0.57879895  0.75544417  0.19851802  1
  Bi2+  Bi119  1  0.62785872  0.71306167  0.70315286  1
  Bi2+  Bi120  1  0.83382051  0.04150274  0.20540600  1
  Bi2+  Bi121  1  0.97002954  0.01481218  0.68274801  1
  Bi2+  Bi122  1  0.82102475  0.30847964  0.19042854  1
  Bi2+  Bi123  1  0.89197042  0.27808161  0.71531070  1
  Bi2+  Bi124  1  0.83145431  0.50934801  0.20024400  1
  Bi2+  Bi125  1  0.89429799  0.54172112  0.70805237  1
  Bi2+  Bi126  1  0.85784645  0.71188192  0.20700797  1
  Bi2+  Bi127  1  0.93989201  0.71550873  0.77222995  1
  S2-  S128  1  0.09058802  0.10342202  0.15454224  1
  S2-  S129  1  -0.00939678  0.19154940  0.65368203  1
  S2-  S130  1  -0.02740845  0.27311755  0.13764537  1
  S2-  S131  1  -0.11549775  0.40494056  0.64639441  1
  S2-  S132  1  -0.01290472  0.49679995  0.13899746  1
  S2-  S133  1  0.02285264  0.60679009  0.65680675  1
  S2-  S134  1  -0.08420339  0.90729723  0.16291686  1
  S2-  S135  1  -0.01655380  0.84915403  0.66366861  1
  S2-  S136  1  0.33738687  0.08093700  0.17281966  1
  S2-  S137  1  0.24726649  0.13189504  0.64644856  1
  S2-  S138  1  0.21101197  0.28354251  0.16340696  1
  S2-  S139  1  0.13679225  0.37389672  0.64207891  1
  S2-  S140  1  0.24442069  0.52686612  0.15011667  1
  S2-  S141  1  0.25964970  0.61906299  0.65386700  1
  S2-  S142  1  0.14392730  0.88560380  0.14922327  1
  S2-  S143  1  0.35575304  0.88364835  0.64115939  1
  S2-  S144  1  0.54324792  0.17061493  0.15336879  1
  S2-  S145  1  0.58299507  0.10955624  0.64509082  1
  S2-  S146  1  0.40628074  0.37613932  0.14999278  1
  S2-  S147  1  0.60512284  0.39560979  0.63915025  1
  S2-  S148  1  0.46542237  0.59375413  0.16958260  1
  S2-  S149  1  0.50756034  0.63106781  0.66118340  1
  S2-  S150  1  0.38619240  0.86178397  0.14493621  1
  S2-  S151  1  0.55388378  0.85248338  0.66743519  1
  S2-  S152  1  0.77721252  0.16923588  0.13920972  1
  S2-  S153  1  0.79588173  0.02591310  0.65535363  1
  S2-  S154  1  0.63319822  0.38849266  0.14246038  1
  S2-  S155  1  0.75585034  0.24831112  0.65384276  1
  S2-  S156  1  0.66184950  0.64115487  0.13871386  1
  S2-  S157  1  0.74166283  0.60014754  0.65790504  1
  S2-  S158  1  0.64315774  0.87643849  0.13885320  1
  S2-  S159  1  0.75191787  0.82826264  0.67200497  1
  S2-  S160  1  0.15809638  0.02588370  0.30353417  1
  S2-  S161  1  0.05673822  0.00079087  0.85847163  1
  S2-  S162  1  0.20805152  0.23513366  0.33827945  1
  S2-  S163  1  0.04919817  0.24658564  0.85204336  1
  S2-  S164  1  0.11340714  0.42724236  0.34860028  1
  S2-  S165  1  0.14240515  0.43846318  0.85098915  1
  S2-  S166  1  0.12021201  0.82201598  0.35168212  1
  S2-  S167  1  0.21767911  0.75169545  0.86423135  1
  S2-  S168  1  0.36677276  0.09856977  0.34494517  1
  S2-  S169  1  0.49742398  0.00001701  0.85750313  1
  S2-  S170  1  0.35862965  0.36744818  0.33705137  1
  S2-  S171  1  0.28240928  0.26718696  0.86719033  1
  S2-  S172  1  0.31065347  0.57489982  0.32534827  1
  S2-  S173  1  0.34638019  0.54377551  0.85181472  1
  S2-  S174  1  0.39601431  0.78482979  0.34389954  1
  S2-  S175  1  0.45801008  0.75875122  0.85539959  1
  S2-  S176  1  0.52729211  -0.02682756  0.36435512  1
  S2-  S177  1  0.71913790  0.00031430  0.83925588  1
  S2-  S178  1  0.53047508  0.25060324  0.35554310  1
  S2-  S179  1  0.65443564  0.24244739  0.83252887  1
  S2-  S180  1  0.52419033  0.49157380  0.34463500  1
  S2-  S181  1  0.60064157  0.59401247  0.85259293  1
  S2-  S182  1  0.61483139  0.68015343  0.35185235  1
  S2-  S183  1  0.65629016  0.79576620  0.81905736  1
  S2-  S184  1  0.95593858  -0.01851741  0.34846152  1
  S2-  S185  1  0.90391300  -0.01459042  0.77367085  1
  S2-  S186  1  0.97860059  0.24856024  0.35593461  1
  S2-  S187  1  0.87184150  0.15190124  0.83916764  1
  S2-  S188  1  0.76261901  0.51341087  0.35776724  1
  S2-  S189  1  0.87472671  0.38074381  0.85403213  1
  S2-  S190  1  0.83621261  0.76859095  0.35201113  1
  S2-  S191  1  0.90301349  0.81827998  0.85835354  1
  S2-  S192  1  0.00046267  0.11641754  0.45152809  1
  S2-  S193  1  0.01193139  0.13410967  0.96032313  1
  S2-  S194  1  -0.00551139  0.37740125  0.45897585  1
  S2-  S195  1  0.00943558  0.38173586  0.95703513  1
  S2-  S196  1  -0.00353821  0.62413613  0.44827000  1
  S2-  S197  1  0.00490260  0.63213696  0.96120682  1
  S2-  S198  1  -0.00153986  0.87295402  0.45704024  1
  S2-  S199  1  0.00773651  0.88202327  0.96798560  1
  S2-  S200  1  0.23763271  0.11131683  0.44178539  1
  S2-  S201  1  0.25690847  0.12591661  0.95609375  1
  S2-  S202  1  0.25184590  0.37540005  0.45256470  1
  S2-  S203  1  0.25767437  0.38529193  0.97007538  1
  S2-  S204  1  0.25053975  0.62170998  0.44910804  1
  S2-  S205  1  0.25274857  0.62671159  0.96557436  1
  S2-  S206  1  0.24986131  0.87475661  0.45060928  1
  S2-  S207  1  0.25290821  0.88392473  0.96370902  1
  S2-  S208  1  0.49867076  0.12446114  0.45609045  1
  S2-  S209  1  0.50341141  0.13643321  0.95131901  1
  S2-  S210  1  0.49970408  0.37622923  0.45356764  1
  S2-  S211  1  0.50402214  0.37738657  0.95612958  1
  S2-  S212  1  0.49252674  0.62275053  0.45405427  1
  S2-  S213  1  0.50148875  0.62781614  0.96182939  1
  S2-  S214  1  0.49354440  0.86827309  0.46390825  1
  S2-  S215  1  0.50520768  0.87685609  0.95962369  1
  S2-  S216  1  0.74758641  0.12442204  0.46626107  1
  S2-  S217  1  0.75367980  0.12638222  0.94193804  1
  S2-  S218  1  0.74816461  0.36950831  0.45333654  1
  S2-  S219  1  0.75255926  0.37958034  0.95326265  1
  S2-  S220  1  0.75147581  0.63071635  0.45715475  1
  S2-  S221  1  0.75660524  0.63131353  0.94814170  1
  S2-  S222  1  0.74778556  0.87434150  0.45982592  1
  S2-  S223  1  0.75445395  0.88260371  0.95055679  1
  S2-  S224  1  0.13392609  0.01390175  0.05101767  1
  S2-  S225  1  0.12461194  -0.00263438  0.55226206  1
  S2-  S226  1  0.13220638  0.26040704  0.04649178  1
  S2-  S227  1  0.12254074  0.24711472  0.53614121  1
  S2-  S228  1  0.13191167  0.50549042  0.04850960  1
  S2-  S229  1  0.12354474  0.49879861  0.54355090  1
  S2-  S230  1  0.13297891  0.74859915  0.05561563  1
  S2-  S231  1  0.12544067  0.74528770  0.54638884  1
  S2-  S232  1  0.38082589  0.00666184  0.04716297  1
  S2-  S233  1  0.37439501  0.00212974  0.53761893  1
  S2-  S234  1  0.37464375  0.24814933  0.05315030  1
  S2-  S235  1  0.37339320  0.24612462  0.53663757  1
  S2-  S236  1  0.38826541  0.50899187  0.05174623  1
  S2-  S237  1  0.37234087  0.49767096  0.55352775  1
  S2-  S238  1  0.38002187  0.74722643  0.04996745  1
  S2-  S239  1  0.37142693  0.74174900  0.54515413  1
  S2-  S240  1  0.63099043  0.00922741  0.03599203  1
  S2-  S241  1  0.61696879  -0.00556513  0.54833856  1
  S2-  S242  1  0.63154806  0.25001266  0.03904227  1
  S2-  S243  1  0.61852590  0.24887646  0.54299790  1
  S2-  S244  1  0.63428220  0.50368206  0.04008500  1
  S2-  S245  1  0.62597767  0.50248846  0.53754763  1
  S2-  S246  1  0.63408115  0.75646030  0.03367595  1
  S2-  S247  1  0.62232018  0.74907036  0.55113845  1
  S2-  S248  1  0.88344922  0.01013928  0.05309816  1
  S2-  S249  1  0.87278530  -0.00313205  0.54354260  1
  S2-  S250  1  0.87898910  0.25546089  0.03123245  1
  S2-  S251  1  0.87219055  0.24995072  0.54349274  1
  S2-  S252  1  0.87629826  0.50346573  0.03876930  1
  S2-  S253  1  0.86906272  0.50190268  0.54173569  1
  S2-  S254  1  0.88179768  0.75610902  0.05613734  1
  S2-  S255  1  0.87030112  0.74815383  0.55348567  1
