# generated using pymatgen
data_La6Ce6Pr19Nd20Sm13(BiS2)64
_symmetry_space_group_name_H-M   'P 1'
_cell_length_a   16.10465092
_cell_length_b   16.13296355
_cell_length_c   27.16914870
_cell_angle_alpha   90.04218764
_cell_angle_beta   90.10515065
_cell_angle_gamma   90.06796747
_symmetry_Int_Tables_number   1
_chemical_formula_structural   La6Ce6Pr19Nd20Sm13(BiS2)64
_chemical_formula_sum   'La6 Ce6 Pr19 Nd20 Sm13 Bi64 S128'
_cell_volume   7058.95386228
_cell_formula_units_Z   1
loop_
 _symmetry_equiv_pos_site_id
 _symmetry_equiv_pos_as_xyz
  1  'x, y, z'
loop_
 _atom_type_symbol
 _atom_type_oxidation_number
  La3+  3.0
  Ce3+  3.0
  Pr3+  3.0
  Nd3+  3.0
  Sm3+  3.0
  Bi2+  2.0
  S2-  -2.0
loop_
 _atom_site_type_symbol
 _atom_site_label
 _atom_site_symmetry_multiplicity
 _atom_site_fract_x
 _atom_site_fract_y
 _atom_site_fract_z
 _atom_site_occupancy
  La3+  La0  1  0.63528779  0.76715530  0.92560803  1
  La3+  La1  1  0.01685027  0.12109736  0.58315335  1
  La3+  La2  1  0.63297465  0.51794778  0.90329475  1
  La3+  La3  1  0.25052761  0.63876090  0.58759819  1
  La3+  La4  1  0.12930774  0.00576161  0.39993160  1
  La3+  La5  1  0.12330866  0.74064135  0.40108476  1
  Ce3+  Ce6  1  0.37756770  0.50678236  0.46344437  1
  Ce3+  Ce7  1  0.88380570  0.75226838  0.44818150  1
  Ce3+  Ce8  1  0.74769802  0.88830472  0.06642800  1
  Ce3+  Ce9  1  0.37979215  0.25005819  0.44964511  1
  Ce3+  Ce10  1  0.00487017  0.88955068  0.05894846  1
  Ce3+  Ce11  1  0.37640429  0.01141283  0.94418714  1
  Pr3+  Pr12  1  0.00818147  0.37394187  0.56941329  1
  Pr3+  Pr13  1  0.63123088  -0.00155525  0.43531573  1
  Pr3+  Pr14  1  0.37084489  0.51496568  0.91505722  1
  Pr3+  Pr15  1  0.50513904  0.11821310  0.56728483  1
  Pr3+  Pr16  1  0.75096463  0.63397072  0.05896859  1
  Pr3+  Pr17  1  0.25225673  0.39250964  0.05998487  1
  Pr3+  Pr18  1  0.25171513  0.13858995  0.06927755  1
  Pr3+  Pr19  1  0.13175163  0.25151511  0.43908772  1
  Pr3+  Pr20  1  0.26028609  0.88917009  0.08865913  1
  Pr3+  Pr21  1  0.50336114  0.39048532  0.04661144  1
  Pr3+  Pr22  1  0.25616326  0.11920750  0.56125062  1
  Pr3+  Pr23  1  0.01171038  0.87516858  0.56174774  1
  Pr3+  Pr24  1  0.51142225  0.63051198  0.58096266  1
  Pr3+  Pr25  1  0.50260616  0.87409938  0.56324733  1
  Pr3+  Pr26  1  0.62417198  0.24996647  0.44042003  1
  Pr3+  Pr27  1  0.37823585  0.74167509  0.43201972  1
  Pr3+  Pr28  1  0.25389744  0.64031331  0.06012774  1
  Pr3+  Pr29  1  0.75552227  0.87491461  0.56361513  1
  Pr3+  Pr30  1  0.25255641  0.37425006  0.58221271  1
  Nd3+  Nd31  1  0.50624444  0.89427831  0.07509640  1
  Nd3+  Nd32  1  0.37521113  0.26327212  0.93777771  1
  Nd3+  Nd33  1  0.62557475  0.01191595  0.93310029  1
  Nd3+  Nd34  1  0.12839745  0.51820999  0.92380465  1
  Nd3+  Nd35  1  0.50526452  0.13973894  0.06173848  1
  Nd3+  Nd36  1  0.87922143  0.51297565  0.93178441  1
  Nd3+  Nd37  1  0.00453816  0.39054373  0.05384596  1
  Nd3+  Nd38  1  0.88660725  0.00112282  0.44751518  1
  Nd3+  Nd39  1  0.62440047  0.26477562  0.93099051  1
  Nd3+  Nd40  1  0.62859702  0.50085183  0.44734083  1
  Nd3+  Nd41  1  0.12825853  0.76130801  0.93730952  1
  Nd3+  Nd42  1  0.13519470  0.50012285  0.44363118  1
  Nd3+  Nd43  1  0.88219226  0.50039565  0.44449315  1
  Nd3+  Nd44  1  0.87513686  0.26336620  0.93401677  1
  Nd3+  Nd45  1  0.75144588  0.13979086  0.05473007  1
  Nd3+  Nd46  1  0.62615666  0.74943402  0.43374166  1
  Nd3+  Nd47  1  0.75651691  0.37425532  0.56166582  1
  Nd3+  Nd48  1  0.00461081  0.63947185  0.05899997  1
  Nd3+  Nd49  1  0.50326613  0.63965924  0.05026328  1
  Nd3+  Nd50  1  0.50496308  0.36843918  0.57400771  1
  Sm3+  Sm51  1  0.88348509  0.24841038  0.44739489  1
  Sm3+  Sm52  1  0.87940656  0.01546790  0.94732588  1
  Sm3+  Sm53  1  0.87663978  0.76571425  0.94757230  1
  Sm3+  Sm54  1  0.75177820  0.38905229  0.05212004  1
  Sm3+  Sm55  1  0.38299228  -0.00159630  0.42769969  1
  Sm3+  Sm56  1  0.00743388  0.62541351  0.56328570  1
  Sm3+  Sm57  1  0.12885093  0.26217580  0.93644367  1
  Sm3+  Sm58  1  0.00350875  0.13970104  0.05753731  1
  Sm3+  Sm59  1  0.25325992  0.87065004  0.54058602  1
  Sm3+  Sm60  1  0.37907195  0.76536562  0.93909506  1
  Sm3+  Sm61  1  0.12924329  0.01274268  0.94088316  1
  Sm3+  Sm62  1  0.75529641  0.12457851  0.55784793  1
  Sm3+  Sm63  1  0.75508618  0.62422793  0.55711193  1
  Bi2+  Bi64  1  -0.01232177  0.15092376  0.29185337  1
  Bi2+  Bi65  1  -0.03333544  0.09544615  0.78856610  1
  Bi2+  Bi66  1  0.03529923  0.38142233  0.28419591  1
  Bi2+  Bi67  1  -0.00892416  0.44138276  0.81923842  1
  Bi2+  Bi68  1  -0.04675537  0.59043432  0.29371009  1
  Bi2+  Bi69  1  -0.01426636  0.63574602  0.80098777  1
  Bi2+  Bi70  1  -0.03151691  0.87826592  0.29554452  1
  Bi2+  Bi71  1  0.02031943  0.83421229  0.80012272  1
  Bi2+  Bi72  1  0.24366314  0.19913011  0.27368525  1
  Bi2+  Bi73  1  0.24957069  0.08066139  0.79443756  1
  Bi2+  Bi74  1  0.21572772  0.37754856  0.32514587  1
  Bi2+  Bi75  1  0.25237161  0.34053786  0.78303078  1
  Bi2+  Bi76  1  0.24389732  0.58973887  0.29935204  1
  Bi2+  Bi77  1  0.26220430  0.61924419  0.78906154  1
  Bi2+  Bi78  1  0.24997541  0.86780927  0.27920691  1
  Bi2+  Bi79  1  0.21064316  0.87451865  0.77690457  1
  Bi2+  Bi80  1  0.55969760  0.12924320  0.30116096  1
  Bi2+  Bi81  1  0.53440386  0.10040232  0.80627936  1
  Bi2+  Bi82  1  0.48009352  0.32500945  0.28231270  1
  Bi2+  Bi83  1  0.54335774  0.29860339  0.79453150  1
  Bi2+  Bi84  1  0.49748422  0.59330940  0.29687128  1
  Bi2+  Bi85  1  0.48743259  0.66805134  0.77819556  1
  Bi2+  Bi86  1  0.54144349  0.86220134  0.28859077  1
  Bi2+  Bi87  1  0.48861588  0.91298083  0.78075727  1
  Bi2+  Bi88  1  0.75020195  0.04279333  0.30109381  1
  Bi2+  Bi89  1  0.71627805  0.08859818  0.76236668  1
  Bi2+  Bi90  1  0.67738270  0.36323947  0.26950451  1
  Bi2+  Bi91  1  0.81848922  0.35663986  0.79715750  1
  Bi2+  Bi92  1  0.69217758  0.64623906  0.29894552  1
  Bi2+  Bi93  1  0.76507200  0.65635309  0.78735078  1
  Bi2+  Bi94  1  0.72534079  0.84096131  0.32258419  1
  Bi2+  Bi95  1  0.75275132  0.90307192  0.79525427  1
  Bi2+  Bi96  1  0.09458807  0.00513744  0.19270171  1
  Bi2+  Bi97  1  0.19253563  0.00503663  0.69212570  1
  Bi2+  Bi98  1  0.10040779  0.24868902  0.19655894  1
  Bi2+  Bi99  1  0.07983346  0.24391348  0.71964684  1
  Bi2+  Bi100  1  0.11205655  0.48431123  0.18907264  1
  Bi2+  Bi101  1  0.08429839  0.50023039  0.72377670  1
  Bi2+  Bi102  1  0.07757616  0.72597758  0.20240012  1
  Bi2+  Bi103  1  0.10476927  0.77237874  0.69718851  1
  Bi2+  Bi104  1  0.38540836  0.07037762  0.25515541  1
  Bi2+  Bi105  1  0.39742630  -0.00121093  0.66145063  1
  Bi2+  Bi106  1  0.36489270  0.21858890  0.18237580  1
  Bi2+  Bi107  1  0.39221960  0.15743674  0.72828471  1
  Bi2+  Bi108  1  0.35297452  0.45913370  0.25375090  1
  Bi2+  Bi109  1  0.39716681  0.46775188  0.71267664  1
  Bi2+  Bi110  1  0.35826427  0.70991030  0.19162499  1
  Bi2+  Bi111  1  0.36586950  0.81358855  0.70892768  1
  Bi2+  Bi112  1  0.64587915  0.03397397  0.19430017  1
  Bi2+  Bi113  1  0.59265842  -0.01433225  0.69159977  1
  Bi2+  Bi114  1  0.56046619  0.24844121  0.18303787  1
  Bi2+  Bi115  1  0.64891708  0.24110063  0.70006084  1
  Bi2+  Bi116  1  0.62869850  0.51270661  0.18032058  1
  Bi2+  Bi117  1  0.64945608  0.49490541  0.71357627  1
  Bi2+  Bi118  1  0.60140396  0.74910756  0.20730903  1
  Bi2+  Bi119  1  0.64103646  0.75627962  0.70922948  1
  Bi2+  Bi120  1  0.82047029  -0.08232151  0.21947922  1
  Bi2+  Bi121  1  0.92190599  -0.05370911  0.72161044  1
  Bi2+  Bi122  1  0.81570302  0.22028951  0.26207844  1
  Bi2+  Bi123  1  0.91999168  0.36409515  0.69720510  1
  Bi2+  Bi124  1  0.85603375  0.43452326  0.24435253  1
  Bi2+  Bi125  1  0.89623589  0.55924196  0.69746540  1
  Bi2+  Bi126  1  0.83643192  0.72295098  0.23206667  1
  Bi2+  Bi127  1  0.90588892  0.75329053  0.70589892  1
  S2-  S128  1  -0.00966807  0.12412468  0.15543776  1
  S2-  S129  1  -0.04941766  0.19387575  0.67001834  1
  S2-  S130  1  0.00134142  0.36605734  0.15195505  1
  S2-  S131  1  0.11493916  0.38358557  0.65061283  1
  S2-  S132  1  -0.00317759  0.58806160  0.15435575  1
  S2-  S133  1  0.10085068  0.62503097  0.64656976  1
  S2-  S134  1  0.00296008  0.86552250  0.15616003  1
  S2-  S135  1  0.03308965  0.97448147  0.64717992  1
  S2-  S136  1  0.23659055  0.03075918  0.15044049  1
  S2-  S137  1  0.16619774  0.15465209  0.64805563  1
  S2-  S138  1  0.23735975  0.34356456  0.15617898  1
  S2-  S139  1  0.31416986  0.34077003  0.67918705  1
  S2-  S140  1  0.25003295  0.58371603  0.15555769  1
  S2-  S141  1  0.29949862  0.59843110  0.68945076  1
  S2-  S142  1  0.21261888  0.80512457  0.17652265  1
  S2-  S143  1  0.24770330  0.80554165  0.63474085  1
  S2-  S144  1  0.50490872  0.04392194  0.14511617  1
  S2-  S145  1  0.50258333  0.20505439  0.65496213  1
  S2-  S146  1  0.51146723  0.40662680  0.14726079  1
  S2-  S147  1  0.53838877  0.39404748  0.67087271  1
  S2-  S148  1  0.49558808  0.63130943  0.15135573  1
  S2-  S149  1  0.51637072  0.58584469  0.68267587  1
  S2-  S150  1  0.40131162  0.85055902  0.15212827  1
  S2-  S151  1  0.50405539  0.77295141  0.64567467  1
  S2-  S152  1  0.71665970  0.17650851  0.14946408  1
  S2-  S153  1  0.73158868  0.10824930  0.65433085  1
  S2-  S154  1  0.75929633  0.43249772  0.14745164  1
  S2-  S155  1  0.74706457  0.37305202  0.66115986  1
  S2-  S156  1  0.73260024  0.65326222  0.15904700  1
  S2-  S157  1  0.71144643  0.62777098  0.65131470  1
  S2-  S158  1  0.63950999  0.87551264  0.14309946  1
  S2-  S159  1  0.72298946  0.87356625  0.66235176  1
  S2-  S160  1  0.12035166  -0.03387733  0.29386808  1
  S2-  S161  1  0.10622993  0.03853851  0.84454720  1
  S2-  S162  1  0.12665014  0.16127334  0.35189435  1
  S2-  S163  1  0.14589373  0.26561218  0.83764060  1
  S2-  S164  1  0.10777827  0.57935217  0.35459529  1
  S2-  S165  1  0.23476387  0.47971131  0.84754997  1
  S2-  S166  1  0.10710699  0.77249212  0.29335281  1
  S2-  S167  1  0.13507693  0.66057624  0.85514328  1
  S2-  S168  1  0.30216086  0.00080551  0.33930958  1
  S2-  S169  1  0.36528613  -0.01925354  0.84773338  1
  S2-  S170  1  0.43485761  0.22554746  0.35855557  1
  S2-  S171  1  0.37767559  0.28682087  0.83920744  1
  S2-  S172  1  0.37986826  0.54435651  0.36798694  1
  S2-  S173  1  0.41562858  0.53436846  0.81464424  1
  S2-  S174  1  0.27798315  0.74309329  0.34651917  1
  S2-  S175  1  0.36399145  0.73063846  0.84243723  1
  S2-  S176  1  0.51638841  -0.00886670  0.35909443  1
  S2-  S177  1  0.61658161  -0.10140936  0.85627493  1
  S2-  S178  1  0.67769986  0.24998947  0.34508352  1
  S2-  S179  1  0.69883656  0.26232253  0.84116560  1
  S2-  S180  1  0.61492569  0.50768219  0.34791716  1
  S2-  S181  1  0.60110224  0.44756154  0.80796865  1
  S2-  S182  1  0.50585180  0.73843307  0.35946262  1
  S2-  S183  1  0.61516972  0.66248337  0.84284004  1
  S2-  S184  1  0.95475700  0.01517441  0.35683535  1
  S2-  S185  1  0.86680947  0.00253701  0.85000297  1
  S2-  S186  1  0.91146297  0.26353409  0.35021715  1
  S2-  S187  1  0.91581000  0.22944982  0.83885055  1
  S2-  S188  1  0.85460749  0.49536363  0.34595283  1
  S2-  S189  1  0.78659470  0.51590234  0.84666663  1
  S2-  S190  1  0.94264063  0.73868440  0.35704044  1
  S2-  S191  1  0.80042388  0.77324383  0.85877778  1
  S2-  S192  1  0.00539535  0.12876470  0.46281165  1
  S2-  S193  1  0.00486641  0.13873150  0.95207288  1
  S2-  S194  1  0.00557476  0.37580520  0.45821994  1
  S2-  S195  1  0.00510970  0.38566131  0.94804338  1
  S2-  S196  1  0.00433645  0.62367927  0.45977594  1
  S2-  S197  1  -0.00136236  0.63985103  0.95214341  1
  S2-  S198  1  0.01127694  0.87563418  0.45283686  1
  S2-  S199  1  0.00308573  0.88883600  0.95115782  1
  S2-  S200  1  0.25804746  0.12229333  0.45204070  1
  S2-  S201  1  0.25017751  0.13858785  0.95436455  1
  S2-  S202  1  0.25773369  0.37630329  0.46619817  1
  S2-  S203  1  0.25031802  0.38569199  0.95279194  1
  S2-  S204  1  0.24978491  0.62724511  0.46103617  1
  S2-  S205  1  0.25652497  0.63880577  0.95318095  1
  S2-  S206  1  0.24907533  0.87750724  0.43933706  1
  S2-  S207  1  0.24974884  0.88598779  0.94793336  1
  S2-  S208  1  0.50585620  0.12219434  0.46093060  1
  S2-  S209  1  0.50217808  0.13889811  0.95109868  1
  S2-  S210  1  0.50435110  0.37748999  0.46309136  1
  S2-  S211  1  0.50107565  0.39270734  0.93908477  1
  S2-  S212  1  0.50990000  0.62314665  0.46869244  1
  S2-  S213  1  0.49815361  0.63674903  0.94461001  1
  S2-  S214  1  0.50447611  0.87323919  0.45719191  1
  S2-  S215  1  0.49977209  0.88833882  0.95962127  1
  S2-  S216  1  0.75776297  0.12548731  0.45262142  1
  S2-  S217  1  0.75183500  0.13657839  0.94715253  1
  S2-  S218  1  0.75668314  0.37368455  0.45463447  1
  S2-  S219  1  0.75156036  0.38799585  0.94748102  1
  S2-  S220  1  0.75546737  0.62645369  0.45199796  1
  S2-  S221  1  0.75699832  0.63669062  0.95301909  1
  S2-  S222  1  0.75710618  0.87597044  0.45638292  1
  S2-  S223  1  0.75698860  0.89508314  0.96099068  1
  S2-  S224  1  0.12696503  0.01415213  0.04516192  1
  S2-  S225  1  0.13665200  -0.00388605  0.54134998  1
  S2-  S226  1  0.12772773  0.26183376  0.04347029  1
  S2-  S227  1  0.13254730  0.25206897  0.54530500  1
  S2-  S228  1  0.12704681  0.51520277  0.03721609  1
  S2-  S229  1  0.13215472  0.50249783  0.54813594  1
  S2-  S230  1  0.12998514  0.76553993  0.04526210  1
  S2-  S231  1  0.12603919  0.74901871  0.54079425  1
  S2-  S232  1  0.37525863  0.01433701  0.04811926  1
  S2-  S233  1  0.37831543  -0.00516806  0.53598602  1
  S2-  S234  1  0.37723291  0.26288952  0.04394329  1
  S2-  S235  1  0.37928076  0.24843545  0.55476684  1
  S2-  S236  1  0.37758379  0.51407325  0.03917508  1
  S2-  S237  1  0.38042402  0.50208736  0.56862950  1
  S2-  S238  1  0.37722263  0.76526185  0.04347768  1
  S2-  S239  1  0.38021533  0.74716510  0.54154952  1
  S2-  S240  1  0.62873994  0.01636333  0.03955819  1
  S2-  S241  1  0.63187977  -0.00089959  0.54461986  1
  S2-  S242  1  0.62877166  0.26492162  0.03740876  1
  S2-  S243  1  0.63246073  0.24879728  0.54855238  1
  S2-  S244  1  0.62894070  0.51205763  0.03623467  1
  S2-  S245  1  0.63036590  0.49783155  0.55369508  1
  S2-  S246  1  0.62849470  0.76147254  0.03838440  1
  S2-  S247  1  0.63505536  0.74962139  0.54188615  1
  S2-  S248  1  0.87743542  0.01550087  0.05247931  1
  S2-  S249  1  0.87975826  0.00218694  0.55401998  1
  S2-  S250  1  0.87793628  0.26422312  0.04288633  1
  S2-  S251  1  0.87974682  0.24824954  0.55195210  1
  S2-  S252  1  0.87851276  0.51158848  0.04061087  1
  S2-  S253  1  0.88114971  0.50100490  0.55171551  1
  S2-  S254  1  0.87659568  0.76320523  0.05273043  1
  S2-  S255  1  0.88125952  0.74809633  0.55571719  1
