# generated using pymatgen
data_La6Ce6Pr19Nd20Sm13(BiS2)64
_symmetry_space_group_name_H-M   'P 1'
_cell_length_a   16.16450103
_cell_length_b   16.17222852
_cell_length_c   27.36379628
_cell_angle_alpha   89.99491355
_cell_angle_beta   90.26903002
_cell_angle_gamma   90.00023906
_symmetry_Int_Tables_number   1
_chemical_formula_structural   La6Ce6Pr19Nd20Sm13(BiS2)64
_chemical_formula_sum   'La6 Ce6 Pr19 Nd20 Sm13 Bi64 S128'
_cell_volume   7153.25541154
_cell_formula_units_Z   1
loop_
 _symmetry_equiv_pos_site_id
 _symmetry_equiv_pos_as_xyz
  1  'x, y, z'
loop_
 _atom_type_symbol
 _atom_type_oxidation_number
  La3+  3.0
  Ce3+  3.0
  Pr3+  3.0
  Nd3+  3.0
  Sm3+  3.0
  Bi2+  2.0
  S2-  -2.0
loop_
 _atom_site_type_symbol
 _atom_site_label
 _atom_site_symmetry_multiplicity
 _atom_site_fract_x
 _atom_site_fract_y
 _atom_site_fract_z
 _atom_site_occupancy
  La3+  La0  1  0.74910858  0.13798796  0.59238526  1
  La3+  La1  1  0.62271497  0.73500867  0.91742903  1
  La3+  La2  1  0.86085218  0.75870554  0.42581315  1
  La3+  La3  1  0.86737885  0.25659982  0.43041236  1
  La3+  La4  1  0.26148999  0.12292437  0.07251332  1
  La3+  La5  1  0.13295949  0.23646390  0.92852804  1
  Ce3+  Ce6  1  0.24285023  0.13396758  0.55768519  1
  Ce3+  Ce7  1  0.49425253  0.63357599  0.56394381  1
  Ce3+  Ce8  1  0.49414565  0.88262855  0.56115243  1
  Ce3+  Ce9  1  0.11486643  0.00915671  0.44125267  1
  Ce3+  Ce10  1  0.63145673  0.23639281  0.94228270  1
  Ce3+  Ce11  1  0.62086799  0.25715112  0.42985132  1
  Pr3+  Pr12  1  0.11677784  0.50439419  0.43482267  1
  Pr3+  Pr13  1  0.36472996  0.00987971  0.44078490  1
  Pr3+  Pr14  1  -0.00625152  0.38027934  0.55852601  1
  Pr3+  Pr15  1  -0.01184429  0.88128063  0.55844626  1
  Pr3+  Pr16  1  -0.00652999  0.13254501  0.55914352  1
  Pr3+  Pr17  1  0.24224060  0.38848873  0.56751377  1
  Pr3+  Pr18  1  0.13275381  0.25674499  0.38808385  1
  Pr3+  Pr19  1  0.26045439  0.61936140  0.06198553  1
  Pr3+  Pr20  1  0.76161690  0.11433977  0.06154406  1
  Pr3+  Pr21  1  0.01460140  0.11288888  0.06846886  1
  Pr3+  Pr22  1  0.26082219  0.36633508  0.06302549  1
  Pr3+  Pr23  1  0.25992101  0.86591324  0.05845438  1
  Pr3+  Pr24  1  0.61160933  0.75621435  0.43237794  1
  Pr3+  Pr25  1  0.50985229  0.10777754  0.07169843  1
  Pr3+  Pr26  1  0.73551407  0.88024120  0.57164310  1
  Pr3+  Pr27  1  0.24190610  0.63468639  0.56229606  1
  Pr3+  Pr28  1  0.37958254  0.48915844  0.93868366  1
  Pr3+  Pr29  1  0.87672815  0.73307568  0.92498108  1
  Pr3+  Pr30  1  0.36830348  0.75555698  0.43408863  1
  Nd3+  Nd31  1  0.49544382  0.37977763  0.55561055  1
  Nd3+  Nd32  1  0.00612218  0.61553319  0.05601526  1
  Nd3+  Nd33  1  0.50832116  0.61895561  0.06314936  1
  Nd3+  Nd34  1  0.11557275  0.75808143  0.44061149  1
  Nd3+  Nd35  1  0.00630114  0.36241035  0.06309637  1
  Nd3+  Nd36  1  0.49441742  0.13433856  0.55443357  1
  Nd3+  Nd37  1  0.61926301  0.00763162  0.44544810  1
  Nd3+  Nd38  1  0.87787730  -0.01036530  0.93851856  1
  Nd3+  Nd39  1  0.13109906  0.74148240  0.94057110  1
  Nd3+  Nd40  1  0.74415774  0.63279462  0.56355932  1
  Nd3+  Nd41  1  0.36771577  0.73386713  0.92429458  1
  Nd3+  Nd42  1  0.87997946  0.49044573  0.94443206  1
  Nd3+  Nd43  1  0.88747061  0.24101185  0.93255331  1
  Nd3+  Nd44  1  0.61714092  0.50665136  0.44510003  1
  Nd3+  Nd45  1  0.86397276  0.00747464  0.44257773  1
  Nd3+  Nd46  1  0.00363550  0.86236070  0.05710350  1
  Nd3+  Nd47  1  0.75790425  0.85489031  0.06064879  1
  Nd3+  Nd48  1  0.36521326  0.50411408  0.44418310  1
  Nd3+  Nd49  1  0.75421224  0.61386594  0.05623688  1
  Nd3+  Nd50  1  0.38238867  -0.01036656  0.93897675  1
  Sm3+  Sm51  1  0.24339174  0.88265824  0.55107955  1
  Sm3+  Sm52  1  0.50970036  0.86148358  0.06054651  1
  Sm3+  Sm53  1  0.36475651  0.25791238  0.44289983  1
  Sm3+  Sm54  1  0.74363462  0.37843212  0.56020787  1
  Sm3+  Sm55  1  0.62761397  0.49075326  0.94145219  1
  Sm3+  Sm56  1  0.13039144  -0.00781958  0.94173768  1
  Sm3+  Sm57  1  -0.00831325  0.63342714  0.55109381  1
  Sm3+  Sm58  1  0.86761671  0.50607069  0.44762250  1
  Sm3+  Sm59  1  0.37843786  0.23088786  0.93234688  1
  Sm3+  Sm60  1  0.75559004  0.36304889  0.05126051  1
  Sm3+  Sm61  1  0.63152317  -0.00941997  0.94042006  1
  Sm3+  Sm62  1  0.50721751  0.36278095  0.05135617  1
  Sm3+  Sm63  1  0.13142360  0.48847331  0.94855465  1
  Bi2+  Bi64  1  -0.01146092  0.10647048  0.29531011  1
  Bi2+  Bi65  1  -0.02337157  0.12804435  0.80440044  1
  Bi2+  Bi66  1  -0.02456732  0.39299510  0.28846651  1
  Bi2+  Bi67  1  -0.03273538  0.46411935  0.79538357  1
  Bi2+  Bi68  1  -0.02088355  0.59571117  0.28189411  1
  Bi2+  Bi69  1  0.03723011  0.63076853  0.75372084  1
  Bi2+  Bi70  1  0.05016159  0.86214464  0.28138216  1
  Bi2+  Bi71  1  0.05485618  0.87951367  0.75695688  1
  Bi2+  Bi72  1  0.28488259  0.10422592  0.29268794  1
  Bi2+  Bi73  1  0.24906714  0.13417896  0.79786789  1
  Bi2+  Bi74  1  0.33689154  0.38582995  0.27784068  1
  Bi2+  Bi75  1  0.24465543  0.40841749  0.79628593  1
  Bi2+  Bi76  1  0.26168275  0.65649922  0.29501411  1
  Bi2+  Bi77  1  0.24683083  0.64288323  0.78317376  1
  Bi2+  Bi78  1  0.31561448  0.84034948  0.31202734  1
  Bi2+  Bi79  1  0.22074915  0.91793014  0.80912187  1
  Bi2+  Bi80  1  0.53046994  0.16569192  0.29938537  1
  Bi2+  Bi81  1  0.48038010  0.16058906  0.78303390  1
  Bi2+  Bi82  1  0.52860353  0.36156556  0.31152809  1
  Bi2+  Bi83  1  0.44890010  0.36316010  0.78713545  1
  Bi2+  Bi84  1  0.49483856  0.56846019  0.29563924  1
  Bi2+  Bi85  1  0.48964661  0.62503328  0.79211305  1
  Bi2+  Bi86  1  0.49939472  0.82798749  0.26945981  1
  Bi2+  Bi87  1  0.41850675  0.90025519  0.80300958  1
  Bi2+  Bi88  1  0.72909437  0.14043921  0.29055836  1
  Bi2+  Bi89  1  0.71600236  0.10940470  0.79023503  1
  Bi2+  Bi90  1  0.71480703  0.39354546  0.28100920  1
  Bi2+  Bi91  1  0.78371410  0.36242469  0.79560119  1
  Bi2+  Bi92  1  0.74602378  0.63395790  0.28439246  1
  Bi2+  Bi93  1  0.78047828  0.64457036  0.78993943  1
  Bi2+  Bi94  1  0.77315702  0.89004646  0.30487155  1
  Bi2+  Bi95  1  0.79139519  0.88266682  0.79551247  1
  Bi2+  Bi96  1  0.21603723  -0.05595140  0.23442905  1
  Bi2+  Bi97  1  0.12685477  0.04951849  0.72416636  1
  Bi2+  Bi98  1  0.10665911  0.23052420  0.18965370  1
  Bi2+  Bi99  1  0.05926471  0.30149048  0.75511285  1
  Bi2+  Bi100  1  0.13636643  0.48888533  0.25313600  1
  Bi2+  Bi101  1  0.14073160  0.46444035  0.70392971  1
  Bi2+  Bi102  1  0.12074036  0.67716914  0.21293509  1
  Bi2+  Bi103  1  0.15918261  0.74300242  0.69628285  1
  Bi2+  Bi104  1  0.40545565  -0.03554061  0.19836486  1
  Bi2+  Bi105  1  0.34089736  -0.03423240  0.70575139  1
  Bi2+  Bi106  1  0.37178751  0.22452822  0.21859336  1
  Bi2+  Bi107  1  0.35542810  0.21807991  0.70071270  1
  Bi2+  Bi108  1  0.44149607  0.48548625  0.19683368  1
  Bi2+  Bi109  1  0.39254627  0.46893211  0.69563355  1
  Bi2+  Bi110  1  0.36543611  0.70191749  0.19816193  1
  Bi2+  Bi111  1  0.37179871  0.76010714  0.71917607  1
  Bi2+  Bi112  1  0.60743057  -0.00044078  0.25405033  1
  Bi2+  Bi113  1  0.53287915  -0.00043198  0.71421070  1
  Bi2+  Bi114  1  0.60988703  0.27269171  0.21243969  1
  Bi2+  Bi115  1  0.61065404  0.29489831  0.72166706  1
  Bi2+  Bi116  1  0.63221148  0.53460879  0.19666865  1
  Bi2+  Bi117  1  0.62542475  0.47380034  0.76674085  1
  Bi2+  Bi118  1  0.63102705  0.72871482  0.20884268  1
  Bi2+  Bi119  1  0.56205509  0.73496698  0.71031592  1
  Bi2+  Bi120  1  0.86442057  0.00355142  0.19780184  1
  Bi2+  Bi121  1  0.86822111  0.00684729  0.69911692  1
  Bi2+  Bi122  1  0.85338791  0.25641271  0.19296606  1
  Bi2+  Bi123  1  0.87657853  0.28441672  0.70657290  1
  Bi2+  Bi124  1  0.83540590  0.50862472  0.21742451  1
  Bi2+  Bi125  1  0.80211087  0.49565876  0.71040576  1
  Bi2+  Bi126  1  0.88090920  0.77730373  0.19129397  1
  Bi2+  Bi127  1  0.89487763  0.74917001  0.68535576  1
  S2-  S128  1  -0.03891925  0.13474950  0.16480998  1
  S2-  S129  1  -0.08947194  0.14121797  0.64705062  1
  S2-  S130  1  -0.01131959  0.35592892  0.16152410  1
  S2-  S131  1  0.00218308  0.37860591  0.65897700  1
  S2-  S132  1  -0.01285030  0.65397748  0.15103187  1
  S2-  S133  1  0.01381074  0.63118590  0.64710324  1
  S2-  S134  1  -0.01195535  0.89300789  0.15524579  1
  S2-  S135  1  -0.00958601  0.89343590  0.65832766  1
  S2-  S136  1  0.14574689  0.09405263  0.14414020  1
  S2-  S137  1  0.22863154  0.12224637  0.65483470  1
  S2-  S138  1  0.25041343  0.28379802  0.15015685  1
  S2-  S139  1  0.27415654  0.34412006  0.66388834  1
  S2-  S140  1  0.25402194  0.59072757  0.16001758  1
  S2-  S141  1  0.25325155  0.54686617  0.64814704  1
  S2-  S142  1  0.27465603  0.83994625  0.15723765  1
  S2-  S143  1  0.23466203  0.87189869  0.64762473  1
  S2-  S144  1  0.38648846  0.11392106  0.14653303  1
  S2-  S145  1  0.49184617  0.12703580  0.65362846  1
  S2-  S146  1  0.48986857  0.33704048  0.14773136  1
  S2-  S147  1  0.50975161  0.36717751  0.65388696  1
  S2-  S148  1  0.50381043  0.73969562  0.13514927  1
  S2-  S149  1  0.50173067  0.59861520  0.65995673  1
  S2-  S150  1  0.53189961  0.97068220  0.13808189  1
  S2-  S151  1  0.57918478  0.87001754  0.64600655  1
  S2-  S152  1  0.75382872  0.12036316  0.16194829  1
  S2-  S153  1  0.71885879  0.06717088  0.68578067  1
  S2-  S154  1  0.74404762  0.34781359  0.14762470  1
  S2-  S155  1  0.73310223  0.28950626  0.64410567  1
  S2-  S156  1  0.76436506  0.70930039  0.13703809  1
  S2-  S157  1  0.75891917  0.64500316  0.66266946  1
  S2-  S158  1  0.76294395  0.89899318  0.15915202  1
  S2-  S159  1  0.78481920  0.86200001  0.66898181  1
  S2-  S160  1  0.08985277  0.00019353  0.34509369  1
  S2-  S161  1  0.12022128  0.09045955  0.86159750  1
  S2-  S162  1  0.12973791  0.19456891  0.28894451  1
  S2-  S163  1  0.01109416  0.27211336  0.85768732  1
  S2-  S164  1  0.12231380  0.41685718  0.34861978  1
  S2-  S165  1  0.12911867  0.48856726  0.85047046  1
  S2-  S166  1  0.13085087  0.74941782  0.34294236  1
  S2-  S167  1  0.22550735  0.75025221  0.85736138  1
  S2-  S168  1  0.38087197  -0.00231601  0.34169544  1
  S2-  S169  1  0.38701740  0.10256202  0.86316495  1
  S2-  S170  1  0.29980003  0.25988707  0.35269335  1
  S2-  S171  1  0.26213966  0.27023094  0.85905272  1
  S2-  S172  1  0.34223154  0.52144184  0.34688959  1
  S2-  S173  1  0.36512752  0.58052383  0.85341874  1
  S2-  S174  1  0.48544911  0.74828605  0.35967107  1
  S2-  S175  1  0.48261384  0.76076383  0.85391473  1
  S2-  S176  1  0.62932844  -0.04842820  0.35153800  1
  S2-  S177  1  0.66719274  -0.01695806  0.84293274  1
  S2-  S178  1  0.73954482  0.26796202  0.35571524  1
  S2-  S179  1  0.60933799  0.20030487  0.84882800  1
  S2-  S180  1  0.62817549  0.56127531  0.35135355  1
  S2-  S181  1  0.62476287  0.57184192  0.85624850  1
  S2-  S182  1  0.72764562  0.75832944  0.35695003  1
  S2-  S183  1  0.68261042  0.77107503  0.82004676  1
  S2-  S184  1  0.85036508  0.03725803  0.34384981  1
  S2-  S185  1  0.90858981  -0.00936651  0.84078973  1
  S2-  S186  1  0.96658342  0.24988231  0.34714573  1
  S2-  S187  1  0.82473213  0.19898058  0.84069829  1
  S2-  S188  1  0.88103121  0.49986130  0.35063287  1
  S2-  S189  1  0.87355798  0.57011573  0.85742353  1
  S2-  S190  1  0.92247025  0.81438134  0.33184924  1
  S2-  S191  1  0.89444929  0.76717541  0.82599358  1
  S2-  S192  1  -0.00739215  0.13039304  0.45368935  1
  S2-  S193  1  0.00143621  0.11169873  0.96061589  1
  S2-  S194  1  -0.00814052  0.38386874  0.45345944  1
  S2-  S195  1  0.00533578  0.37195333  0.95833997  1
  S2-  S196  1  -0.00907189  0.63251303  0.44617350  1
  S2-  S197  1  0.00960729  0.61495719  0.95056547  1
  S2-  S198  1  -0.00937129  0.88196863  0.45217303  1
  S2-  S199  1  0.00694900  0.86521505  0.94796968  1
  S2-  S200  1  0.23761973  0.13624420  0.45068132  1
  S2-  S201  1  0.25614273  0.11129185  0.96257319  1
  S2-  S202  1  0.24127152  0.37936531  0.45789697  1
  S2-  S203  1  0.25588224  0.36908886  0.95851703  1
  S2-  S204  1  0.24155412  0.63208314  0.45453489  1
  S2-  S205  1  0.24978157  0.61181993  0.95710784  1
  S2-  S206  1  0.24147957  0.88146763  0.44759966  1
  S2-  S207  1  0.25492349  0.86995498  0.95325151  1
  S2-  S208  1  0.49132829  0.13464075  0.44821259  1
  S2-  S209  1  0.51041615  0.11239502  0.96272109  1
  S2-  S210  1  0.49077359  0.37981877  0.45005045  1
  S2-  S211  1  0.50506474  0.36359223  0.94579159  1
  S2-  S212  1  0.48905858  0.62653139  0.45899581  1
  S2-  S213  1  0.50331122  0.61244099  0.95824034  1
  S2-  S214  1  0.48903845  0.88559136  0.45679369  1
  S2-  S215  1  0.50893662  0.87024884  0.95557337  1
  S2-  S216  1  0.74055306  0.13044381  0.45361333  1
  S2-  S217  1  0.75740384  0.11502573  0.95422186  1
  S2-  S218  1  0.74296694  0.38676342  0.45657296  1
  S2-  S219  1  0.75432099  0.36719684  0.94653962  1
  S2-  S220  1  0.74347313  0.62789003  0.45769538  1
  S2-  S221  1  0.75162501  0.61368833  0.95350480  1
  S2-  S222  1  0.74115631  0.88312694  0.46225557  1
  S2-  S223  1  0.75516785  0.86212087  0.94934241  1
  S2-  S224  1  0.13045234  -0.01719057  0.04369332  1
  S2-  S225  1  0.11804235  0.00464776  0.54837646  1
  S2-  S226  1  0.13043381  0.24505773  0.04146616  1
  S2-  S227  1  0.11888126  0.25767139  0.55854467  1
  S2-  S228  1  0.13193077  0.49122822  0.05398475  1
  S2-  S229  1  0.11537243  0.51023834  0.54243750  1
  S2-  S230  1  0.13101382  0.74021228  0.04675117  1
  S2-  S231  1  0.11684069  0.75846865  0.54577741  1
  S2-  S232  1  0.38386374  -0.01389563  0.04330261  1
  S2-  S233  1  0.36770095  0.00713692  0.54816155  1
  S2-  S234  1  0.38664217  0.24325935  0.03798432  1
  S2-  S235  1  0.36778863  0.25848722  0.54711079  1
  S2-  S236  1  0.38569755  0.49107087  0.04675687  1
  S2-  S237  1  0.37179748  0.50654741  0.54843617  1
  S2-  S238  1  0.38052544  0.74043214  0.03473829  1
  S2-  S239  1  0.36741959  0.75862645  0.54686389  1
  S2-  S240  1  0.64174197  -0.01383047  0.04241463  1
  S2-  S241  1  0.62080249  0.01380530  0.55166932  1
  S2-  S242  1  0.63145068  0.23934782  0.04823585  1
  S2-  S243  1  0.61962310  0.25633084  0.53987128  1
  S2-  S244  1  0.63053995  0.48818859  0.04611179  1
  S2-  S245  1  0.62149549  0.50439253  0.55221998  1
  S2-  S246  1  0.63235564  0.73790857  0.03500243  1
  S2-  S247  1  0.61794810  0.75300947  0.54293603  1
  S2-  S248  1  0.88217004  -0.01277565  0.04563695  1
  S2-  S249  1  0.86200621  0.00677126  0.54945388  1
  S2-  S250  1  0.88131342  0.24277211  0.04213610  1
  S2-  S251  1  0.86659812  0.25845835  0.54139077  1
  S2-  S252  1  0.87958501  0.48943400  0.05073684  1
  S2-  S253  1  0.86766114  0.50687968  0.55246697  1
  S2-  S254  1  0.88387501  0.73694912  0.03337369  1
  S2-  S255  1  0.86650241  0.75496029  0.54185731  1
