# generated using pymatgen
data_La6Ce6Pr19Nd20Sm13(BiS2)64
_symmetry_space_group_name_H-M   'P 1'
_cell_length_a   16.13696377
_cell_length_b   16.12480231
_cell_length_c   27.25158239
_cell_angle_alpha   90.04966308
_cell_angle_beta   89.97577634
_cell_angle_gamma   90.00425707
_symmetry_Int_Tables_number   1
_chemical_formula_structural   La6Ce6Pr19Nd20Sm13(BiS2)64
_chemical_formula_sum   'La6 Ce6 Pr19 Nd20 Sm13 Bi64 S128'
_cell_volume   7091.00423661
_cell_formula_units_Z   1
loop_
 _symmetry_equiv_pos_site_id
 _symmetry_equiv_pos_as_xyz
  1  'x, y, z'
loop_
 _atom_type_symbol
 _atom_type_oxidation_number
  La3+  3.0
  Ce3+  3.0
  Pr3+  3.0
  Nd3+  3.0
  Sm3+  3.0
  Bi2+  2.0
  S2-  -2.0
loop_
 _atom_site_type_symbol
 _atom_site_label
 _atom_site_symmetry_multiplicity
 _atom_site_fract_x
 _atom_site_fract_y
 _atom_site_fract_z
 _atom_site_occupancy
  La3+  La0  1  0.35243529  0.76393353  0.41133927  1
  La3+  La1  1  0.25025656  0.38441028  0.05969196  1
  La3+  La2  1  0.12901418  -0.00435326  0.88986911  1
  La3+  La3  1  0.24618207  0.89064927  0.08520423  1
  La3+  La4  1  0.50170101  0.62577281  0.11513446  1
  La3+  La5  1  0.62086309  0.00918797  0.42089470  1
  Ce3+  Ce6  1  0.62627169  0.75656831  0.95282267  1
  Ce3+  Ce7  1  0.37761687  0.51135158  0.94215259  1
  Ce3+  Ce8  1  0.75220822  0.63222135  0.06629040  1
  Ce3+  Ce9  1  0.12578117  0.51210048  0.93359859  1
  Ce3+  Ce10  1  0.62492612  0.00520116  0.93736527  1
  Ce3+  Ce11  1  0.87834534  0.75896325  0.94507925  1
  Pr3+  Pr12  1  0.00399459  0.88867331  0.05808137  1
  Pr3+  Pr13  1  0.50583619  0.38823411  0.05367308  1
  Pr3+  Pr14  1  0.61470706  0.50249983  0.45076897  1
  Pr3+  Pr15  1  0.86286888  0.50002976  0.44943539  1
  Pr3+  Pr16  1  0.61235288  0.75172558  0.43809182  1
  Pr3+  Pr17  1  0.48627085  0.62847393  0.55973228  1
  Pr3+  Pr18  1  0.73903462  0.87693140  0.56539792  1
  Pr3+  Pr19  1  0.50749229  0.88112534  0.08309682  1
  Pr3+  Pr20  1  0.87547406  0.25665639  0.93787563  1
  Pr3+  Pr21  1  0.23833606  0.86319113  0.57210954  1
  Pr3+  Pr22  1  0.62759305  0.25753884  0.93674158  1
  Pr3+  Pr23  1  0.11720559  0.50215818  0.44051928  1
  Pr3+  Pr24  1  0.00611843  0.63351078  0.06601002  1
  Pr3+  Pr25  1  0.86392333  0.00403782  0.44001650  1
  Pr3+  Pr26  1  0.75389742  0.89140551  0.06879624  1
  Pr3+  Pr27  1  0.12140708  0.00267271  0.43361443  1
  Pr3+  Pr28  1  0.63062211  0.52149976  0.91711114  1
  Pr3+  Pr29  1  0.37743287  0.75928534  0.95335718  1
  Pr3+  Pr30  1  0.74058768  0.63356103  0.57588324  1
  Nd3+  Nd31  1  0.74337276  0.38342090  0.57858339  1
  Nd3+  Nd32  1  0.37918285  0.25802503  0.93880714  1
  Nd3+  Nd33  1  0.49284923  0.12387154  0.56247825  1
  Nd3+  Nd34  1  0.24305309  0.12496502  0.55964054  1
  Nd3+  Nd35  1  0.49127481  0.36731541  0.57899825  1
  Nd3+  Nd36  1  0.24420831  0.37658687  0.55861885  1
  Nd3+  Nd37  1  0.37022759  0.25357153  0.43519431  1
  Nd3+  Nd38  1  0.74167481  0.12528923  0.56747264  1
  Nd3+  Nd39  1  0.37820195  0.00324715  0.93938360  1
  Nd3+  Nd40  1  0.13118523  0.75484505  0.93618886  1
  Nd3+  Nd41  1  0.36663530  0.00379968  0.44209027  1
  Nd3+  Nd42  1  -0.00583971  0.37756328  0.56260271  1
  Nd3+  Nd43  1  0.86610365  0.75149531  0.43580693  1
  Nd3+  Nd44  1  0.11038394  0.75323235  0.42932435  1
  Nd3+  Nd45  1  0.25125802  0.13122205  0.05558067  1
  Nd3+  Nd46  1  0.86391244  0.25382446  0.44892727  1
  Nd3+  Nd47  1  0.50208190  0.12892137  0.06540222  1
  Nd3+  Nd48  1  0.12845440  0.25472513  0.92769666  1
  Nd3+  Nd49  1  0.75406780  0.13276355  0.05892623  1
  Nd3+  Nd50  1  0.36911795  0.49663212  0.42523419  1
  Sm3+  Sm51  1  0.25055914  0.63524625  0.06925637  1
  Sm3+  Sm52  1  -0.00757369  0.62932835  0.55810985  1
  Sm3+  Sm53  1  0.24426099  0.62694149  0.55007027  1
  Sm3+  Sm54  1  -0.00627824  0.87842203  0.55799948  1
  Sm3+  Sm55  1  -0.00844483  0.12690932  0.55406193  1
  Sm3+  Sm56  1  0.61491678  0.25618725  0.45013448  1
  Sm3+  Sm57  1  0.11814499  0.25300765  0.44570990  1
  Sm3+  Sm58  1  0.00219672  0.38256599  0.05179298  1
  Sm3+  Sm59  1  0.00607884  0.13416676  0.05034981  1
  Sm3+  Sm60  1  0.48903950  0.87655938  0.54877312  1
  Sm3+  Sm61  1  0.75091822  0.38417426  0.05216671  1
  Sm3+  Sm62  1  0.87635110  0.51052279  0.94073125  1
  Sm3+  Sm63  1  0.87971366  0.00655568  0.93148202  1
  Bi2+  Bi64  1  -0.01859099  0.14341578  0.24815874  1
  Bi2+  Bi65  1  -0.03862480  0.11109310  0.77432086  1
  Bi2+  Bi66  1  -0.02901668  0.36027678  0.25377703  1
  Bi2+  Bi67  1  0.07248849  0.40067585  0.82041885  1
  Bi2+  Bi68  1  -0.02304146  0.63927784  0.28037631  1
  Bi2+  Bi69  1  0.00941123  0.59466677  0.80782330  1
  Bi2+  Bi70  1  -0.01685777  0.87917780  0.28239165  1
  Bi2+  Bi71  1  -0.08007955  0.85099190  0.77243230  1
  Bi2+  Bi72  1  0.26202462  0.14837754  0.29269374  1
  Bi2+  Bi73  1  0.25656428  0.12794179  0.78666793  1
  Bi2+  Bi74  1  0.22742544  0.34288816  0.29841282  1
  Bi2+  Bi75  1  0.23530043  0.37700242  0.76224246  1
  Bi2+  Bi76  1  0.21166548  0.59717043  0.29382317  1
  Bi2+  Bi77  1  0.23993843  0.66097396  0.73545505  1
  Bi2+  Bi78  1  0.22057214  0.89145368  0.28874697  1
  Bi2+  Bi79  1  0.26575353  0.86152996  0.79268388  1
  Bi2+  Bi80  1  0.45679664  0.13621906  0.31454792  1
  Bi2+  Bi81  1  0.55497301  0.07712869  0.77900404  1
  Bi2+  Bi82  1  0.52504530  0.33201706  0.29918700  1
  Bi2+  Bi83  1  0.46506070  0.37008314  0.80373646  1
  Bi2+  Bi84  1  0.54412651  0.62088595  0.32047978  1
  Bi2+  Bi85  1  0.47280282  0.63194627  0.81315266  1
  Bi2+  Bi86  1  0.55712867  0.85243110  0.27303536  1
  Bi2+  Bi87  1  0.51797076  0.86829742  0.78797029  1
  Bi2+  Bi88  1  0.79695985  0.14144419  0.28847107  1
  Bi2+  Bi89  1  0.74529671  0.06246245  0.81490424  1
  Bi2+  Bi90  1  0.79158179  0.40226940  0.29630435  1
  Bi2+  Bi91  1  0.74922401  0.26396245  0.81195931  1
  Bi2+  Bi92  1  0.77980595  0.59918995  0.28651142  1
  Bi2+  Bi93  1  0.75372865  0.66287526  0.79670048  1
  Bi2+  Bi94  1  0.79358596  0.89913215  0.27928042  1
  Bi2+  Bi95  1  0.72348200  0.87080142  0.79368110  1
  Bi2+  Bi96  1  0.12028747  0.02498347  0.20196382  1
  Bi2+  Bi97  1  0.14314208  0.01203370  0.67708157  1
  Bi2+  Bi98  1  0.14819940  0.23572383  0.21077331  1
  Bi2+  Bi99  1  0.06066479  0.25501173  0.71980110  1
  Bi2+  Bi100  1  0.10227005  0.46507627  0.19355654  1
  Bi2+  Bi101  1  0.10998973  0.51449855  0.71729475  1
  Bi2+  Bi102  1  0.09246884  0.74356469  0.20896863  1
  Bi2+  Bi103  1  0.06702517  0.75770600  0.72209986  1
  Bi2+  Bi104  1  0.38265419  0.04534616  0.22002650  1
  Bi2+  Bi105  1  0.42727630  -0.01229194  0.71090052  1
  Bi2+  Bi106  1  0.43622729  0.23316725  0.20905221  1
  Bi2+  Bi107  1  0.36609842  0.24821510  0.70675291  1
  Bi2+  Bi108  1  0.37253450  0.48030904  0.21532711  1
  Bi2+  Bi109  1  0.35573709  0.51209207  0.70922414  1
  Bi2+  Bi110  1  0.36743558  0.72988952  0.22949157  1
  Bi2+  Bi111  1  0.40986897  0.77281250  0.68627130  1
  Bi2+  Bi112  1  0.64615493  0.01502916  0.20798275  1
  Bi2+  Bi113  1  0.71563965  0.01124914  0.69642312  1
  Bi2+  Bi114  1  0.63377229  0.20959293  0.21385794  1
  Bi2+  Bi115  1  0.62931915  0.22529299  0.71737265  1
  Bi2+  Bi116  1  0.63607182  0.47384319  0.21055820  1
  Bi2+  Bi117  1  0.62990274  0.50191218  0.71390436  1
  Bi2+  Bi118  1  0.72203863  0.74911664  0.21386731  1
  Bi2+  Bi119  1  0.62416096  0.74885907  0.71808730  1
  Bi2+  Bi120  1  0.88909043  -0.08291211  0.17982474  1
  Bi2+  Bi121  1  0.90621278  -0.01906435  0.68885255  1
  Bi2+  Bi122  1  0.82664951  0.25335109  0.19613145  1
  Bi2+  Bi123  1  0.87037371  0.29102177  0.71676034  1
  Bi2+  Bi124  1  0.90026155  0.52114490  0.19588699  1
  Bi2+  Bi125  1  0.88492651  0.43844071  0.79193676  1
  Bi2+  Bi126  1  0.90023306  0.71766970  0.16865188  1
  Bi2+  Bi127  1  0.86465318  0.67640264  0.70343716  1
  S2-  S128  1  -0.00702103  0.09199928  0.14599422  1
  S2-  S129  1  0.00613924  0.11654665  0.65130688  1
  S2-  S130  1  0.04428858  0.33026770  0.14198655  1
  S2-  S131  1  -0.00644942  0.38115900  0.66149151  1
  S2-  S132  1  0.12482530  0.62021256  0.14208055  1
  S2-  S133  1  0.01150612  0.62546467  0.65561104  1
  S2-  S134  1  0.09322938  0.88120004  0.14531113  1
  S2-  S135  1  0.08941552  0.85712415  0.63834701  1
  S2-  S136  1  0.25700769  0.04720392  0.14416265  1
  S2-  S137  1  0.25438472  0.14965709  0.65877204  1
  S2-  S138  1  0.25927633  0.40093448  0.16061612  1
  S2-  S139  1  0.27455358  0.37955633  0.65598593  1
  S2-  S140  1  0.33643177  0.60728764  0.15808235  1
  S2-  S141  1  0.26763403  0.71118682  0.63361967  1
  S2-  S142  1  0.27622259  0.83738370  0.18839457  1
  S2-  S143  1  0.29024554  0.92358862  0.66467918  1
  S2-  S144  1  0.50022905  0.02467512  0.14687299  1
  S2-  S145  1  0.49222037  0.21596850  0.64747135  1
  S2-  S146  1  0.50100259  0.44728172  0.14805067  1
  S2-  S147  1  0.48319260  0.43962691  0.67143725  1
  S2-  S148  1  0.50958614  0.59098092  0.22929493  1
  S2-  S149  1  0.52119780  0.65088800  0.65858548  1
  S2-  S150  1  0.48300261  0.77618581  0.16825427  1
  S2-  S151  1  0.52233537  0.89160551  0.64470006  1
  S2-  S152  1  0.77289817  0.03501818  0.14051911  1
  S2-  S153  1  0.77029518  0.17274317  0.66180769  1
  S2-  S154  1  0.72773496  0.37489135  0.14976670  1
  S2-  S155  1  0.66623956  0.36233888  0.66769675  1
  S2-  S156  1  0.67101812  0.60823080  0.15142726  1
  S2-  S157  1  0.75929540  0.53560559  0.65952498  1
  S2-  S158  1  0.65456264  0.87000838  0.15206882  1
  S2-  S159  1  0.75162439  0.76833941  0.64391947  1
  S2-  S160  1  0.09277222  -0.02015023  0.33525687  1
  S2-  S161  1  0.15197142  -0.01182410  0.76946154  1
  S2-  S162  1  0.13160528  0.23199337  0.34959952  1
  S2-  S163  1  0.13298123  0.16045740  0.84432621  1
  S2-  S164  1  0.13121811  0.47426004  0.34158767  1
  S2-  S165  1  0.14542336  0.62533064  0.86277571  1
  S2-  S166  1  0.20910004  0.74896353  0.34564546  1
  S2-  S167  1  0.13659976  0.83518511  0.84669981  1
  S2-  S168  1  0.31989401  -0.06689951  0.35677138  1
  S2-  S169  1  0.29629306  -0.00047979  0.84908103  1
  S2-  S170  1  0.37793353  0.36152568  0.35773707  1
  S2-  S171  1  0.35158639  0.24637258  0.84005782  1
  S2-  S172  1  0.35802504  0.57524449  0.33439683  1
  S2-  S173  1  0.37031203  0.50968235  0.84331055  1
  S2-  S174  1  0.44647721  0.76968861  0.32537233  1
  S2-  S175  1  0.37513078  0.74797559  0.84911424  1
  S2-  S176  1  0.54398870  -0.01375318  0.33076973  1
  S2-  S177  1  0.50761982  -0.01163583  0.86573736  1
  S2-  S178  1  0.61046569  0.22074202  0.35433107  1
  S2-  S179  1  0.56976656  0.26283793  0.84092780  1
  S2-  S180  1  0.59854970  0.47226115  0.35222042  1
  S2-  S181  1  0.58078296  0.48395425  0.81680312  1
  S2-  S182  1  0.65572445  0.75929775  0.34089266  1
  S2-  S183  1  0.61998199  0.68311033  0.86272575  1
  S2-  S184  1  0.76363466  0.01227944  0.35849400  1
  S2-  S185  1  0.96433986  -0.00586140  0.84567532  1
  S2-  S186  1  0.85875913  0.26842908  0.35061266  1
  S2-  S187  1  0.91236261  0.23605691  0.84083916  1
  S2-  S188  1  0.88818572  0.51966156  0.35131294  1
  S2-  S189  1  0.78267221  0.51584994  0.85765902  1
  S2-  S190  1  0.97822688  0.75347295  0.35912674  1
  S2-  S191  1  0.89720437  0.72538933  0.84927176  1
  S2-  S192  1  -0.00817020  0.12892197  0.44878535  1
  S2-  S193  1  0.00175417  0.13158338  0.94772394  1
  S2-  S194  1  -0.00686877  0.37528459  0.45553892  1
  S2-  S195  1  -0.00026694  0.38340454  0.94813521  1
  S2-  S196  1  -0.01027218  0.62363855  0.45512308  1
  S2-  S197  1  -0.00104898  0.63086846  0.95916988  1
  S2-  S198  1  -0.01003405  0.88261581  0.45447255  1
  S2-  S199  1  0.00254779  0.88331873  0.95125713  1
  S2-  S200  1  0.24350323  0.13040507  0.45266890  1
  S2-  S201  1  0.25576213  0.13552919  0.95147139  1
  S2-  S202  1  0.24041101  0.37509347  0.45410508  1
  S2-  S203  1  0.25090839  0.38184382  0.94887580  1
  S2-  S204  1  0.24384827  0.62366836  0.44796234  1
  S2-  S205  1  0.25495979  0.63059217  0.96448443  1
  S2-  S206  1  0.23476386  0.87735197  0.46101590  1
  S2-  S207  1  0.25123588  0.88242886  0.95724173  1
  S2-  S208  1  0.49216800  0.12843029  0.45701015  1
  S2-  S209  1  0.50214105  0.13531053  0.95829805  1
  S2-  S210  1  0.49184138  0.37539600  0.46611300  1
  S2-  S211  1  0.50460782  0.38602061  0.94760534  1
  S2-  S212  1  0.48626580  0.62599849  0.45074473  1
  S2-  S213  1  0.50110315  0.63061906  0.95593366  1
  S2-  S214  1  0.49268753  0.88137334  0.44548564  1
  S2-  S215  1  0.50517072  0.87925334  0.96922667  1
  S2-  S216  1  0.73992940  0.13279934  0.46085349  1
  S2-  S217  1  0.75224789  0.12979901  0.95219211  1
  S2-  S218  1  0.73917068  0.37620196  0.46536778  1
  S2-  S219  1  0.75135161  0.38384001  0.94896539  1
  S2-  S220  1  0.74209592  0.62923848  0.45941804  1
  S2-  S221  1  0.75615210  0.63487486  0.96063834  1
  S2-  S222  1  0.74241404  0.87420329  0.45657481  1
  S2-  S223  1  0.75358118  0.88427093  0.95359156  1
  S2-  S224  1  0.12633372  0.01321943  0.04309911  1
  S2-  S225  1  0.11516569  0.00466291  0.54202360  1
  S2-  S226  1  0.12767898  0.25709634  0.03584248  1
  S2-  S227  1  0.11706496  0.25081948  0.55099485  1
  S2-  S228  1  0.12431542  0.50423368  0.04075452  1
  S2-  S229  1  0.11879812  0.50421693  0.54937868  1
  S2-  S230  1  0.12876839  0.75867400  0.04419069  1
  S2-  S231  1  0.11411538  0.74531299  0.53598248  1
  S2-  S232  1  0.37751022  0.00745624  0.04555829  1
  S2-  S233  1  0.36711195  0.00156778  0.54795365  1
  S2-  S234  1  0.37956730  0.25760458  0.04843152  1
  S2-  S235  1  0.36646135  0.25031837  0.54360429  1
  S2-  S236  1  0.37603021  0.50905462  0.04780583  1
  S2-  S237  1  0.36581482  0.50077889  0.54585967  1
  S2-  S238  1  0.37113695  0.76139958  0.05986183  1
  S2-  S239  1  0.36949409  0.75444215  0.53150607  1
  S2-  S240  1  0.62837256  0.01097674  0.04284374  1
  S2-  S241  1  0.61762090  0.00303070  0.54232056  1
  S2-  S242  1  0.62800685  0.25603952  0.04559740  1
  S2-  S243  1  0.62198751  0.25268108  0.55342744  1
  S2-  S244  1  0.63303801  0.50645504  0.03976527  1
  S2-  S245  1  0.61385559  0.50145004  0.55679796  1
  S2-  S246  1  0.62710542  0.75278472  0.05483262  1
  S2-  S247  1  0.61312871  0.75318234  0.54459393  1
  S2-  S248  1  0.88079624  0.01208810  0.03496854  1
  S2-  S249  1  0.86787776  0.00184038  0.54716974  1
  S2-  S250  1  0.87766663  0.25873872  0.04530412  1
  S2-  S251  1  0.86833606  0.25375129  0.55474044  1
  S2-  S252  1  0.87812888  0.50477554  0.04672618  1
  S2-  S253  1  0.87027972  0.50398256  0.55489452  1
  S2-  S254  1  0.87641300  0.76190128  0.04931217  1
  S2-  S255  1  0.87245427  0.75443784  0.54255190  1
