# generated using pymatgen
data_La6Ce6Pr19Nd20Sm13(BiS2)64
_symmetry_space_group_name_H-M   'P 1'
_cell_length_a   16.12487979
_cell_length_b   16.16211047
_cell_length_c   27.21876423
_cell_angle_alpha   90.14723606
_cell_angle_beta   89.91624354
_cell_angle_gamma   90.03301600
_symmetry_Int_Tables_number   1
_chemical_formula_structural   La6Ce6Pr19Nd20Sm13(BiS2)64
_chemical_formula_sum   'La6 Ce6 Pr19 Nd20 Sm13 Bi64 S128'
_cell_volume   7093.50682966
_cell_formula_units_Z   1
loop_
 _symmetry_equiv_pos_site_id
 _symmetry_equiv_pos_as_xyz
  1  'x, y, z'
loop_
 _atom_type_symbol
 _atom_type_oxidation_number
  La3+  3.0
  Ce3+  3.0
  Pr3+  3.0
  Nd3+  3.0
  Sm3+  3.0
  Bi2+  2.0
  S2-  -2.0
loop_
 _atom_site_type_symbol
 _atom_site_label
 _atom_site_symmetry_multiplicity
 _atom_site_fract_x
 _atom_site_fract_y
 _atom_site_fract_z
 _atom_site_occupancy
  La3+  La0  1  0.63299606  0.49853521  0.91599885  1
  La3+  La1  1  0.62518422  0.75849262  0.92173640  1
  La3+  La2  1  0.87834999  0.73628746  0.42955120  1
  La3+  La3  1  0.38119505  0.75023940  0.42527763  1
  La3+  La4  1  0.13160846  0.25663203  0.93701189  1
  La3+  La5  1  0.24630400  0.63096330  0.11295039  1
  Ce3+  Ce6  1  0.00129713  0.36940111  0.55749160  1
  Ce3+  Ce7  1  0.50633709  0.87754687  0.06096100  1
  Ce3+  Ce8  1  0.75604854  0.86552819  0.55845744  1
  Ce3+  Ce9  1  0.87828498  0.50879519  0.93365105  1
  Ce3+  Ce10  1  0.38049531  -0.00729135  0.44685526  1
  Ce3+  Ce11  1  0.26063984  0.62010918  0.55235337  1
  Pr3+  Pr12  1  0.38013440  0.25603720  0.94271630  1
  Pr3+  Pr13  1  0.38474710  0.48340085  0.42399515  1
  Pr3+  Pr14  1  0.50625716  0.38257854  0.06433622  1
  Pr3+  Pr15  1  0.87872365  -0.01421152  0.41930257  1
  Pr3+  Pr16  1  0.00034238  0.88889630  0.07684746  1
  Pr3+  Pr17  1  0.74985518  0.63274928  0.06006046  1
  Pr3+  Pr18  1  0.25450830  0.85923325  0.56944538  1
  Pr3+  Pr19  1  0.50462667  0.63140123  0.06375434  1
  Pr3+  Pr20  1  0.25350585  0.88155487  0.06661076  1
  Pr3+  Pr21  1  0.88126033  0.00174623  0.93294821  1
  Pr3+  Pr22  1  0.50419044  0.11740598  0.56322328  1
  Pr3+  Pr23  1  0.25590891  0.36907311  0.56303586  1
  Pr3+  Pr24  1  0.50797226  0.61943243  0.57363820  1
  Pr3+  Pr25  1  0.62796376  0.73866903  0.43972245  1
  Pr3+  Pr26  1  0.37897304  0.50494433  0.94223525  1
  Pr3+  Pr27  1  0.38115128  0.75430758  0.93908942  1
  Pr3+  Pr28  1  0.12866490  0.75533215  0.94838101  1
  Pr3+  Pr29  1  0.12946100  0.24330710  0.43823061  1
  Pr3+  Pr30  1  0.12636141  -0.00095632  0.93797989  1
  Nd3+  Nd31  1  0.76005327  0.61846082  0.58693089  1
  Nd3+  Nd32  1  0.87898327  0.75260051  0.91928005  1
  Nd3+  Nd33  1  0.00033461  0.63186294  0.06701493  1
  Nd3+  Nd34  1  0.63179762  0.25338492  0.93216238  1
  Nd3+  Nd35  1  0.74851160  0.36195516  0.59186073  1
  Nd3+  Nd36  1  0.00546089  0.87133385  0.55775388  1
  Nd3+  Nd37  1  0.25254450  0.12777184  0.06656041  1
  Nd3+  Nd38  1  0.26005886  0.38007399  0.07480038  1
  Nd3+  Nd39  1  0.75809973  0.11837621  0.55839429  1
  Nd3+  Nd40  1  0.13108165  0.74284455  0.43572347  1
  Nd3+  Nd41  1  0.75036989  0.38411449  0.06560310  1
  Nd3+  Nd42  1  0.37888213  0.00559270  0.94371622  1
  Nd3+  Nd43  1  0.50816778  0.13054677  0.05546317  1
  Nd3+  Nd44  1  -0.00024435  0.61931978  0.56104794  1
  Nd3+  Nd45  1  0.62917453  0.49159295  0.44881513  1
  Nd3+  Nd46  1  0.62981556  -0.00659060  0.44245161  1
  Nd3+  Nd47  1  0.87678210  0.49354414  0.43950304  1
  Nd3+  Nd48  1  0.13217747  -0.00782976  0.43496904  1
  Nd3+  Nd49  1  0.12946587  0.50775992  0.94744218  1
  Nd3+  Nd50  1  0.87756330  0.24418964  0.43834856  1
  Sm3+  Sm51  1  0.75423542  0.87876479  0.05510534  1
  Sm3+  Sm52  1  0.75450678  0.12991840  0.05295013  1
  Sm3+  Sm53  1  0.87853653  0.25628746  0.94639783  1
  Sm3+  Sm54  1  0.63139848  0.24393296  0.44658125  1
  Sm3+  Sm55  1  0.00357620  0.11819697  0.54828955  1
  Sm3+  Sm56  1  0.00395996  0.38180277  0.05649293  1
  Sm3+  Sm57  1  0.63212431  0.00328605  0.93793347  1
  Sm3+  Sm58  1  0.38172660  0.24300825  0.44419941  1
  Sm3+  Sm59  1  0.00230559  0.13173616  0.05704711  1
  Sm3+  Sm60  1  0.13160853  0.49121414  0.44739764  1
  Sm3+  Sm61  1  0.50596279  0.86501411  0.56494117  1
  Sm3+  Sm62  1  0.25341019  0.11797601  0.55801418  1
  Sm3+  Sm63  1  0.50294355  0.37606406  0.57103446  1
  Bi2+  Bi64  1  0.00725008  0.22724580  0.26691767  1
  Bi2+  Bi65  1  -0.05688378  0.11379108  0.79794482  1
  Bi2+  Bi66  1  -0.01953867  0.45538252  0.30722970  1
  Bi2+  Bi67  1  0.00355971  0.40840809  0.79657035  1
  Bi2+  Bi68  1  -0.03962231  0.60076468  0.23219501  1
  Bi2+  Bi69  1  0.02331935  0.68530085  0.78325032  1
  Bi2+  Bi70  1  -0.03315089  0.91863027  0.27892990  1
  Bi2+  Bi71  1  0.04201626  0.90175134  0.79318509  1
  Bi2+  Bi72  1  0.27954075  0.11490461  0.30837648  1
  Bi2+  Bi73  1  0.30105771  0.07641952  0.73902393  1
  Bi2+  Bi74  1  0.25777779  0.30644933  0.29505155  1
  Bi2+  Bi75  1  0.24540973  0.36894204  0.81868585  1
  Bi2+  Bi76  1  0.23730396  0.61498701  0.32031222  1
  Bi2+  Bi77  1  0.27105492  0.65736651  0.74974463  1
  Bi2+  Bi78  1  0.22932610  0.87543559  0.30535392  1
  Bi2+  Bi79  1  0.25267747  0.90224632  0.79013627  1
  Bi2+  Bi80  1  0.47940565  0.12515167  0.30653353  1
  Bi2+  Bi81  1  0.48295213  0.09167317  0.79409555  1
  Bi2+  Bi82  1  0.51227842  0.31778397  0.28383822  1
  Bi2+  Bi83  1  0.47690297  0.29117276  0.78623331  1
  Bi2+  Bi84  1  0.52059344  0.61950437  0.30182988  1
  Bi2+  Bi85  1  0.45500306  0.62122709  0.78733608  1
  Bi2+  Bi86  1  0.49718020  0.93397433  0.28448932  1
  Bi2+  Bi87  1  0.51315207  0.87775961  0.78644295  1
  Bi2+  Bi88  1  0.68389775  0.14505033  0.29608465  1
  Bi2+  Bi89  1  0.67524083  0.11490498  0.81736725  1
  Bi2+  Bi90  1  0.79369842  0.39990421  0.30780645  1
  Bi2+  Bi91  1  0.73879142  0.29587710  0.79971761  1
  Bi2+  Bi92  1  0.77331411  0.67950490  0.29348805  1
  Bi2+  Bi93  1  0.77683979  0.59840881  0.79542978  1
  Bi2+  Bi94  1  0.75513869  0.96305950  0.27167100  1
  Bi2+  Bi95  1  0.76870830  0.86795897  0.78781331  1
  Bi2+  Bi96  1  0.12954538  0.06714153  0.21270560  1
  Bi2+  Bi97  1  0.08844108  0.05647018  0.70559612  1
  Bi2+  Bi98  1  0.19626366  0.23319355  0.17755706  1
  Bi2+  Bi99  1  0.07906196  0.25798550  0.73784748  1
  Bi2+  Bi100  1  0.12142561  0.39711124  0.22961307  1
  Bi2+  Bi101  1  0.11588121  0.53512685  0.73151086  1
  Bi2+  Bi102  1  0.12504456  0.76827125  0.21921042  1
  Bi2+  Bi103  1  0.11979290  0.78793051  0.68733504  1
  Bi2+  Bi104  1  0.33686791  -0.00699893  0.22692131  1
  Bi2+  Bi105  1  0.45672264  -0.00174461  0.67942742  1
  Bi2+  Bi106  1  0.38606735  0.22661957  0.20793298  1
  Bi2+  Bi107  1  0.34196138  0.25892450  0.70305673  1
  Bi2+  Bi108  1  0.36592394  0.48510105  0.21529019  1
  Bi2+  Bi109  1  0.35406257  0.47965304  0.72267696  1
  Bi2+  Bi110  1  0.38571366  0.74681415  0.21687230  1
  Bi2+  Bi111  1  0.36844483  0.82085099  0.70815268  1
  Bi2+  Bi112  1  0.60979243  0.03770430  0.20675252  1
  Bi2+  Bi113  1  0.64383288  -0.05525333  0.68739039  1
  Bi2+  Bi114  1  0.66366927  0.28095295  0.21123807  1
  Bi2+  Bi115  1  0.62150986  0.21425652  0.71761772  1
  Bi2+  Bi116  1  0.68177301  0.52259365  0.25032070  1
  Bi2+  Bi117  1  0.60983631  0.48189080  0.71259477  1
  Bi2+  Bi118  1  0.63645989  0.77159384  0.20028369  1
  Bi2+  Bi119  1  0.62007395  0.75363324  0.70934621  1
  Bi2+  Bi120  1  0.87436760  0.11594426  0.21248338  1
  Bi2+  Bi121  1  0.80582275  0.03229512  0.73226290  1
  Bi2+  Bi122  1  0.85921767  0.32982660  0.20294017  1
  Bi2+  Bi123  1  0.89045124  0.22699473  0.70727644  1
  Bi2+  Bi124  1  0.82192119  0.51931157  0.16761577  1
  Bi2+  Bi125  1  0.92774139  0.48578415  0.70542369  1
  Bi2+  Bi126  1  0.82931768  0.72731374  0.18644141  1
  Bi2+  Bi127  1  0.87799317  0.75408354  0.71530256  1
  S2-  S128  1  -0.00873027  0.05666869  0.14468973  1
  S2-  S129  1  -0.02925852  0.09504443  0.64360978  1
  S2-  S130  1  0.00870392  0.35981019  0.15393015  1
  S2-  S131  1  -0.00068439  0.34255281  0.65356249  1
  S2-  S132  1  0.07767724  0.63598047  0.15663394  1
  S2-  S133  1  -0.09226691  0.62437700  0.64539434  1
  S2-  S134  1  0.01107697  0.85763377  0.17912262  1
  S2-  S135  1  -0.02732999  0.85584678  0.65590984  1
  S2-  S136  1  0.24100345  0.01018290  0.14205446  1
  S2-  S137  1  0.22401474  0.14948863  0.65288954  1
  S2-  S138  1  0.22879470  0.47201373  0.15826807  1
  S2-  S139  1  0.24770858  0.38481348  0.66356045  1
  S2-  S140  1  0.25173324  0.63516669  0.22631055  1
  S2-  S141  1  0.25376173  0.70898774  0.63572852  1
  S2-  S142  1  0.26121313  0.79485376  0.15480164  1
  S2-  S143  1  0.18245164  0.92840307  0.65395233  1
  S2-  S144  1  0.49630081  0.12678789  0.15471889  1
  S2-  S145  1  0.48138647  0.17699916  0.65657222  1
  S2-  S146  1  0.40067597  0.37426875  0.14742321  1
  S2-  S147  1  0.60215487  0.35623513  0.65281531  1
  S2-  S148  1  0.41404964  0.61699504  0.15440344  1
  S2-  S149  1  0.45416419  0.49581921  0.64466798  1
  S2-  S150  1  0.49976277  0.84217476  0.15743550  1
  S2-  S151  1  0.48529254  0.75776375  0.64252463  1
  S2-  S152  1  0.74303282  0.13104006  0.15082546  1
  S2-  S153  1  0.75742619  0.20682948  0.64464735  1
  S2-  S154  1  0.62985686  0.38505848  0.13910937  1
  S2-  S155  1  0.77050376  0.46784088  0.67275535  1
  S2-  S156  1  0.63119190  0.64677787  0.13829513  1
  S2-  S157  1  0.62800424  0.61035010  0.65383561  1
  S2-  S158  1  0.75786676  0.87912263  0.15474646  1
  S2-  S159  1  0.75492722  0.77526644  0.64224327  1
  S2-  S160  1  0.10698840  -0.02882555  0.33608294  1
  S2-  S161  1  0.14449684  0.01410477  0.83812440  1
  S2-  S162  1  0.12534243  0.21272451  0.33938285  1
  S2-  S163  1  0.13035412  0.24838833  0.83663131  1
  S2-  S164  1  0.13974821  0.47806436  0.34967383  1
  S2-  S165  1  0.12723365  0.48987362  0.84731509  1
  S2-  S166  1  0.11827926  0.74591907  0.33524127  1
  S2-  S167  1  0.13269193  0.77804987  0.84719662  1
  S2-  S168  1  0.37649748  -0.09206439  0.36268514  1
  S2-  S169  1  0.38457017  -0.03510250  0.84700452  1
  S2-  S170  1  0.39328151  0.33318268  0.36200570  1
  S2-  S171  1  0.33701985  0.24059015  0.84590445  1
  S2-  S172  1  0.37445849  0.51905641  0.32163835  1
  S2-  S173  1  0.37552221  0.48722655  0.84047588  1
  S2-  S174  1  0.37769113  0.71952535  0.32372692  1
  S2-  S175  1  0.47973935  0.74769345  0.85491408  1
  S2-  S176  1  0.64094703  -0.04563598  0.34541006  1
  S2-  S177  1  0.63534724  -0.08903661  0.85507108  1
  S2-  S178  1  0.63903477  0.28304488  0.35106477  1
  S2-  S179  1  0.59727964  0.35107452  0.85236486  1
  S2-  S180  1  0.60092393  0.50541838  0.34951618  1
  S2-  S181  1  0.60518696  0.56345579  0.81523361  1
  S2-  S182  1  0.62169830  0.73561166  0.33823205  1
  S2-  S183  1  0.74664223  0.73246136  0.84797213  1
  S2-  S184  1  0.89502841  0.04814296  0.32175513  1
  S2-  S185  1  0.90450064  -0.11021589  0.85572813  1
  S2-  S186  1  0.88532245  0.26816661  0.34020345  1
  S2-  S187  1  0.88955189  0.25382505  0.84806977  1
  S2-  S188  1  0.87700339  0.60254886  0.35997015  1
  S2-  S189  1  0.77983106  0.47025738  0.85427300  1
  S2-  S190  1  0.88313052  0.84849200  0.35127057  1
  S2-  S191  1  0.91937240  0.62069072  0.85534404  1
  S2-  S192  1  0.00211847  0.11556381  0.44300484  1
  S2-  S193  1  0.00309754  0.13032457  0.95181347  1
  S2-  S194  1  0.00447910  0.36936588  0.45079555  1
  S2-  S195  1  0.00220899  0.38015552  0.95176666  1
  S2-  S196  1  0.01099928  0.61409886  0.45502760  1
  S2-  S197  1  0.00594857  0.63170545  0.96147339  1
  S2-  S198  1  0.00954978  0.86825540  0.45085685  1
  S2-  S199  1  0.00261844  0.87836694  0.96337105  1
  S2-  S200  1  0.25708088  0.11930742  0.45269232  1
  S2-  S201  1  0.25237783  0.12679258  0.95679604  1
  S2-  S202  1  0.25393194  0.36578527  0.45572197  1
  S2-  S203  1  0.25370038  0.38055270  0.96171025  1
  S2-  S204  1  0.25685565  0.61565105  0.44603847  1
  S2-  S205  1  0.25369539  0.63095198  0.94252045  1
  S2-  S206  1  0.25078012  0.86792628  0.46011994  1
  S2-  S207  1  0.25605537  0.88056314  0.95652692  1
  S2-  S208  1  0.50596351  0.12045919  0.45397051  1
  S2-  S209  1  0.50744421  0.12773056  0.94808148  1
  S2-  S210  1  0.50785021  0.36448601  0.46348573  1
  S2-  S211  1  0.50350446  0.37843018  0.95696333  1
  S2-  S212  1  0.50102371  0.61533056  0.45285487  1
  S2-  S213  1  0.50705257  0.62509263  0.95287829  1
  S2-  S214  1  0.50851961  0.86950261  0.45919633  1
  S2-  S215  1  0.50393438  0.88560770  0.95597411  1
  S2-  S216  1  0.75544664  0.11758813  0.45053239  1
  S2-  S217  1  0.75730685  0.12878232  0.94850516  1
  S2-  S218  1  0.75477964  0.36769586  0.45444501  1
  S2-  S219  1  0.75484336  0.37344316  0.95931946  1
  S2-  S220  1  0.75085129  0.61549086  0.46038619  1
  S2-  S221  1  0.75634498  0.63177142  0.95348906  1
  S2-  S222  1  0.75143967  0.86724208  0.45253295  1
  S2-  S223  1  0.75836322  0.87930407  0.95289290  1
  S2-  S224  1  0.12350839  0.00732251  0.04374743  1
  S2-  S225  1  0.12889287  -0.00134132  0.54162773  1
  S2-  S226  1  0.12635179  0.25481255  0.04619474  1
  S2-  S227  1  0.12853427  0.24205398  0.54548471  1
  S2-  S228  1  0.12617331  0.50472600  0.05173807  1
  S2-  S229  1  0.12995151  0.49632706  0.55333214  1
  S2-  S230  1  0.12412459  0.75901541  0.05430899  1
  S2-  S231  1  0.12411636  0.74170774  0.54212828  1
  S2-  S232  1  0.38332879  0.00634797  0.04932105  1
  S2-  S233  1  0.37607414  -0.00865492  0.55227871  1
  S2-  S234  1  0.37808978  0.24888992  0.04837802  1
  S2-  S235  1  0.37910204  0.24419364  0.54833158  1
  S2-  S236  1  0.37464336  0.50810708  0.04810801  1
  S2-  S237  1  0.37695411  0.49249904  0.53552515  1
  S2-  S238  1  0.37920521  0.75589946  0.04513282  1
  S2-  S239  1  0.38261906  0.74369685  0.53549087  1
  S2-  S240  1  0.63253592  0.00484972  0.04367137  1
  S2-  S241  1  0.62983634  -0.00677518  0.54879420  1
  S2-  S242  1  0.63192454  0.25146482  0.04002838  1
  S2-  S243  1  0.62798412  0.24385439  0.54810136  1
  S2-  S244  1  0.63027435  0.50593220  0.03598481  1
  S2-  S245  1  0.63549534  0.48953323  0.55261665  1
  S2-  S246  1  0.63019810  0.76145510  0.03574932  1
  S2-  S247  1  0.62921542  0.74428558  0.54519317  1
  S2-  S248  1  0.87561781  0.00655626  0.04217643  1
  S2-  S249  1  0.87934855  -0.00638339  0.53633084  1
  S2-  S250  1  0.87845481  0.25522068  0.05149461  1
  S2-  S251  1  0.87999523  0.24372986  0.54391531  1
  S2-  S252  1  0.87976281  0.50383136  0.04354372  1
  S2-  S253  1  0.87577630  0.49049250  0.54661160  1
  S2-  S254  1  0.87970942  0.75878476  0.05132604  1
  S2-  S255  1  0.88293296  0.74581356  0.53851425  1
