# generated using pymatgen
data_La6Ce6Pr19Nd20Sm13(BiS2)64
_symmetry_space_group_name_H-M   'P 1'
_cell_length_a   16.06188864
_cell_length_b   16.07004960
_cell_length_c   27.30858335
_cell_angle_alpha   90.00881294
_cell_angle_beta   90.49445992
_cell_angle_gamma   89.97883581
_symmetry_Int_Tables_number   1
_chemical_formula_structural   La6Ce6Pr19Nd20Sm13(BiS2)64
_chemical_formula_sum   'La6 Ce6 Pr19 Nd20 Sm13 Bi64 S128'
_cell_volume   7048.50142859
_cell_formula_units_Z   1
loop_
 _symmetry_equiv_pos_site_id
 _symmetry_equiv_pos_as_xyz
  1  'x, y, z'
loop_
 _atom_type_symbol
 _atom_type_oxidation_number
  La3+  3.0
  Ce3+  3.0
  Pr3+  3.0
  Nd3+  3.0
  Sm3+  3.0
  Bi2+  2.0
  S2-  -2.0
loop_
 _atom_site_type_symbol
 _atom_site_label
 _atom_site_symmetry_multiplicity
 _atom_site_fract_x
 _atom_site_fract_y
 _atom_site_fract_z
 _atom_site_occupancy
  La3+  La0  1  0.64275618  0.23693251  0.41007247  1
  La3+  La1  1  0.86411330  0.74262129  0.90827829  1
  La3+  La2  1  0.75595259  0.87161426  0.07411252  1
  La3+  La3  1  0.60625889  0.49889596  0.93103084  1
  La3+  La4  1  0.85669505  0.00534916  0.92107837  1
  La3+  La5  1  -0.05267617  0.38697749  0.11747207  1
  Ce3+  Ce6  1  0.73556770  0.37017882  0.05890229  1
  Ce3+  Ce7  1  0.77003768  0.87178704  0.55955581  1
  Ce3+  Ce8  1  0.89113879  0.25500892  0.43242038  1
  Ce3+  Ce9  1  0.76674708  0.62307867  0.56513562  1
  Ce3+  Ce10  1  0.11550491  0.00101049  0.93136812  1
  Ce3+  Ce11  1  0.26874039  0.61855783  0.56008063  1
  Pr3+  Pr12  1  0.14241655  0.50743379  0.41459644  1
  Pr3+  Pr13  1  0.23841712  0.12694762  0.06644858  1
  Pr3+  Pr14  1  0.26730042  0.12195177  0.57372771  1
  Pr3+  Pr15  1  0.23170789  0.37565086  0.09410416  1
  Pr3+  Pr16  1  0.39295001  0.48885279  0.42113816  1
  Pr3+  Pr17  1  0.75007942  0.61503456  0.06080197  1
  Pr3+  Pr18  1  -0.00756257  0.12675728  0.06124804  1
  Pr3+  Pr19  1  0.11503851  0.49740039  0.93906569  1
  Pr3+  Pr20  1  0.88941366  0.50432028  0.43334023  1
  Pr3+  Pr21  1  0.26702111  0.87511631  0.56394841  1
  Pr3+  Pr22  1  0.11459246  0.25323378  0.94682834  1
  Pr3+  Pr23  1  0.61174086  0.24604482  0.93813342  1
  Pr3+  Pr24  1  0.38928435  0.00086121  0.43159020  1
  Pr3+  Pr25  1  0.38706157  0.24253790  0.43226907  1
  Pr3+  Pr26  1  -0.00693001  0.61976023  0.05240409  1
  Pr3+  Pr27  1  0.49541011  0.62403322  0.07031068  1
  Pr3+  Pr28  1  0.36458554  -0.00122089  0.95121393  1
  Pr3+  Pr29  1  0.36654545  0.24701224  0.93528098  1
  Pr3+  Pr30  1  0.74466458  0.12667879  0.07194298  1
  Nd3+  Nd31  1  0.61901644  0.74980468  0.93927289  1
  Nd3+  Nd32  1  0.76677299  0.37005709  0.55424180  1
  Nd3+  Nd33  1  0.14177612  0.74728406  0.44456498  1
  Nd3+  Nd34  1  0.01854487  0.61483181  0.57350363  1
  Nd3+  Nd35  1  0.85909169  0.24881435  0.93312528  1
  Nd3+  Nd36  1  0.85726697  0.49565755  0.92691053  1
  Nd3+  Nd37  1  0.61671713  -0.00103698  0.94672332  1
  Nd3+  Nd38  1  0.01762775  0.37742315  0.56116396  1
  Nd3+  Nd39  1  0.01565460  0.12167490  0.57058004  1
  Nd3+  Nd40  1  0.64018985  0.74654333  0.43534602  1
  Nd3+  Nd41  1  0.76937559  0.12153665  0.56162780  1
  Nd3+  Nd42  1  0.48755163  0.37753687  0.06754025  1
  Nd3+  Nd43  1  0.52248285  0.12241075  0.56260619  1
  Nd3+  Nd44  1  0.13754231  0.24858842  0.44475695  1
  Nd3+  Nd45  1  0.11912918  0.74557169  0.92608325  1
  Nd3+  Nd46  1  0.64961880  -0.00993065  0.42441870  1
  Nd3+  Nd47  1  0.26992549  0.37233043  0.55420864  1
  Nd3+  Nd48  1  0.51874862  0.87487524  0.55540023  1
  Nd3+  Nd49  1  0.23818409  0.62663871  0.06753573  1
  Nd3+  Nd50  1  0.02374048  0.86382090  0.59166846  1
  Sm3+  Sm51  1  0.36693611  0.75013794  0.94705179  1
  Sm3+  Sm52  1  -0.01261360  0.87324054  0.03891379  1
  Sm3+  Sm53  1  0.36599751  0.50143398  0.94562243  1
  Sm3+  Sm54  1  0.49594549  0.87559976  0.06088253  1
  Sm3+  Sm55  1  0.89547488  0.74180823  0.44656359  1
  Sm3+  Sm56  1  0.89338135  -0.00177597  0.44040782  1
  Sm3+  Sm57  1  0.51751246  0.62118838  0.55378998  1
  Sm3+  Sm58  1  0.23606205  0.87071794  0.06240221  1
  Sm3+  Sm59  1  0.38870234  0.74771588  0.44749975  1
  Sm3+  Sm60  1  0.13244393  -0.00182123  0.44217237  1
  Sm3+  Sm61  1  0.48952178  0.13311115  0.07508319  1
  Sm3+  Sm62  1  0.64032267  0.49637822  0.44422998  1
  Sm3+  Sm63  1  0.51907297  0.36913461  0.55147328  1
  Bi2+  Bi64  1  0.01886120  0.08752710  0.27739530  1
  Bi2+  Bi65  1  0.00967215  0.18664635  0.77808277  1
  Bi2+  Bi66  1  -0.00129518  0.31872389  0.30534783  1
  Bi2+  Bi67  1  -0.07249194  0.37160004  0.79978445  1
  Bi2+  Bi68  1  -0.00700474  0.67209017  0.28500979  1
  Bi2+  Bi69  1  0.03999711  0.63818370  0.79580300  1
  Bi2+  Bi70  1  0.00831707  0.87279134  0.28989701  1
  Bi2+  Bi71  1  0.03268691  0.89806700  0.78203822  1
  Bi2+  Bi72  1  0.22329870  0.09916730  0.29555732  1
  Bi2+  Bi73  1  0.31103030  0.15424874  0.80923048  1
  Bi2+  Bi74  1  0.25674201  0.36753041  0.30246447  1
  Bi2+  Bi75  1  0.25473855  0.34140720  0.81114101  1
  Bi2+  Bi76  1  0.24549057  0.66341136  0.28743475  1
  Bi2+  Bi77  1  0.33478073  0.61721344  0.75209868  1
  Bi2+  Bi78  1  0.20303389  0.89997949  0.31136959  1
  Bi2+  Bi79  1  0.32926089  0.89724134  0.78681710  1
  Bi2+  Bi80  1  0.47319703  0.08310141  0.27893472  1
  Bi2+  Bi81  1  0.50291985  0.11231723  0.78607639  1
  Bi2+  Bi82  1  0.49060635  0.53238554  0.29235945  1
  Bi2+  Bi83  1  0.51475880  0.35889879  0.78837941  1
  Bi2+  Bi84  1  0.52670284  0.72428976  0.30895956  1
  Bi2+  Bi85  1  0.51305696  0.61620864  0.80671054  1
  Bi2+  Bi86  1  0.39982653  0.90796841  0.30099055  1
  Bi2+  Bi87  1  0.51231638  0.81870952  0.80305960  1
  Bi2+  Bi88  1  0.75197159  0.09803925  0.28933527  1
  Bi2+  Bi89  1  0.75742828  0.13831008  0.79059181  1
  Bi2+  Bi90  1  0.74264231  0.40598566  0.28635358  1
  Bi2+  Bi91  1  0.71532683  0.36725102  0.77900957  1
  Bi2+  Bi92  1  0.73940089  0.66335970  0.30138084  1
  Bi2+  Bi93  1  0.74975095  0.61422026  0.78902899  1
  Bi2+  Bi94  1  0.74322201  0.86428884  0.28385698  1
  Bi2+  Bi95  1  0.74673778  0.88949646  0.79222268  1
  Bi2+  Bi96  1  0.11730661  0.01391140  0.15699061  1
  Bi2+  Bi97  1  0.19874293  0.05177444  0.73599362  1
  Bi2+  Bi98  1  0.12252061  0.19876877  0.20343236  1
  Bi2+  Bi99  1  0.11773132  0.27995605  0.69957601  1
  Bi2+  Bi100  1  0.10794389  0.50360048  0.21898930  1
  Bi2+  Bi101  1  0.10290129  0.44828611  0.77012839  1
  Bi2+  Bi102  1  0.12147177  0.76332233  0.21623743  1
  Bi2+  Bi103  1  0.17710284  0.75007814  0.70736263  1
  Bi2+  Bi104  1  0.28555619  -0.02503582  0.21201733  1
  Bi2+  Bi105  1  0.35232987  -0.02794860  0.68120847  1
  Bi2+  Bi106  1  0.36830384  0.27368034  0.22890713  1
  Bi2+  Bi107  1  0.31837482  0.23377818  0.70130421  1
  Bi2+  Bi108  1  0.36909652  0.46645834  0.20906293  1
  Bi2+  Bi109  1  0.36252909  0.42843117  0.72737597  1
  Bi2+  Bi110  1  0.39714602  0.66990862  0.21606662  1
  Bi2+  Bi111  1  0.40228050  0.78079106  0.70120483  1
  Bi2+  Bi112  1  0.62363876  -0.05106117  0.20534073  1
  Bi2+  Bi113  1  0.59427755  -0.03598362  0.73643098  1
  Bi2+  Bi114  1  0.60286353  0.22332528  0.21373116  1
  Bi2+  Bi115  1  0.60754833  0.21893456  0.71113842  1
  Bi2+  Bi116  1  0.63384374  0.52678936  0.21344655  1
  Bi2+  Bi117  1  0.61002659  0.47245986  0.69817991  1
  Bi2+  Bi118  1  0.58514535  0.71719345  0.19304242  1
  Bi2+  Bi119  1  0.61316014  0.68621353  0.71816045  1
  Bi2+  Bi120  1  0.92966058  -0.01484193  0.19714719  1
  Bi2+  Bi121  1  0.81415095  0.01024450  0.69766802  1
  Bi2+  Bi122  1  0.84218891  0.21792787  0.21755969  1
  Bi2+  Bi123  1  0.89773277  0.28024905  0.69809391  1
  Bi2+  Bi124  1  0.85124890  0.56051709  0.21369048  1
  Bi2+  Bi125  1  0.89159791  0.49110558  0.70463250  1
  Bi2+  Bi126  1  0.85569873  0.76245429  0.21036065  1
  Bi2+  Bi127  1  0.88175544  0.76938189  0.70177839  1
  S2-  S128  1  -0.04384227  0.20912787  0.14902917  1
  S2-  S129  1  -0.11309382  0.13076178  0.64090303  1
  S2-  S130  1  -0.09705894  0.37655018  0.22219467  1
  S2-  S131  1  0.01736817  0.48214544  0.64267552  1
  S2-  S132  1  -0.01165041  0.55812501  0.14859306  1
  S2-  S133  1  0.02671091  0.72152966  0.65550712  1
  S2-  S134  1  -0.07091742  0.85716370  0.13163195  1
  S2-  S135  1  -0.04085162  0.92786485  0.68100236  1
  S2-  S136  1  0.26871959  0.22531794  0.15117223  1
  S2-  S137  1  0.13709703  0.12108235  0.64690261  1
  S2-  S138  1  0.10460096  0.36693686  0.16723980  1
  S2-  S139  1  0.24339035  0.37912405  0.65248145  1
  S2-  S140  1  0.23371287  0.52674654  0.15231844  1
  S2-  S141  1  0.24719152  0.62023186  0.65725413  1
  S2-  S142  1  0.22102195  0.75844721  0.13668093  1
  S2-  S143  1  0.17362932  0.87940198  0.64959354  1
  S2-  S144  1  0.52670695  0.08132670  0.17071203  1
  S2-  S145  1  0.40585649  0.12364720  0.64055983  1
  S2-  S146  1  0.49137116  0.27220996  0.14896563  1
  S2-  S147  1  0.52844794  0.34993062  0.64932233  1
  S2-  S148  1  0.51082589  0.49913533  0.14293824  1
  S2-  S149  1  0.51797615  0.59534810  0.65103610  1
  S2-  S150  1  0.49765574  0.85866327  0.15830367  1
  S2-  S151  1  0.51703226  0.89642332  0.65371360  1
  S2-  S152  1  0.72685035  0.25801516  0.14361378  1
  S2-  S153  1  0.64841267  0.11561583  0.63731396  1
  S2-  S154  1  0.77891837  0.48164010  0.13227947  1
  S2-  S155  1  0.77115538  0.38576675  0.65390865  1
  S2-  S156  1  0.73806120  0.73107356  0.13834230  1
  S2-  S157  1  0.81359843  0.62594403  0.66004661  1
  S2-  S158  1  0.74924491  1.00163427  0.14788779  1
  S2-  S159  1  0.75192441  0.85906389  0.65688343  1
  S2-  S160  1  0.01645002  0.00470689  0.36604062  1
  S2-  S161  1  0.13320948  0.00261942  0.83402007  1
  S2-  S162  1  0.14611257  0.24262305  0.34517010  1
  S2-  S163  1  0.13171492  0.23454990  0.84645972  1
  S2-  S164  1  0.07882867  0.45623912  0.31918249  1
  S2-  S165  1  0.16232498  0.55218645  0.84680527  1
  S2-  S166  1  0.12140904  0.66310671  0.35853386  1
  S2-  S167  1  0.13654139  0.77166671  0.82660437  1
  S2-  S168  1  0.36848994  0.12065148  0.35666611  1
  S2-  S169  1  0.40528772  0.00632914  0.85332053  1
  S2-  S170  1  0.39973856  0.34808293  0.35102148  1
  S2-  S171  1  0.49130392  0.24020157  0.86131675  1
  S2-  S172  1  0.27924886  0.52137073  0.34603927  1
  S2-  S173  1  0.46331370  0.48433497  0.86286754  1
  S2-  S174  1  0.36084505  0.75296244  0.35136534  1
  S2-  S175  1  0.38119224  0.72128396  0.85086453  1
  S2-  S176  1  0.60521292  0.09641218  0.34671357  1
  S2-  S177  1  0.69611528  0.01155805  0.85783362  1
  S2-  S178  1  0.63081611  0.29818077  0.31052581  1
  S2-  S179  1  0.72358187  0.25249977  0.85805272  1
  S2-  S180  1  0.66791198  0.52150064  0.34871834  1
  S2-  S181  1  0.71663179  0.49282301  0.85174442  1
  S2-  S182  1  0.61937913  0.85357044  0.35585288  1
  S2-  S183  1  0.71276078  0.75266599  0.85354310  1
  S2-  S184  1  0.79423188  -0.02094320  0.35795230  1
  S2-  S185  1  0.90010704  -0.04997903  0.82534738  1
  S2-  S186  1  0.84725126  0.19647895  0.34242084  1
  S2-  S187  1  0.89410586  0.14505137  0.85212228  1
  S2-  S188  1  0.87939757  0.39370154  0.35537249  1
  S2-  S189  1  0.89184685  0.59135178  0.84446376  1
  S2-  S190  1  0.88155208  0.64221706  0.36423059  1
  S2-  S191  1  0.92566712  0.76508086  0.80196340  1
  S2-  S192  1  0.01360077  0.12609334  0.46191779  1
  S2-  S193  1  -0.00573996  0.12374946  0.95457659  1
  S2-  S194  1  0.02054398  0.37988306  0.45449964  1
  S2-  S195  1  -0.01220789  0.37408657  0.93300674  1
  S2-  S196  1  0.01987884  0.62030009  0.46462742  1
  S2-  S197  1  -0.00635853  0.62613486  0.94611986  1
  S2-  S198  1  0.01528770  0.86589852  0.45639620  1
  S2-  S199  1  -0.00876305  0.87104888  0.93587890  1
  S2-  S200  1  0.25728036  0.11897397  0.46076692  1
  S2-  S201  1  0.24009619  0.12426274  0.95698053  1
  S2-  S202  1  0.26115274  0.37456072  0.44947299  1
  S2-  S203  1  0.24626637  0.37715491  0.94673352  1
  S2-  S204  1  0.27076331  0.62170453  0.45521139  1
  S2-  S205  1  0.24498920  0.62708335  0.95763634  1
  S2-  S206  1  0.26406718  0.87508336  0.45580724  1
  S2-  S207  1  0.24035840  0.87153816  0.95381279  1
  S2-  S208  1  0.51840464  0.12207042  0.45508796  1
  S2-  S209  1  0.48929963  0.11988881  0.96615656  1
  S2-  S210  1  0.52397536  0.36815661  0.44705041  1
  S2-  S211  1  0.48594139  0.37298587  0.96279176  1
  S2-  S212  1  0.51333271  0.62104623  0.44869177  1
  S2-  S213  1  0.48866380  0.62895985  0.96203440  1
  S2-  S214  1  0.51046260  0.87202305  0.45175559  1
  S2-  S215  1  0.49156163  0.87315008  0.95557568  1
  S2-  S216  1  0.76785506  0.12237842  0.45444902  1
  S2-  S217  1  0.73827040  0.12478639  0.96413099  1
  S2-  S218  1  0.75702464  0.36999930  0.44917006  1
  S2-  S219  1  0.73544093  0.37424790  0.95589580  1
  S2-  S220  1  0.76017732  0.62398006  0.46025885  1
  S2-  S221  1  0.73957686  0.62318466  0.95427554  1
  S2-  S222  1  0.77189782  0.86188348  0.45514603  1
  S2-  S223  1  0.74172750  0.87422850  0.95808631  1
  S2-  S224  1  0.11629490  -0.00481667  0.03778729  1
  S2-  S225  1  0.13617111  -0.00589266  0.54505945  1
  S2-  S226  1  0.11725825  0.25348965  0.05108494  1
  S2-  S227  1  0.14173081  0.25044190  0.54899006  1
  S2-  S228  1  0.12110541  0.49690310  0.04424159  1
  S2-  S229  1  0.14651988  0.49650151  0.54243705  1
  S2-  S230  1  0.11198131  0.75180100  0.03418355  1
  S2-  S231  1  0.14431093  0.74464710  0.54854707  1
  S2-  S232  1  0.36493675  -0.00301396  0.05863707  1
  S2-  S233  1  0.39242305  -0.00269683  0.53925458  1
  S2-  S234  1  0.36339953  0.25024150  0.04364729  1
  S2-  S235  1  0.39379946  0.24851876  0.53980358  1
  S2-  S236  1  0.36212750  0.50066058  0.04827437  1
  S2-  S237  1  0.39667166  0.49513329  0.54151048  1
  S2-  S238  1  0.37013929  0.75176960  0.05078188  1
  S2-  S239  1  0.39379153  0.74684418  0.55196674  1
  S2-  S240  1  0.61223083  0.00181990  0.05110580  1
  S2-  S241  1  0.64602465  -0.00818084  0.53566518  1
  S2-  S242  1  0.60939531  0.24621356  0.04431324  1
  S2-  S243  1  0.64327100  0.24876200  0.53900123  1
  S2-  S244  1  0.61606331  0.49988159  0.03964132  1
  S2-  S245  1  0.64061407  0.49694655  0.54829647  1
  S2-  S246  1  0.61513722  0.75104724  0.04398649  1
  S2-  S247  1  0.63956202  0.74632847  0.54517365  1
  S2-  S248  1  0.86990513  0.00203723  0.03679915  1
  S2-  S249  1  0.89753657  -0.00952189  0.54614637  1
  S2-  S250  1  0.86889248  0.25677611  0.04115154  1
  S2-  S251  1  0.89508018  0.25181082  0.54052913  1
  S2-  S252  1  0.87744907  0.48912308  0.03306685  1
  S2-  S253  1  0.88696754  0.49805305  0.54146481  1
  S2-  S254  1  0.87047916  0.74398404  0.03066135  1
  S2-  S255  1  0.89610438  0.74572783  0.55039312  1
