# generated using pymatgen
data_La6Ce6Pr19Nd20Sm13(BiS2)64
_symmetry_space_group_name_H-M   'P 1'
_cell_length_a   16.04527831
_cell_length_b   15.99822466
_cell_length_c   27.41744788
_cell_angle_alpha   89.95101477
_cell_angle_beta   89.91556452
_cell_angle_gamma   90.07622190
_symmetry_Int_Tables_number   1
_chemical_formula_structural   La6Ce6Pr19Nd20Sm13(BiS2)64
_chemical_formula_sum   'La6 Ce6 Pr19 Nd20 Sm13 Bi64 S128'
_cell_volume   7037.93184785
_cell_formula_units_Z   1
loop_
 _symmetry_equiv_pos_site_id
 _symmetry_equiv_pos_as_xyz
  1  'x, y, z'
loop_
 _atom_type_symbol
 _atom_type_oxidation_number
  La3+  3.0
  Ce3+  3.0
  Pr3+  3.0
  Nd3+  3.0
  Sm3+  3.0
  Bi2+  2.0
  S2-  -2.0
loop_
 _atom_site_type_symbol
 _atom_site_label
 _atom_site_symmetry_multiplicity
 _atom_site_fract_x
 _atom_site_fract_y
 _atom_site_fract_z
 _atom_site_occupancy
  La3+  La0  1  0.62886780  0.50139187  0.88546597  1
  La3+  La1  1  0.75667833  0.85498558  0.06970512  1
  La3+  La2  1  0.37567937  0.00285007  0.42443670  1
  La3+  La3  1  -0.01129079  0.13364950  0.60300427  1
  La3+  La4  1  0.74755436  0.35615229  0.07110929  1
  La3+  La5  1  0.00908863  0.11544281  0.08298443  1
  Ce3+  Ce6  1  0.75739482  0.13294530  0.54704543  1
  Ce3+  Ce7  1  0.63002387  0.23722459  0.94495991  1
  Ce3+  Ce8  1  0.12485606  0.23473489  0.94062269  1
  Ce3+  Ce9  1  0.12728187  0.01202827  0.44988931  1
  Ce3+  Ce10  1  0.25410396  0.14110823  0.57480493  1
  Ce3+  Ce11  1  0.76055032  0.38046884  0.55105201  1
  Pr3+  Pr12  1  0.24471224  0.85066697  0.07131808  1
  Pr3+  Pr13  1  0.76084529  0.63450019  0.56639268  1
  Pr3+  Pr14  1  0.62528879  -0.01348092  0.94715644  1
  Pr3+  Pr15  1  0.87622821  0.23305091  0.94960781  1
  Pr3+  Pr16  1  0.88460903  0.25809000  0.41035463  1
  Pr3+  Pr17  1  0.62540582  0.26111524  0.43172898  1
  Pr3+  Pr18  1  0.50671456  0.88787438  0.56952758  1
  Pr3+  Pr19  1  0.87524395  0.74086802  0.92234226  1
  Pr3+  Pr20  1  0.87633399  -0.00793909  0.94189564  1
  Pr3+  Pr21  1  0.25675109  0.39102679  0.56425656  1
  Pr3+  Pr22  1  -0.00246844  0.37199616  0.07543946  1
  Pr3+  Pr23  1  0.50779619  0.39040847  0.56959968  1
  Pr3+  Pr24  1  0.62356444  0.74393806  0.92967284  1
  Pr3+  Pr25  1  0.24679244  0.60176912  0.06321190  1
  Pr3+  Pr26  1  0.01236483  0.88297991  0.57252574  1
  Pr3+  Pr27  1  0.74503751  0.10226473  0.08840129  1
  Pr3+  Pr28  1  0.12879044  0.73196149  0.92447764  1
  Pr3+  Pr29  1  0.75210437  0.61011681  0.04696395  1
  Pr3+  Pr30  1  -0.00602129  0.61306213  0.05748993  1
  Nd3+  Nd31  1  0.88652522  0.51054566  0.41992560  1
  Nd3+  Nd32  1  0.38404027  0.50590686  0.43374261  1
  Nd3+  Nd33  1  0.25631680  0.88727831  0.56779330  1
  Nd3+  Nd34  1  0.88276313  0.00845116  0.42746363  1
  Nd3+  Nd35  1  0.00177766  0.38280761  0.56355648  1
  Nd3+  Nd36  1  0.12498161  0.48151397  0.93059904  1
  Nd3+  Nd37  1  0.37997426  0.22939446  0.93488430  1
  Nd3+  Nd38  1  0.12935417  0.76041110  0.44454258  1
  Nd3+  Nd39  1  0.62823658  0.00489796  0.42319717  1
  Nd3+  Nd40  1  0.12847506  -0.01228156  0.93438686  1
  Nd3+  Nd41  1  0.00552817  0.86145072  0.05207458  1
  Nd3+  Nd42  1  0.38231088  0.75928232  0.43990067  1
  Nd3+  Nd43  1  0.50381439  0.35948433  0.06401938  1
  Nd3+  Nd44  1  0.00397352  0.62982340  0.56473907  1
  Nd3+  Nd45  1  0.50399171  0.61000176  0.05693247  1
  Nd3+  Nd46  1  0.49782046  0.85210830  0.07469564  1
  Nd3+  Nd47  1  0.12859855  0.25645383  0.44331219  1
  Nd3+  Nd48  1  0.12868790  0.50777035  0.43728163  1
  Nd3+  Nd49  1  0.49819343  0.10557445  0.07215291  1
  Nd3+  Nd50  1  0.25302923  0.36027816  0.06341372  1
  Sm3+  Sm51  1  0.38000354  0.47965118  0.93690340  1
  Sm3+  Sm52  1  0.25187123  0.10857687  0.06281134  1
  Sm3+  Sm53  1  0.63528069  0.51078190  0.44286889  1
  Sm3+  Sm54  1  0.75998628  0.88809191  0.55406895  1
  Sm3+  Sm55  1  0.37670571  0.73072274  0.94339697  1
  Sm3+  Sm56  1  0.25835900  0.63136843  0.55373267  1
  Sm3+  Sm57  1  0.38181896  0.25832110  0.44193772  1
  Sm3+  Sm58  1  0.62987305  0.76107539  0.44803221  1
  Sm3+  Sm59  1  0.50587594  0.13380147  0.55521424  1
  Sm3+  Sm60  1  0.88129711  0.75868745  0.43520842  1
  Sm3+  Sm61  1  0.87303717  0.47467602  0.92946171  1
  Sm3+  Sm62  1  0.37613091  -0.01828194  0.95001929  1
  Sm3+  Sm63  1  0.50758120  0.63691562  0.56028399  1
  Bi2+  Bi64  1  0.02501388  0.12891989  0.29288943  1
  Bi2+  Bi65  1  -0.00508672  0.20508026  0.81961995  1
  Bi2+  Bi66  1  0.01123287  0.39050286  0.28610137  1
  Bi2+  Bi67  1  0.05070331  0.45933628  0.79603914  1
  Bi2+  Bi68  1  -0.02060639  0.64898687  0.29158478  1
  Bi2+  Bi69  1  -0.01624390  0.71519905  0.80048842  1
  Bi2+  Bi70  1  0.01770921  0.88331583  0.29726307  1
  Bi2+  Bi71  1  0.00533944  0.91523798  0.79868314  1
  Bi2+  Bi72  1  0.26441155  0.08499505  0.30860852  1
  Bi2+  Bi73  1  0.22712007  0.14782900  0.74103787  1
  Bi2+  Bi74  1  0.27594182  0.28661833  0.31114784  1
  Bi2+  Bi75  1  0.27344501  0.42332923  0.79212099  1
  Bi2+  Bi76  1  0.23728754  0.58367240  0.28524446  1
  Bi2+  Bi77  1  0.18271146  0.69585791  0.76522796  1
  Bi2+  Bi78  1  0.24005129  0.78365710  0.27695796  1
  Bi2+  Bi79  1  0.26542280  0.88564650  0.78266493  1
  Bi2+  Bi80  1  0.45347985  0.14306795  0.29403798  1
  Bi2+  Bi81  1  0.50248635  0.12066464  0.79903743  1
  Bi2+  Bi82  1  0.44321833  0.39032237  0.29058127  1
  Bi2+  Bi83  1  0.50183010  0.32667202  0.79513539  1
  Bi2+  Bi84  1  0.51431422  0.63346987  0.27924662  1
  Bi2+  Bi85  1  0.38161894  0.66027626  0.76996936  1
  Bi2+  Bi86  1  0.48158930  0.86511423  0.29432431  1
  Bi2+  Bi87  1  0.46152305  0.91503095  0.80679505  1
  Bi2+  Bi88  1  0.75346666  0.13443118  0.27601606  1
  Bi2+  Bi89  1  0.69173207  0.09861807  0.83947714  1
  Bi2+  Bi90  1  0.72432125  0.38787434  0.28385206  1
  Bi2+  Bi91  1  0.77837983  0.37202825  0.79240800  1
  Bi2+  Bi92  1  0.71738625  0.58202145  0.26499365  1
  Bi2+  Bi93  1  0.78885866  0.75801089  0.79604275  1
  Bi2+  Bi94  1  0.73670092  0.81571033  0.28676226  1
  Bi2+  Bi95  1  0.68813664  0.92929632  0.77624353  1
  Bi2+  Bi96  1  0.11271376  -0.04176411  0.20013029  1
  Bi2+  Bi97  1  0.11709319  -0.02587521  0.71679149  1
  Bi2+  Bi98  1  0.16946291  0.21715792  0.21781590  1
  Bi2+  Bi99  1  0.14338686  0.32877197  0.72277446  1
  Bi2+  Bi100  1  0.18703077  0.41546955  0.23302576  1
  Bi2+  Bi101  1  0.12767183  0.53756473  0.70190469  1
  Bi2+  Bi102  1  0.11098440  0.68245849  0.20784402  1
  Bi2+  Bi103  1  0.00364971  0.73444772  0.68327165  1
  Bi2+  Bi104  1  0.36445511  0.03505398  0.21220790  1
  Bi2+  Bi105  1  0.34258810  0.00131545  0.68003510  1
  Bi2+  Bi106  1  0.35947906  0.22302376  0.15885721  1
  Bi2+  Bi107  1  0.40493293  0.18751383  0.69557411  1
  Bi2+  Bi108  1  0.40254128  0.42488975  0.18190282  1
  Bi2+  Bi109  1  0.37501762  0.44119361  0.69130342  1
  Bi2+  Bi110  1  0.36267980  0.67734928  0.21174315  1
  Bi2+  Bi111  1  0.33436554  0.79666926  0.68678064  1
  Bi2+  Bi112  1  0.61383937  -0.01312531  0.21795337  1
  Bi2+  Bi113  1  0.54136469  -0.03959401  0.69598573  1
  Bi2+  Bi114  1  0.53635997  0.25258297  0.20986068  1
  Bi2+  Bi115  1  0.66533693  0.21890669  0.75419394  1
  Bi2+  Bi116  1  0.57979917  0.52462184  0.18728232  1
  Bi2+  Bi117  1  0.62386577  0.47401110  0.69542640  1
  Bi2+  Bi118  1  0.63289078  0.73557292  0.20470809  1
  Bi2+  Bi119  1  0.56263351  0.73838851  0.75627388  1
  Bi2+  Bi120  1  0.86001021  -0.04330267  0.23239498  1
  Bi2+  Bi121  1  0.83471420  0.01447632  0.71049135  1
  Bi2+  Bi122  1  0.90691770  0.27179617  0.21513316  1
  Bi2+  Bi123  1  0.86350560  0.28024689  0.70056857  1
  Bi2+  Bi124  1  0.89702973  0.53297441  0.19798378  1
  Bi2+  Bi125  1  0.89714946  0.57983819  0.71593374  1
  Bi2+  Bi126  1  0.89349899  0.76550652  0.20669229  1
  Bi2+  Bi127  1  0.80839042  0.76976037  0.68276460  1
  S2-  S128  1  -0.03807644  0.04610362  0.17852415  1
  S2-  S129  1  -0.04904312  0.13624837  0.73967992  1
  S2-  S130  1  0.03608782  0.26629908  0.15336211  1
  S2-  S131  1  0.00873963  0.29287385  0.65133667  1
  S2-  S132  1  0.02851925  0.51999921  0.14159495  1
  S2-  S133  1  -0.01741956  0.51087337  0.63860473  1
  S2-  S134  1  0.03174509  0.82170570  0.14893610  1
  S2-  S135  1  -0.03945605  0.97759226  0.65292222  1
  S2-  S136  1  0.15699363  0.09411999  0.14561111  1
  S2-  S137  1  0.14633643  0.11947778  0.65324806  1
  S2-  S138  1  0.25135008  0.47557427  0.14005166  1
  S2-  S139  1  0.27740372  0.30135893  0.65044874  1
  S2-  S140  1  0.23479338  0.71245878  0.14127782  1
  S2-  S141  1  0.26413210  0.53772705  0.63641428  1
  S2-  S142  1  0.26082710  0.92061281  0.16610256  1
  S2-  S143  1  0.14727606  0.86042001  0.64527317  1
  S2-  S144  1  0.59842793  0.11389249  0.15436195  1
  S2-  S145  1  0.54755710  0.11354574  0.65045354  1
  S2-  S146  1  0.61418162  0.36425360  0.14616437  1
  S2-  S147  1  0.51266807  0.34449633  0.66771415  1
  S2-  S148  1  0.49297397  0.71083049  0.14063194  1
  S2-  S149  1  0.49375824  0.54593379  0.64279061  1
  S2-  S150  1  0.48877858  0.93344450  0.16584672  1
  S2-  S151  1  0.50729613  0.78876450  0.65643611  1
  S2-  S152  1  0.78271984  0.19483791  0.17552324  1
  S2-  S153  1  0.81352021  0.14196637  0.64049449  1
  S2-  S154  1  0.85138857  0.39809976  0.14977091  1
  S2-  S155  1  0.75735031  0.38131400  0.64954171  1
  S2-  S156  1  0.83897904  0.65869090  0.13130296  1
  S2-  S157  1  0.73467274  0.60929508  0.66553356  1
  S2-  S158  1  0.74598755  0.95272079  0.15351860  1
  S2-  S159  1  0.72316752  0.91711085  0.64845508  1
  S2-  S160  1  0.11978533  0.00448985  0.35044775  1
  S2-  S161  1  0.11559511  0.11885492  0.86406754  1
  S2-  S162  1  0.04575782  0.25982623  0.35327751  1
  S2-  S163  1  0.12199078  0.35058066  0.86076869  1
  S2-  S164  1  0.03855073  0.51548113  0.35356414  1
  S2-  S165  1  0.13568100  0.60104479  0.85144433  1
  S2-  S166  1  0.10988728  0.75439381  0.34666695  1
  S2-  S167  1  0.14397394  0.87059437  0.85670451  1
  S2-  S168  1  0.50093277  -0.00110461  0.35226354  1
  S2-  S169  1  0.38068189  0.05019859  0.85938529  1
  S2-  S170  1  0.48642119  0.27679561  0.36332450  1
  S2-  S171  1  0.35661329  0.29609553  0.84352128  1
  S2-  S172  1  0.38884589  0.54809495  0.33793174  1
  S2-  S173  1  0.37473621  0.52801130  0.84240013  1
  S2-  S174  1  0.35395159  0.84582718  0.35460458  1
  S2-  S175  1  0.37448695  0.77229093  0.84793381  1
  S2-  S176  1  0.70270271  0.00789729  0.32678107  1
  S2-  S177  1  0.60527094  -0.11511332  0.86425823  1
  S2-  S178  1  0.70074159  0.25366672  0.33900052  1
  S2-  S179  1  0.63939424  0.32649335  0.85905114  1
  S2-  S180  1  0.63276271  0.49217303  0.34603643  1
  S2-  S181  1  0.57152550  0.48296819  0.78387062  1
  S2-  S182  1  0.61015913  0.78736933  0.35135570  1
  S2-  S183  1  0.60861837  0.66548786  0.83727820  1
  S2-  S184  1  0.89200660  -0.12409727  0.35901489  1
  S2-  S185  1  0.86738832  0.11803232  0.86796800  1
  S2-  S186  1  0.88762660  0.11797246  0.34351031  1
  S2-  S187  1  0.89285028  0.33507469  0.86201597  1
  S2-  S188  1  0.86390190  0.39394012  0.34203239  1
  S2-  S189  1  0.78996376  0.51245241  0.84249497  1
  S2-  S190  1  0.85770360  0.64877032  0.35801844  1
  S2-  S191  1  0.86781852  0.88468167  0.85688222  1
  S2-  S192  1  0.00387395  0.13343602  0.45140544  1
  S2-  S193  1  0.00530274  0.10889228  0.96999788  1
  S2-  S194  1  0.00535241  0.38352495  0.45567870  1
  S2-  S195  1  0.00132689  0.36022344  0.96498682  1
  S2-  S196  1  0.00582075  0.63598564  0.45826911  1
  S2-  S197  1  -0.00636023  0.60827998  0.94592638  1
  S2-  S198  1  0.00730458  0.88209784  0.46250415  1
  S2-  S199  1  0.00425410  0.86150342  0.94949484  1
  S2-  S200  1  0.25851187  0.13519429  0.45619165  1
  S2-  S201  1  0.25573716  0.10961839  0.96028046  1
  S2-  S202  1  0.25702809  0.38432911  0.45139153  1
  S2-  S203  1  0.25812485  0.35895828  0.95791077  1
  S2-  S204  1  0.25681868  0.63259405  0.44902508  1
  S2-  S205  1  0.25693303  0.60610194  0.95351137  1
  S2-  S206  1  0.25343756  0.88328312  0.46187565  1
  S2-  S207  1  0.25554316  0.85718327  0.95930733  1
  S2-  S208  1  0.50237050  0.12958853  0.45275217  1
  S2-  S209  1  0.50030545  0.10881606  0.96327508  1
  S2-  S210  1  0.50739049  0.39027215  0.46067550  1
  S2-  S211  1  0.50097604  0.35908024  0.95555048  1
  S2-  S212  1  0.50718161  0.63382924  0.45315197  1
  S2-  S213  1  0.50389533  0.60732851  0.94893163  1
  S2-  S214  1  0.50421221  0.88239687  0.46125400  1
  S2-  S215  1  0.49451537  0.85818526  0.96589379  1
  S2-  S216  1  0.75180115  0.13137224  0.44438312  1
  S2-  S217  1  0.74731703  0.10894506  0.97423990  1
  S2-  S218  1  0.75531635  0.38436498  0.44775405  1
  S2-  S219  1  0.75081791  0.36103419  0.96200947  1
  S2-  S220  1  0.75136850  0.63867041  0.45867834  1
  S2-  S221  1  0.74800513  0.61367623  0.94363909  1
  S2-  S222  1  0.75250687  0.88300640  0.45100877  1
  S2-  S223  1  0.75198499  0.86204024  0.96037037  1
  S2-  S224  1  0.13156257  -0.01769073  0.04282765  1
  S2-  S225  1  0.13211158  0.01299051  0.55177184  1
  S2-  S226  1  0.13400943  0.23700482  0.04652091  1
  S2-  S227  1  0.13278891  0.26286867  0.54657575  1
  S2-  S228  1  0.12444385  0.48299766  0.03549415  1
  S2-  S229  1  0.12980659  0.51061412  0.54071349  1
  S2-  S230  1  0.12313265  0.73027475  0.03338445  1
  S2-  S231  1  0.13441886  0.74989054  0.54791588  1
  S2-  S232  1  0.37249258  -0.01854375  0.05382993  1
  S2-  S233  1  0.37982737  0.01125938  0.54530136  1
  S2-  S234  1  0.37810950  0.23442465  0.04310801  1
  S2-  S235  1  0.38515503  0.26066259  0.54468831  1
  S2-  S236  1  0.38219951  0.48514272  0.04180904  1
  S2-  S237  1  0.38476467  0.51235392  0.53755444  1
  S2-  S238  1  0.37257291  0.73060409  0.04443265  1
  S2-  S239  1  0.38048689  0.75714879  0.54554741  1
  S2-  S240  1  0.62035510  -0.02193389  0.05204789  1
  S2-  S241  1  0.63017638  0.00784323  0.53734605  1
  S2-  S242  1  0.62175548  0.22894820  0.04928299  1
  S2-  S243  1  0.62822950  0.25872671  0.54281858  1
  S2-  S244  1  0.62601804  0.48855896  0.04778287  1
  S2-  S245  1  0.63398860  0.51266593  0.54659724  1
  S2-  S246  1  0.62791893  0.73746873  0.04201411  1
  S2-  S247  1  0.63335835  0.76046904  0.55132087  1
  S2-  S248  1  0.88026743  -0.01553475  0.05247831  1
  S2-  S249  1  0.88135574  0.00811339  0.53842865  1
  S2-  S250  1  0.87542663  0.23052591  0.05641589  1
  S2-  S251  1  0.88286998  0.25619724  0.54071902  1
  S2-  S252  1  0.87340845  0.48614301  0.03565455  1
  S2-  S253  1  0.87803263  0.50970242  0.53456345  1
  S2-  S254  1  0.87941212  0.74133808  0.02883219  1
  S2-  S255  1  0.88265529  0.76157836  0.54488466  1
