# generated using pymatgen
data_La6Ce6Pr19Nd20Sm13(BiS2)64
_symmetry_space_group_name_H-M   'P 1'
_cell_length_a   16.00624759
_cell_length_b   16.07381075
_cell_length_c   27.40315707
_cell_angle_alpha   90.14233825
_cell_angle_beta   90.07885618
_cell_angle_gamma   90.06588926
_symmetry_Int_Tables_number   1
_chemical_formula_structural   La6Ce6Pr19Nd20Sm13(BiS2)64
_chemical_formula_sum   'La6 Ce6 Pr19 Nd20 Sm13 Bi64 S128'
_cell_volume   7050.28934137
_cell_formula_units_Z   1
loop_
 _symmetry_equiv_pos_site_id
 _symmetry_equiv_pos_as_xyz
  1  'x, y, z'
loop_
 _atom_type_symbol
 _atom_type_oxidation_number
  La3+  3.0
  Ce3+  3.0
  Pr3+  3.0
  Nd3+  3.0
  Sm3+  3.0
  Bi2+  2.0
  S2-  -2.0
loop_
 _atom_site_type_symbol
 _atom_site_label
 _atom_site_symmetry_multiplicity
 _atom_site_fract_x
 _atom_site_fract_y
 _atom_site_fract_z
 _atom_site_occupancy
  La3+  La0  1  0.62957107  0.27960276  0.41195663  1
  La3+  La1  1  0.21956461  0.87870723  0.06721640  1
  La3+  La2  1  0.12697174  0.27784851  0.42989076  1
  La3+  La3  1  0.88378594  0.02091847  0.42715350  1
  La3+  La4  1  0.11266997  0.74449294  0.89793698  1
  La3+  La5  1  0.71897866  0.37801996  0.08957726  1
  Ce3+  Ce6  1  0.24884294  0.65491344  0.57072355  1
  Ce3+  Ce7  1  0.34878785  -0.00062830  0.94727318  1
  Ce3+  Ce8  1  0.62586784  0.52409841  0.43434333  1
  Ce3+  Ce9  1  0.34732748  0.75218478  0.95146396  1
  Ce3+  Ce10  1  0.47838481  0.62618007  0.06544968  1
  Ce3+  Ce11  1  0.22256051  0.62436741  0.07191041  1
  Pr3+  Pr12  1  -0.00161540  0.65679677  0.56369749  1
  Pr3+  Pr13  1  -0.02199782  0.62789283  0.06824067  1
  Pr3+  Pr14  1  0.08775070  0.24644046  0.92485338  1
  Pr3+  Pr15  1  0.60073083  0.50342417  0.94570350  1
  Pr3+  Pr16  1  0.62958346  0.77618563  0.43212675  1
  Pr3+  Pr17  1  0.72935099  0.62755440  0.08186627  1
  Pr3+  Pr18  1  0.87882129  0.27589209  0.43071101  1
  Pr3+  Pr19  1  0.50583470  0.65241879  0.55844787  1
  Pr3+  Pr20  1  0.25172864  0.90251167  0.56891701  1
  Pr3+  Pr21  1  0.00052651  0.15358871  0.56642841  1
  Pr3+  Pr22  1  -0.01042389  0.36954452  0.09122986  1
  Pr3+  Pr23  1  0.87288435  0.77661838  0.43594240  1
  Pr3+  Pr24  1  0.71971693  0.12967850  0.07396999  1
  Pr3+  Pr25  1  0.34527170  0.50755134  0.93685580  1
  Pr3+  Pr26  1  0.85008351  0.75079586  0.93726606  1
  Pr3+  Pr27  1  0.09525953  -0.00062032  0.91761135  1
  Pr3+  Pr28  1  0.85112160  0.50261726  0.95007799  1
  Pr3+  Pr29  1  0.71898906  0.87671958  0.06792712  1
  Pr3+  Pr30  1  0.34783797  0.24541807  0.93464338  1
  Nd3+  Nd31  1  0.84731130  0.00027340  0.93437914  1
  Nd3+  Nd32  1  0.37316767  0.02689758  0.43732300  1
  Nd3+  Nd33  1  0.25228013  0.15292648  0.57063096  1
  Nd3+  Nd34  1  0.62726542  0.02910933  0.43129619  1
  Nd3+  Nd35  1  0.59473952  0.25499975  0.93558208  1
  Nd3+  Nd36  1  0.74823466  0.15338437  0.55912323  1
  Nd3+  Nd37  1  0.74602042  0.65305983  0.57450907  1
  Nd3+  Nd38  1  0.50411435  0.90390649  0.55567817  1
  Nd3+  Nd39  1  0.50406748  0.39739323  0.55476551  1
  Nd3+  Nd40  1  0.60051820  0.00291312  0.93480934  1
  Nd3+  Nd41  1  0.75188883  0.90504447  0.56577646  1
  Nd3+  Nd42  1  0.12941834  0.52766956  0.44204188  1
  Nd3+  Nd43  1  0.87543115  0.52404812  0.43974827  1
  Nd3+  Nd44  1  -0.02988071  0.87562134  0.05858804  1
  Nd3+  Nd45  1  0.25388178  0.40617266  0.57728739  1
  Nd3+  Nd46  1  -0.03399107  0.12446467  0.06624583  1
  Nd3+  Nd47  1  0.37408447  0.77586097  0.44294882  1
  Nd3+  Nd48  1  0.84849885  0.25081016  0.95110069  1
  Nd3+  Nd49  1  0.09738702  0.50167077  0.94648629  1
  Nd3+  Nd50  1  0.21926718  0.13022753  0.06066496  1
  Sm3+  Sm51  1  -0.00006477  0.90627974  0.56666024  1
  Sm3+  Sm52  1  0.47879573  0.13038921  0.06352199  1
  Sm3+  Sm53  1  0.47777423  0.87800330  0.06037744  1
  Sm3+  Sm54  1  0.75259017  0.40619301  0.56313464  1
  Sm3+  Sm55  1  0.12854620  0.02749901  0.44686184  1
  Sm3+  Sm56  1  0.00286139  0.39878437  0.56262589  1
  Sm3+  Sm57  1  0.50135270  0.15550207  0.54618659  1
  Sm3+  Sm58  1  0.47223761  0.37851894  0.06139187  1
  Sm3+  Sm59  1  0.36977597  0.27811029  0.43736263  1
  Sm3+  Sm60  1  0.60382247  0.75122890  0.93791257  1
  Sm3+  Sm61  1  0.22419457  0.37303632  0.04882605  1
  Sm3+  Sm62  1  0.12529289  0.77811219  0.44392443  1
  Sm3+  Sm63  1  0.37381137  0.52700199  0.44695927  1
  Bi2+  Bi64  1  0.03415428  0.12966205  0.27516673  1
  Bi2+  Bi65  1  0.01451525  0.14600102  0.78739524  1
  Bi2+  Bi66  1  -0.00372799  0.38752169  0.29199855  1
  Bi2+  Bi67  1  0.10023094  0.33672847  0.79670821  1
  Bi2+  Bi68  1  0.08161940  0.61823533  0.28358946  1
  Bi2+  Bi69  1  -0.03339423  0.58815492  0.79807120  1
  Bi2+  Bi70  1  0.07652147  0.88038367  0.29024232  1
  Bi2+  Bi71  1  0.00861427  0.85274457  0.78528988  1
  Bi2+  Bi72  1  0.24912823  0.10418054  0.30723512  1
  Bi2+  Bi73  1  0.26350788  0.09512998  0.74208163  1
  Bi2+  Bi74  1  0.25092254  0.36714914  0.28006513  1
  Bi2+  Bi75  1  0.29191602  0.27472087  0.79298649  1
  Bi2+  Bi76  1  0.27889081  0.64797777  0.30118151  1
  Bi2+  Bi77  1  0.24199902  0.57823721  0.79675704  1
  Bi2+  Bi78  1  0.29736350  0.91348083  0.29539732  1
  Bi2+  Bi79  1  0.30847388  0.92581377  0.79724494  1
  Bi2+  Bi80  1  0.42251329  0.15534722  0.25465069  1
  Bi2+  Bi81  1  0.54553097  0.11926876  0.79104942  1
  Bi2+  Bi82  1  0.43485433  0.44365120  0.27897140  1
  Bi2+  Bi83  1  0.55207375  0.36070215  0.78545570  1
  Bi2+  Bi84  1  0.54176372  0.61114159  0.30831764  1
  Bi2+  Bi85  1  0.56701981  0.64836314  0.82111922  1
  Bi2+  Bi86  1  0.52591936  0.80825862  0.27874473  1
  Bi2+  Bi87  1  0.54350798  0.84981546  0.81925536  1
  Bi2+  Bi88  1  0.69576246  0.12796488  0.29574655  1
  Bi2+  Bi89  1  0.79253621  0.14457671  0.82157636  1
  Bi2+  Bi90  1  0.74479447  0.39124965  0.28748599  1
  Bi2+  Bi91  1  0.82113637  0.37041050  0.74017854  1
  Bi2+  Bi92  1  0.73196877  0.64239194  0.28662937  1
  Bi2+  Bi93  1  0.75757213  0.54814894  0.75468940  1
  Bi2+  Bi94  1  0.79462420  0.90444010  0.30402542  1
  Bi2+  Bi95  1  0.74039276  0.84132042  0.78636433  1
  Bi2+  Bi96  1  0.16278086  0.00790715  0.21143809  1
  Bi2+  Bi97  1  0.12282675  -0.06989796  0.68567519  1
  Bi2+  Bi98  1  0.14977171  0.24690272  0.20924428  1
  Bi2+  Bi99  1  0.11233371  0.17989962  0.68831650  1
  Bi2+  Bi100  1  0.18005744  0.51024901  0.20723765  1
  Bi2+  Bi101  1  0.20938352  0.41267578  0.71390338  1
  Bi2+  Bi102  1  0.20570199  0.73727188  0.20430359  1
  Bi2+  Bi103  1  0.12852383  0.68241427  0.68834508  1
  Bi2+  Bi104  1  0.41746000  -0.03174399  0.21038532  1
  Bi2+  Bi105  1  0.46259201  -0.02253727  0.72867449  1
  Bi2+  Bi106  1  0.38275780  0.32183058  0.19119700  1
  Bi2+  Bi107  1  0.43185628  0.25397994  0.71080298  1
  Bi2+  Bi108  1  0.36574798  0.52159824  0.16444834  1
  Bi2+  Bi109  1  0.44598698  0.54435047  0.75323793  1
  Bi2+  Bi110  1  0.40146671  0.69493782  0.21271763  1
  Bi2+  Bi111  1  0.39791309  0.73571103  0.77711161  1
  Bi2+  Bi112  1  0.60755652  -0.02285145  0.22223528  1
  Bi2+  Bi113  1  0.66423422  -0.00678976  0.72042201  1
  Bi2+  Bi114  1  0.59112543  0.24305735  0.21608603  1
  Bi2+  Bi115  1  0.64137905  0.19240153  0.69821882  1
  Bi2+  Bi116  1  0.59200582  0.51360511  0.21013119  1
  Bi2+  Bi117  1  0.57810378  0.45624798  0.68424699  1
  Bi2+  Bi118  1  0.67324062  0.76690282  0.20375331  1
  Bi2+  Bi119  1  0.62495445  0.75890352  0.70294515  1
  Bi2+  Bi120  1  0.92126432  -0.01402747  0.20481402  1
  Bi2+  Bi121  1  0.87510965  -0.02026389  0.75421544  1
  Bi2+  Bi122  1  0.88809441  0.22707736  0.21341750  1
  Bi2+  Bi123  1  0.84669270  0.18271374  0.71538102  1
  Bi2+  Bi124  1  0.86982873  0.54978936  0.22372241  1
  Bi2+  Bi125  1  1.00017836  0.42049077  0.70858218  1
  Bi2+  Bi126  1  0.92604382  0.78980278  0.21729664  1
  Bi2+  Bi127  1  0.86446635  0.66951203  0.69829221  1
  S2-  S128  1  0.01503288  0.21847894  0.14576153  1
  S2-  S129  1  0.00795518  0.02620937  0.64372096  1
  S2-  S130  1  -0.04664819  0.42319083  0.18958097  1
  S2-  S131  1  -0.00195401  0.28564746  0.63869305  1
  S2-  S132  1  -0.12505461  0.66384340  0.14956602  1
  S2-  S133  1  -0.00135946  0.57702423  0.65424255  1
  S2-  S134  1  0.03147606  0.86825007  0.15425703  1
  S2-  S135  1  0.01598483  0.80423456  0.64882048  1
  S2-  S136  1  0.24698650  0.12809815  0.15895745  1
  S2-  S137  1  0.25815827  0.02570103  0.64481989  1
  S2-  S138  1  0.15819496  0.37241654  0.13900901  1
  S2-  S139  1  0.23705238  0.27721640  0.64418753  1
  S2-  S140  1  0.10559732  0.63057019  0.14591797  1
  S2-  S141  1  0.23638866  0.54488613  0.64790596  1
  S2-  S142  1  0.27767790  0.88631507  0.16265725  1
  S2-  S143  1  0.24528387  0.78472020  0.64716463  1
  S2-  S144  1  0.58432491  0.12388671  0.14257443  1
  S2-  S145  1  0.49708293  0.14796494  0.64392680  1
  S2-  S146  1  0.55856490  0.37035959  0.14742756  1
  S2-  S147  1  0.43265313  0.39560082  0.64561467  1
  S2-  S148  1  0.58498832  0.64955944  0.14431882  1
  S2-  S149  1  0.58882329  0.63299316  0.64577188  1
  S2-  S150  1  0.58407933  0.88014285  0.13865792  1
  S2-  S151  1  0.51398456  0.86941147  0.65250900  1
  S2-  S152  1  0.84340885  0.10174634  0.14776574  1
  S2-  S153  1  0.74271876  0.03365447  0.63505260  1
  S2-  S154  1  0.75047728  0.28516146  0.17792793  1
  S2-  S155  1  0.69514807  0.33466867  0.64624329  1
  S2-  S156  1  0.73916051  0.50527394  0.15956714  1
  S2-  S157  1  0.78206892  0.54014635  0.64878653  1
  S2-  S158  1  0.80931574  0.87760410  0.15791806  1
  S2-  S159  1  0.76562943  0.78640064  0.64227484  1
  S2-  S160  1  0.08812350  0.02744282  0.35076471  1
  S2-  S161  1  0.14416042  -0.10830342  0.84206925  1
  S2-  S162  1  0.00353130  0.26424858  0.35451334  1
  S2-  S163  1  0.13713681  0.13094557  0.85224966  1
  S2-  S164  1  0.09471857  0.47636284  0.34839196  1
  S2-  S165  1  0.10248345  0.51728427  0.84736810  1
  S2-  S166  1  0.13561325  0.75075869  0.34701302  1
  S2-  S167  1  0.11457618  0.71004607  0.78360367  1
  S2-  S168  1  0.40438427  0.03509137  0.34063546  1
  S2-  S169  1  0.37801577  0.04269025  0.85610701  1
  S2-  S170  1  0.26018919  0.26398730  0.36011739  1
  S2-  S171  1  0.44313468  0.26796517  0.85220964  1
  S2-  S172  1  0.32613703  0.50978814  0.35387575  1
  S2-  S173  1  0.35495768  0.48364814  0.83720335  1
  S2-  S174  1  0.38317784  0.78521626  0.34460527  1
  S2-  S175  1  0.28802869  0.71070430  0.86268268  1
  S2-  S176  1  0.63892437  -0.02603100  0.33730879  1
  S2-  S177  1  0.72033103  0.00675765  0.86234268  1
  S2-  S178  1  0.55460803  0.21877251  0.32226288  1
  S2-  S179  1  0.65474642  0.23468333  0.84197794  1
  S2-  S180  1  0.63131716  0.42993182  0.35199321  1
  S2-  S181  1  0.60847721  0.47904638  0.84577522  1
  S2-  S182  1  0.74975809  0.76126365  0.35872546  1
  S2-  S183  1  0.72181293  0.73315079  0.86307930  1
  S2-  S184  1  0.84210627  0.05917230  0.32971270  1
  S2-  S185  1  0.94891152  -0.00862183  0.85028989  1
  S2-  S186  1  0.77155287  0.26486395  0.34637261  1
  S2-  S187  1  0.93125520  0.24390633  0.86186700  1
  S2-  S188  1  0.86732842  0.47570058  0.34271881  1
  S2-  S189  1  0.85195744  0.50911052  0.84715364  1
  S2-  S190  1  0.92981277  0.87354829  0.35626373  1
  S2-  S191  1  0.95186929  0.73993943  0.85187447  1
  S2-  S192  1  0.00232458  0.14816426  0.45765176  1
  S2-  S193  1  -0.02684474  0.11985922  0.96046563  1
  S2-  S194  1  0.00119146  0.40324044  0.45942046  1
  S2-  S195  1  -0.02559594  0.37787057  0.95604575  1
  S2-  S196  1  0.00207717  0.65102207  0.45033589  1
  S2-  S197  1  -0.02091625  0.62794911  0.95892513  1
  S2-  S198  1  0.00815899  0.90110598  0.46315850  1
  S2-  S199  1  -0.01975734  0.87416681  0.95422353  1
  S2-  S200  1  0.25215135  0.14850601  0.46117104  1
  S2-  S201  1  0.22398735  0.12167079  0.95687813  1
  S2-  S202  1  0.25235043  0.40419027  0.46268863  1
  S2-  S203  1  0.22317116  0.37279121  0.94438906  1
  S2-  S204  1  0.25001732  0.65332968  0.46004618  1
  S2-  S205  1  0.21957621  0.62780593  0.96355890  1
  S2-  S206  1  0.24970108  0.90095457  0.45426935  1
  S2-  S207  1  0.22318842  0.87724670  0.95812190  1
  S2-  S208  1  0.49738949  0.15515853  0.44292320  1
  S2-  S209  1  0.47637039  0.12631927  0.95972039  1
  S2-  S210  1  0.49395557  0.40014978  0.44796660  1
  S2-  S211  1  0.46963213  0.37977916  0.95746567  1
  S2-  S212  1  0.49979041  0.65152450  0.45118552  1
  S2-  S213  1  0.47359826  0.62878870  0.95604201  1
  S2-  S214  1  0.50163577  0.90122699  0.44834905  1
  S2-  S215  1  0.47750280  0.87550711  0.95625251  1
  S2-  S216  1  0.75208300  0.14854579  0.45140849  1
  S2-  S217  1  0.72036381  0.13137178  0.96359816  1
  S2-  S218  1  0.75281291  0.40103454  0.45715281  1
  S2-  S219  1  0.72439211  0.37539308  0.95454339  1
  S2-  S220  1  0.75025136  0.64607218  0.45993659  1
  S2-  S221  1  0.72441616  0.62529613  0.96724702  1
  S2-  S222  1  0.74933576  0.90465534  0.45624169  1
  S2-  S223  1  0.72048457  0.87573360  0.95948299  1
  S2-  S224  1  0.09664935  0.00586517  0.05485795  1
  S2-  S225  1  0.12828489  0.02906694  0.54638665  1
  S2-  S226  1  0.09927027  0.25154928  0.03554246  1
  S2-  S227  1  0.12782584  0.27854522  0.53936840  1
  S2-  S228  1  0.10017128  0.49640485  0.04900261  1
  S2-  S229  1  0.12226699  0.52446117  0.54682367  1
  S2-  S230  1  0.10052830  0.75442390  0.05022647  1
  S2-  S231  1  0.12480358  0.77966238  0.54476627  1
  S2-  S232  1  0.35456098  0.00530650  0.05372378  1
  S2-  S233  1  0.37940277  0.02909948  0.54217390  1
  S2-  S234  1  0.35121610  0.25103923  0.04467142  1
  S2-  S235  1  0.37624052  0.27609385  0.54012296  1
  S2-  S236  1  0.34722945  0.50049921  0.04332220  1
  S2-  S237  1  0.37927956  0.52963326  0.54912441  1
  S2-  S238  1  0.35289077  0.75264075  0.05700703  1
  S2-  S239  1  0.37980027  0.77796277  0.54757767  1
  S2-  S240  1  0.59679548  0.00469087  0.04003462  1
  S2-  S241  1  0.62140754  0.02999630  0.53704587  1
  S2-  S242  1  0.59692115  0.25665983  0.04323283  1
  S2-  S243  1  0.62592962  0.27528839  0.53405415  1
  S2-  S244  1  0.59849859  0.50005209  0.04983743  1
  S2-  S245  1  0.62708629  0.52201990  0.54020091  1
  S2-  S246  1  0.59756091  0.75151917  0.04012682  1
  S2-  S247  1  0.62745409  0.77938292  0.53858488  1
  S2-  S248  1  0.84367889  -0.00103835  0.04157167  1
  S2-  S249  1  0.87652862  0.02760476  0.53832522  1
  S2-  S250  1  0.84800728  0.25963585  0.05522925  1
  S2-  S251  1  0.87006108  0.27925806  0.54227633  1
  S2-  S252  1  0.85770276  0.49292881  0.05621155  1
  S2-  S253  1  0.87971488  0.52384720  0.54399676  1
  S2-  S254  1  0.84730774  0.75346312  0.04441009  1
  S2-  S255  1  0.87618105  0.77941684  0.54195674  1
