# generated using pymatgen
data_La6Ce6Pr19Nd20Sm13(BiS2)64
_symmetry_space_group_name_H-M   'P 1'
_cell_length_a   16.17266641
_cell_length_b   16.18998656
_cell_length_c   27.09137887
_cell_angle_alpha   89.97316529
_cell_angle_beta   89.84149998
_cell_angle_gamma   89.97067065
_symmetry_Int_Tables_number   1
_chemical_formula_structural   La6Ce6Pr19Nd20Sm13(BiS2)64
_chemical_formula_sum   'La6 Ce6 Pr19 Nd20 Sm13 Bi64 S128'
_cell_volume   7093.44916004
_cell_formula_units_Z   1
loop_
 _symmetry_equiv_pos_site_id
 _symmetry_equiv_pos_as_xyz
  1  'x, y, z'
loop_
 _atom_type_symbol
 _atom_type_oxidation_number
  La3+  3.0
  Ce3+  3.0
  Pr3+  3.0
  Nd3+  3.0
  Sm3+  3.0
  Bi2+  2.0
  S2-  -2.0
loop_
 _atom_site_type_symbol
 _atom_site_label
 _atom_site_symmetry_multiplicity
 _atom_site_fract_x
 _atom_site_fract_y
 _atom_site_fract_z
 _atom_site_occupancy
  La3+  La0  1  0.63342463  -0.00756106  0.41300402  1
  La3+  La1  1  0.86405446  0.25868734  0.88577071  1
  La3+  La2  1  0.62658631  0.49348836  0.93920325  1
  La3+  La3  1  0.73999403  0.36798009  0.57930412  1
  La3+  La4  1  0.73838328  0.11591007  0.57294452  1
  La3+  La5  1  0.50146031  0.12029109  0.10610883  1
  Ce3+  Ce6  1  0.50069655  0.62142601  0.06012775  1
  Ce3+  Ce7  1  0.25233117  0.12550826  0.56462191  1
  Ce3+  Ce8  1  0.87066907  0.00066923  0.92686753  1
  Ce3+  Ce9  1  0.00245568  0.62492090  0.55837038  1
  Ce3+  Ce10  1  0.25236452  0.87483216  0.55435850  1
  Ce3+  Ce11  1  0.24762150  0.37058556  0.05430601  1
  Pr3+  Pr12  1  0.37843748  0.74986793  0.43981637  1
  Pr3+  Pr13  1  0.00564617  0.11817649  0.57962034  1
  Pr3+  Pr14  1  0.87741586  0.24894824  0.44889626  1
  Pr3+  Pr15  1  0.25475395  0.37323759  0.56122933  1
  Pr3+  Pr16  1  0.64053808  0.25457592  0.41660948  1
  Pr3+  Pr17  1  0.87290868  0.49740264  0.93578364  1
  Pr3+  Pr18  1  0.87860707  0.00345535  0.43777277  1
  Pr3+  Pr19  1  0.75819455  0.37058626  0.07511085  1
  Pr3+  Pr20  1  0.74933250  0.87794992  0.05867376  1
  Pr3+  Pr21  1  0.75288150  0.62215560  0.05994451  1
  Pr3+  Pr22  1  0.37692186  0.00281344  0.93613380  1
  Pr3+  Pr23  1  0.12895970  0.24936195  0.44332438  1
  Pr3+  Pr24  1  0.63150799  0.49899494  0.43189024  1
  Pr3+  Pr25  1  0.12391545  0.00095895  0.93646146  1
  Pr3+  Pr26  1  0.87818629  0.75028827  0.44014381  1
  Pr3+  Pr27  1  0.87162270  0.75244118  0.92621398  1
  Pr3+  Pr28  1  0.61871603  0.00162532  0.93332959  1
  Pr3+  Pr29  1  0.50428310  0.87991511  0.56282696  1
  Pr3+  Pr30  1  0.49899984  0.87636571  0.06358898  1
  Nd3+  Nd31  1  0.12712941  0.00287908  0.44021853  1
  Nd3+  Nd32  1  0.11930259  0.24751931  0.93305092  1
  Nd3+  Nd33  1  0.25283013  0.62504777  0.56034941  1
  Nd3+  Nd34  1  0.50429759  0.62532112  0.55941047  1
  Nd3+  Nd35  1  0.00105571  0.37452380  0.56657353  1
  Nd3+  Nd36  1  0.24811434  0.62172456  0.05698571  1
  Nd3+  Nd37  1  0.75078224  0.62249006  0.55876762  1
  Nd3+  Nd38  1  0.62414823  0.74899489  0.94473022  1
  Nd3+  Nd39  1  0.25076899  0.12427102  0.06176031  1
  Nd3+  Nd40  1  0.37585276  0.74885162  0.94347828  1
  Nd3+  Nd41  1  -0.00138185  0.87471751  0.05342924  1
  Nd3+  Nd42  1  0.12304930  0.49724017  0.94067598  1
  Nd3+  Nd43  1  0.37488124  0.49520529  0.94571032  1
  Nd3+  Nd44  1  0.75374253  0.87538926  0.56265905  1
  Nd3+  Nd45  1  0.12632293  0.74851330  0.93903479  1
  Nd3+  Nd46  1  0.12862034  0.49769333  0.44503362  1
  Nd3+  Nd47  1  0.87651276  0.49871903  0.44557611  1
  Nd3+  Nd48  1  0.25007755  0.87479651  0.05681866  1
  Nd3+  Nd49  1  -0.00235790  0.12376057  0.05595374  1
  Nd3+  Nd50  1  0.50205216  0.37088720  0.06849349  1
  Sm3+  Sm51  1  0.75119475  0.12271210  0.05795972  1
  Sm3+  Sm52  1  -0.00180401  0.62456574  0.05006410  1
  Sm3+  Sm53  1  0.50570345  0.12344425  0.54303043  1
  Sm3+  Sm54  1  0.62835419  0.24629163  0.95036625  1
  Sm3+  Sm55  1  0.00278699  0.87446101  0.55243736  1
  Sm3+  Sm56  1  0.37771624  0.24744927  0.94925216  1
  Sm3+  Sm57  1  0.38142576  0.24939402  0.44003670  1
  Sm3+  Sm58  1  0.37710474  -0.00052661  0.44054300  1
  Sm3+  Sm59  1  0.62704059  0.75102298  0.44519557  1
  Sm3+  Sm60  1  0.12915802  0.74847771  0.44144406  1
  Sm3+  Sm61  1  0.37917535  0.49956627  0.44463516  1
  Sm3+  Sm62  1  -0.00317596  0.37049448  0.05710577  1
  Sm3+  Sm63  1  0.50390220  0.37262915  0.55352219  1
  Bi2+  Bi64  1  0.01188488  0.09236962  0.32121793  1
  Bi2+  Bi65  1  0.01120426  0.12183194  0.78098135  1
  Bi2+  Bi66  1  -0.00427389  0.38786832  0.29300446  1
  Bi2+  Bi67  1  0.05447645  0.38588184  0.77329105  1
  Bi2+  Bi68  1  0.02367783  0.58439463  0.27555069  1
  Bi2+  Bi69  1  0.03822242  0.65477150  0.80052678  1
  Bi2+  Bi70  1  -0.01170958  0.90558241  0.29009808  1
  Bi2+  Bi71  1  -0.01593423  0.83645537  0.77449918  1
  Bi2+  Bi72  1  0.22542562  0.12649276  0.26826330  1
  Bi2+  Bi73  1  0.26591881  0.13259281  0.79395883  1
  Bi2+  Bi74  1  0.19484414  0.34953949  0.29470551  1
  Bi2+  Bi75  1  0.29165500  0.34552938  0.79555867  1
  Bi2+  Bi76  1  0.22115998  0.63490603  0.29100591  1
  Bi2+  Bi77  1  0.27275065  0.54627298  0.79063907  1
  Bi2+  Bi78  1  0.18509599  0.88931854  0.27675149  1
  Bi2+  Bi79  1  0.25277639  0.88709072  0.79633188  1
  Bi2+  Bi80  1  0.46553405  0.12416456  0.30405093  1
  Bi2+  Bi81  1  0.49402101  0.12658166  0.78663373  1
  Bi2+  Bi82  1  0.47750709  0.37500605  0.29071376  1
  Bi2+  Bi83  1  0.48707261  0.34437058  0.77131857  1
  Bi2+  Bi84  1  0.52672959  0.63192206  0.30301902  1
  Bi2+  Bi85  1  0.47436038  0.59925961  0.76619710  1
  Bi2+  Bi86  1  0.49058097  0.86719822  0.29725890  1
  Bi2+  Bi87  1  0.49568334  0.86322416  0.79482691  1
  Bi2+  Bi88  1  0.83308835  0.12955967  0.28452444  1
  Bi2+  Bi89  1  0.73785628  0.12401462  0.78688527  1
  Bi2+  Bi90  1  0.76067772  0.37768930  0.29430805  1
  Bi2+  Bi91  1  0.71669398  0.39057891  0.79296899  1
  Bi2+  Bi92  1  0.73770925  0.62156612  0.29591298  1
  Bi2+  Bi93  1  0.76512903  0.66756145  0.81381111  1
  Bi2+  Bi94  1  0.77245611  0.85391035  0.29695332  1
  Bi2+  Bi95  1  0.74044096  0.85703767  0.78738973  1
  Bi2+  Bi96  1  0.08655987  0.04291859  0.20209218  1
  Bi2+  Bi97  1  0.17134592  -0.00926744  0.71154113  1
  Bi2+  Bi98  1  0.12613317  0.23627727  0.18986973  1
  Bi2+  Bi99  1  0.18648828  0.25231419  0.71246294  1
  Bi2+  Bi100  1  0.12072113  0.45490590  0.20871286  1
  Bi2+  Bi101  1  0.11450751  0.53752084  0.69770357  1
  Bi2+  Bi102  1  0.13764511  0.75734918  0.19619032  1
  Bi2+  Bi103  1  0.14284421  0.76798229  0.70634999  1
  Bi2+  Bi104  1  0.34883173  -0.02574656  0.21109276  1
  Bi2+  Bi105  1  0.37013248  0.01379491  0.72146755  1
  Bi2+  Bi106  1  0.33503940  0.26210708  0.20805391  1
  Bi2+  Bi107  1  0.37626142  0.20682373  0.69193465  1
  Bi2+  Bi108  1  0.34893257  0.50251951  0.24684327  1
  Bi2+  Bi109  1  0.37919663  0.45268939  0.70301477  1
  Bi2+  Bi110  1  0.37063539  0.68960558  0.21938472  1
  Bi2+  Bi111  1  0.32459591  0.72364184  0.74271894  1
  Bi2+  Bi112  1  0.63660663  0.00066506  0.21042679  1
  Bi2+  Bi113  1  0.60195621  -0.01844362  0.70547510  1
  Bi2+  Bi114  1  0.63134134  0.25625460  0.21360749  1
  Bi2+  Bi115  1  0.58199555  0.23219517  0.69812318  1
  Bi2+  Bi116  1  0.61701318  0.53619845  0.21504554  1
  Bi2+  Bi117  1  0.65656322  0.50014936  0.70078757  1
  Bi2+  Bi118  1  0.63538249  0.74925266  0.23559779  1
  Bi2+  Bi119  1  0.59739363  0.72586135  0.71305066  1
  Bi2+  Bi120  1  0.87043561  -0.02874309  0.20665672  1
  Bi2+  Bi121  1  0.88227375  -0.03897229  0.70740708  1
  Bi2+  Bi122  1  0.93114723  0.25565234  0.21724495  1
  Bi2+  Bi123  1  0.88473016  0.28158570  0.68628641  1
  Bi2+  Bi124  1  0.86412637  0.51836750  0.19811042  1
  Bi2+  Bi125  1  0.89221273  0.54687240  0.76838313  1
  Bi2+  Bi126  1  0.94499305  0.73963426  0.22107256  1
  Bi2+  Bi127  1  0.85261120  0.73015505  0.71421896  1
  S2-  S128  1  -0.05390551  0.10588339  0.15182752  1
  S2-  S129  1  -0.06030970  0.11830287  0.67634561  1
  S2-  S130  1  -0.09460064  0.37711680  0.14185119  1
  S2-  S131  1  0.01901950  0.39175555  0.66589182  1
  S2-  S132  1  -0.02489652  0.61076659  0.14699086  1
  S2-  S133  1  -0.00044487  0.63082448  0.65617048  1
  S2-  S134  1  0.00398039  0.85500579  0.15194461  1
  S2-  S135  1  -0.00136520  0.89730131  0.64970575  1
  S2-  S136  1  0.33631269  0.11153349  0.14862293  1
  S2-  S137  1  0.14869641  0.12185183  0.64428687  1
  S2-  S138  1  0.25103845  0.37894596  0.15166259  1
  S2-  S139  1  0.23487595  0.40698944  0.65943981  1
  S2-  S140  1  0.23686916  0.63992306  0.15543296  1
  S2-  S141  1  0.24291171  0.63992821  0.65902178  1
  S2-  S142  1  0.25764161  0.87953742  0.15647786  1
  S2-  S143  1  0.25226924  0.87157343  0.65150037  1
  S2-  S144  1  0.52126584  0.12193458  0.20888422  1
  S2-  S145  1  0.56196353  0.09010446  0.63388847  1
  S2-  S146  1  0.48772820  0.30626979  0.16089895  1
  S2-  S147  1  0.58511233  0.38316372  0.64002362  1
  S2-  S148  1  0.49431985  0.61481939  0.15751770  1
  S2-  S149  1  0.50557427  0.61323390  0.65839056  1
  S2-  S150  1  0.49850606  0.94627072  0.15510207  1
  S2-  S151  1  0.51908016  0.84699838  0.66263679  1
  S2-  S152  1  0.70146830  0.13006746  0.15417142  1
  S2-  S153  1  0.73690491  0.22754760  0.65032127  1
  S2-  S154  1  0.69263983  0.38991253  0.17065174  1
  S2-  S155  1  0.79456775  0.43689721  0.67026348  1
  S2-  S156  1  0.75307112  0.61979187  0.16051856  1
  S2-  S157  1  0.72903817  0.65093654  0.65599658  1
  S2-  S158  1  0.74819143  0.88719624  0.15948087  1
  S2-  S159  1  0.74045411  0.97528208  0.64397875  1
  S2-  S160  1  0.17951708  0.02118955  0.34594919  1
  S2-  S161  1  0.09831760  0.02969511  0.83659782  1
  S2-  S162  1  0.06744034  0.25488815  0.34945305  1
  S2-  S163  1  0.03761699  0.25663737  0.84406886  1
  S2-  S164  1  0.15381537  0.49738249  0.34732882  1
  S2-  S165  1  0.11916930  0.47586011  0.84134632  1
  S2-  S166  1  0.14008035  0.75649009  0.34375097  1
  S2-  S167  1  0.15344589  0.76485298  0.84176695  1
  S2-  S168  1  0.38933911  -0.02447762  0.34284658  1
  S2-  S169  1  0.48528476  -0.00533148  0.85646369  1
  S2-  S170  1  0.37690333  0.26538423  0.34176950  1
  S2-  S171  1  0.38527925  0.22504682  0.85164475  1
  S2-  S172  1  0.40829125  0.49948364  0.34812143  1
  S2-  S173  1  0.41054171  0.51084972  0.84940645  1
  S2-  S174  1  0.39999499  0.74107258  0.34010664  1
  S2-  S175  1  0.38095223  0.77888565  0.84485684  1
  S2-  S176  1  0.58598014  0.00765961  0.31008348  1
  S2-  S177  1  0.69805965  0.00038548  0.84218396  1
  S2-  S178  1  0.59934705  0.21017101  0.31766440  1
  S2-  S179  1  0.68341077  0.25003597  0.85593093  1
  S2-  S180  1  0.62251605  0.40080259  0.34895003  1
  S2-  S181  1  0.65375399  0.51495086  0.83965411  1
  S2-  S182  1  0.62900559  0.83195700  0.35971440  1
  S2-  S183  1  0.61098035  0.76470970  0.84581968  1
  S2-  S184  1  0.78377662  0.00541268  0.35327792  1
  S2-  S185  1  0.87973985  0.09808646  0.84295040  1
  S2-  S186  1  0.79876542  0.25725791  0.35805342  1
  S2-  S187  1  0.84479130  0.26142531  0.77681732  1
  S2-  S188  1  0.82291954  0.49483549  0.35026560  1
  S2-  S189  1  0.86689163  0.42525507  0.84522678  1
  S2-  S190  1  0.86043350  0.73341358  0.34048239  1
  S2-  S191  1  0.87784076  0.87449401  0.85327656  1
  S2-  S192  1  0.00405664  0.12529007  0.46312345  1
  S2-  S193  1  -0.00001100  0.12384865  0.95095166  1
  S2-  S194  1  0.00199494  0.37650415  0.45808898  1
  S2-  S195  1  -0.00109399  0.37344897  0.95263322  1
  S2-  S196  1  0.00492546  0.62364393  0.44893451  1
  S2-  S197  1  -0.00108854  0.62522056  0.94459326  1
  S2-  S198  1  0.00603344  0.87463643  0.44656347  1
  S2-  S199  1  0.00379967  0.87262262  0.94824104  1
  S2-  S200  1  0.25665446  0.12644394  0.45503161  1
  S2-  S201  1  0.24967240  0.12673712  0.95340240  1
  S2-  S202  1  0.25734035  0.37426955  0.45291227  1
  S2-  S203  1  0.24931060  0.37034989  0.94732705  1
  S2-  S204  1  0.25312246  0.62314325  0.45321553  1
  S2-  S205  1  0.25068033  0.62142040  0.94944147  1
  S2-  S206  1  0.25153909  0.87534376  0.44767104  1
  S2-  S207  1  0.25156594  0.87575928  0.95038603  1
  S2-  S208  1  0.50294012  0.12326089  0.43929312  1
  S2-  S209  1  0.50081329  0.12953683  0.95494438  1
  S2-  S210  1  0.50064824  0.37503830  0.45061367  1
  S2-  S211  1  0.50045304  0.36972356  0.95820363  1
  S2-  S212  1  0.50487137  0.62413725  0.45231416  1
  S2-  S213  1  0.49953878  0.62265876  0.95291416  1
  S2-  S214  1  0.49884426  0.87490729  0.45518308  1
  S2-  S215  1  0.49913583  0.87187019  0.95717966  1
  S2-  S216  1  0.75155085  0.12470282  0.45803089  1
  S2-  S217  1  0.74869123  0.12399732  0.95467663  1
  S2-  S218  1  0.75358781  0.37742998  0.46372267  1
  S2-  S219  1  0.75171957  0.37067253  0.95949004  1
  S2-  S220  1  0.75080872  0.62733583  0.45222364  1
  S2-  S221  1  0.75002393  0.62483742  0.95251486  1
  S2-  S222  1  0.75596571  0.87123337  0.45748222  1
  S2-  S223  1  0.74516944  0.87342746  0.95240951  1
  S2-  S224  1  0.12589651  -0.00063638  0.04662044  1
  S2-  S225  1  0.12749984  -0.00355102  0.54561998  1
  S2-  S226  1  0.12270077  0.24790556  0.04259389  1
  S2-  S227  1  0.12646050  0.25308789  0.55011580  1
  S2-  S228  1  0.11994401  0.49774726  0.04732771  1
  S2-  S229  1  0.12885847  0.49914980  0.55109097  1
  S2-  S230  1  0.12429964  0.74776876  0.04530430  1
  S2-  S231  1  0.12684142  0.75004657  0.54683170  1
  S2-  S232  1  0.37405150  -0.00053161  0.04305636  1
  S2-  S233  1  0.37771438  0.00249362  0.54790576  1
  S2-  S234  1  0.37658263  0.24765875  0.05188961  1
  S2-  S235  1  0.38158353  0.24804433  0.54595228  1
  S2-  S236  1  0.37437865  0.49596396  0.05306254  1
  S2-  S237  1  0.38023339  0.49982221  0.55006532  1
  S2-  S238  1  0.37321348  0.74776361  0.05088968  1
  S2-  S239  1  0.37921146  0.74943547  0.54887615  1
  S2-  S240  1  0.62235348  0.00325171  0.04755448  1
  S2-  S241  1  0.62507542  -0.00562307  0.52978348  1
  S2-  S242  1  0.62486156  0.24656669  0.05466637  1
  S2-  S243  1  0.62173355  0.24835187  0.53490227  1
  S2-  S244  1  0.62674068  0.49553857  0.04976678  1
  S2-  S245  1  0.62499941  0.50206688  0.54018780  1
  S2-  S246  1  0.62527939  0.74879754  0.05276908  1
  S2-  S247  1  0.62786417  0.75144767  0.54904653  1
  S2-  S248  1  0.87472197  -0.00118103  0.04060496  1
  S2-  S249  1  0.88015921  -0.00186535  0.54574490  1
  S2-  S250  1  0.87424039  0.24414835  0.04955509  1
  S2-  S251  1  0.88072275  0.24604054  0.55556551  1
  S2-  S252  1  0.87749256  0.49908339  0.04189249  1
  S2-  S253  1  0.87664615  0.50010611  0.55192646  1
  S2-  S254  1  0.87559350  0.74945930  0.03991003  1
  S2-  S255  1  0.87697873  0.75071077  0.54873548  1
