# generated using pymatgen
data_La6Ce6Pr19Nd20Sm13(BiS2)64
_symmetry_space_group_name_H-M   'P 1'
_cell_length_a   16.01692897
_cell_length_b   16.11774402
_cell_length_c   27.40324001
_cell_angle_alpha   90.25941101
_cell_angle_beta   90.10425666
_cell_angle_gamma   89.83486840
_symmetry_Int_Tables_number   1
_chemical_formula_structural   La6Ce6Pr19Nd20Sm13(BiS2)64
_chemical_formula_sum   'La6 Ce6 Pr19 Nd20 Sm13 Bi64 S128'
_cell_volume   7074.21825027
_cell_formula_units_Z   1
loop_
 _symmetry_equiv_pos_site_id
 _symmetry_equiv_pos_as_xyz
  1  'x, y, z'
loop_
 _atom_type_symbol
 _atom_type_oxidation_number
  La3+  3.0
  Ce3+  3.0
  Pr3+  3.0
  Nd3+  3.0
  Sm3+  3.0
  Bi2+  2.0
  S2-  -2.0
loop_
 _atom_site_type_symbol
 _atom_site_label
 _atom_site_symmetry_multiplicity
 _atom_site_fract_x
 _atom_site_fract_y
 _atom_site_fract_z
 _atom_site_occupancy
  La3+  La0  1  0.74419851  0.63692083  0.59156302  1
  La3+  La1  1  0.64323423  0.23363480  0.91456732  1
  La3+  La2  1  -0.00642728  0.13461112  0.57153584  1
  La3+  La3  1  0.10634881  0.51508886  0.40979834  1
  La3+  La4  1  0.47490508  0.37933610  0.61369393  1
  La3+  La5  1  0.86378540  0.25462371  0.41103391  1
  Ce3+  Ce6  1  0.23985781  0.63290083  0.54926913  1
  Ce3+  Ce7  1  0.75622312  0.11946668  0.06272789  1
  Ce3+  Ce8  1  0.86603353  0.50894013  0.44872474  1
  Ce3+  Ce9  1  0.76008463  0.36423834  0.04279757  1
  Ce3+  Ce10  1  0.89648302  0.22701055  0.92689101  1
  Ce3+  Ce11  1  0.49089367  0.14020916  0.55253910  1
  Pr3+  Pr12  1  0.36905834  0.00806946  0.43121343  1
  Pr3+  Pr13  1  -0.01205847  0.38549939  0.57114324  1
  Pr3+  Pr14  1  0.26197189  0.36560855  0.06902594  1
  Pr3+  Pr15  1  -0.00637563  0.64120288  0.57252921  1
  Pr3+  Pr16  1  0.36748557  0.75856365  0.43155084  1
  Pr3+  Pr17  1  0.10396423  0.76099513  0.42841815  1
  Pr3+  Pr18  1  0.73843799  0.38245135  0.57534326  1
  Pr3+  Pr19  1  0.38812882  0.48651219  0.93077568  1
  Pr3+  Pr20  1  0.24249798  0.88485159  0.55055408  1
  Pr3+  Pr21  1  0.48704092  0.63680361  0.57531151  1
  Pr3+  Pr22  1  0.75899302  0.61287648  0.05687484  1
  Pr3+  Pr23  1  0.01214582  0.61398856  0.06585833  1
  Pr3+  Pr24  1  0.36903502  0.50858525  0.43613502  1
  Pr3+  Pr25  1  0.01562800  0.86664249  0.10386410  1
  Pr3+  Pr26  1  0.61869319  0.50586135  0.45705991  1
  Pr3+  Pr27  1  0.13823014  0.48637565  0.92911865  1
  Pr3+  Pr28  1  0.26257448  0.11111527  0.06841905  1
  Pr3+  Pr29  1  0.49126834  0.88291349  0.55969905  1
  Pr3+  Pr30  1  0.86310677  0.00597742  0.43816842  1
  Nd3+  Nd31  1  0.13309547  -0.01291196  0.94976258  1
  Nd3+  Nd32  1  0.63769668  -0.01357226  0.93445161  1
  Nd3+  Nd33  1  0.38541053  -0.00941348  0.94090343  1
  Nd3+  Nd34  1  0.38701691  0.74310369  0.93605066  1
  Nd3+  Nd35  1  0.76004101  0.86425497  0.06663846  1
  Nd3+  Nd36  1  0.89289093  0.73926031  0.94157922  1
  Nd3+  Nd37  1  0.11012500  0.01352913  0.43669644  1
  Nd3+  Nd38  1  0.24179809  0.38855955  0.55084990  1
  Nd3+  Nd39  1  0.00706692  0.36710396  0.06425025  1
  Nd3+  Nd40  1  0.74097926  0.88600586  0.56976729  1
  Nd3+  Nd41  1  0.11225033  0.26170380  0.43961199  1
  Nd3+  Nd42  1  0.63843279  0.49565261  0.90841124  1
  Nd3+  Nd43  1  0.73863235  0.13787973  0.56139436  1
  Nd3+  Nd44  1  -0.00553436  0.88857921  0.57029092  1
  Nd3+  Nd45  1  0.61912962  0.26210530  0.43957937  1
  Nd3+  Nd46  1  0.38596621  0.23596006  0.94534661  1
  Nd3+  Nd47  1  0.26288436  0.86239134  0.06762106  1
  Nd3+  Nd48  1  -0.00010896  0.12187933  0.08242424  1
  Nd3+  Nd49  1  0.51540108  0.36501240  0.05121511  1
  Nd3+  Nd50  1  0.62101981  0.00854738  0.43483059  1
  Sm3+  Sm51  1  0.36683392  0.26290594  0.43371530  1
  Sm3+  Sm52  1  0.64046790  0.73856417  0.93252440  1
  Sm3+  Sm53  1  0.51780807  0.11413621  0.06088961  1
  Sm3+  Sm54  1  0.86171448  0.75646050  0.44706203  1
  Sm3+  Sm55  1  0.24590904  0.13877471  0.54662652  1
  Sm3+  Sm56  1  0.51586021  0.86308144  0.06369262  1
  Sm3+  Sm57  1  0.26135835  0.61481665  0.05575544  1
  Sm3+  Sm58  1  0.88932878  -0.01329658  0.95237178  1
  Sm3+  Sm59  1  0.62299571  0.75424168  0.44376546  1
  Sm3+  Sm60  1  0.14156729  0.73958646  0.94047618  1
  Sm3+  Sm61  1  0.89006636  0.48943439  0.92922832  1
  Sm3+  Sm62  1  0.51266819  0.61310427  0.04822527  1
  Sm3+  Sm63  1  0.13178394  0.23693505  0.94904867  1
  Bi2+  Bi64  1  0.02586285  0.14705884  0.29731646  1
  Bi2+  Bi65  1  -0.08106051  0.07066203  0.75584366  1
  Bi2+  Bi66  1  0.03310374  0.39434279  0.28723908  1
  Bi2+  Bi67  1  -0.03416670  0.33747678  0.79959554  1
  Bi2+  Bi68  1  -0.02097255  0.64325483  0.30297928  1
  Bi2+  Bi69  1  0.00100175  0.63756412  0.79109577  1
  Bi2+  Bi70  1  0.00124587  0.90657204  0.29671789  1
  Bi2+  Bi71  1  -0.00162080  0.92508969  0.81712633  1
  Bi2+  Bi72  1  0.30529670  0.14009723  0.25102220  1
  Bi2+  Bi73  1  0.16120104  0.13080344  0.74357429  1
  Bi2+  Bi74  1  0.30509513  0.40150284  0.27365147  1
  Bi2+  Bi75  1  0.15609662  0.32281141  0.77024451  1
  Bi2+  Bi76  1  0.32369506  0.70025583  0.23105320  1
  Bi2+  Bi77  1  0.20241148  0.56862749  0.79364838  1
  Bi2+  Bi78  1  0.33897663  0.88367902  0.29998950  1
  Bi2+  Bi79  1  0.19948029  0.84966379  0.80040862  1
  Bi2+  Bi80  1  0.55038477  0.06775817  0.30860086  1
  Bi2+  Bi81  1  0.45546925  0.08415143  0.79710150  1
  Bi2+  Bi82  1  0.52154836  0.38952689  0.31805729  1
  Bi2+  Bi83  1  0.41594220  0.35254005  0.81556119  1
  Bi2+  Bi84  1  0.53105041  0.67184525  0.29000496  1
  Bi2+  Bi85  1  0.43977125  0.71103229  0.79335516  1
  Bi2+  Bi86  1  0.54302394  0.87161057  0.29021502  1
  Bi2+  Bi87  1  0.56200994  0.85725606  0.82114169  1
  Bi2+  Bi88  1  0.75018337  0.10415603  0.29486041  1
  Bi2+  Bi89  1  0.71494192  0.04568146  0.77823433  1
  Bi2+  Bi90  1  0.73231561  0.43220383  0.26754353  1
  Bi2+  Bi91  1  0.73858671  0.34894478  0.78810119  1
  Bi2+  Bi92  1  0.72610077  0.62320492  0.29497540  1
  Bi2+  Bi93  1  0.75229499  0.61852496  0.78510856  1
  Bi2+  Bi94  1  0.74149597  0.84968475  0.28916851  1
  Bi2+  Bi95  1  0.76159625  0.85884437  0.80034575  1
  Bi2+  Bi96  1  0.17543290  -0.00323954  0.21482610  1
  Bi2+  Bi97  1  0.10107224  -0.05263494  0.71610736  1
  Bi2+  Bi98  1  0.14337417  0.28943631  0.21130936  1
  Bi2+  Bi99  1  0.05316311  0.25652745  0.67793868  1
  Bi2+  Bi100  1  0.10174144  0.58280730  0.20253116  1
  Bi2+  Bi101  1  0.10408909  0.45289785  0.68408632  1
  Bi2+  Bi102  1  0.16529299  0.81384329  0.25821713  1
  Bi2+  Bi103  1  0.12746544  0.65919733  0.70250169  1
  Bi2+  Bi104  1  0.42443382  0.04769952  0.17358367  1
  Bi2+  Bi105  1  0.37408565  -0.01745072  0.71106912  1
  Bi2+  Bi106  1  0.44937855  0.23832739  0.20121411  1
  Bi2+  Bi107  1  0.32561367  0.22729706  0.70203210  1
  Bi2+  Bi108  1  0.50011077  0.51217797  0.22347894  1
  Bi2+  Bi109  1  0.30720523  0.52289215  0.70526947  1
  Bi2+  Bi110  1  0.40758606  0.85460910  0.18438893  1
  Bi2+  Bi111  1  0.33180316  0.79342638  0.71359295  1
  Bi2+  Bi112  1  0.62136122  0.00500680  0.20428860  1
  Bi2+  Bi113  1  0.56614400  -0.03447069  0.70886163  1
  Bi2+  Bi114  1  0.61896496  0.24433119  0.26089862  1
  Bi2+  Bi115  1  0.59900131  0.23834749  0.71518300  1
  Bi2+  Bi116  1  0.66089143  0.47667562  0.16350451  1
  Bi2+  Bi117  1  0.57263717  0.49481885  0.73045958  1
  Bi2+  Bi118  1  0.65629836  0.72373666  0.20142964  1
  Bi2+  Bi119  1  0.58699240  0.76518334  0.71775024  1
  Bi2+  Bi120  1  0.88439384  0.00357752  0.21751082  1
  Bi2+  Bi121  1  0.80515291  -0.06024557  0.69383035  1
  Bi2+  Bi122  1  0.87426311  0.26208235  0.20678799  1
  Bi2+  Bi123  1  0.86288426  0.24023788  0.70852769  1
  Bi2+  Bi124  1  0.88222682  0.51832096  0.21422940  1
  Bi2+  Bi125  1  0.92329321  0.48901157  0.72369406  1
  Bi2+  Bi126  1  0.91281757  0.77375206  0.22766585  1
  Bi2+  Bi127  1  0.89597691  0.76687323  0.70697360  1
  S2-  S128  1  0.00446559  0.26424026  0.14830388  1
  S2-  S129  1  0.00185039  0.01154217  0.64413819  1
  S2-  S130  1  0.01060819  0.48754369  0.14066913  1
  S2-  S131  1  -0.13447065  0.38768857  0.64931763  1
  S2-  S132  1  0.02290293  0.70826577  0.15331158  1
  S2-  S133  1  -0.11139180  0.62109638  0.65580994  1
  S2-  S134  1  0.02687685  1.01446313  0.16296632  1
  S2-  S135  1  0.02840144  0.77308979  0.64393066  1
  S2-  S136  1  0.20692021  0.14877320  0.16138311  1
  S2-  S137  1  0.23369899  0.13720299  0.64424078  1
  S2-  S138  1  0.25486879  0.38539964  0.16970251  1
  S2-  S139  1  0.30128407  0.37533670  0.64407682  1
  S2-  S140  1  0.25080816  0.61617666  0.15368437  1
  S2-  S141  1  0.27875463  0.66039318  0.64341330  1
  S2-  S142  1  0.17659023  0.86032460  0.15459258  1
  S2-  S143  1  0.24532048  0.90555495  0.65050241  1
  S2-  S144  1  0.63225574  0.12535793  0.13505197  1
  S2-  S145  1  0.47795138  0.20078082  0.64364033  1
  S2-  S146  1  0.50368777  0.37791045  0.15069185  1
  S2-  S147  1  0.45724721  0.35539270  0.72394996  1
  S2-  S148  1  0.54216289  0.62116911  0.14490396  1
  S2-  S149  1  0.46693695  0.53995446  0.66045225  1
  S2-  S150  1  0.63105382  0.86024578  0.13813742  1
  S2-  S151  1  0.48526839  0.77648442  0.64033381  1
  S2-  S152  1  0.85051337  0.12952652  0.14795819  1
  S2-  S153  1  0.72373104  0.16513136  0.66021459  1
  S2-  S154  1  0.76721671  0.34764930  0.14066239  1
  S2-  S155  1  0.63530164  0.37259449  0.66207049  1
  S2-  S156  1  0.78968512  0.62193636  0.15677880  1
  S2-  S157  1  0.68235814  0.58380832  0.68868516  1
  S2-  S158  1  0.85614068  0.87146993  0.15220003  1
  S2-  S159  1  0.73587511  0.78704503  0.65206321  1
  S2-  S160  1  0.12009412  0.02474962  0.33751443  1
  S2-  S161  1  0.15795363  -0.00938018  0.85041250  1
  S2-  S162  1  0.12015688  0.26319866  0.33943687  1
  S2-  S163  1  0.03875476  0.23434781  0.86548687  1
  S2-  S164  1  0.18403144  0.46901561  0.31958691  1
  S2-  S165  1  0.01188545  0.50478290  0.85655156  1
  S2-  S166  1  0.12582560  0.65910807  0.34673463  1
  S2-  S167  1  0.06728188  0.76374344  0.85205888  1
  S2-  S168  1  0.36871738  0.04877674  0.33379028  1
  S2-  S169  1  0.40734567  -0.05565539  0.84669216  1
  S2-  S170  1  0.38274403  0.28565073  0.33667309  1
  S2-  S171  1  0.35952534  0.19038761  0.85000849  1
  S2-  S172  1  0.39587138  0.49947200  0.33614496  1
  S2-  S173  1  0.26706135  0.45467680  0.85730963  1
  S2-  S174  1  0.37278896  0.71619875  0.33481273  1
  S2-  S175  1  0.29421291  0.72399754  0.85267021  1
  S2-  S176  1  0.73931793  -0.02672422  0.36226286  1
  S2-  S177  1  0.61220163  0.08620355  0.85369535  1
  S2-  S178  1  0.70965615  0.24774899  0.35484579  1
  S2-  S179  1  0.58701146  0.29749821  0.82067055  1
  S2-  S180  1  0.65714087  0.49307921  0.35785196  1
  S2-  S181  1  0.49144356  0.48697565  0.84579891  1
  S2-  S182  1  0.74051588  0.74326032  0.37024804  1
  S2-  S183  1  0.63719824  0.64462471  0.84903596  1
  S2-  S184  1  0.90252589  0.10386398  0.35610118  1
  S2-  S185  1  0.91067873  0.04904770  0.86194387  1
  S2-  S186  1  0.90954989  0.29467557  0.31037496  1
  S2-  S187  1  0.78896136  0.23607244  0.84921683  1
  S2-  S188  1  0.94539411  0.50496241  0.36008837  1
  S2-  S189  1  0.78261448  0.49215095  0.84604384  1
  S2-  S190  1  0.95791585  0.78800213  0.36601053  1
  S2-  S191  1  0.84525852  0.73081599  0.84496856  1
  S2-  S192  1  -0.00977528  0.13828059  0.46122603  1
  S2-  S193  1  0.01408429  0.11010121  0.97097794  1
  S2-  S194  1  -0.01220406  0.37928582  0.45726473  1
  S2-  S195  1  0.01256447  0.36700781  0.95875220  1
  S2-  S196  1  -0.01113318  0.63436077  0.46248597  1
  S2-  S197  1  0.01692649  0.61755703  0.95796614  1
  S2-  S198  1  -0.00947474  0.89129027  0.46418716  1
  S2-  S199  1  0.01276709  0.86331344  0.95835831  1
  S2-  S200  1  0.24305302  0.13653932  0.44260222  1
  S2-  S201  1  0.25847969  0.11324600  0.96074474  1
  S2-  S202  1  0.23915143  0.38618105  0.44464194  1
  S2-  S203  1  0.25903149  0.35632112  0.96184667  1
  S2-  S204  1  0.24103874  0.63286273  0.44556381  1
  S2-  S205  1  0.26301130  0.61358827  0.95336594  1
  S2-  S206  1  0.23831826  0.88559199  0.44227719  1
  S2-  S207  1  0.26251195  0.86475523  0.95983117  1
  S2-  S208  1  0.49297523  0.13600810  0.44629531  1
  S2-  S209  1  0.50938830  0.11143173  0.95734632  1
  S2-  S210  1  0.49174429  0.38159757  0.44835396  1
  S2-  S211  1  0.51224277  0.35924374  0.94642309  1
  S2-  S212  1  0.49553877  0.63555333  0.45296193  1
  S2-  S213  1  0.50976382  0.61841135  0.94659994  1
  S2-  S214  1  0.49751399  0.88189996  0.44837753  1
  S2-  S215  1  0.51266237  0.86226133  0.95804625  1
  S2-  S216  1  0.74125795  0.13431441  0.45720962  1
  S2-  S217  1  0.76222838  0.10745259  0.95558742  1
  S2-  S218  1  0.74745701  0.37882061  0.46196176  1
  S2-  S219  1  0.76206332  0.36844726  0.94165215  1
  S2-  S220  1  0.74262047  0.63174715  0.47094949  1
  S2-  S221  1  0.76408181  0.61591128  0.95138656  1
  S2-  S222  1  0.73873841  0.88175425  0.46660767  1
  S2-  S223  1  0.76219587  0.86304926  0.95430135  1
  S2-  S224  1  0.13733025  -0.01289253  0.05435859  1
  S2-  S225  1  0.12364812  0.01440665  0.54168053  1
  S2-  S226  1  0.13783774  0.24022610  0.05096707  1
  S2-  S227  1  0.11910201  0.26107368  0.54525212  1
  S2-  S228  1  0.14245372  0.49009411  0.04193978  1
  S2-  S229  1  0.11379030  0.51029703  0.54986422  1
  S2-  S230  1  0.14091973  0.73974661  0.04522909  1
  S2-  S231  1  0.11962121  0.76175028  0.53653114  1
  S2-  S232  1  0.39052804  -0.01339384  0.04716579  1
  S2-  S233  1  0.36828252  0.01110114  0.53926699  1
  S2-  S234  1  0.38904851  0.23784835  0.05211564  1
  S2-  S235  1  0.36641308  0.26318530  0.53771713  1
  S2-  S236  1  0.38709662  0.49060547  0.04389502  1
  S2-  S237  1  0.36934371  0.50952510  0.54264288  1
  S2-  S238  1  0.38902004  0.73836276  0.04491441  1
  S2-  S239  1  0.36600182  0.75982894  0.53687599  1
  S2-  S240  1  0.63430997  -0.01320318  0.03878136  1
  S2-  S241  1  0.61428511  0.01006019  0.54646865  1
  S2-  S242  1  0.63352398  0.24064970  0.03148027  1
  S2-  S243  1  0.61408870  0.26271283  0.54491549  1
  S2-  S244  1  0.63393578  0.49104941  0.03018161  1
  S2-  S245  1  0.61515813  0.51217489  0.56084403  1
  S2-  S246  1  0.63445185  0.73738045  0.03678646  1
  S2-  S247  1  0.61730293  0.75727318  0.54581874  1
  S2-  S248  1  0.88547890  -0.01122869  0.05314380  1
  S2-  S249  1  0.86126804  0.01095465  0.54795583  1
  S2-  S250  1  0.88472528  0.24190605  0.03637599  1
  S2-  S251  1  0.86643632  0.25570859  0.55293373  1
  S2-  S252  1  0.88422295  0.49083811  0.03626509  1
  S2-  S253  1  0.86538740  0.51153488  0.55153368  1
  S2-  S254  1  0.88463858  0.73981794  0.04775992  1
  S2-  S255  1  0.86750191  0.76581052  0.55042144  1
