# generated using pymatgen
data_La6Ce6Pr19Nd20Sm13(BiS2)64
_symmetry_space_group_name_H-M   'P 1'
_cell_length_a   16.11419948
_cell_length_b   16.11070096
_cell_length_c   27.19276726
_cell_angle_alpha   89.99517127
_cell_angle_beta   90.24100790
_cell_angle_gamma   89.94838154
_symmetry_Int_Tables_number   1
_chemical_formula_structural   La6Ce6Pr19Nd20Sm13(BiS2)64
_chemical_formula_sum   'La6 Ce6 Pr19 Nd20 Sm13 Bi64 S128'
_cell_volume   7059.47748522
_cell_formula_units_Z   1
loop_
 _symmetry_equiv_pos_site_id
 _symmetry_equiv_pos_as_xyz
  1  'x, y, z'
loop_
 _atom_type_symbol
 _atom_type_oxidation_number
  La3+  3.0
  Ce3+  3.0
  Pr3+  3.0
  Nd3+  3.0
  Sm3+  3.0
  Bi2+  2.0
  S2-  -2.0
loop_
 _atom_site_type_symbol
 _atom_site_label
 _atom_site_symmetry_multiplicity
 _atom_site_fract_x
 _atom_site_fract_y
 _atom_site_fract_z
 _atom_site_occupancy
  La3+  La0  1  0.87256583  0.00731013  0.90068688  1
  La3+  La1  1  0.74398200  0.61783511  0.11287890  1
  La3+  La2  1  0.61567610  0.01908426  0.91829643  1
  La3+  La3  1  0.63233570  0.24106060  0.41008143  1
  La3+  La4  1  0.51897336  0.38037980  0.57965213  1
  La3+  La5  1  0.62247664  0.50479791  0.41603581  1
  Ce3+  Ce6  1  0.38298291  0.75379731  0.43852610  1
  Ce3+  Ce7  1  0.00196079  0.37674341  0.56682334  1
  Ce3+  Ce8  1  0.38586034  0.50062946  0.44364216  1
  Ce3+  Ce9  1  0.87192837  0.26459616  0.93927358  1
  Ce3+  Ce10  1  0.37178408  0.51347095  0.93859422  1
  Ce3+  Ce11  1  0.12941923  0.50089514  0.44877915  1
  Pr3+  Pr12  1  0.49897160  0.63890151  0.06068612  1
  Pr3+  Pr13  1  0.37298328  0.01078178  0.41754087  1
  Pr3+  Pr14  1  0.00227419  0.89090881  0.06199779  1
  Pr3+  Pr15  1  -0.00301943  0.64599367  0.07794706  1
  Pr3+  Pr16  1  0.88408383  0.75513445  0.43767788  1
  Pr3+  Pr17  1  0.75165545  0.88455493  0.05892084  1
  Pr3+  Pr18  1  0.02294975  0.88303733  0.61005869  1
  Pr3+  Pr19  1  0.62476859  0.26916156  0.92772853  1
  Pr3+  Pr20  1  0.50075430  0.14139613  0.05718107  1
  Pr3+  Pr21  1  0.75123178  0.13766001  0.05705162  1
  Pr3+  Pr22  1  0.62941926  0.76564421  0.93042212  1
  Pr3+  Pr23  1  0.12801906  0.25381145  0.44038288  1
  Pr3+  Pr24  1  0.25880898  0.37901599  0.56244868  1
  Pr3+  Pr25  1  0.37351372  0.76338271  0.93724071  1
  Pr3+  Pr26  1  0.25292425  0.64174536  0.06734282  1
  Pr3+  Pr27  1  0.26574492  0.87889340  0.56728104  1
  Pr3+  Pr28  1  0.50343670  0.88842570  0.05908267  1
  Pr3+  Pr29  1  0.75877706  0.87246824  0.57494005  1
  Pr3+  Pr30  1  0.12402724  0.01670831  0.92655751  1
  Nd3+  Nd31  1  0.74507617  0.38123861  0.06886500  1
  Nd3+  Nd32  1  0.12361265  0.26585057  0.93567356  1
  Nd3+  Nd33  1  0.00524310  0.13291674  0.56769826  1
  Nd3+  Nd34  1  0.38442174  0.25249771  0.44128857  1
  Nd3+  Nd35  1  0.13105487  0.00225682  0.44459133  1
  Nd3+  Nd36  1  0.25893791  0.12869545  0.56426179  1
  Nd3+  Nd37  1  -0.00081473  0.38964867  0.06111297  1
  Nd3+  Nd38  1  0.37299620  0.01839389  0.93695405  1
  Nd3+  Nd39  1  0.88063143  0.76212957  0.93649809  1
  Nd3+  Nd40  1  0.50761560  0.12765298  0.55983970  1
  Nd3+  Nd41  1  0.87888983  0.25058389  0.43392228  1
  Nd3+  Nd42  1  0.75670069  0.62789924  0.56143314  1
  Nd3+  Nd43  1  0.62914574  0.51695852  0.93061749  1
  Nd3+  Nd44  1  0.00564363  0.63149737  0.56776958  1
  Nd3+  Nd45  1  0.25172317  0.14203810  0.05786826  1
  Nd3+  Nd46  1  0.37079354  0.27397880  0.90673918  1
  Nd3+  Nd47  1  0.25099546  0.38817112  0.06125390  1
  Nd3+  Nd48  1  0.12733001  0.75334399  0.43926663  1
  Nd3+  Nd49  1  0.75517990  0.12686058  0.56593941  1
  Nd3+  Nd50  1  0.51034934  0.62892212  0.56356382  1
  Sm3+  Sm51  1  0.63275893  0.00116865  0.44436541  1
  Sm3+  Sm52  1  0.50610351  0.87891786  0.55257016  1
  Sm3+  Sm53  1  0.12336051  0.51502051  0.95186401  1
  Sm3+  Sm54  1  0.88256076  -0.00027104  0.45421639  1
  Sm3+  Sm55  1  0.63825846  0.75319544  0.43247744  1
  Sm3+  Sm56  1  0.50254895  0.38926036  0.05623263  1
  Sm3+  Sm57  1  0.00110546  0.13780776  0.05126895  1
  Sm3+  Sm58  1  0.75239442  0.37694806  0.54794314  1
  Sm3+  Sm59  1  0.25697540  0.62898812  0.55356646  1
  Sm3+  Sm60  1  0.25019960  0.89228719  0.05043738  1
  Sm3+  Sm61  1  0.87355545  0.51735821  0.95182725  1
  Sm3+  Sm62  1  0.87876441  0.50233548  0.43958708  1
  Sm3+  Sm63  1  0.12116899  0.76357972  0.93872165  1
  Bi2+  Bi64  1  -0.01273247  0.09247163  0.30593319  1
  Bi2+  Bi65  1  0.11625606  0.14715972  0.80433336  1
  Bi2+  Bi66  1  -0.02579511  0.28947453  0.31201012  1
  Bi2+  Bi67  1  0.02294156  0.38753360  0.79481150  1
  Bi2+  Bi68  1  0.03145950  0.62812813  0.29540981  1
  Bi2+  Bi69  1  0.00332838  0.58981606  0.79812584  1
  Bi2+  Bi70  1  -0.00190469  0.89170145  0.29200473  1
  Bi2+  Bi71  1  0.00358616  0.85323877  0.79403299  1
  Bi2+  Bi72  1  0.17979531  0.10987816  0.27933052  1
  Bi2+  Bi73  1  0.26187791  0.01065785  0.82012508  1
  Bi2+  Bi74  1  0.22410003  0.38574455  0.29079569  1
  Bi2+  Bi75  1  0.23538124  0.41006010  0.79317318  1
  Bi2+  Bi76  1  0.25043278  0.59233246  0.29582214  1
  Bi2+  Bi77  1  0.31387946  0.64304367  0.79846903  1
  Bi2+  Bi78  1  0.19240133  0.85938413  0.29060175  1
  Bi2+  Bi79  1  0.20261680  0.80749440  0.81280975  1
  Bi2+  Bi80  1  0.49151133  0.11609941  0.29420099  1
  Bi2+  Bi81  1  0.52203933  0.08500400  0.77797544  1
  Bi2+  Bi82  1  0.41907940  0.36070024  0.28483238  1
  Bi2+  Bi83  1  0.49903208  0.37372606  0.78188166  1
  Bi2+  Bi84  1  0.46543481  0.62575034  0.29201828  1
  Bi2+  Bi85  1  0.48432171  0.56207978  0.74801880  1
  Bi2+  Bi86  1  0.53437554  0.84637222  0.28805318  1
  Bi2+  Bi87  1  0.54392568  0.80926044  0.78025344  1
  Bi2+  Bi88  1  0.74739902  0.09086165  0.28310894  1
  Bi2+  Bi89  1  0.74799871  0.20153102  0.78061026  1
  Bi2+  Bi90  1  0.80173663  0.35359470  0.27407981  1
  Bi2+  Bi91  1  0.75564069  0.42623259  0.78654658  1
  Bi2+  Bi92  1  0.76604033  0.62090127  0.31667766  1
  Bi2+  Bi93  1  0.74720118  0.62906765  0.79076977  1
  Bi2+  Bi94  1  0.72640516  0.88749973  0.28344215  1
  Bi2+  Bi95  1  0.74939370  0.88555004  0.77443122  1
  Bi2+  Bi96  1  0.02283531  0.00339966  0.19877100  1
  Bi2+  Bi97  1  0.15228954  0.01434094  0.71999854  1
  Bi2+  Bi98  1  0.08728443  0.27363873  0.21951610  1
  Bi2+  Bi99  1  0.11239383  0.27673836  0.71608663  1
  Bi2+  Bi100  1  0.13053632  0.52535840  0.20536711  1
  Bi2+  Bi101  1  0.09099785  0.49098641  0.69658637  1
  Bi2+  Bi102  1  0.15152447  0.71985887  0.20721115  1
  Bi2+  Bi103  1  0.14491964  0.67910472  0.72709186  1
  Bi2+  Bi104  1  0.29727514  -0.01663726  0.22507274  1
  Bi2+  Bi105  1  0.31842620  -0.09849157  0.72769874  1
  Bi2+  Bi106  1  0.35424020  0.23882523  0.20301371  1
  Bi2+  Bi107  1  0.35043790  0.22050361  0.71597174  1
  Bi2+  Bi108  1  0.34252282  0.50926486  0.20692979  1
  Bi2+  Bi109  1  0.29666742  0.49688900  0.70060170  1
  Bi2+  Bi110  1  0.33840130  0.78013122  0.20899868  1
  Bi2+  Bi111  1  0.41103707  0.73207319  0.69654423  1
  Bi2+  Bi112  1  0.63021154  -0.00482479  0.20353908  1
  Bi2+  Bi113  1  0.57188845  -0.05225462  0.69919271  1
  Bi2+  Bi114  1  0.60216324  0.25357300  0.20577543  1
  Bi2+  Bi115  1  0.61976074  0.23313775  0.69150624  1
  Bi2+  Bi116  1  0.62133988  0.48936129  0.21955041  1
  Bi2+  Bi117  1  0.67631479  0.51406056  0.69341275  1
  Bi2+  Bi118  1  0.59894613  0.75849491  0.19668888  1
  Bi2+  Bi119  1  0.61122954  0.70759849  0.69010682  1
  Bi2+  Bi120  1  0.82573690  -0.01878970  0.18255040  1
  Bi2+  Bi121  1  0.87850971  0.03605414  0.70734351  1
  Bi2+  Bi122  1  0.86072056  0.17572425  0.20219583  1
  Bi2+  Bi123  1  0.88687644  0.33291511  0.71699600  1
  Bi2+  Bi124  1  0.93358963  0.48499264  0.23634291  1
  Bi2+  Bi125  1  0.89866050  0.50607164  0.66164909  1
  Bi2+  Bi126  1  0.89226557  0.76535404  0.20749471  1
  Bi2+  Bi127  1  0.88117182  0.67862214  0.71257341  1
  S2-  S128  1  0.02110882  0.15989782  0.14903719  1
  S2-  S129  1  0.01589677  0.04612025  0.65489040  1
  S2-  S130  1  0.00701178  0.38813694  0.16117451  1
  S2-  S131  1  -0.00549677  0.26136718  0.64098439  1
  S2-  S132  1  -0.09702999  0.61795140  0.16404080  1
  S2-  S133  1  0.02388345  0.71957817  0.65328024  1
  S2-  S134  1  0.01472935  0.78763784  0.14526448  1
  S2-  S135  1  -0.06901525  0.88378103  0.70221892  1
  S2-  S136  1  0.26298297  0.11995329  0.15676558  1
  S2-  S137  1  0.27432142  0.10884954  0.66373515  1
  S2-  S138  1  0.27310884  0.36047559  0.15923865  1
  S2-  S139  1  0.25877113  0.33154059  0.65964388  1
  S2-  S140  1  0.36819356  0.64683505  0.14345743  1
  S2-  S141  1  0.27160085  0.65025165  0.65084676  1
  S2-  S142  1  0.24360471  0.88357023  0.14839062  1
  S2-  S143  1  0.18101886  0.88032380  0.65575930  1
  S2-  S144  1  0.49932344  0.15456146  0.15999961  1
  S2-  S145  1  0.51226962  0.10605315  0.66065857  1
  S2-  S146  1  0.53026999  0.37893359  0.15598097  1
  S2-  S147  1  0.47213553  0.31869503  0.67549732  1
  S2-  S148  1  0.57616154  0.60940423  0.14906938  1
  S2-  S149  1  0.51673282  0.52537975  0.64435048  1
  S2-  S150  1  0.50432447  0.90063928  0.16025330  1
  S2-  S151  1  0.42128876  0.88769777  0.63845197  1
  S2-  S152  1  0.73701616  0.24074753  0.13991239  1
  S2-  S153  1  0.77406758  0.16477669  0.66336571  1
  S2-  S154  1  0.74382568  0.45791668  0.15983884  1
  S2-  S155  1  0.67586348  0.36923674  0.63706645  1
  S2-  S156  1  0.71454213  0.63611409  0.22775599  1
  S2-  S157  1  0.76135052  0.73483447  0.64227374  1
  S2-  S158  1  0.74708261  0.78886414  0.14488435  1
  S2-  S159  1  0.73000746  0.95513770  0.66634774  1
  S2-  S160  1  0.21957980  -0.00459962  0.35734519  1
  S2-  S161  1  0.01887778  0.00388001  0.84300760  1
  S2-  S162  1  0.17617952  0.24716630  0.34349207  1
  S2-  S163  1  0.22009677  0.26672736  0.85251927  1
  S2-  S164  1  0.12800221  0.50078841  0.35121632  1
  S2-  S165  1  0.13496003  0.51480506  0.85360056  1
  S2-  S166  1  0.01040082  0.74947077  0.36166078  1
  S2-  S167  1  0.01127963  0.72801687  0.86509735  1
  S2-  S168  1  0.44220910  -0.03713093  0.32541923  1
  S2-  S169  1  0.46451647  0.00697182  0.85277215  1
  S2-  S170  1  0.38071068  0.15973658  0.35646368  1
  S2-  S171  1  0.42899500  0.22701185  0.81268899  1
  S2-  S172  1  0.46046231  0.49053425  0.35505220  1
  S2-  S173  1  0.38177938  0.42765156  0.85277087  1
  S2-  S174  1  0.38843183  0.74812519  0.34025375  1
  S2-  S175  1  0.40918413  0.76963531  0.83891849  1
  S2-  S176  1  0.62805283  0.08084933  0.35662723  1
  S2-  S177  1  0.64539951  -0.11448320  0.85175731  1
  S2-  S178  1  0.55800436  0.27651774  0.31378047  1
  S2-  S179  1  0.62934159  0.15382718  0.84861163  1
  S2-  S180  1  0.69053911  0.46199174  0.32063321  1
  S2-  S181  1  0.62337100  0.39688931  0.85420536  1
  S2-  S182  1  0.60572341  0.65148872  0.35283856  1
  S2-  S183  1  0.62459452  0.64014108  0.85452901  1
  S2-  S184  1  0.88243024  -0.01408549  0.35541168  1
  S2-  S185  1  0.80371818  0.04255761  0.80557941  1
  S2-  S186  1  0.78001286  0.24230936  0.35060340  1
  S2-  S187  1  0.86974793  0.24909270  0.84247907  1
  S2-  S188  1  0.90505461  0.52311605  0.34302880  1
  S2-  S189  1  0.86378834  0.52222258  0.85147734  1
  S2-  S190  1  0.76699832  0.77866294  0.36107204  1
  S2-  S191  1  0.85513948  0.84914788  0.84573321  1
  S2-  S192  1  0.00457265  0.12696017  0.45737598  1
  S2-  S193  1  -0.00227560  0.13911861  0.94687024  1
  S2-  S194  1  0.00112482  0.37773482  0.45642087  1
  S2-  S195  1  -0.00015635  0.39128505  0.95422163  1
  S2-  S196  1  0.00507246  0.62249114  0.46058803  1
  S2-  S197  1  0.00227807  0.63371160  0.96938762  1
  S2-  S198  1  0.00882394  0.88154861  0.45703043  1
  S2-  S199  1  0.00319529  0.89314615  0.95483325  1
  S2-  S200  1  0.25337069  0.13130689  0.45866592  1
  S2-  S201  1  0.25050074  0.14315398  0.95154019  1
  S2-  S202  1  0.25816848  0.37706214  0.45394323  1
  S2-  S203  1  0.24723107  0.38984499  0.95623053  1
  S2-  S204  1  0.25577173  0.62726463  0.44875299  1
  S2-  S205  1  0.24572135  0.63989716  0.95646620  1
  S2-  S206  1  0.25585961  0.87381899  0.45658324  1
  S2-  S207  1  0.24653412  0.88893222  0.94714572  1
  S2-  S208  1  0.50758844  0.12455252  0.45490086  1
  S2-  S209  1  0.48864578  0.15082323  0.95020302  1
  S2-  S210  1  0.51121759  0.37113563  0.45266815  1
  S2-  S211  1  0.49451918  0.38824940  0.95343060  1
  S2-  S212  1  0.50457877  0.63100666  0.45771834  1
  S2-  S213  1  0.49529308  0.63670851  0.95259817  1
  S2-  S214  1  0.50971754  0.87812659  0.44740852  1
  S2-  S215  1  0.49764113  0.88821401  0.95313944  1
  S2-  S216  1  0.75842666  0.12227818  0.45820405  1
  S2-  S217  1  0.75499014  0.13355475  0.94991064  1
  S2-  S218  1  0.75423834  0.37882133  0.44501706  1
  S2-  S219  1  0.75349665  0.39089109  0.95766769  1
  S2-  S220  1  0.75740066  0.62512179  0.45412312  1
  S2-  S221  1  0.75671573  0.64045706  0.95082097  1
  S2-  S222  1  0.75574089  0.88211053  0.46505580  1
  S2-  S223  1  0.75608558  0.89481995  0.95371771  1
  S2-  S224  1  0.12751782  0.01699537  0.04167019  1
  S2-  S225  1  0.13421558  0.00400689  0.55007261  1
  S2-  S226  1  0.12427013  0.26454939  0.04381234  1
  S2-  S227  1  0.13429716  0.25353550  0.54748890  1
  S2-  S228  1  0.12569240  0.51601221  0.05721459  1
  S2-  S229  1  0.13179202  0.50420900  0.55468613  1
  S2-  S230  1  0.13081723  0.76546040  0.04311531  1
  S2-  S231  1  0.13525611  0.75289248  0.54533438  1
  S2-  S232  1  0.37450947  0.01441573  0.04531223  1
  S2-  S233  1  0.38296650  0.00559730  0.53805296  1
  S2-  S234  1  0.37592505  0.26689456  0.05023995  1
  S2-  S235  1  0.38562416  0.25463640  0.54908245  1
  S2-  S236  1  0.37455820  0.51003265  0.04550752  1
  S2-  S237  1  0.38220295  0.50382035  0.54835882  1
  S2-  S238  1  0.37252569  0.76957001  0.04350617  1
  S2-  S239  1  0.38411096  0.74947984  0.54392828  1
  S2-  S240  1  0.62541457  0.01523617  0.04399298  1
  S2-  S241  1  0.63022013  0.00001451  0.54904746  1
  S2-  S242  1  0.62217747  0.26428094  0.03627061  1
  S2-  S243  1  0.63284802  0.24788301  0.54061373  1
  S2-  S244  1  0.62678307  0.50914162  0.04171357  1
  S2-  S245  1  0.63485975  0.50604525  0.53568533  1
  S2-  S246  1  0.62279230  0.76255481  0.03980364  1
  S2-  S247  1  0.62879290  0.75501725  0.54038855  1
  S2-  S248  1  0.87847003  0.01574841  0.05100512  1
  S2-  S249  1  0.88402614  -0.00034061  0.55874015  1
  S2-  S250  1  0.87999282  0.26330481  0.04597081  1
  S2-  S251  1  0.87438028  0.25347730  0.54070256  1
  S2-  S252  1  0.87192442  0.51145002  0.05541766  1
  S2-  S253  1  0.87817090  0.50157119  0.54397215  1
  S2-  S254  1  0.87997923  0.76657223  0.04294729  1
  S2-  S255  1  0.88537790  0.75270522  0.54556243  1
