# generated using pymatgen
data_La6Ce6Pr19Nd20Sm13(BiS2)64
_symmetry_space_group_name_H-M   'P 1'
_cell_length_a   16.14791766
_cell_length_b   16.13959920
_cell_length_c   27.18443714
_cell_angle_alpha   90.16735427
_cell_angle_beta   89.73372834
_cell_angle_gamma   89.98292562
_symmetry_Int_Tables_number   1
_chemical_formula_structural   La6Ce6Pr19Nd20Sm13(BiS2)64
_chemical_formula_sum   'La6 Ce6 Pr19 Nd20 Sm13 Bi64 S128'
_cell_volume   7084.72591613
_cell_formula_units_Z   1
loop_
 _symmetry_equiv_pos_site_id
 _symmetry_equiv_pos_as_xyz
  1  'x, y, z'
loop_
 _atom_type_symbol
 _atom_type_oxidation_number
  La3+  3.0
  Ce3+  3.0
  Pr3+  3.0
  Nd3+  3.0
  Sm3+  3.0
  Bi2+  2.0
  S2-  -2.0
loop_
 _atom_site_type_symbol
 _atom_site_label
 _atom_site_symmetry_multiplicity
 _atom_site_fract_x
 _atom_site_fract_y
 _atom_site_fract_z
 _atom_site_occupancy
  La3+  La0  1  0.12318306  0.76286161  0.41654952  1
  La3+  La1  1  0.88447175  0.48560155  0.92091159  1
  La3+  La2  1  -0.01029502  0.11018985  0.09433469  1
  La3+  La3  1  0.13205307  0.50633942  0.41780215  1
  La3+  La4  1  0.62599133  0.75548187  0.88196521  1
  La3+  La5  1  0.37141605  0.48942918  0.93068233  1
  Ce3+  Ce6  1  0.87481496  0.75962044  0.44940074  1
  Ce3+  Ce7  1  0.49356387  0.88701093  0.56687132  1
  Ce3+  Ce8  1  0.11803723  0.74178617  0.94324618  1
  Ce3+  Ce9  1  -0.01474684  0.61837409  0.06949069  1
  Ce3+  Ce10  1  0.00499328  0.63218068  0.55362376  1
  Ce3+  Ce11  1  0.75436043  0.13181645  0.56159756  1
  Pr3+  Pr12  1  0.62895947  0.00776415  0.44421666  1
  Pr3+  Pr13  1  0.87877785  0.74099411  0.92819182  1
  Pr3+  Pr14  1  0.00111636  0.38676468  0.55524863  1
  Pr3+  Pr15  1  0.47511808  0.63718896  0.58753721  1
  Pr3+  Pr16  1  0.37591127  0.73746644  0.93217928  1
  Pr3+  Pr17  1  0.62665761  0.24702845  0.92897709  1
  Pr3+  Pr18  1  0.25235447  0.11717479  0.07476967  1
  Pr3+  Pr19  1  0.49885103  0.61451671  0.05601133  1
  Pr3+  Pr20  1  0.86904717  0.00421115  0.43011197  1
  Pr3+  Pr21  1  0.12178870  0.48828083  0.94990294  1
  Pr3+  Pr22  1  -0.00960490  0.37022871  0.07676371  1
  Pr3+  Pr23  1  0.74884609  0.38923028  0.56276047  1
  Pr3+  Pr24  1  0.01142543  0.88444626  0.56088983  1
  Pr3+  Pr25  1  0.50152408  0.11876455  0.06203533  1
  Pr3+  Pr26  1  0.62827340  0.49490243  0.92857839  1
  Pr3+  Pr27  1  0.62203265  -0.00518730  0.93615217  1
  Pr3+  Pr28  1  0.12206342  0.23796660  0.95925137  1
  Pr3+  Pr29  1  0.87513135  0.50971809  0.43757853  1
  Pr3+  Pr30  1  -0.00684207  0.86735997  0.06852589  1
  Nd3+  Nd31  1  0.74860363  0.61648958  0.05053213  1
  Nd3+  Nd32  1  0.38160271  0.50778597  0.42801403  1
  Nd3+  Nd33  1  0.38307060  0.01012828  0.43451787  1
  Nd3+  Nd34  1  0.37092695  0.24291820  0.94014994  1
  Nd3+  Nd35  1  0.24596117  0.86319574  0.06786579  1
  Nd3+  Nd36  1  0.74607914  0.11678974  0.06291899  1
  Nd3+  Nd37  1  0.50025470  0.13023985  0.57094939  1
  Nd3+  Nd38  1  0.12470546  -0.00736047  0.95092896  1
  Nd3+  Nd39  1  0.12906782  0.00904476  0.42399913  1
  Nd3+  Nd40  1  0.37430378  -0.00977593  0.95050169  1
  Nd3+  Nd41  1  0.13316996  0.25743417  0.42574560  1
  Nd3+  Nd42  1  0.87333014  -0.00927512  0.94039261  1
  Nd3+  Nd43  1  0.00403549  0.13492335  0.54888040  1
  Nd3+  Nd44  1  0.24988667  0.13637790  0.55502614  1
  Nd3+  Nd45  1  0.24461939  0.36985020  0.07554273  1
  Nd3+  Nd46  1  0.76569671  0.89401663  0.58434817  1
  Nd3+  Nd47  1  0.37868323  0.25796931  0.43580384  1
  Nd3+  Nd48  1  0.50096403  0.36723123  0.05815344  1
  Nd3+  Nd49  1  0.38426411  0.75762594  0.43092393  1
  Nd3+  Nd50  1  0.62578933  0.51270913  0.44646785  1
  Sm3+  Sm51  1  0.50069206  0.38486649  0.55757182  1
  Sm3+  Sm52  1  0.25394806  0.38506639  0.55428975  1
  Sm3+  Sm53  1  0.87653068  0.24151190  0.94511953  1
  Sm3+  Sm54  1  0.87847305  0.25878527  0.43802420  1
  Sm3+  Sm55  1  0.49884122  0.86231152  0.05583299  1
  Sm3+  Sm56  1  0.75241289  0.36889707  0.05926972  1
  Sm3+  Sm57  1  0.62623220  0.75723498  0.45588280  1
  Sm3+  Sm58  1  0.62683154  0.25764041  0.44721920  1
  Sm3+  Sm59  1  0.74567481  0.64264914  0.57512529  1
  Sm3+  Sm60  1  0.74490827  0.86561770  0.05012699  1
  Sm3+  Sm61  1  0.24535153  0.61803618  0.05869048  1
  Sm3+  Sm62  1  0.24794375  0.88430103  0.54841106  1
  Sm3+  Sm63  1  0.24974768  0.63182470  0.54303891  1
  Bi2+  Bi64  1  -0.03875052  0.14320240  0.28673399  1
  Bi2+  Bi65  1  0.03364212  0.12522029  0.80146448  1
  Bi2+  Bi66  1  -0.03254716  0.37023704  0.29475330  1
  Bi2+  Bi67  1  0.00826399  0.35612352  0.79543546  1
  Bi2+  Bi68  1  -0.04175981  0.61556881  0.29572779  1
  Bi2+  Bi69  1  0.00118696  0.60794370  0.78980229  1
  Bi2+  Bi70  1  -0.00083811  0.86097468  0.29175694  1
  Bi2+  Bi71  1  0.00669364  0.87929166  0.79687524  1
  Bi2+  Bi72  1  0.31129945  0.12754307  0.28225158  1
  Bi2+  Bi73  1  0.32197877  0.15935178  0.81640714  1
  Bi2+  Bi74  1  0.29786649  0.36688376  0.28396741  1
  Bi2+  Bi75  1  0.23298528  0.34525766  0.79773209  1
  Bi2+  Bi76  1  0.34260769  0.62877027  0.28867856  1
  Bi2+  Bi77  1  0.21309580  0.60333373  0.78577059  1
  Bi2+  Bi78  1  0.25561814  0.86705897  0.28548563  1
  Bi2+  Bi79  1  0.20574035  0.89309904  0.77894050  1
  Bi2+  Bi80  1  0.48933850  0.15368121  0.33982743  1
  Bi2+  Bi81  1  0.52357318  0.16857513  0.82337608  1
  Bi2+  Bi82  1  0.47304017  0.37704113  0.32683900  1
  Bi2+  Bi83  1  0.50845542  0.34438198  0.76337025  1
  Bi2+  Bi84  1  0.52184964  0.59575707  0.33262664  1
  Bi2+  Bi85  1  0.48962604  0.62833160  0.78303339  1
  Bi2+  Bi86  1  0.56403475  0.97227685  0.32042161  1
  Bi2+  Bi87  1  0.48326479  0.97634651  0.79213703  1
  Bi2+  Bi88  1  0.70069929  0.10172990  0.28272967  1
  Bi2+  Bi89  1  0.72604984  0.15465234  0.80805062  1
  Bi2+  Bi90  1  0.66619207  0.35421030  0.27511080  1
  Bi2+  Bi91  1  0.74655532  0.34387934  0.78891183  1
  Bi2+  Bi92  1  0.71844128  0.66211981  0.29249382  1
  Bi2+  Bi93  1  0.75045073  0.62884007  0.76838849  1
  Bi2+  Bi94  1  0.70460461  0.84612715  0.24578869  1
  Bi2+  Bi95  1  0.76343945  0.88127948  0.77961518  1
  Bi2+  Bi96  1  0.12196338  0.00701768  0.20765784  1
  Bi2+  Bi97  1  0.08724708  -0.00058564  0.68449711  1
  Bi2+  Bi98  1  0.16200729  0.26292790  0.21352263  1
  Bi2+  Bi99  1  0.17999042  0.17937940  0.73289125  1
  Bi2+  Bi100  1  0.14763620  0.50570007  0.20986213  1
  Bi2+  Bi101  1  0.13155120  0.45618921  0.71761193  1
  Bi2+  Bi102  1  0.14001091  0.73123867  0.20515753  1
  Bi2+  Bi103  1  0.17024462  0.74036909  0.70701776  1
  Bi2+  Bi104  1  0.46548628  -0.00634113  0.22294971  1
  Bi2+  Bi105  1  0.34462854  -0.01928505  0.70947729  1
  Bi2+  Bi106  1  0.45806391  0.24247096  0.23739972  1
  Bi2+  Bi107  1  0.36395882  0.24248164  0.71167594  1
  Bi2+  Bi108  1  0.46507459  0.51153023  0.23080783  1
  Bi2+  Bi109  1  0.32141858  0.49821896  0.70802704  1
  Bi2+  Bi110  1  0.45121421  0.76488397  0.22918043  1
  Bi2+  Bi111  1  0.36650298  0.79668466  0.74082762  1
  Bi2+  Bi112  1  0.61892975  0.09234192  0.17776463  1
  Bi2+  Bi113  1  0.62239797  -0.00311531  0.70868683  1
  Bi2+  Bi114  1  0.63277610  0.28608222  0.15822440  1
  Bi2+  Bi115  1  0.60757311  0.19265701  0.71491871  1
  Bi2+  Bi116  1  0.65208995  0.48582227  0.18503097  1
  Bi2+  Bi117  1  0.63154357  0.46245853  0.69435916  1
  Bi2+  Bi118  1  0.62176452  0.68365217  0.19229431  1
  Bi2+  Bi119  1  0.59088292  0.80398345  0.68326363  1
  Bi2+  Bi120  1  0.83521190  -0.01437626  0.21297982  1
  Bi2+  Bi121  1  0.89287916  0.01695410  0.71082611  1
  Bi2+  Bi122  1  0.80526559  0.26122314  0.21202197  1
  Bi2+  Bi123  1  0.88748306  0.20945134  0.74560192  1
  Bi2+  Bi124  1  0.83534253  0.52492863  0.21131451  1
  Bi2+  Bi125  1  0.89604161  0.46519672  0.68769468  1
  Bi2+  Bi126  1  0.87535284  0.74824526  0.22682564  1
  Bi2+  Bi127  1  0.97237472  0.75104862  0.71178306  1
  S2-  S128  1  0.03897252  0.16246084  0.19086012  1
  S2-  S129  1  -0.00737339  0.12697419  0.64774918  1
  S2-  S130  1  0.06216361  0.38364628  0.17330791  1
  S2-  S131  1  0.01695517  0.36777569  0.65518914  1
  S2-  S132  1  0.04058909  0.61932284  0.16604399  1
  S2-  S133  1  -0.00967262  0.60775205  0.65091326  1
  S2-  S134  1  -0.00654777  0.95656349  0.15632561  1
  S2-  S135  1  -0.08466814  0.88749426  0.64681232  1
  S2-  S136  1  0.23734732  0.11887018  0.17590805  1
  S2-  S137  1  0.23377599  0.07729996  0.64806137  1
  S2-  S138  1  0.26541508  0.39360386  0.17428968  1
  S2-  S139  1  0.27121726  0.35596136  0.65067335  1
  S2-  S140  1  0.24371898  0.62994598  0.15760760  1
  S2-  S141  1  0.31406036  0.60092384  0.63277413  1
  S2-  S142  1  0.22040700  0.87685300  0.16809355  1
  S2-  S143  1  0.14760742  0.86190527  0.62833780  1
  S2-  S144  1  0.44074453  0.13051461  0.15583827  1
  S2-  S145  1  0.48170903  0.01175861  0.64327322  1
  S2-  S146  1  0.48387284  0.39112918  0.15640725  1
  S2-  S147  1  0.50976102  0.37143508  0.65503404  1
  S2-  S148  1  0.46433248  0.63983486  0.15401951  1
  S2-  S149  1  0.53963634  0.59644562  0.68101638  1
  S2-  S150  1  0.49508312  0.87138086  0.15499934  1
  S2-  S151  1  0.43114018  0.78825313  0.64367567  1
  S2-  S152  1  0.83823052  0.12513241  0.14831740  1
  S2-  S153  1  0.75916365  0.04116132  0.64477833  1
  S2-  S154  1  0.85240288  0.38341089  0.14376193  1
  S2-  S155  1  0.77379833  0.35698097  0.66084347  1
  S2-  S156  1  0.83850838  0.63250607  0.13681594  1
  S2-  S157  1  0.76364144  0.56934001  0.66572817  1
  S2-  S158  1  0.75993602  0.89376030  0.14809156  1
  S2-  S159  1  0.73925233  0.76852781  0.65125927  1
  S2-  S160  1  0.12527956  -0.04988393  0.32884397  1
  S2-  S161  1  0.11006041  -0.00494772  0.85166623  1
  S2-  S162  1  0.06918319  0.25845374  0.33071146  1
  S2-  S163  1  0.11011000  0.25450019  0.85908906  1
  S2-  S164  1  0.07337548  0.50123991  0.31988596  1
  S2-  S165  1  0.04201034  0.48861681  0.86062056  1
  S2-  S166  1  0.14729626  0.73773560  0.31595887  1
  S2-  S167  1  0.02096317  0.74016153  0.86141754  1
  S2-  S168  1  0.31667835  -0.00129809  0.34163946  1
  S2-  S169  1  0.34719587  -0.00437133  0.85309092  1
  S2-  S170  1  0.26959524  0.24879987  0.35576091  1
  S2-  S171  1  0.35846029  0.35553741  0.86321371  1
  S2-  S172  1  0.27311233  0.50229961  0.34860558  1
  S2-  S173  1  0.36136097  0.57519389  0.84032812  1
  S2-  S174  1  0.38040575  0.78999368  0.33196799  1
  S2-  S175  1  0.45552196  0.76020913  0.84425202  1
  S2-  S176  1  0.73087392  -0.01127846  0.36232982  1
  S2-  S177  1  0.63426065  -0.07427096  0.84427707  1
  S2-  S178  1  0.65187819  0.23391698  0.35068503  1
  S2-  S179  1  0.62559093  0.37047010  0.85283241  1
  S2-  S180  1  0.64657919  0.47722632  0.34946389  1
  S2-  S181  1  0.62571924  0.58982112  0.84083761  1
  S2-  S182  1  0.61432806  0.74328706  0.35746926  1
  S2-  S183  1  0.62374434  0.75157343  0.77188940  1
  S2-  S184  1  0.93618529  0.00508110  0.33524253  1
  S2-  S185  1  0.87188816  -0.03555822  0.84070344  1
  S2-  S186  1  0.86637584  0.25166273  0.33977801  1
  S2-  S187  1  0.87972533  0.33377146  0.86099847  1
  S2-  S188  1  0.86524132  0.49299892  0.33722825  1
  S2-  S189  1  0.85000182  0.54386372  0.82098709  1
  S2-  S190  1  0.89794428  0.76212588  0.35271898  1
  S2-  S191  1  0.79359394  0.75336649  0.83811956  1
  S2-  S192  1  0.00296777  0.13506307  0.44286598  1
  S2-  S193  1  -0.00445378  0.11371156  0.95925140  1
  S2-  S194  1  0.00296474  0.38274272  0.44652932  1
  S2-  S195  1  -0.00067362  0.36194598  0.96841810  1
  S2-  S196  1  0.00410957  0.63161034  0.44504049  1
  S2-  S197  1  -0.00128560  0.61582551  0.96223135  1
  S2-  S198  1  0.00303530  0.88631498  0.45003890  1
  S2-  S199  1  -0.00132240  0.87117089  0.96091388  1
  S2-  S200  1  0.25319039  0.12889173  0.45056889  1
  S2-  S201  1  0.25100954  0.11549992  0.96547998  1
  S2-  S202  1  0.25496303  0.38324837  0.45094924  1
  S2-  S203  1  0.24458977  0.36412117  0.96786595  1
  S2-  S204  1  0.25368171  0.63831551  0.44006883  1
  S2-  S205  1  0.24415944  0.61773195  0.95264377  1
  S2-  S206  1  0.25301381  0.88277113  0.44434342  1
  S2-  S207  1  0.24821642  0.86430249  0.95775929  1
  S2-  S208  1  0.50364191  0.13411401  0.46463108  1
  S2-  S209  1  0.49598303  0.11909295  0.95452110  1
  S2-  S210  1  0.50453108  0.38209532  0.45342628  1
  S2-  S211  1  0.49918576  0.36614000  0.95449589  1
  S2-  S212  1  0.49937639  0.63366042  0.46087195  1
  S2-  S213  1  0.49836873  0.61430277  0.95003573  1
  S2-  S214  1  0.50249059  0.88270555  0.45701729  1
  S2-  S215  1  0.50010124  0.86650182  0.95218389  1
  S2-  S216  1  0.75371131  0.13847829  0.45580020  1
  S2-  S217  1  0.75028852  0.11845845  0.95303483  1
  S2-  S218  1  0.75165401  0.38063890  0.45452973  1
  S2-  S219  1  0.75244067  0.36624121  0.95672936  1
  S2-  S220  1  0.75012652  0.63506277  0.46222138  1
  S2-  S221  1  0.75614580  0.61569003  0.94619165  1
  S2-  S222  1  0.74972311  0.87746573  0.47070252  1
  S2-  S223  1  0.74623364  0.86575459  0.94759469  1
  S2-  S224  1  0.12439952  -0.00680192  0.05668072  1
  S2-  S225  1  0.12891027  0.01261770  0.53204477  1
  S2-  S226  1  0.12051144  0.23939992  0.06552674  1
  S2-  S227  1  0.12876274  0.26200406  0.53901230  1
  S2-  S228  1  0.12135616  0.49488181  0.05615702  1
  S2-  S229  1  0.13067873  0.50581992  0.53681224  1
  S2-  S230  1  0.11998893  0.74210831  0.05098239  1
  S2-  S231  1  0.12814976  0.75324231  0.52774120  1
  S2-  S232  1  0.37368268  -0.01304395  0.05694229  1
  S2-  S233  1  0.36925954  0.00901343  0.54100661  1
  S2-  S234  1  0.37131522  0.24651532  0.05049505  1
  S2-  S235  1  0.37921851  0.25803628  0.54600290  1
  S2-  S236  1  0.36842198  0.49269952  0.04683839  1
  S2-  S237  1  0.37751135  0.50273640  0.53555500  1
  S2-  S238  1  0.37081093  0.74137585  0.04428210  1
  S2-  S239  1  0.36521265  0.75971126  0.53567554  1
  S2-  S240  1  0.62117834  -0.01094233  0.04420164  1
  S2-  S241  1  0.62747131  0.00859933  0.54919167  1
  S2-  S242  1  0.62630139  0.24307168  0.03759607  1
  S2-  S243  1  0.62434521  0.25718683  0.55332543  1
  S2-  S244  1  0.62633843  0.49073616  0.04111271  1
  S2-  S245  1  0.62050451  0.51370469  0.55386126  1
  S2-  S246  1  0.62327710  0.74209908  0.05103072  1
  S2-  S247  1  0.60879076  0.75066803  0.55725227  1
  S2-  S248  1  0.86927935  -0.00868746  0.04558018  1
  S2-  S249  1  0.88288435  0.01183787  0.53834904  1
  S2-  S250  1  0.87299692  0.23945909  0.04785086  1
  S2-  S251  1  0.87668439  0.25991995  0.54461747  1
  S2-  S252  1  0.87133087  0.49140004  0.03739625  1
  S2-  S253  1  0.87383829  0.51274763  0.54519645  1
  S2-  S254  1  0.87042100  0.74930610  0.03829033  1
  S2-  S255  1  0.88079442  0.75458608  0.55193496  1
