# generated using pymatgen
data_La6Ce6Pr19Nd20Sm13(BiS2)64
_symmetry_space_group_name_H-M   'P 1'
_cell_length_a   16.09731278
_cell_length_b   16.06255681
_cell_length_c   27.35953067
_cell_angle_alpha   89.57001125
_cell_angle_beta   90.16831867
_cell_angle_gamma   90.07709499
_symmetry_Int_Tables_number   1
_chemical_formula_structural   La6Ce6Pr19Nd20Sm13(BiS2)64
_chemical_formula_sum   'La6 Ce6 Pr19 Nd20 Sm13 Bi64 S128'
_cell_volume   7073.95378483
_cell_formula_units_Z   1
loop_
 _symmetry_equiv_pos_site_id
 _symmetry_equiv_pos_as_xyz
  1  'x, y, z'
loop_
 _atom_type_symbol
 _atom_type_oxidation_number
  La3+  3.0
  Ce3+  3.0
  Pr3+  3.0
  Nd3+  3.0
  Sm3+  3.0
  Bi2+  2.0
  S2-  -2.0
loop_
 _atom_site_type_symbol
 _atom_site_label
 _atom_site_symmetry_multiplicity
 _atom_site_fract_x
 _atom_site_fract_y
 _atom_site_fract_z
 _atom_site_occupancy
  La3+  La0  1  0.13902051  -0.01834752  0.41149987  1
  La3+  La1  1  -0.01052651  0.12563628  0.08714671  1
  La3+  La2  1  0.88585395  0.49706050  0.42928458  1
  La3+  La3  1  0.13551947  0.49681757  0.41985409  1
  La3+  La4  1  -0.01298887  0.86859676  0.07620595  1
  La3+  La5  1  0.24957713  0.86391677  0.07274319  1
  Ce3+  Ce6  1  0.88808425  0.24208150  0.43725167  1
  Ce3+  Ce7  1  0.61916544  0.75279979  0.93787675  1
  Ce3+  Ce8  1  0.63283636  0.24219897  0.43964291  1
  Ce3+  Ce9  1  0.88795921  -0.00762329  0.44490185  1
  Ce3+  Ce10  1  0.38242707  -0.00693465  0.43657874  1
  Ce3+  Ce11  1  0.13420752  0.74676049  0.45145021  1
  Pr3+  Pr12  1  0.73882027  0.12451679  0.06243836  1
  Pr3+  Pr13  1  0.86718971  0.00797842  0.93251396  1
  Pr3+  Pr14  1  0.01014758  0.61023605  0.57063134  1
  Pr3+  Pr15  1  0.62013218  0.00492233  0.92239515  1
  Pr3+  Pr16  1  0.49018676  0.62847916  0.05147973  1
  Pr3+  Pr17  1  0.86025525  0.75204923  0.91314936  1
  Pr3+  Pr18  1  0.63565426  0.49510739  0.42457406  1
  Pr3+  Pr19  1  0.23896652  0.62824306  0.04813471  1
  Pr3+  Pr20  1  0.36207568  0.01173147  0.93801879  1
  Pr3+  Pr21  1  0.49215288  0.12458745  0.06822300  1
  Pr3+  Pr22  1  0.01258729  0.11361135  0.55189850  1
  Pr3+  Pr23  1  0.74277470  0.87945680  0.05770091  1
  Pr3+  Pr24  1  0.11526685  0.76309627  0.92484501  1
  Pr3+  Pr25  1  0.01659790  0.86014140  0.59222814  1
  Pr3+  Pr26  1  0.24001810  0.37552453  0.07105981  1
  Pr3+  Pr27  1  0.26192930  0.86812358  0.57252322  1
  Pr3+  Pr28  1  0.76188575  0.11522932  0.55992328  1
  Pr3+  Pr29  1  0.25592063  0.11511912  0.55109082  1
  Pr3+  Pr30  1  0.75811223  0.61367527  0.56538278  1
  Nd3+  Nd31  1  0.38443074  0.74660837  0.44302765  1
  Nd3+  Nd32  1  0.49118296  0.37685040  0.05973105  1
  Nd3+  Nd33  1  0.50846226  0.11810785  0.56335705  1
  Nd3+  Nd34  1  0.13874095  0.24627165  0.39830125  1
  Nd3+  Nd35  1  0.24691528  0.11678762  0.07548613  1
  Nd3+  Nd36  1  0.36301095  0.76815486  0.92063585  1
  Nd3+  Nd37  1  0.88721810  0.74819622  0.44645317  1
  Nd3+  Nd38  1  0.50960766  0.36832023  0.55536883  1
  Nd3+  Nd39  1  0.61275929  0.50013208  0.93456156  1
  Nd3+  Nd40  1  0.25907429  0.36627305  0.55215667  1
  Nd3+  Nd41  1  0.63356843  -0.00630541  0.44865931  1
  Nd3+  Nd42  1  0.01149332  0.36924147  0.55594924  1
  Nd3+  Nd43  1  0.75940757  0.36626881  0.55431370  1
  Nd3+  Nd44  1  0.86902549  0.25279723  0.94339769  1
  Nd3+  Nd45  1  0.87123000  0.50341232  0.93291243  1
  Nd3+  Nd46  1  0.61387659  0.25188001  0.93844469  1
  Nd3+  Nd47  1  0.38317752  0.24251988  0.43134101  1
  Nd3+  Nd48  1  0.74132934  0.62684198  0.05742230  1
  Nd3+  Nd49  1  0.50499781  0.86674619  0.57254067  1
  Nd3+  Nd50  1  0.10777015  0.00698662  0.93448426  1
  Sm3+  Sm51  1  0.26060944  0.61389822  0.55922909  1
  Sm3+  Sm52  1  0.36088850  0.24991907  0.94487674  1
  Sm3+  Sm53  1  -0.01046103  0.37657387  0.05881747  1
  Sm3+  Sm54  1  0.36413262  0.50289339  0.94196596  1
  Sm3+  Sm55  1  0.11576169  0.24987911  0.94945642  1
  Sm3+  Sm56  1  0.74152067  0.37727367  0.05446654  1
  Sm3+  Sm57  1  0.49437840  0.87758213  0.05288885  1
  Sm3+  Sm58  1  0.51037443  0.61385305  0.55348278  1
  Sm3+  Sm59  1  0.11982444  0.50296484  0.93782516  1
  Sm3+  Sm60  1  -0.01031628  0.62991899  0.04885550  1
  Sm3+  Sm61  1  0.63426775  0.74589023  0.45068480  1
  Sm3+  Sm62  1  0.38182193  0.49413763  0.43451059  1
  Sm3+  Sm63  1  0.76058744  0.86520809  0.56552128  1
  Bi2+  Bi64  1  -0.05052138  0.11977709  0.29550257  1
  Bi2+  Bi65  1  0.00344882  0.13990810  0.79513704  1
  Bi2+  Bi66  1  -0.04036424  0.41475088  0.29690534  1
  Bi2+  Bi67  1  -0.00215866  0.35127726  0.79530947  1
  Bi2+  Bi68  1  0.02243396  0.62167409  0.26091284  1
  Bi2+  Bi69  1  -0.00283187  0.62941069  0.79218978  1
  Bi2+  Bi70  1  -0.00963181  0.85998267  0.30219308  1
  Bi2+  Bi71  1  0.02838628  0.90021310  0.78201897  1
  Bi2+  Bi72  1  0.35250243  0.11184560  0.28685548  1
  Bi2+  Bi73  1  0.23356562  0.10338393  0.79338454  1
  Bi2+  Bi74  1  0.26620445  0.39413559  0.28757935  1
  Bi2+  Bi75  1  0.19368664  0.36188443  0.82505621  1
  Bi2+  Bi76  1  0.23258972  0.64536216  0.27999607  1
  Bi2+  Bi77  1  0.26905421  0.55811143  0.75499241  1
  Bi2+  Bi78  1  0.27314327  0.83720897  0.29787008  1
  Bi2+  Bi79  1  0.26733321  0.83419819  0.79203929  1
  Bi2+  Bi80  1  0.52342834  0.16340963  0.32779776  1
  Bi2+  Bi81  1  0.48926891  0.11526630  0.78815972  1
  Bi2+  Bi82  1  0.48276148  0.44485853  0.32313659  1
  Bi2+  Bi83  1  0.48922300  0.44166697  0.80900265  1
  Bi2+  Bi84  1  0.53867885  0.63064828  0.30168704  1
  Bi2+  Bi85  1  0.54023720  0.63811106  0.75484480  1
  Bi2+  Bi86  1  0.51488164  0.96524693  0.29039798  1
  Bi2+  Bi87  1  0.52629154  0.91606957  0.79884810  1
  Bi2+  Bi88  1  0.71871348  0.13319772  0.26890509  1
  Bi2+  Bi89  1  0.78000599  0.18663595  0.77192114  1
  Bi2+  Bi90  1  0.66758345  0.40310039  0.28935401  1
  Bi2+  Bi91  1  0.79999946  0.37777095  0.80411330  1
  Bi2+  Bi92  1  0.72560577  0.58345274  0.26147185  1
  Bi2+  Bi93  1  0.72986516  0.63962803  0.78719853  1
  Bi2+  Bi94  1  0.75371128  0.84466856  0.31330291  1
  Bi2+  Bi95  1  0.71926235  0.91774235  0.77066426  1
  Bi2+  Bi96  1  0.13608919  0.03491345  0.21731374  1
  Bi2+  Bi97  1  0.14406582  0.02172876  0.70307164  1
  Bi2+  Bi98  1  0.08588692  0.27520228  0.21304369  1
  Bi2+  Bi99  1  0.17623470  0.26361280  0.72419084  1
  Bi2+  Bi100  1  0.16113125  0.54498373  0.19133940  1
  Bi2+  Bi101  1  0.12061896  0.45513955  0.71398695  1
  Bi2+  Bi102  1  0.12838554  0.78998628  0.19365598  1
  Bi2+  Bi103  1  0.14014058  0.72174282  0.71401434  1
  Bi2+  Bi104  1  0.39870853  -0.02119806  0.20027162  1
  Bi2+  Bi105  1  0.37879211  0.01732765  0.71125037  1
  Bi2+  Bi106  1  0.45187187  0.28285614  0.24333555  1
  Bi2+  Bi107  1  0.35514220  0.27915709  0.77909504  1
  Bi2+  Bi108  1  0.39099335  0.55445834  0.23434507  1
  Bi2+  Bi109  1  0.39283551  0.43613292  0.70325339  1
  Bi2+  Bi110  1  0.46960429  0.73696892  0.21257078  1
  Bi2+  Bi111  1  0.38679427  0.74194900  0.71961028  1
  Bi2+  Bi112  1  0.61371821  -0.00810986  0.14323403  1
  Bi2+  Bi113  1  0.60738961  0.02999140  0.70142248  1
  Bi2+  Bi114  1  0.58265747  0.17016113  0.19226450  1
  Bi2+  Bi115  1  0.61704071  0.29489946  0.80180073  1
  Bi2+  Bi116  1  0.57276905  0.45848843  0.18959803  1
  Bi2+  Bi117  1  0.60944014  0.47111811  0.69953058  1
  Bi2+  Bi118  1  0.63565617  0.84407902  0.21958419  1
  Bi2+  Bi119  1  0.57465155  0.81998105  0.70089272  1
  Bi2+  Bi120  1  0.78674012  -0.01418256  0.20585105  1
  Bi2+  Bi121  1  0.88510423  0.07234728  0.70012119  1
  Bi2+  Bi122  1  0.81723285  0.27122934  0.20395610  1
  Bi2+  Bi123  1  0.88596876  0.30793625  0.70068570  1
  Bi2+  Bi124  1  0.88449251  0.50676922  0.20917706  1
  Bi2+  Bi125  1  0.86316745  0.50372787  0.70724540  1
  Bi2+  Bi126  1  0.87519445  0.73050329  0.20447900  1
  Bi2+  Bi127  1  0.86999544  0.76403255  0.70856086  1
  S2-  S128  1  0.00325209  0.12906316  0.19416972  1
  S2-  S129  1  0.02415830  0.12240989  0.65296386  1
  S2-  S130  1  -0.03941102  0.34042462  0.15352087  1
  S2-  S131  1  0.00672189  0.47272712  0.63805147  1
  S2-  S132  1  0.00189540  0.71173959  0.13496814  1
  S2-  S133  1  0.00585810  0.70899104  0.65558784  1
  S2-  S134  1  0.02993243  0.91864705  0.17683370  1
  S2-  S135  1  -0.05368151  0.91263090  0.68205784  1
  S2-  S136  1  0.18283788  0.17158468  0.16263828  1
  S2-  S137  1  0.26619855  0.09985862  0.65147991  1
  S2-  S138  1  0.20508824  0.38891929  0.16972488  1
  S2-  S139  1  0.24815440  0.37581491  0.65094249  1
  S2-  S140  1  0.24177848  0.68858350  0.14088788  1
  S2-  S141  1  0.25753314  0.62982228  0.65669488  1
  S2-  S142  1  0.23573268  0.92515924  0.16897540  1
  S2-  S143  1  0.16021485  0.86491122  0.65720535  1
  S2-  S144  1  0.38268014  0.11655777  0.14700457  1
  S2-  S145  1  0.48483244  0.12885913  0.66083793  1
  S2-  S146  1  0.43651484  0.37651807  0.15331371  1
  S2-  S147  1  0.51880792  0.35093016  0.65367523  1
  S2-  S148  1  0.53698432  0.61099246  0.14777187  1
  S2-  S149  1  0.53327462  0.59671867  0.64961600  1
  S2-  S150  1  0.41314700  0.83243305  0.13525447  1
  S2-  S151  1  0.38665484  0.87508321  0.64654764  1
  S2-  S152  1  0.83064279  0.12478404  0.14719106  1
  S2-  S153  1  0.73323467  0.13403370  0.65716859  1
  S2-  S154  1  0.71781196  0.36425237  0.15202342  1
  S2-  S155  1  0.75112134  0.40138453  0.65121499  1
  S2-  S156  1  0.77212635  0.61777664  0.15523662  1
  S2-  S157  1  0.77705512  0.62776703  0.66591859  1
  S2-  S158  1  0.83678122  0.85250269  0.14230576  1
  S2-  S159  1  0.74850954  0.84724237  0.66265518  1
  S2-  S160  1  0.07438783  -0.00284274  0.31575030  1
  S2-  S161  1  0.14810556  -0.10340070  0.85647741  1
  S2-  S162  1  0.09313368  0.18951527  0.30547150  1
  S2-  S163  1  0.12579837  0.15016751  0.86761134  1
  S2-  S164  1  0.12398692  0.38683517  0.33515664  1
  S2-  S165  1  0.04437112  0.49422460  0.85050438  1
  S2-  S166  1  0.12721613  0.81041969  0.35989141  1
  S2-  S167  1  0.13067179  0.69103031  0.82787199  1
  S2-  S168  1  0.29042961  -0.01554800  0.35194158  1
  S2-  S169  1  0.37169369  -0.08813420  0.85394221  1
  S2-  S170  1  0.29298009  0.24976633  0.34487055  1
  S2-  S171  1  0.36059295  0.14690538  0.86547833  1
  S2-  S172  1  0.27924763  0.52215837  0.35466871  1
  S2-  S173  1  0.31897756  0.48290300  0.84849603  1
  S2-  S174  1  0.39536748  0.76995300  0.34437542  1
  S2-  S175  1  0.36876047  0.70912148  0.82556560  1
  S2-  S176  1  0.64862233  -0.02105216  0.35051738  1
  S2-  S177  1  0.75077315  -0.01282529  0.85220150  1
  S2-  S178  1  0.67598737  0.25355638  0.34532306  1
  S2-  S179  1  0.60627421  0.14743716  0.85947516  1
  S2-  S180  1  0.76230602  0.51099336  0.35430776  1
  S2-  S181  1  0.65095187  0.50655272  0.83855730  1
  S2-  S182  1  0.64180396  0.73973620  0.35376724  1
  S2-  S183  1  0.70285640  0.75676224  0.85250972  1
  S2-  S184  1  0.87764905  -0.02889351  0.34721658  1
  S2-  S185  1  0.98231270  -0.00201795  0.85429236  1
  S2-  S186  1  0.89759873  0.26668504  0.34016956  1
  S2-  S187  1  0.87419780  0.16836581  0.85805625  1
  S2-  S188  1  1.00065631  0.54601618  0.35628965  1
  S2-  S189  1  0.85720260  0.60287195  0.85235971  1
  S2-  S190  1  0.87648546  0.74610477  0.34611888  1
  S2-  S191  1  0.92237727  0.78917153  0.81444273  1
  S2-  S192  1  0.01763088  0.11771716  0.44368395  1
  S2-  S193  1  -0.00832922  0.13224507  0.96948657  1
  S2-  S194  1  0.01498875  0.36381681  0.45008168  1
  S2-  S195  1  -0.00574135  0.37744404  0.95414248  1
  S2-  S196  1  0.01040581  0.62424075  0.46370572  1
  S2-  S197  1  -0.00376297  0.62837485  0.94749332  1
  S2-  S198  1  0.01115888  0.87211049  0.45978242  1
  S2-  S199  1  -0.01490753  0.87476658  0.95479439  1
  S2-  S200  1  0.25240091  0.12079480  0.44614286  1
  S2-  S201  1  0.23790585  0.12996336  0.96983318  1
  S2-  S202  1  0.25997715  0.36731381  0.44809820  1
  S2-  S203  1  0.24046401  0.37742951  0.96228613  1
  S2-  S204  1  0.26144441  0.62264762  0.45555817  1
  S2-  S205  1  0.24216104  0.62854400  0.94201812  1
  S2-  S206  1  0.26191067  0.86929781  0.46280918  1
  S2-  S207  1  0.24004590  0.88444259  0.96096420  1
  S2-  S208  1  0.50687298  0.11778730  0.45661511  1
  S2-  S209  1  0.48938159  0.13274958  0.96244802  1
  S2-  S210  1  0.50756477  0.36885098  0.44905768  1
  S2-  S211  1  0.48554630  0.37546022  0.95181405  1
  S2-  S212  1  0.50911744  0.61831397  0.44914272  1
  S2-  S213  1  0.48889407  0.62685549  0.94194811  1
  S2-  S214  1  0.50973088  0.86929421  0.46032076  1
  S2-  S215  1  0.49756991  0.87995181  0.94910705  1
  S2-  S216  1  0.76030258  0.11719155  0.45258948  1
  S2-  S217  1  0.74083921  0.13262556  0.95741323  1
  S2-  S218  1  0.75925556  0.36568753  0.44990156  1
  S2-  S219  1  0.74191992  0.37819441  0.94948934  1
  S2-  S220  1  0.75799238  0.62528748  0.45830005  1
  S2-  S221  1  0.73777687  0.62100798  0.95281783  1
  S2-  S222  1  0.75795806  0.86885017  0.46089801  1
  S2-  S223  1  0.74344359  0.87493434  0.95346035  1
  S2-  S224  1  0.11511716  -0.00015668  0.05914844  1
  S2-  S225  1  0.13288830  -0.01315024  0.54874851  1
  S2-  S226  1  0.11206502  0.25462027  0.05264609  1
  S2-  S227  1  0.13387309  0.24426740  0.55068302  1
  S2-  S228  1  0.11246930  0.50173962  0.04425528  1
  S2-  S229  1  0.13934843  0.49258271  0.53801622  1
  S2-  S230  1  0.11545836  0.75199245  0.03433637  1
  S2-  S231  1  0.13815389  0.73799997  0.55392737  1
  S2-  S232  1  0.37072167  -0.00371615  0.04430478  1
  S2-  S233  1  0.38694539  -0.00534630  0.54306539  1
  S2-  S234  1  0.36453149  0.25399494  0.04861916  1
  S2-  S235  1  0.38492626  0.24167752  0.54153666  1
  S2-  S236  1  0.36457940  0.50193851  0.04710963  1
  S2-  S237  1  0.38489341  0.49313789  0.54121126  1
  S2-  S238  1  0.36926832  0.74917980  0.02755922  1
  S2-  S239  1  0.38690940  0.73632374  0.54957900  1
  S2-  S240  1  0.61551671  0.00213751  0.03068219  1
  S2-  S241  1  0.63301220  -0.01127483  0.55508100  1
  S2-  S242  1  0.61622454  0.25478859  0.04567171  1
  S2-  S243  1  0.63381327  0.24156607  0.54697450  1
  S2-  S244  1  0.61665229  0.49974918  0.04089904  1
  S2-  S245  1  0.63403942  0.49160132  0.53728356  1
  S2-  S246  1  0.61752969  0.75252883  0.04538837  1
  S2-  S247  1  0.63176335  0.74291501  0.55494028  1
  S2-  S248  1  0.86938746  0.00346516  0.04542109  1
  S2-  S249  1  0.88545993  -0.01361323  0.55255655  1
  S2-  S250  1  0.86455996  0.25553361  0.04735053  1
  S2-  S251  1  0.88638545  0.24257570  0.54570651  1
  S2-  S252  1  0.86710703  0.50133111  0.04220188  1
  S2-  S253  1  0.88087244  0.49142748  0.53885421  1
  S2-  S254  1  0.86303150  0.74546126  0.03344444  1
  S2-  S255  1  0.88300699  0.74346056  0.55320377  1
