# generated using pymatgen
data_La6Ce6Pr19Nd20Sm13(BiS2)64
_symmetry_space_group_name_H-M   'P 1'
_cell_length_a   16.12359353
_cell_length_b   16.09622062
_cell_length_c   27.34089763
_cell_angle_alpha   90.38920484
_cell_angle_beta   90.06896972
_cell_angle_gamma   90.07037769
_symmetry_Int_Tables_number   1
_chemical_formula_structural   La6Ce6Pr19Nd20Sm13(BiS2)64
_chemical_formula_sum   'La6 Ce6 Pr19 Nd20 Sm13 Bi64 S128'
_cell_volume   7095.57931956
_cell_formula_units_Z   1
loop_
 _symmetry_equiv_pos_site_id
 _symmetry_equiv_pos_as_xyz
  1  'x, y, z'
loop_
 _atom_type_symbol
 _atom_type_oxidation_number
  La3+  3.0
  Ce3+  3.0
  Pr3+  3.0
  Nd3+  3.0
  Sm3+  3.0
  Bi2+  2.0
  S2-  -2.0
loop_
 _atom_site_type_symbol
 _atom_site_label
 _atom_site_symmetry_multiplicity
 _atom_site_fract_x
 _atom_site_fract_y
 _atom_site_fract_z
 _atom_site_occupancy
  La3+  La0  1  0.75049852  0.12060562  0.11178877  1
  La3+  La1  1  0.88416088  -0.00510050  0.41808541  1
  La3+  La2  1  -0.00152207  0.38680395  0.57408674  1
  La3+  La3  1  0.50523174  0.60069344  0.09260768  1
  La3+  La4  1  0.50673629  0.38807682  0.58340860  1
  La3+  La5  1  0.37391786  0.49360067  0.41939129  1
  Ce3+  Ce6  1  0.37770406  0.48164696  0.93469717  1
  Ce3+  Ce7  1  0.12817692  0.74837595  0.44909849  1
  Ce3+  Ce8  1  0.24816800  0.10965276  0.06327859  1
  Ce3+  Ce9  1  0.25112602  0.60595378  0.05549315  1
  Ce3+  Ce10  1  0.75155187  0.86551782  0.06165045  1
  Ce3+  Ce11  1  0.12598169  0.25171264  0.45265179  1
  Pr3+  Pr12  1  0.74971986  0.62744930  0.55511745  1
  Pr3+  Pr13  1  -0.00060243  0.63233691  0.56897274  1
  Pr3+  Pr14  1  0.50044914  0.10897280  0.06551596  1
  Pr3+  Pr15  1  0.25356716  0.85676655  0.06337787  1
  Pr3+  Pr16  1  0.62534494  0.22232509  0.92970694  1
  Pr3+  Pr17  1  0.12521537  0.50145595  0.43668546  1
  Pr3+  Pr18  1  0.00604269  0.10904421  0.06665790  1
  Pr3+  Pr19  1  0.75121103  0.60684196  0.05945052  1
  Pr3+  Pr20  1  0.62809598  -0.01668298  0.94353331  1
  Pr3+  Pr21  1  0.88289985  0.24883028  0.44226142  1
  Pr3+  Pr22  1  0.62487317  0.00315230  0.43729316  1
  Pr3+  Pr23  1  0.62415454  0.48061781  0.93144188  1
  Pr3+  Pr24  1  0.75112145  0.35547787  0.05317963  1
  Pr3+  Pr25  1  0.62980008  0.73200706  0.93814390  1
  Pr3+  Pr26  1  0.25171219  0.38360335  0.57159531  1
  Pr3+  Pr27  1  -0.00211444  0.60478835  0.05526447  1
  Pr3+  Pr28  1  0.62344389  0.25115943  0.44542580  1
  Pr3+  Pr29  1  0.50118469  0.35658668  0.05463761  1
  Pr3+  Pr30  1  0.87552346  0.50210737  0.42854101  1
  Nd3+  Nd31  1  0.37385319  0.00276236  0.43531007  1
  Nd3+  Nd32  1  0.37636574  0.22162627  0.92523191  1
  Nd3+  Nd33  1  0.87631355  0.22730996  0.93346284  1
  Nd3+  Nd34  1  0.74939546  0.12877948  0.55732071  1
  Nd3+  Nd35  1  0.49308065  0.11770666  0.58269614  1
  Nd3+  Nd36  1  0.74959098  0.88210740  0.55732190  1
  Nd3+  Nd37  1  0.12906943  0.00399732  0.44227674  1
  Nd3+  Nd38  1  0.12621433  0.48028981  0.92959387  1
  Nd3+  Nd39  1  0.49689026  0.87682018  0.56080296  1
  Nd3+  Nd40  1  0.62538676  0.75357757  0.43884015  1
  Nd3+  Nd41  1  0.37393836  -0.02177390  0.93955259  1
  Nd3+  Nd42  1  0.25669009  0.62743451  0.56435638  1
  Nd3+  Nd43  1  0.62596441  0.49754542  0.42840180  1
  Nd3+  Nd44  1  0.00152071  0.86189495  0.06248220  1
  Nd3+  Nd45  1  0.24627231  0.13406854  0.57925045  1
  Nd3+  Nd46  1  0.12698007  0.22453449  0.92666844  1
  Nd3+  Nd47  1  0.00121152  0.12109650  0.57526638  1
  Nd3+  Nd48  1  0.37644877  0.75559419  0.42210704  1
  Nd3+  Nd49  1  0.00145557  0.35684174  0.05216664  1
  Nd3+  Nd50  1  0.25204505  0.35958621  0.04731360  1
  Sm3+  Sm51  1  0.74984354  0.37784447  0.55505327  1
  Sm3+  Sm52  1  0.37691628  0.25549623  0.45437057  1
  Sm3+  Sm53  1  0.00085921  0.87887766  0.56065631  1
  Sm3+  Sm54  1  0.12509494  -0.01869549  0.93733544  1
  Sm3+  Sm55  1  0.87923163  0.75371231  0.43923911  1
  Sm3+  Sm56  1  0.37726911  0.73168065  0.94701868  1
  Sm3+  Sm57  1  0.50329879  0.85856174  0.05873973  1
  Sm3+  Sm58  1  0.87485728  0.47092645  0.92561883  1
  Sm3+  Sm59  1  0.25415886  0.87818426  0.55810780  1
  Sm3+  Sm60  1  0.49843412  0.62905063  0.55073567  1
  Sm3+  Sm61  1  0.12422337  0.73286193  0.94696319  1
  Sm3+  Sm62  1  0.87695385  0.73177262  0.94606837  1
  Sm3+  Sm63  1  0.87685400  -0.01270218  0.93976880  1
  Bi2+  Bi64  1  -0.01885264  0.15590294  0.31225273  1
  Bi2+  Bi65  1  0.00665847  0.09526272  0.78727316  1
  Bi2+  Bi66  1  -0.02997904  0.46545863  0.26060574  1
  Bi2+  Bi67  1  0.00474705  0.42311187  0.79631769  1
  Bi2+  Bi68  1  -0.06197785  0.64308109  0.31099083  1
  Bi2+  Bi69  1  0.00730044  0.70450782  0.77959684  1
  Bi2+  Bi70  1  0.02076789  0.85413357  0.30468865  1
  Bi2+  Bi71  1  0.02057765  0.90257819  0.81299238  1
  Bi2+  Bi72  1  0.22800851  0.09032870  0.31171458  1
  Bi2+  Bi73  1  0.25740800  0.06302036  0.78410775  1
  Bi2+  Bi74  1  0.27669009  0.36934177  0.28390138  1
  Bi2+  Bi75  1  0.24707705  0.39072351  0.80541310  1
  Bi2+  Bi76  1  0.20063976  0.61779157  0.28971960  1
  Bi2+  Bi77  1  0.29335067  0.71639272  0.74654387  1
  Bi2+  Bi78  1  0.23704334  0.89730108  0.29904308  1
  Bi2+  Bi79  1  0.22729464  0.87559152  0.81458558  1
  Bi2+  Bi80  1  0.41808219  0.11869749  0.29035185  1
  Bi2+  Bi81  1  0.50912739  0.14781712  0.80152327  1
  Bi2+  Bi82  1  0.50571249  0.37046141  0.29608969  1
  Bi2+  Bi83  1  0.51063958  0.40075100  0.79782062  1
  Bi2+  Bi84  1  0.49811322  0.64619417  0.28716486  1
  Bi2+  Bi85  1  0.48550181  0.63312975  0.72952344  1
  Bi2+  Bi86  1  0.42875717  0.92690436  0.25351361  1
  Bi2+  Bi87  1  0.48835508  0.86100421  0.79751146  1
  Bi2+  Bi88  1  0.72605437  0.14972999  0.31167401  1
  Bi2+  Bi89  1  0.75469111  0.09441940  0.78805893  1
  Bi2+  Bi90  1  0.77436719  0.40852080  0.23315623  1
  Bi2+  Bi91  1  0.78578364  0.42868134  0.78636916  1
  Bi2+  Bi92  1  0.73991287  0.61884317  0.29036851  1
  Bi2+  Bi93  1  0.72815867  0.74077982  0.77205198  1
  Bi2+  Bi94  1  0.70472868  0.87093005  0.30472477  1
  Bi2+  Bi95  1  0.81792078  0.90474328  0.80928209  1
  Bi2+  Bi96  1  0.13778908  -0.01357005  0.20315583  1
  Bi2+  Bi97  1  0.12661338  -0.04399572  0.71902984  1
  Bi2+  Bi98  1  0.13885197  0.23910497  0.25974976  1
  Bi2+  Bi99  1  0.13269693  0.23555399  0.71937614  1
  Bi2+  Bi100  1  0.12580807  0.44972295  0.18980431  1
  Bi2+  Bi101  1  0.10120926  0.48747433  0.69792276  1
  Bi2+  Bi102  1  0.06126393  0.71898167  0.22600415  1
  Bi2+  Bi103  1  0.12685692  0.68623728  0.68586061  1
  Bi2+  Bi104  1  0.32413608  0.05946249  0.18783067  1
  Bi2+  Bi105  1  0.38297288  -0.03574181  0.71281041  1
  Bi2+  Bi106  1  0.35603822  0.25135344  0.19889908  1
  Bi2+  Bi107  1  0.38814189  0.23471002  0.71287040  1
  Bi2+  Bi108  1  0.36944952  0.50593623  0.20277331  1
  Bi2+  Bi109  1  0.32294553  0.51910531  0.73556907  1
  Bi2+  Bi110  1  0.29327096  0.73603973  0.22373611  1
  Bi2+  Bi111  1  0.39462509  0.74729361  0.64841105  1
  Bi2+  Bi112  1  0.60813613  -0.03756850  0.21035097  1
  Bi2+  Bi113  1  0.59427131  -0.02047434  0.73727337  1
  Bi2+  Bi114  1  0.54180809  0.22718879  0.22526111  1
  Bi2+  Bi115  1  0.65012292  0.27657003  0.70816932  1
  Bi2+  Bi116  1  0.61255579  0.50520896  0.21730201  1
  Bi2+  Bi117  1  0.64820426  0.52276702  0.70262683  1
  Bi2+  Bi118  1  0.67073937  0.75687059  0.21550108  1
  Bi2+  Bi119  1  0.58833497  0.79193531  0.69477325  1
  Bi2+  Bi120  1  0.87597911  -0.00782335  0.21738336  1
  Bi2+  Bi121  1  0.83763487  -0.01736333  0.70211320  1
  Bi2+  Bi122  1  0.88956782  0.26074619  0.20580758  1
  Bi2+  Bi123  1  0.88350233  0.17681141  0.71468596  1
  Bi2+  Bi124  1  0.87554548  0.53263464  0.16429190  1
  Bi2+  Bi125  1  0.87289629  0.60358313  0.71978840  1
  Bi2+  Bi126  1  0.86163093  0.71639962  0.20768667  1
  Bi2+  Bi127  1  0.95339293  0.77170150  0.67572970  1
  S2-  S128  1  -0.08574355  0.11808710  0.15203924  1
  S2-  S129  1  0.11885563  0.12370323  0.64986791  1
  S2-  S130  1  0.01934644  0.33465571  0.15043592  1
  S2-  S131  1  0.02747335  0.33315285  0.67331926  1
  S2-  S132  1  0.04406630  0.59516712  0.15194447  1
  S2-  S133  1  -0.03949384  0.52017401  0.64341433  1
  S2-  S134  1  -0.00376969  0.91404860  0.15771214  1
  S2-  S135  1  -0.01090870  0.95292082  0.64853337  1
  S2-  S136  1  0.13927409  0.11589737  0.13850658  1
  S2-  S137  1  0.35719764  0.10417153  0.65323562  1
  S2-  S138  1  0.25169854  0.35979541  0.14632947  1
  S2-  S139  1  0.25706231  0.28800989  0.65945364  1
  S2-  S140  1  0.25582043  0.58430273  0.15289573  1
  S2-  S141  1  0.25646095  0.51370161  0.64249611  1
  S2-  S142  1  0.22853706  0.84452817  0.16213213  1
  S2-  S143  1  0.24819425  0.90257787  0.65572980  1
  S2-  S144  1  0.58478531  0.11130978  0.15343075  1
  S2-  S145  1  0.53941675  0.17866310  0.67391261  1
  S2-  S146  1  0.50133692  0.44209891  0.14320694  1
  S2-  S147  1  0.49743888  0.36535656  0.69126437  1
  S2-  S148  1  0.44295587  0.65895505  0.18448413  1
  S2-  S149  1  0.51820271  0.54588213  0.63598648  1
  S2-  S150  1  0.49416722  0.88206524  0.15562107  1
  S2-  S151  1  0.51804317  0.97153122  0.64432179  1
  S2-  S152  1  0.76288554  0.12529025  0.22101586  1
  S2-  S153  1  0.74577589  0.15522330  0.65607774  1
  S2-  S154  1  0.75038390  0.29518680  0.14691892  1
  S2-  S155  1  0.73161072  0.39632447  0.65329436  1
  S2-  S156  1  0.65639054  0.62024729  0.14476013  1
  S2-  S157  1  0.73865948  0.63213042  0.65549684  1
  S2-  S158  1  0.75914457  0.94875613  0.14822425  1
  S2-  S159  1  0.73639102  0.87046416  0.65540557  1
  S2-  S160  1  0.03610820  0.00368834  0.35781174  1
  S2-  S161  1  0.13662094  0.08931316  0.85977262  1
  S2-  S162  1  0.08939964  0.26843721  0.35747458  1
  S2-  S163  1  0.11489124  0.30159117  0.83343437  1
  S2-  S164  1  0.23167206  0.49545529  0.35492205  1
  S2-  S165  1  0.13253243  0.51460001  0.83161104  1
  S2-  S166  1  0.14408511  0.75375855  0.35236655  1
  S2-  S167  1  0.12437815  0.74465308  0.85008805  1
  S2-  S168  1  0.38056122  -0.10692636  0.35600138  1
  S2-  S169  1  0.38209453  0.07708634  0.85845512  1
  S2-  S170  1  0.37371494  0.32608861  0.36403735  1
  S2-  S171  1  0.38298518  0.28591809  0.82970635  1
  S2-  S172  1  0.51172467  0.51040101  0.35200901  1
  S2-  S173  1  0.38143771  0.50775166  0.83858418  1
  S2-  S174  1  0.36187051  0.66637560  0.33543841  1
  S2-  S175  1  0.36418980  0.78076926  0.85342159  1
  S2-  S176  1  0.62265801  0.01089307  0.33683113  1
  S2-  S177  1  0.62060772  0.08033738  0.85971523  1
  S2-  S178  1  0.62002077  0.28602813  0.34691891  1
  S2-  S179  1  0.61034484  0.28441784  0.83079185  1
  S2-  S180  1  0.74820656  0.49716067  0.35600830  1
  S2-  S181  1  0.64063983  0.49955912  0.83096708  1
  S2-  S182  1  0.58229585  0.76856112  0.34318002  1
  S2-  S183  1  0.60289284  0.74733768  0.83932538  1
  S2-  S184  1  0.84512742  0.04087015  0.32062652  1
  S2-  S185  1  0.88244856  0.10061618  0.86136094  1
  S2-  S186  1  0.85892974  0.25664683  0.34188893  1
  S2-  S187  1  0.87219454  0.33457744  0.85056654  1
  S2-  S188  1  1.00502037  0.49741342  0.35953410  1
  S2-  S189  1  0.88551096  0.53739042  0.83527836  1
  S2-  S190  1  0.86858912  0.83973416  0.35372541  1
  S2-  S191  1  0.84356675  0.74666825  0.85097212  1
  S2-  S192  1  0.00273001  0.12334749  0.46567350  1
  S2-  S193  1  0.00508170  0.10399820  0.95923885  1
  S2-  S194  1  0.00018202  0.37687469  0.46400068  1
  S2-  S195  1  0.00464636  0.35574266  0.94695330  1
  S2-  S196  1  -0.00182421  0.63145315  0.46077765  1
  S2-  S197  1  0.00005137  0.60714635  0.94768433  1
  S2-  S198  1  0.00494299  0.87517348  0.45802346  1
  S2-  S199  1  -0.00016457  0.85784385  0.95489398  1
  S2-  S200  1  0.25374223  0.12878327  0.46037508  1
  S2-  S201  1  0.25235680  0.10370390  0.95853985  1
  S2-  S202  1  0.24943139  0.37507782  0.46496303  1
  S2-  S203  1  0.25289529  0.35330376  0.94195340  1
  S2-  S204  1  0.25479318  0.62773274  0.45662983  1
  S2-  S205  1  0.25041111  0.61068210  0.94793887  1
  S2-  S206  1  0.24926014  0.87725354  0.45433038  1
  S2-  S207  1  0.24877269  0.85558175  0.95716928  1
  S2-  S208  1  0.49592698  0.12741757  0.45246890  1
  S2-  S209  1  0.49769102  0.10421763  0.95988664  1
  S2-  S210  1  0.50262479  0.37594889  0.46424293  1
  S2-  S211  1  0.49922464  0.35221066  0.94785937  1
  S2-  S212  1  0.50053041  0.63043317  0.44904961  1
  S2-  S213  1  0.50088218  0.61102024  0.94406038  1
  S2-  S214  1  0.50191439  0.87873154  0.45564851  1
  S2-  S215  1  0.50125276  0.85699057  0.95410713  1
  S2-  S216  1  0.75468396  0.12375566  0.45060157  1
  S2-  S217  1  0.75261289  0.10557100  0.95615212  1
  S2-  S218  1  0.75332960  0.37145220  0.45341865  1
  S2-  S219  1  0.74603630  0.35399998  0.94704915  1
  S2-  S220  1  0.75292733  0.63465748  0.44953537  1
  S2-  S221  1  0.75466201  0.60491646  0.95034675  1
  S2-  S222  1  0.75097652  0.87895311  0.45251657  1
  S2-  S223  1  0.75499957  0.85948397  0.95506919  1
  S2-  S224  1  0.12950310  -0.02119004  0.04163800  1
  S2-  S225  1  0.12856008  -0.00040779  0.54695150  1
  S2-  S226  1  0.12799397  0.23710681  0.03486839  1
  S2-  S227  1  0.12126669  0.25645910  0.55515493  1
  S2-  S228  1  0.12578926  0.48280396  0.03718515  1
  S2-  S229  1  0.12467101  0.51066602  0.54493467  1
  S2-  S230  1  0.12365207  0.73230613  0.05138905  1
  S2-  S231  1  0.12881905  0.75569202  0.55383026  1
  S2-  S232  1  0.37723918  -0.01862673  0.04675841  1
  S2-  S233  1  0.37187906  0.00153329  0.54194200  1
  S2-  S234  1  0.37467094  0.23264786  0.04160293  1
  S2-  S235  1  0.38233031  0.25630032  0.55692712  1
  S2-  S236  1  0.37839387  0.48604134  0.04103634  1
  S2-  S237  1  0.38021099  0.50433521  0.54071072  1
  S2-  S238  1  0.38199121  0.73000634  0.05240235  1
  S2-  S239  1  0.37522121  0.75359040  0.53245817  1
  S2-  S240  1  0.62337629  -0.01681118  0.04806620  1
  S2-  S241  1  0.62419630  0.00635988  0.54395243  1
  S2-  S242  1  0.62512816  0.23110778  0.04219510  1
  S2-  S243  1  0.62293949  0.25333933  0.55248251  1
  S2-  S244  1  0.62569589  0.48366555  0.03915108  1
  S2-  S245  1  0.62911993  0.50238373  0.53647933  1
  S2-  S246  1  0.62487236  0.73610399  0.04523345  1
  S2-  S247  1  0.62395814  0.75445568  0.54549839  1
  S2-  S248  1  0.87920897  -0.01581177  0.04294088  1
  S2-  S249  1  0.87476538  0.00335301  0.54451755  1
  S2-  S250  1  0.87825064  0.23349055  0.04104946  1
  S2-  S251  1  0.87626839  0.25217931  0.55303884  1
  S2-  S252  1  0.87494303  0.47960953  0.03272793  1
  S2-  S253  1  0.86951276  0.50278283  0.53753136  1
  S2-  S254  1  0.87547820  0.73545731  0.05109180  1
  S2-  S255  1  0.87382104  0.75731701  0.54418393  1
