# generated using pymatgen
data_La6Ce6Pr19Nd20Sm13(BiS2)64
_symmetry_space_group_name_H-M   'P 1'
_cell_length_a   16.06561487
_cell_length_b   16.07739232
_cell_length_c   27.55528735
_cell_angle_alpha   90.00316325
_cell_angle_beta   90.26658459
_cell_angle_gamma   90.04307865
_symmetry_Int_Tables_number   1
_chemical_formula_structural   La6Ce6Pr19Nd20Sm13(BiS2)64
_chemical_formula_sum   'La6 Ce6 Pr19 Nd20 Sm13 Bi64 S128'
_cell_volume   7117.26409555
_cell_formula_units_Z   1
loop_
 _symmetry_equiv_pos_site_id
 _symmetry_equiv_pos_as_xyz
  1  'x, y, z'
loop_
 _atom_type_symbol
 _atom_type_oxidation_number
  La3+  3.0
  Ce3+  3.0
  Pr3+  3.0
  Nd3+  3.0
  Sm3+  3.0
  Bi2+  2.0
  S2-  -2.0
loop_
 _atom_site_type_symbol
 _atom_site_label
 _atom_site_symmetry_multiplicity
 _atom_site_fract_x
 _atom_site_fract_y
 _atom_site_fract_z
 _atom_site_occupancy
  La3+  La0  1  0.00691603  0.13770508  0.10338831  1
  La3+  La1  1  0.86996922  0.75898620  0.37875662  1
  La3+  La2  1  0.62360887  0.73816442  0.41233526  1
  La3+  La3  1  0.13109947  0.49505495  0.88500963  1
  La3+  La4  1  0.74576103  0.84992077  0.61399271  1
  La3+  La5  1  0.76517850  0.88254998  0.07053780  1
  Ce3+  Ce6  1  0.25881013  0.62622580  0.05777364  1
  Ce3+  Ce7  1  0.87189310  0.49702494  0.43613769  1
  Ce3+  Ce8  1  0.88264003  0.75406597  0.94260515  1
  Ce3+  Ce9  1  0.11900485  0.74057837  0.43798839  1
  Ce3+  Ce10  1  0.37646251  -0.01151259  0.43898142  1
  Ce3+  Ce11  1  0.38453310  0.75014159  0.95287736  1
  Pr3+  Pr12  1  -0.00049296  0.11600785  0.55916363  1
  Pr3+  Pr13  1  0.38691423  0.51165254  0.92914301  1
  Pr3+  Pr14  1  0.50291377  0.11172298  0.55710868  1
  Pr3+  Pr15  1  0.26385786  0.35656871  0.58026520  1
  Pr3+  Pr16  1  0.13441429  0.74907034  0.93537731  1
  Pr3+  Pr17  1  0.75533010  0.12673592  0.06177602  1
  Pr3+  Pr18  1  -0.00080603  0.36814016  0.55622151  1
  Pr3+  Pr19  1  0.75376472  0.11310913  0.56421414  1
  Pr3+  Pr20  1  0.51782165  0.62726164  0.08944675  1
  Pr3+  Pr21  1  0.50979836  0.38139370  0.06601477  1
  Pr3+  Pr22  1  0.37339689  0.73524259  0.41702608  1
  Pr3+  Pr23  1  0.75296772  0.36676383  0.56990163  1
  Pr3+  Pr24  1  0.38122505  0.00150402  0.94119405  1
  Pr3+  Pr25  1  0.00970137  0.62735826  0.06026605  1
  Pr3+  Pr26  1  0.63125918  0.00905191  0.89797687  1
  Pr3+  Pr27  1  0.87147986  0.24239694  0.43195130  1
  Pr3+  Pr28  1  0.13583469  0.25390000  0.93792393  1
  Pr3+  Pr29  1  0.87755374  0.50640561  0.93411190  1
  Pr3+  Pr30  1  0.88501077  0.00370879  0.93908923  1
  Nd3+  Nd31  1  0.50192803  0.36980623  0.55943448  1
  Nd3+  Nd32  1  0.51207599  0.12406945  0.06705020  1
  Nd3+  Nd33  1  0.63478061  0.50739677  0.94195700  1
  Nd3+  Nd34  1  0.88438431  0.25159412  0.93848012  1
  Nd3+  Nd35  1  0.12348843  -0.00898242  0.43312987  1
  Nd3+  Nd36  1  0.12995405  0.00132492  0.93820481  1
  Nd3+  Nd37  1  0.00042114  0.86856780  0.55881950  1
  Nd3+  Nd38  1  0.50453491  0.86385468  0.55674506  1
  Nd3+  Nd39  1  0.25275027  0.61589762  0.55857420  1
  Nd3+  Nd40  1  0.25334476  0.11574991  0.55698277  1
  Nd3+  Nd41  1  0.62879961  0.25082981  0.93579696  1
  Nd3+  Nd42  1  0.25821815  0.38036959  0.05490695  1
  Nd3+  Nd43  1  0.25634383  0.87848820  0.07101553  1
  Nd3+  Nd44  1  0.50292821  0.62160276  0.55674296  1
  Nd3+  Nd45  1  0.37614748  0.24202015  0.43292829  1
  Nd3+  Nd46  1  0.76049796  0.37508735  0.05655803  1
  Nd3+  Nd47  1  0.76577875  0.62595442  0.07074424  1
  Nd3+  Nd48  1  0.12703590  0.24468444  0.44236891  1
  Nd3+  Nd49  1  0.75110936  0.62409541  0.55252323  1
  Nd3+  Nd50  1  0.01328136  0.88230648  0.06656390  1
  Sm3+  Sm51  1  0.37207234  0.48804054  0.43591553  1
  Sm3+  Sm52  1  0.87303665  -0.00614381  0.43305033  1
  Sm3+  Sm53  1  0.24585052  0.86507134  0.55363632  1
  Sm3+  Sm54  1  0.62801365  -0.01492631  0.44270417  1
  Sm3+  Sm55  1  0.25709199  0.12806015  0.06244430  1
  Sm3+  Sm56  1  0.51049527  0.87861981  0.05790606  1
  Sm3+  Sm57  1  0.63352477  0.75557268  0.94871607  1
  Sm3+  Sm58  1  0.01054190  0.37545162  0.05422450  1
  Sm3+  Sm59  1  -0.00487957  0.62233685  0.55684850  1
  Sm3+  Sm60  1  0.62558874  0.49512166  0.44086992  1
  Sm3+  Sm61  1  0.62567481  0.24212005  0.44739070  1
  Sm3+  Sm62  1  0.38485957  0.25395231  0.95133863  1
  Sm3+  Sm63  1  0.12689892  0.49075518  0.45011938  1
  Bi2+  Bi64  1  0.00431793  0.13638124  0.29716864  1
  Bi2+  Bi65  1  0.04495411  0.10121321  0.78951756  1
  Bi2+  Bi66  1  -0.01823717  0.35252403  0.29178036  1
  Bi2+  Bi67  1  -0.00286350  0.35635575  0.78527086  1
  Bi2+  Bi68  1  0.02607217  0.55094273  0.29060803  1
  Bi2+  Bi69  1  -0.01180298  0.62123121  0.78926844  1
  Bi2+  Bi70  1  0.00757393  0.87681068  0.27869804  1
  Bi2+  Bi71  1  0.06873906  0.87917690  0.78720179  1
  Bi2+  Bi72  1  0.39470698  0.14601904  0.17978714  1
  Bi2+  Bi73  1  0.23026226  0.08652477  0.83086666  1
  Bi2+  Bi74  1  0.22786159  0.35234329  0.30197139  1
  Bi2+  Bi75  1  0.28321679  0.34252420  0.79599188  1
  Bi2+  Bi76  1  0.21785750  0.73375090  0.31713653  1
  Bi2+  Bi77  1  0.28212590  0.69999683  0.79789151  1
  Bi2+  Bi78  1  0.26062171  0.92579587  0.30319566  1
  Bi2+  Bi79  1  0.24785255  0.89092913  0.84137097  1
  Bi2+  Bi80  1  0.41321656  0.18688007  0.28994162  1
  Bi2+  Bi81  1  0.41013932  0.11152879  0.78173852  1
  Bi2+  Bi82  1  0.52608658  0.35302035  0.29234585  1
  Bi2+  Bi83  1  0.53968370  0.45008697  0.82812069  1
  Bi2+  Bi84  1  0.50067736  0.62149659  0.28848301  1
  Bi2+  Bi85  1  0.47466119  0.58776370  0.75974743  1
  Bi2+  Bi86  1  0.47002121  0.92272306  0.29481910  1
  Bi2+  Bi87  1  0.49513187  0.83537719  0.81980238  1
  Bi2+  Bi88  1  0.74202668  0.18443811  0.29147483  1
  Bi2+  Bi89  1  0.76482940  0.14220977  0.79460747  1
  Bi2+  Bi90  1  0.79795230  0.36579603  0.33078258  1
  Bi2+  Bi91  1  0.72223737  0.39953821  0.79516274  1
  Bi2+  Bi92  1  0.75623242  0.53960696  0.28437886  1
  Bi2+  Bi93  1  0.73700893  0.58839758  0.73721582  1
  Bi2+  Bi94  1  0.72980826  0.91686421  0.28837094  1
  Bi2+  Bi95  1  0.75657705  0.83805155  0.81377038  1
  Bi2+  Bi96  1  0.16969473  0.01333925  0.21324188  1
  Bi2+  Bi97  1  0.12499398  0.01176290  0.69715486  1
  Bi2+  Bi98  1  0.13126364  0.28276448  0.21062899  1
  Bi2+  Bi99  1  0.19021051  0.19792761  0.73365659  1
  Bi2+  Bi100  1  0.12713311  0.48306623  0.20340181  1
  Bi2+  Bi101  1  0.09551401  0.50781398  0.67767751  1
  Bi2+  Bi102  1  0.12428955  0.75252908  0.21222122  1
  Bi2+  Bi103  1  0.16841950  0.76404914  0.70975010  1
  Bi2+  Bi104  1  0.34925177  -0.05208954  0.19162443  1
  Bi2+  Bi105  1  0.32336690  0.03584956  0.68856124  1
  Bi2+  Bi106  1  0.40069974  0.35412815  0.20257807  1
  Bi2+  Bi107  1  0.46719487  0.30336050  0.76248051  1
  Bi2+  Bi108  1  0.26314333  0.54863743  0.27567327  1
  Bi2+  Bi109  1  0.34950508  0.49923302  0.69155849  1
  Bi2+  Bi110  1  0.32156024  0.75361968  0.21792390  1
  Bi2+  Bi111  1  0.35011782  0.85437530  0.73704511  1
  Bi2+  Bi112  1  0.56867608  0.09871280  0.23514977  1
  Bi2+  Bi113  1  0.59363654  0.00478532  0.70479579  1
  Bi2+  Bi114  1  0.57797656  0.27245608  0.17783251  1
  Bi2+  Bi115  1  0.64925573  0.25447448  0.72388433  1
  Bi2+  Bi116  1  0.63201120  0.45284303  0.21562373  1
  Bi2+  Bi117  1  0.65176461  0.43809779  0.68041628  1
  Bi2+  Bi118  1  0.58760873  0.78213503  0.20614956  1
  Bi2+  Bi119  1  0.59006085  0.71402850  0.70929902  1
  Bi2+  Bi120  1  0.84131291  0.00404703  0.20336458  1
  Bi2+  Bi121  1  0.87179557  -0.00331263  0.71089928  1
  Bi2+  Bi122  1  0.84365041  0.28170593  0.21691485  1
  Bi2+  Bi123  1  0.88364931  0.24973781  0.70786798  1
  Bi2+  Bi124  1  0.90313217  0.49478389  0.20772584  1
  Bi2+  Bi125  1  0.84803486  0.44739743  0.69154156  1
  Bi2+  Bi126  1  0.81017938  0.74709730  0.19335440  1
  Bi2+  Bi127  1  0.95994966  0.76272886  0.71798321  1
  S2-  S128  1  0.00085398  0.05901837  0.20209813  1
  S2-  S129  1  -0.02012547  0.10975648  0.65882623  1
  S2-  S130  1  0.00833158  0.30184725  0.14417283  1
  S2-  S131  1  -0.00303862  0.35989925  0.65604934  1
  S2-  S132  1  -0.09884393  0.62604628  0.14063528  1
  S2-  S133  1  -0.02857585  0.63541644  0.65496250  1
  S2-  S134  1  -0.09682337  0.87342465  0.14500395  1
  S2-  S135  1  -0.08372742  0.88728795  0.64547915  1
  S2-  S136  1  0.17181702  0.13992045  0.14704924  1
  S2-  S137  1  0.26776759  0.19347272  0.64406829  1
  S2-  S138  1  0.25025387  0.38248137  0.15429646  1
  S2-  S139  1  0.21389289  0.39846429  0.67405467  1
  S2-  S140  1  0.21969543  0.65311239  0.15127796  1
  S2-  S141  1  0.22885698  0.62023281  0.65629513  1
  S2-  S142  1  0.13398397  0.88307503  0.14280966  1
  S2-  S143  1  0.14009553  0.87252629  0.63179242  1
  S2-  S144  1  0.63220523  0.11772380  0.14152061  1
  S2-  S145  1  0.49429643  0.09891198  0.65651790  1
  S2-  S146  1  0.49937941  0.48003772  0.14802086  1
  S2-  S147  1  0.41302896  0.37012648  0.64278616  1
  S2-  S148  1  0.46188366  0.67102117  0.18659119  1
  S2-  S149  1  0.46614725  0.62745815  0.65428443  1
  S2-  S150  1  0.50343767  0.89293729  0.15539298  1
  S2-  S151  1  0.57058469  0.86073735  0.64950720  1
  S2-  S152  1  0.84448202  0.14448853  0.14885850  1
  S2-  S153  1  0.73734782  0.02098868  0.65059899  1
  S2-  S154  1  0.77189242  0.40628835  0.15381875  1
  S2-  S155  1  0.76440277  0.23725838  0.64047053  1
  S2-  S156  1  0.66841066  0.65370750  0.15261973  1
  S2-  S157  1  0.72247813  0.67953370  0.64653390  1
  S2-  S158  1  0.70903870  0.89371622  0.17031847  1
  S2-  S159  1  0.77287777  0.85407673  0.72157111  1
  S2-  S160  1  0.09531289  0.00269243  0.33567093  1
  S2-  S161  1  0.00856106  -0.01308848  0.86104684  1
  S2-  S162  1  0.13526566  0.21828066  0.34517648  1
  S2-  S163  1  0.12807320  0.32564431  0.84631718  1
  S2-  S164  1  0.15430951  0.49217242  0.35428060  1
  S2-  S165  1  0.10584716  0.49352960  0.77069351  1
  S2-  S166  1  0.04637346  0.76141578  0.35197187  1
  S2-  S167  1  0.12634841  0.66140741  0.84795037  1
  S2-  S168  1  0.36731693  0.04858233  0.34746399  1
  S2-  S169  1  0.46512110  0.00275792  0.85424971  1
  S2-  S170  1  0.36011865  0.36408884  0.36362737  1
  S2-  S171  1  0.39806617  0.24516681  0.85465504  1
  S2-  S172  1  0.38175422  0.58539629  0.35238437  1
  S2-  S173  1  0.29342551  0.48430283  0.84361669  1
  S2-  S174  1  0.48774777  0.77081709  0.34163576  1
  S2-  S175  1  0.40450897  0.67627759  0.86625834  1
  S2-  S176  1  0.60544269  -0.01380113  0.34443214  1
  S2-  S177  1  0.61948188  -0.06310377  0.80031182  1
  S2-  S178  1  0.60774645  0.23541007  0.35049603  1
  S2-  S179  1  0.63196312  0.16625262  0.84957233  1
  S2-  S180  1  0.61334064  0.57361967  0.35221338  1
  S2-  S181  1  0.74285805  0.51801146  0.86344040  1
  S2-  S182  1  0.71369272  0.76920752  0.32505117  1
  S2-  S183  1  0.62627231  0.73936890  0.85066846  1
  S2-  S184  1  0.87826524  -0.07561740  0.34001005  1
  S2-  S185  1  0.79147376  0.00020013  0.85183447  1
  S2-  S186  1  0.87409344  0.12536459  0.35658003  1
  S2-  S187  1  0.88606901  0.25087447  0.83849543  1
  S2-  S188  1  0.88122139  0.58504550  0.35187275  1
  S2-  S189  1  0.96128007  0.48446607  0.84716606  1
  S2-  S190  1  0.90355888  0.75167021  0.26815190  1
  S2-  S191  1  0.88826476  0.72791080  0.84649606  1
  S2-  S192  1  0.00362535  0.11871969  0.45316162  1
  S2-  S193  1  0.01125037  0.13185067  0.94797907  1
  S2-  S194  1  -0.00030834  0.36835537  0.44920355  1
  S2-  S195  1  0.00932141  0.37879818  0.95228740  1
  S2-  S196  1  0.00352851  0.61168143  0.45494285  1
  S2-  S197  1  0.00704901  0.62646348  0.95505722  1
  S2-  S198  1  -0.00212214  0.87116157  0.45240713  1
  S2-  S199  1  0.01079924  0.87344992  0.96007798  1
  S2-  S200  1  0.25121433  0.11798994  0.45117322  1
  S2-  S201  1  0.26034742  0.12931079  0.95880510  1
  S2-  S202  1  0.24959813  0.36666165  0.46616974  1
  S2-  S203  1  0.26311594  0.37976325  0.95195748  1
  S2-  S204  1  0.24996060  0.61639869  0.45349985  1
  S2-  S205  1  0.25678821  0.62523447  0.95493621  1
  S2-  S206  1  0.25033589  0.86379663  0.44994940  1
  S2-  S207  1  0.25741390  0.87624511  0.96469508  1
  S2-  S208  1  0.50225732  0.11633307  0.45128171  1
  S2-  S209  1  0.50668895  0.12764577  0.96039064  1
  S2-  S210  1  0.50465224  0.36921285  0.45439037  1
  S2-  S211  1  0.50752957  0.37951167  0.95834295  1
  S2-  S212  1  0.49700965  0.61579576  0.45378667  1
  S2-  S213  1  0.51400330  0.62897472  0.96723322  1
  S2-  S214  1  0.49871824  0.86366995  0.45148720  1
  S2-  S215  1  0.51004582  0.87774662  0.95472205  1
  S2-  S216  1  0.74440654  0.11674642  0.45552863  1
  S2-  S217  1  0.75531043  0.12947833  0.95472634  1
  S2-  S218  1  0.74627442  0.36871270  0.46082133  1
  S2-  S219  1  0.75537477  0.37264287  0.95254506  1
  S2-  S220  1  0.74807869  0.61975343  0.44944607  1
  S2-  S221  1  0.75660818  0.63369954  0.96500995  1
  S2-  S222  1  0.75076670  0.86703945  0.43661373  1
  S2-  S223  1  0.75631554  0.87833855  0.95728284  1
  S2-  S224  1  0.13432450  0.00901069  0.04344852  1
  S2-  S225  1  0.12833593  -0.00395300  0.53793285  1
  S2-  S226  1  0.13538964  0.25299180  0.04312586  1
  S2-  S227  1  0.12663179  0.24278632  0.54880040  1
  S2-  S228  1  0.13130313  0.50010017  0.05442515  1
  S2-  S229  1  0.12494834  0.49344394  0.55285272  1
  S2-  S230  1  0.13448046  0.75161924  0.04276204  1
  S2-  S231  1  0.12494348  0.73721864  0.54203843  1
  S2-  S232  1  0.38171013  0.00247469  0.04893673  1
  S2-  S233  1  0.37333141  -0.01361126  0.54542000  1
  S2-  S234  1  0.38367812  0.25251149  0.05402945  1
  S2-  S235  1  0.38247252  0.23896970  0.53765699  1
  S2-  S236  1  0.38357972  0.50571111  0.04447557  1
  S2-  S237  1  0.37738586  0.49442690  0.54144681  1
  S2-  S238  1  0.38426647  0.75372196  0.05882958  1
  S2-  S239  1  0.37252697  0.74452489  0.54563978  1
  S2-  S240  1  0.63177533  -0.00249293  0.04704088  1
  S2-  S241  1  0.62798858  -0.01337812  0.54427528  1
  S2-  S242  1  0.63138296  0.25539772  0.04183150  1
  S2-  S243  1  0.62332287  0.24231842  0.55006172  1
  S2-  S244  1  0.63897334  0.50335745  0.04793851  1
  S2-  S245  1  0.62626162  0.49477062  0.54473723  1
  S2-  S246  1  0.63343938  0.75682268  0.05223025  1
  S2-  S247  1  0.62589107  0.74402934  0.53901195  1
  S2-  S248  1  0.89270097  0.01146456  0.04682681  1
  S2-  S249  1  0.87743053  -0.00557702  0.53751931  1
  S2-  S250  1  0.88602757  0.25216428  0.04307241  1
  S2-  S251  1  0.87702270  0.24297992  0.53840488  1
  S2-  S252  1  0.88588102  0.49676993  0.04167934  1
  S2-  S253  1  0.87373394  0.49447691  0.54479686  1
  S2-  S254  1  0.88622625  0.75516665  0.04458619  1
  S2-  S255  1  0.87419519  0.74524770  0.55246442  1
