# generated using pymatgen
data_La6Ce6Pr19Nd20Sm13(BiS2)64
_symmetry_space_group_name_H-M   'P 1'
_cell_length_a   15.98150778
_cell_length_b   16.07939879
_cell_length_c   27.66801337
_cell_angle_alpha   89.71707554
_cell_angle_beta   90.12234240
_cell_angle_gamma   90.05955821
_symmetry_Int_Tables_number   1
_chemical_formula_structural   La6Ce6Pr19Nd20Sm13(BiS2)64
_chemical_formula_sum   'La6 Ce6 Pr19 Nd20 Sm13 Bi64 S128'
_cell_volume   7109.82676799
_cell_formula_units_Z   1
loop_
 _symmetry_equiv_pos_site_id
 _symmetry_equiv_pos_as_xyz
  1  'x, y, z'
loop_
 _atom_type_symbol
 _atom_type_oxidation_number
  La3+  3.0
  Ce3+  3.0
  Pr3+  3.0
  Nd3+  3.0
  Sm3+  3.0
  Bi2+  2.0
  S2-  -2.0
loop_
 _atom_site_type_symbol
 _atom_site_label
 _atom_site_symmetry_multiplicity
 _atom_site_fract_x
 _atom_site_fract_y
 _atom_site_fract_z
 _atom_site_occupancy
  La3+  La0  1  0.86174745  0.00799818  0.42619827  1
  La3+  La1  1  -0.04130071  0.39080082  0.06917429  1
  La3+  La2  1  0.00967314  0.37319575  0.62476757  1
  La3+  La3  1  0.85699082  0.74697446  0.40598448  1
  La3+  La4  1  0.51067438  0.85495057  0.61497659  1
  La3+  La5  1  0.01281018  0.89950051  0.12444898  1
  Ce3+  Ce6  1  0.61315176  0.50380928  0.44281902  1
  Ce3+  Ce7  1  -0.01718382  0.62066708  0.55849255  1
  Ce3+  Ce8  1  0.21127038  0.40198982  0.07506859  1
  Ce3+  Ce9  1  0.57147941  0.26662877  0.92729263  1
  Ce3+  Ce10  1  0.60994713  0.25290471  0.44369399  1
  Ce3+  Ce11  1  0.58339813  0.52205123  0.92343911  1
  Pr3+  Pr12  1  0.08356982  0.51897206  0.93977665  1
  Pr3+  Pr13  1  -0.01053957  0.87606376  0.56292292  1
  Pr3+  Pr14  1  0.23661339  0.62632847  0.55655146  1
  Pr3+  Pr15  1  -0.01550424  0.12481958  0.57217944  1
  Pr3+  Pr16  1  0.73029979  0.63696039  0.56471068  1
  Pr3+  Pr17  1  0.24244051  0.87406866  0.55843351  1
  Pr3+  Pr18  1  0.73680387  0.12530848  0.56023717  1
  Pr3+  Pr19  1  0.23935958  0.37710110  0.56316096  1
  Pr3+  Pr20  1  0.36114508  0.25225834  0.43970366  1
  Pr3+  Pr21  1  0.20065619  0.13423009  0.06554966  1
  Pr3+  Pr22  1  0.71557514  0.89135454  0.06759997  1
  Pr3+  Pr23  1  0.10699704  0.50200078  0.44177671  1
  Pr3+  Pr24  1  0.10617556  0.25314664  0.44556655  1
  Pr3+  Pr25  1  0.33343256  0.52116492  0.92577520  1
  Pr3+  Pr26  1  0.58724097  0.77214484  0.93326023  1
  Pr3+  Pr27  1  -0.04832260  0.64714947  0.07425852  1
  Pr3+  Pr28  1  -0.05030123  0.13608296  0.06338475  1
  Pr3+  Pr29  1  0.35533336  0.76127578  0.41626120  1
  Pr3+  Pr30  1  0.23657206  0.12657094  0.55887466  1
  Nd3+  Nd31  1  0.83711962  0.51766045  0.93374355  1
  Nd3+  Nd32  1  0.73985821  0.88014213  0.55598720  1
  Nd3+  Nd33  1  0.08023049  0.01577752  0.93967400  1
  Nd3+  Nd34  1  0.36064136  0.50415636  0.43432950  1
  Nd3+  Nd35  1  0.10599046  0.75242767  0.43297874  1
  Nd3+  Nd36  1  0.45937351  0.38973891  0.06125324  1
  Nd3+  Nd37  1  0.35780075  0.00459099  0.43295572  1
  Nd3+  Nd38  1  0.48718768  0.11667354  0.56294697  1
  Nd3+  Nd39  1  0.46598935  0.88960551  0.06295532  1
  Nd3+  Nd40  1  0.73715237  0.38036905  0.56876827  1
  Nd3+  Nd41  1  0.83345355  0.26788641  0.93398788  1
  Nd3+  Nd42  1  0.83238856  0.01855510  0.93945084  1
  Nd3+  Nd43  1  0.85622553  0.50214963  0.43849417  1
  Nd3+  Nd44  1  0.32267751  0.27102494  0.93901748  1
  Nd3+  Nd45  1  0.70198372  0.14191139  0.06328284  1
  Nd3+  Nd46  1  0.61388176  0.00169752  0.43360207  1
  Nd3+  Nd47  1  0.33634697  0.77009415  0.93150831  1
  Nd3+  Nd48  1  0.49150274  0.37639724  0.56217528  1
  Nd3+  Nd49  1  0.48246065  0.63336259  0.54445483  1
  Nd3+  Nd50  1  0.10331717  0.00013215  0.43585431  1
  Sm3+  Sm51  1  0.70529920  0.63740475  0.06084986  1
  Sm3+  Sm52  1  0.61142000  0.75558493  0.43436418  1
  Sm3+  Sm53  1  0.58472717  0.01892477  0.93222683  1
  Sm3+  Sm54  1  0.33368794  0.01455086  0.93516921  1
  Sm3+  Sm55  1  0.21521131  0.88949159  0.04842799  1
  Sm3+  Sm56  1  0.70739002  0.38976347  0.05670199  1
  Sm3+  Sm57  1  0.46593945  0.63806817  0.05530997  1
  Sm3+  Sm58  1  0.86134107  0.25315155  0.44599999  1
  Sm3+  Sm59  1  0.83212893  0.76787793  0.94510607  1
  Sm3+  Sm60  1  0.45681929  0.14078124  0.05706583  1
  Sm3+  Sm61  1  0.21085384  0.64339545  0.05505696  1
  Sm3+  Sm62  1  0.07871824  0.76745025  0.94592887  1
  Sm3+  Sm63  1  0.07996510  0.26882924  0.94197802  1
  Bi2+  Bi64  1  0.01734989  0.13201885  0.31097115  1
  Bi2+  Bi65  1  0.02894921  0.10997995  0.75588113  1
  Bi2+  Bi66  1  0.03814122  0.38920071  0.28694634  1
  Bi2+  Bi67  1  0.06885627  0.39037556  0.81925531  1
  Bi2+  Bi68  1  0.00269809  0.61594837  0.29034586  1
  Bi2+  Bi69  1  0.02635900  0.63420820  0.78937636  1
  Bi2+  Bi70  1  0.10832803  0.87962654  0.30832327  1
  Bi2+  Bi71  1  0.00174990  0.91226003  0.79289144  1
  Bi2+  Bi72  1  0.32187076  0.04485671  0.29118191  1
  Bi2+  Bi73  1  0.30695894  0.12188990  0.80496607  1
  Bi2+  Bi74  1  0.42503894  0.32411987  0.29085772  1
  Bi2+  Bi75  1  0.27523018  0.39411652  0.80035205  1
  Bi2+  Bi76  1  0.27769169  0.61077424  0.30339565  1
  Bi2+  Bi77  1  0.21145683  0.73636809  0.77651578  1
  Bi2+  Bi78  1  0.26240695  0.81302810  0.22467331  1
  Bi2+  Bi79  1  0.25660915  0.93417785  0.77874892  1
  Bi2+  Bi80  1  0.53265796  0.06227904  0.30646165  1
  Bi2+  Bi81  1  0.49240685  0.06340064  0.79629297  1
  Bi2+  Bi82  1  0.62314421  0.35430786  0.29510807  1
  Bi2+  Bi83  1  0.47916261  0.34109087  0.77764012  1
  Bi2+  Bi84  1  0.53510841  0.58699243  0.28433028  1
  Bi2+  Bi85  1  0.50707653  0.54853717  0.76611675  1
  Bi2+  Bi86  1  0.50222825  0.86545549  0.29476828  1
  Bi2+  Bi87  1  0.46632102  0.78914575  0.81262269  1
  Bi2+  Bi88  1  0.72602405  0.11057088  0.28156372  1
  Bi2+  Bi89  1  0.85718046  0.16892087  0.79763741  1
  Bi2+  Bi90  1  0.84413650  0.36029074  0.31440335  1
  Bi2+  Bi91  1  0.69403005  0.27358491  0.81112486  1
  Bi2+  Bi92  1  0.80953937  0.53148716  0.26031070  1
  Bi2+  Bi93  1  0.73918149  0.65200578  0.79925822  1
  Bi2+  Bi94  1  0.78905250  0.86586185  0.28956460  1
  Bi2+  Bi95  1  0.71929119  0.89994664  0.79037033  1
  Bi2+  Bi96  1  0.16457357  0.04343972  0.20467251  1
  Bi2+  Bi97  1  0.13024867  -0.02590948  0.69431572  1
  Bi2+  Bi98  1  0.28995552  0.26687981  0.21211364  1
  Bi2+  Bi99  1  0.24085737  0.25383543  0.72530397  1
  Bi2+  Bi100  1  0.20048710  0.43937618  0.21423461  1
  Bi2+  Bi101  1  0.13751407  0.53065210  0.70886061  1
  Bi2+  Bi102  1  0.14634071  0.65324802  0.21499567  1
  Bi2+  Bi103  1  0.11655378  0.78229692  0.67454887  1
  Bi2+  Bi104  1  0.42665430  -0.08378542  0.19161659  1
  Bi2+  Bi105  1  0.37304169  0.05650905  0.70288704  1
  Bi2+  Bi106  1  0.46966226  0.17398663  0.21702215  1
  Bi2+  Bi107  1  0.42678546  0.24712622  0.67453673  1
  Bi2+  Bi108  1  0.44524850  0.53955076  0.19010700  1
  Bi2+  Bi109  1  0.44044390  0.44386490  0.67988370  1
  Bi2+  Bi110  1  0.40545824  0.72517253  0.16954450  1
  Bi2+  Bi111  1  0.35852017  0.72769545  0.69607156  1
  Bi2+  Bi112  1  0.64732756  -0.03872675  0.22194191  1
  Bi2+  Bi113  1  0.63987073  0.05592226  0.72312569  1
  Bi2+  Bi114  1  0.65160016  0.25135234  0.19758070  1
  Bi2+  Bi115  1  0.63092718  0.24793092  0.69952830  1
  Bi2+  Bi116  1  0.64021892  0.50053104  0.19832325  1
  Bi2+  Bi117  1  0.68720362  0.45160309  0.76454575  1
  Bi2+  Bi118  1  0.64444448  0.74993081  0.25124909  1
  Bi2+  Bi119  1  0.63603167  0.70567005  0.70544426  1
  Bi2+  Bi120  1  0.87629000  0.03160901  0.20870430  1
  Bi2+  Bi121  1  0.86441248  -0.05030831  0.71403424  1
  Bi2+  Bi122  1  0.85064341  0.27539738  0.21333393  1
  Bi2+  Bi123  1  0.82627702  0.21093256  0.68646916  1
  Bi2+  Bi124  1  0.95936224  0.47327827  0.19409668  1
  Bi2+  Bi125  1  0.86799462  0.50607913  0.71546159  1
  Bi2+  Bi126  1  0.85101848  0.74553547  0.20524578  1
  Bi2+  Bi127  1  0.93941256  0.76541557  0.72049967  1
  S2-  S128  1  0.05528192  0.09627319  0.14237398  1
  S2-  S129  1  -0.00943514  0.20727168  0.66274575  1
  S2-  S130  1  0.08573900  0.37453136  0.14569997  1
  S2-  S131  1  0.00341038  0.39851695  0.73325761  1
  S2-  S132  1  0.00602741  0.73060992  0.16078428  1
  S2-  S133  1  -0.00974135  0.55080487  0.64814365  1
  S2-  S134  1  0.02356063  0.93332961  0.22863285  1
  S2-  S135  1  -0.02035997  0.98816716  0.63997755  1
  S2-  S136  1  0.28940811  0.11839616  0.15191161  1
  S2-  S137  1  0.21906852  0.12360582  0.65828783  1
  S2-  S138  1  0.34786324  0.38103164  0.14080722  1
  S2-  S139  1  0.18036980  0.38280692  0.65736860  1
  S2-  S140  1  0.21402642  0.55748913  0.14011685  1
  S2-  S141  1  0.25600197  0.59784907  0.65526555  1
  S2-  S142  1  0.18998544  0.90071902  0.14508080  1
  S2-  S143  1  0.33720355  0.86152512  0.64261672  1
  S2-  S144  1  0.56732933  0.13291771  0.13380376  1
  S2-  S145  1  0.51483811  0.02463778  0.64711739  1
  S2-  S146  1  0.58996938  0.37812392  0.13212632  1
  S2-  S147  1  0.60496676  0.39010214  0.63951777  1
  S2-  S148  1  0.57779541  0.62861819  0.13315031  1
  S2-  S149  1  0.49409621  0.67561017  0.63933158  1
  S2-  S150  1  0.58505196  0.89035370  0.13872066  1
  S2-  S151  1  0.49772929  0.82789650  0.72329395  1
  S2-  S152  1  0.82545666  0.14224307  0.14197277  1
  S2-  S153  1  0.76008929  0.04908758  0.65008962  1
  S2-  S154  1  0.82638307  0.38802350  0.13945584  1
  S2-  S155  1  0.83683603  0.37980655  0.65187220  1
  S2-  S156  1  0.81191964  0.63469107  0.14174395  1
  S2-  S157  1  0.74061126  0.59747535  0.66295092  1
  S2-  S158  1  0.83819604  0.90505218  0.14778839  1
  S2-  S159  1  0.68123744  0.82505879  0.64465233  1
  S2-  S160  1  0.18282660  0.03076744  0.34398715  1
  S2-  S161  1  0.08629323  0.03914507  0.84072322  1
  S2-  S162  1  0.10880415  0.25856598  0.34495770  1
  S2-  S163  1  0.19245145  0.28087719  0.86500533  1
  S2-  S164  1  0.11539069  0.51993882  0.34223524  1
  S2-  S165  1  0.19594527  0.50504752  0.85781352  1
  S2-  S166  1  0.21127939  0.75263670  0.35141818  1
  S2-  S167  1  0.08029875  0.76808765  0.84781473  1
  S2-  S168  1  0.36074029  -0.09020574  0.34886768  1
  S2-  S169  1  0.35077997  -0.09839746  0.85885576  1
  S2-  S170  1  0.35967091  0.19156565  0.34740525  1
  S2-  S171  1  0.43526316  0.27806692  0.86222392  1
  S2-  S172  1  0.34792005  0.46671140  0.33900087  1
  S2-  S173  1  0.45929229  0.50183991  0.85293505  1
  S2-  S174  1  0.41537364  0.69185741  0.32732124  1
  S2-  S175  1  0.33586265  0.68345519  0.84497632  1
  S2-  S176  1  0.72942788  -0.00960528  0.35574168  1
  S2-  S177  1  0.58741139  -0.10087997  0.85710325  1
  S2-  S178  1  0.62123516  0.20317504  0.35149541  1
  S2-  S179  1  0.59750261  0.13909273  0.85829669  1
  S2-  S180  1  0.64168330  0.50135948  0.34856051  1
  S2-  S181  1  0.72278615  0.50673884  0.85733037  1
  S2-  S182  1  0.70308670  0.74891899  0.35032892  1
  S2-  S183  1  0.58667971  0.67541820  0.84739089  1
  S2-  S184  1  0.98835678  -0.01688362  0.35608269  1
  S2-  S185  1  0.80206197  0.01617323  0.84010040  1
  S2-  S186  1  0.88655971  0.17062097  0.36002367  1
  S2-  S187  1  0.96126334  0.27495498  0.86272335  1
  S2-  S188  1  0.86357461  0.59053751  0.35147844  1
  S2-  S189  1  0.96508124  0.52174825  0.85988652  1
  S2-  S190  1  1.00232531  0.76274310  0.34780143  1
  S2-  S191  1  0.80936403  0.77657494  0.84558332  1
  S2-  S192  1  -0.01367430  0.12897456  0.46496003  1
  S2-  S193  1  -0.04160011  0.14042105  0.95687295  1
  S2-  S194  1  -0.01932993  0.37821537  0.44536963  1
  S2-  S195  1  -0.04282710  0.39221638  0.96252358  1
  S2-  S196  1  -0.01834648  0.62752925  0.45477940  1
  S2-  S197  1  -0.04250888  0.64782987  0.96100124  1
  S2-  S198  1  -0.02163237  0.86949331  0.45820253  1
  S2-  S199  1  -0.04346709  0.89094406  0.94277498  1
  S2-  S200  1  0.23346151  0.12820979  0.45460820  1
  S2-  S201  1  0.20722185  0.13418573  0.95754810  1
  S2-  S202  1  0.23680916  0.37754577  0.45484459  1
  S2-  S203  1  0.20480715  0.39537010  0.96787431  1
  S2-  S204  1  0.23572854  0.62504673  0.45091099  1
  S2-  S205  1  0.20816687  0.64901879  0.95410941  1
  S2-  S206  1  0.23100748  0.88099300  0.45322545  1
  S2-  S207  1  0.20512333  0.89082593  0.94755133  1
  S2-  S208  1  0.48672114  0.12399047  0.45565319  1
  S2-  S209  1  0.45121154  0.13517915  0.95486857  1
  S2-  S210  1  0.48586489  0.37909203  0.45278305  1
  S2-  S211  1  0.45246640  0.39581884  0.95790518  1
  S2-  S212  1  0.48680844  0.62958770  0.44112637  1
  S2-  S213  1  0.45946812  0.64517092  0.95424486  1
  S2-  S214  1  0.49063094  0.87858036  0.43918892  1
  S2-  S215  1  0.45944784  0.89541109  0.95928405  1
  S2-  S216  1  0.73532960  0.13078658  0.45619993  1
  S2-  S217  1  0.70973575  0.14376130  0.95529546  1
  S2-  S218  1  0.73518299  0.37538141  0.45802543  1
  S2-  S219  1  0.70541728  0.38583978  0.95255523  1
  S2-  S220  1  0.73485566  0.63248900  0.45754470  1
  S2-  S221  1  0.71219281  0.64421706  0.95636209  1
  S2-  S222  1  0.74069533  0.87107800  0.45348939  1
  S2-  S223  1  0.71194055  0.89461995  0.95758741  1
  S2-  S224  1  0.08102190  0.00207931  0.04216589  1
  S2-  S225  1  0.11513096  0.00051699  0.54249031  1
  S2-  S226  1  0.08106691  0.25990078  0.04395852  1
  S2-  S227  1  0.10914627  0.25579457  0.55264282  1
  S2-  S228  1  0.07912383  0.52634719  0.04622702  1
  S2-  S229  1  0.11027458  0.49649778  0.54681131  1
  S2-  S230  1  0.08691774  0.76941046  0.04905272  1
  S2-  S231  1  0.11069929  0.74882613  0.54114162  1
  S2-  S232  1  0.33648761  0.01244340  0.03972786  1
  S2-  S233  1  0.36006838  0.00393910  0.53936675  1
  S2-  S234  1  0.33098080  0.25900790  0.04402989  1
  S2-  S235  1  0.36574655  0.25100030  0.54550732  1
  S2-  S236  1  0.33819530  0.52353409  0.03927306  1
  S2-  S237  1  0.36421844  0.50052853  0.54123475  1
  S2-  S238  1  0.33740294  0.76621330  0.04073940  1
  S2-  S239  1  0.35777309  0.74991307  0.53112894  1
  S2-  S240  1  0.58229849  0.01566540  0.03545206  1
  S2-  S241  1  0.61256766  -0.00233503  0.53904872  1
  S2-  S242  1  0.57838667  0.26321833  0.03270608  1
  S2-  S243  1  0.60990945  0.24787431  0.54712030  1
  S2-  S244  1  0.58561510  0.51416302  0.03222469  1
  S2-  S245  1  0.60921340  0.50830624  0.54456410  1
  S2-  S246  1  0.58636326  0.76686772  0.03863531  1
  S2-  S247  1  0.60468190  0.75938323  0.53668459  1
  S2-  S248  1  0.82650132  0.01897393  0.04066069  1
  S2-  S249  1  0.86181770  0.00129226  0.53751064  1
  S2-  S250  1  0.82958468  0.26540450  0.03803054  1
  S2-  S251  1  0.85998584  0.25297453  0.54791329  1
  S2-  S252  1  0.82973965  0.51555903  0.03866790  1
  S2-  S253  1  0.85056233  0.50897696  0.54248262  1
  S2-  S254  1  0.82924011  0.76342246  0.04488381  1
  S2-  S255  1  0.86395473  0.75218425  0.56201660  1
