# generated using pymatgen
data_La6Ce6Pr19Nd20Sm13(BiS2)64
_symmetry_space_group_name_H-M   'P 1'
_cell_length_a   16.19191295
_cell_length_b   16.17208916
_cell_length_c   27.13491928
_cell_angle_alpha   89.99289603
_cell_angle_beta   89.99740075
_cell_angle_gamma   89.99578952
_symmetry_Int_Tables_number   1
_chemical_formula_structural   La6Ce6Pr19Nd20Sm13(BiS2)64
_chemical_formula_sum   'La6 Ce6 Pr19 Nd20 Sm13 Bi64 S128'
_cell_volume   7105.47010295
_cell_formula_units_Z   1
loop_
 _symmetry_equiv_pos_site_id
 _symmetry_equiv_pos_as_xyz
  1  'x, y, z'
loop_
 _atom_type_symbol
 _atom_type_oxidation_number
  La3+  3.0
  Ce3+  3.0
  Pr3+  3.0
  Nd3+  3.0
  Sm3+  3.0
  Bi2+  2.0
  S2-  -2.0
loop_
 _atom_site_type_symbol
 _atom_site_label
 _atom_site_symmetry_multiplicity
 _atom_site_fract_x
 _atom_site_fract_y
 _atom_site_fract_z
 _atom_site_occupancy
  La3+  La0  1  0.49060236  0.86826835  0.09834824  1
  La3+  La1  1  0.61591565  0.25915030  0.91434976  1
  La3+  La2  1  0.49466595  0.13561186  0.08416692  1
  La3+  La3  1  0.87902744  0.26117066  0.90063680  1
  La3+  La4  1  0.50214051  0.86018957  0.60204199  1
  La3+  La5  1  0.62020510  0.74126701  0.40958135  1
  Ce3+  Ce6  1  0.49980151  0.37982417  0.06762117  1
  Ce3+  Ce7  1  0.75105237  0.12094900  0.55489299  1
  Ce3+  Ce8  1  0.87599420  0.24577926  0.43797105  1
  Ce3+  Ce9  1  0.50520645  0.37138784  0.55801002  1
  Ce3+  Ce10  1  -0.00132054  0.37612165  0.06143393  1
  Ce3+  Ce11  1  0.87631015  -0.00583601  0.44007783  1
  Pr3+  Pr12  1  0.86795324  0.00537097  0.93900764  1
  Pr3+  Pr13  1  0.37504989  0.75235655  0.93755998  1
  Pr3+  Pr14  1  0.37364826  0.25500840  0.94114305  1
  Pr3+  Pr15  1  0.49956513  0.62960754  0.06172399  1
  Pr3+  Pr16  1  0.75150323  0.62778304  0.55231963  1
  Pr3+  Pr17  1  0.75121703  0.63066868  0.06925637  1
  Pr3+  Pr18  1  0.12729642  0.24545650  0.44401020  1
  Pr3+  Pr19  1  0.12312925  0.25693454  0.93396619  1
  Pr3+  Pr20  1  0.62456806  0.49643726  0.43502646  1
  Pr3+  Pr21  1  0.75285799  0.86996568  0.55643311  1
  Pr3+  Pr22  1  0.37564354  0.74837845  0.43052593  1
  Pr3+  Pr23  1  0.12114715  0.00387228  0.93761082  1
  Pr3+  Pr24  1  0.25010721  0.12726433  0.06147122  1
  Pr3+  Pr25  1  0.12853227  0.74974876  0.42879421  1
  Pr3+  Pr26  1  0.87179199  0.75424693  0.94324539  1
  Pr3+  Pr27  1  0.74494103  0.13129206  0.05259723  1
  Pr3+  Pr28  1  -0.00277872  0.63092992  0.06689605  1
  Pr3+  Pr29  1  0.37831174  0.00425761  0.93856312  1
  Pr3+  Pr30  1  0.25597423  0.11873656  0.56204837  1
  Nd3+  Nd31  1  0.87755573  0.49529794  0.43763038  1
  Nd3+  Nd32  1  0.50598925  0.11910580  0.55886061  1
  Nd3+  Nd33  1  0.62361797  0.75493494  0.94159174  1
  Nd3+  Nd34  1  0.75043599  0.37520238  0.06352710  1
  Nd3+  Nd35  1  0.75406903  0.37259895  0.56160331  1
  Nd3+  Nd36  1  -0.00224708  0.88254714  0.06355798  1
  Nd3+  Nd37  1  0.00052424  0.87058558  0.56516713  1
  Nd3+  Nd38  1  0.12774457  0.49320264  0.44315887  1
  Nd3+  Nd39  1  0.37658052  0.49609827  0.44341298  1
  Nd3+  Nd40  1  0.25528614  0.37176082  0.56119777  1
  Nd3+  Nd41  1  0.00330972  0.36966477  0.56407601  1
  Nd3+  Nd42  1  0.37398598  0.50435395  0.94952761  1
  Nd3+  Nd43  1  0.88153817  0.74760052  0.41922176  1
  Nd3+  Nd44  1  0.00211766  0.62441168  0.55278636  1
  Nd3+  Nd45  1  0.25023395  0.87991873  0.05943588  1
  Nd3+  Nd46  1  -0.00323933  0.13057908  0.05072005  1
  Nd3+  Nd47  1  0.87132312  0.50206629  0.94086763  1
  Nd3+  Nd48  1  0.25354862  0.62616516  0.55604520  1
  Nd3+  Nd49  1  0.62829160  0.24653377  0.43572281  1
  Nd3+  Nd50  1  0.74495333  0.88177007  0.06362123  1
  Sm3+  Sm51  1  0.62657364  -0.00706353  0.43503948  1
  Sm3+  Sm52  1  0.00184379  0.12271645  0.55665335  1
  Sm3+  Sm53  1  0.12742237  -0.00365273  0.44807767  1
  Sm3+  Sm54  1  0.61958023  0.00680934  0.94974145  1
  Sm3+  Sm55  1  0.62579783  0.49896338  0.94708311  1
  Sm3+  Sm56  1  0.37897537  0.24403855  0.44437887  1
  Sm3+  Sm57  1  0.12023143  0.50488055  0.94739831  1
  Sm3+  Sm58  1  0.38041738  -0.00488786  0.44351650  1
  Sm3+  Sm59  1  0.12138839  0.75372272  0.94779286  1
  Sm3+  Sm60  1  0.25543195  0.87090696  0.55822905  1
  Sm3+  Sm61  1  0.24608403  0.37915370  0.05646693  1
  Sm3+  Sm62  1  0.50333248  0.62615201  0.55480386  1
  Sm3+  Sm63  1  0.24799929  0.63020556  0.05619794  1
  Bi2+  Bi64  1  0.00895573  0.16134221  0.28222897  1
  Bi2+  Bi65  1  0.07746082  0.11054904  0.78052209  1
  Bi2+  Bi66  1  0.00503148  0.35476070  0.29889670  1
  Bi2+  Bi67  1  0.00526118  0.38405763  0.78651167  1
  Bi2+  Bi68  1  0.07502391  0.62958458  0.28018327  1
  Bi2+  Bi69  1  -0.01969103  0.63620778  0.79017648  1
  Bi2+  Bi70  1  0.04512746  0.88134129  0.28631592  1
  Bi2+  Bi71  1  0.03436077  0.85816827  0.80011911  1
  Bi2+  Bi72  1  0.19821317  0.10339335  0.28487079  1
  Bi2+  Bi73  1  0.25604647  0.18772184  0.78257359  1
  Bi2+  Bi74  1  0.21310940  0.39049647  0.29504788  1
  Bi2+  Bi75  1  0.26278447  0.38603209  0.79873242  1
  Bi2+  Bi76  1  0.25540124  0.65713055  0.32243140  1
  Bi2+  Bi77  1  0.24762280  0.67565985  0.79337947  1
  Bi2+  Bi78  1  0.25438281  0.84590679  0.30723695  1
  Bi2+  Bi79  1  0.22254604  0.87106201  0.76404279  1
  Bi2+  Bi80  1  0.42990534  0.12742629  0.27394465  1
  Bi2+  Bi81  1  0.50243678  0.11790630  0.79564536  1
  Bi2+  Bi82  1  0.47719457  0.34915982  0.29000398  1
  Bi2+  Bi83  1  0.47491321  0.38050707  0.78848893  1
  Bi2+  Bi84  1  0.50481999  0.60408876  0.28459775  1
  Bi2+  Bi85  1  0.46486236  0.61418131  0.78979736  1
  Bi2+  Bi86  1  0.50631703  0.90340845  0.30122292  1
  Bi2+  Bi87  1  0.51430583  0.88148869  0.80883012  1
  Bi2+  Bi88  1  0.82028606  0.12376373  0.29252319  1
  Bi2+  Bi89  1  0.74845188  0.08279729  0.78594180  1
  Bi2+  Bi90  1  0.71956215  0.36844956  0.28326605  1
  Bi2+  Bi91  1  0.73461399  0.36543465  0.79188023  1
  Bi2+  Bi92  1  0.75772115  0.58320916  0.27692864  1
  Bi2+  Bi93  1  0.76306336  0.59568156  0.79002787  1
  Bi2+  Bi94  1  0.77032415  0.89907045  0.30104323  1
  Bi2+  Bi95  1  0.76835243  0.83494190  0.78521883  1
  Bi2+  Bi96  1  0.13247481  0.01464350  0.18449015  1
  Bi2+  Bi97  1  0.09188107  -0.05084541  0.68652278  1
  Bi2+  Bi98  1  0.11181864  0.31817781  0.19267489  1
  Bi2+  Bi99  1  0.11837899  0.25300874  0.70855747  1
  Bi2+  Bi100  1  0.15776068  0.50883912  0.20083253  1
  Bi2+  Bi101  1  0.13914052  0.52437790  0.75239140  1
  Bi2+  Bi102  1  0.15622447  0.77339168  0.21450330  1
  Bi2+  Bi103  1  0.09705743  0.75616510  0.69511103  1
  Bi2+  Bi104  1  0.31776597  -0.01078028  0.21750386  1
  Bi2+  Bi105  1  0.34410022  -0.00064220  0.71435201  1
  Bi2+  Bi106  1  0.29209391  0.23182571  0.21644061  1
  Bi2+  Bi107  1  0.35715517  0.30524984  0.70492747  1
  Bi2+  Bi108  1  0.34328980  0.51538000  0.24716190  1
  Bi2+  Bi109  1  0.34204809  0.51726007  0.71466141  1
  Bi2+  Bi110  1  0.35283613  0.73030370  0.21862152  1
  Bi2+  Bi111  1  0.37404338  0.72937196  0.70870363  1
  Bi2+  Bi112  1  0.67635944  0.01256109  0.21208295  1
  Bi2+  Bi113  1  0.64714430  0.00317613  0.69607458  1
  Bi2+  Bi114  1  0.64105059  0.25603884  0.19692511  1
  Bi2+  Bi115  1  0.61156791  0.24675767  0.69223078  1
  Bi2+  Bi116  1  0.57939878  0.45875333  0.21204198  1
  Bi2+  Bi117  1  0.60911798  0.50804259  0.74356636  1
  Bi2+  Bi118  1  0.62704303  0.76242448  0.20753233  1
  Bi2+  Bi119  1  0.66140748  0.71051291  0.70916828  1
  Bi2+  Bi120  1  0.94452078  -0.01381535  0.20998431  1
  Bi2+  Bi121  1  0.91929754  -0.02668824  0.73540207  1
  Bi2+  Bi122  1  0.87848010  0.23113445  0.20160421  1
  Bi2+  Bi123  1  0.86529997  0.25068534  0.69551877  1
  Bi2+  Bi124  1  0.91888706  0.49105992  0.23493536  1
  Bi2+  Bi125  1  0.88948918  0.52089960  0.71246470  1
  Bi2+  Bi126  1  0.87203572  0.73789865  0.21228711  1
  Bi2+  Bi127  1  0.89205465  0.75774289  0.70316157  1
  S2-  S128  1  -0.00120105  0.12287430  0.14995326  1
  S2-  S129  1  -0.00766334  0.16417424  0.65211623  1
  S2-  S130  1  -0.05294682  0.37444852  0.15513191  1
  S2-  S131  1  -0.05015320  0.38897432  0.65824680  1
  S2-  S132  1  -0.07220904  0.61537957  0.15893049  1
  S2-  S133  1  -0.00231556  0.63069582  0.65185215  1
  S2-  S134  1  -0.03491909  0.83287287  0.15759488  1
  S2-  S135  1  -0.12309013  0.87531573  0.63608097  1
  S2-  S136  1  0.35056648  0.11846705  0.14369829  1
  S2-  S137  1  0.26369638  0.10412934  0.66237304  1
  S2-  S138  1  0.26825618  0.36726489  0.15274916  1
  S2-  S139  1  0.21028547  0.36562163  0.65674021  1
  S2-  S140  1  0.24293540  0.64419649  0.15340816  1
  S2-  S141  1  0.25950113  0.63187054  0.65479721  1
  S2-  S142  1  0.33445133  0.86622178  0.14640465  1
  S2-  S143  1  0.33645743  0.86637801  0.64451709  1
  S2-  S144  1  0.55736008  0.11478240  0.18187597  1
  S2-  S145  1  0.52010298  0.12431463  0.65944094  1
  S2-  S146  1  0.49815402  0.30965004  0.15570901  1
  S2-  S147  1  0.50913632  0.36094543  0.65556562  1
  S2-  S148  1  0.49242940  0.70879035  0.15097398  1
  S2-  S149  1  0.50868433  0.69801430  0.64410168  1
  S2-  S150  1  0.53884906  0.91222376  0.19548534  1
  S2-  S151  1  0.50619800  0.92261183  0.70689519  1
  S2-  S152  1  0.76315427  0.13130303  0.15372513  1
  S2-  S153  1  0.75885561  0.12871661  0.65417874  1
  S2-  S154  1  0.72272845  0.40446409  0.16169035  1
  S2-  S155  1  0.73803367  0.35249537  0.66068831  1
  S2-  S156  1  0.72000085  0.64777928  0.16881117  1
  S2-  S157  1  0.75444802  0.61476316  0.65310888  1
  S2-  S158  1  0.74166581  0.87317900  0.16340669  1
  S2-  S159  1  0.66460985  0.85899152  0.64456906  1
  S2-  S160  1  0.14743189  -0.02712352  0.35185985  1
  S2-  S161  1  0.14559719  -0.01439899  0.83939884  1
  S2-  S162  1  0.14715086  0.25105911  0.34508708  1
  S2-  S163  1  0.03450504  0.25221302  0.84721599  1
  S2-  S164  1  0.09065675  0.48512208  0.34600071  1
  S2-  S165  1  0.11879858  0.46474739  0.85253724  1
  S2-  S166  1  0.01717116  0.75063363  0.35237170  1
  S2-  S167  1  0.10645193  0.72287598  0.85197562  1
  S2-  S168  1  0.39398455  0.01576264  0.34517132  1
  S2-  S169  1  0.39476008  0.00701775  0.83693107  1
  S2-  S170  1  0.38433176  0.24361133  0.34600450  1
  S2-  S171  1  0.46331585  0.24151264  0.85553898  1
  S2-  S172  1  0.42896029  0.48661903  0.34928173  1
  S2-  S173  1  0.38501983  0.49282538  0.85082553  1
  S2-  S174  1  0.46525017  0.74887739  0.34391972  1
  S2-  S175  1  0.39965203  0.76646946  0.83853912  1
  S2-  S176  1  0.62626314  0.01109829  0.33592081  1
  S2-  S177  1  0.60965697  0.01002099  0.85028706  1
  S2-  S178  1  0.61105909  0.27574845  0.33690816  1
  S2-  S179  1  0.64887171  0.21156512  0.81256056  1
  S2-  S180  1  0.63427322  0.59083608  0.35057198  1
  S2-  S181  1  0.62293781  0.41360317  0.86100748  1
  S2-  S182  1  0.64054405  0.80556842  0.31268869  1
  S2-  S183  1  0.62939745  0.78003815  0.84171587  1
  S2-  S184  1  0.90281837  -0.01242832  0.34429068  1
  S2-  S185  1  0.85177961  -0.02741822  0.84078210  1
  S2-  S186  1  0.83114548  0.27858960  0.34494040  1
  S2-  S187  1  0.84589493  0.21148349  0.80042981  1
  S2-  S188  1  0.86387759  0.51848798  0.33819700  1
  S2-  S189  1  0.86924280  0.41741666  0.85217023  1
  S2-  S190  1  0.82507641  0.74485877  0.31953350  1
  S2-  S191  1  0.85506089  0.72142598  0.84544859  1
  S2-  S192  1  0.00307624  0.11968988  0.45018423  1
  S2-  S193  1  -0.00650906  0.12982320  0.94484268  1
  S2-  S194  1  0.00161413  0.37045670  0.45526396  1
  S2-  S195  1  -0.00211727  0.37959899  0.95542712  1
  S2-  S196  1  0.00418892  0.61838390  0.44757906  1
  S2-  S197  1  -0.00255118  0.62798648  0.95805158  1
  S2-  S198  1  0.00502615  0.87416076  0.45701412  1
  S2-  S199  1  -0.00247097  0.87809652  0.95529263  1
  S2-  S200  1  0.25484479  0.11932045  0.45388310  1
  S2-  S201  1  0.24794928  0.12874623  0.95034473  1
  S2-  S202  1  0.25557059  0.36920212  0.45368622  1
  S2-  S203  1  0.24697982  0.38181524  0.95213283  1
  S2-  S204  1  0.25053354  0.61977097  0.45040326  1
  S2-  S205  1  0.24528532  0.62820008  0.95107396  1
  S2-  S206  1  0.25360651  0.87425063  0.45392897  1
  S2-  S207  1  0.24767859  0.87670297  0.95071404  1
  S2-  S208  1  0.50374322  0.12131931  0.45090299  1
  S2-  S209  1  0.50031640  0.13025013  0.96183845  1
  S2-  S210  1  0.50109129  0.36899382  0.45211340  1
  S2-  S211  1  0.49717130  0.38104803  0.96124169  1
  S2-  S212  1  0.49874873  0.62066117  0.45156204  1
  S2-  S213  1  0.50258492  0.62536261  0.95310152  1
  S2-  S214  1  0.50301535  0.87521815  0.44262053  1
  S2-  S215  1  0.50130594  0.87864093  0.95219611  1
  S2-  S216  1  0.74966158  0.12011228  0.44665311  1
  S2-  S217  1  0.74583948  0.13477522  0.94396258  1
  S2-  S218  1  0.75030346  0.37362593  0.45334587  1
  S2-  S219  1  0.75028082  0.37422638  0.95645838  1
  S2-  S220  1  0.75707814  0.62291132  0.44615884  1
  S2-  S221  1  0.74637791  0.62638889  0.95738170  1
  S2-  S222  1  0.75025002  0.86834399  0.44368486  1
  S2-  S223  1  0.74467088  0.88074931  0.95573169  1
  S2-  S224  1  0.12351537  0.00368063  0.04479823  1
  S2-  S225  1  0.12696257  -0.00379344  0.55212946  1
  S2-  S226  1  0.12603550  0.25207950  0.04324516  1
  S2-  S227  1  0.12944870  0.24518547  0.55031125  1
  S2-  S228  1  0.12347860  0.50518964  0.05276335  1
  S2-  S229  1  0.12846718  0.49723910  0.54972368  1
  S2-  S230  1  0.12356634  0.75572264  0.05291033  1
  S2-  S231  1  0.12899602  0.74985627  0.54229728  1
  S2-  S232  1  0.37701589  -0.00139875  0.04559730  1
  S2-  S233  1  0.38264300  -0.00675535  0.54816687  1
  S2-  S234  1  0.36959100  0.25834162  0.04653277  1
  S2-  S235  1  0.37962566  0.24553409  0.55011652  1
  S2-  S236  1  0.37020614  0.50531550  0.05627435  1
  S2-  S237  1  0.37857686  0.49959857  0.55100290  1
  S2-  S238  1  0.37198255  0.75106234  0.04354452  1
  S2-  S239  1  0.37799516  0.74824121  0.53911204  1
  S2-  S240  1  0.61708185  0.00230593  0.05637089  1
  S2-  S241  1  0.62556048  -0.00512143  0.54210573  1
  S2-  S242  1  0.62247334  0.25585569  0.05117809  1
  S2-  S243  1  0.62877527  0.24747506  0.54339727  1
  S2-  S244  1  0.62616449  0.50496866  0.05211096  1
  S2-  S245  1  0.62705972  0.49982661  0.54504561  1
  S2-  S246  1  0.62320465  0.75619374  0.04934984  1
  S2-  S247  1  0.62353126  0.74652411  0.53571412  1
  S2-  S248  1  0.87256894  0.00433149  0.04720237  1
  S2-  S249  1  0.87868690  0.00135030  0.54470771  1
  S2-  S250  1  0.87367711  0.25244046  0.04629920  1
  S2-  S251  1  0.87779851  0.24731069  0.54490094  1
  S2-  S252  1  0.87243524  0.50401976  0.04787826  1
  S2-  S253  1  0.87818059  0.49764054  0.54526907  1
  S2-  S254  1  0.87201543  0.75710502  0.04934724  1
  S2-  S255  1  0.87978679  0.74682853  0.53337841  1
