# generated using pymatgen
data_La6Ce6Pr19Nd20Sm13(BiS2)64
_symmetry_space_group_name_H-M   'P 1'
_cell_length_a   16.10634937
_cell_length_b   16.08304442
_cell_length_c   27.21080916
_cell_angle_alpha   90.08280691
_cell_angle_beta   89.90395107
_cell_angle_gamma   89.91672777
_symmetry_Int_Tables_number   1
_chemical_formula_structural   La6Ce6Pr19Nd20Sm13(BiS2)64
_chemical_formula_sum   'La6 Ce6 Pr19 Nd20 Sm13 Bi64 S128'
_cell_volume   7048.63966030
_cell_formula_units_Z   1
loop_
 _symmetry_equiv_pos_site_id
 _symmetry_equiv_pos_as_xyz
  1  'x, y, z'
loop_
 _atom_type_symbol
 _atom_type_oxidation_number
  La3+  3.0
  Ce3+  3.0
  Pr3+  3.0
  Nd3+  3.0
  Sm3+  3.0
  Bi2+  2.0
  S2-  -2.0
loop_
 _atom_site_type_symbol
 _atom_site_label
 _atom_site_symmetry_multiplicity
 _atom_site_fract_x
 _atom_site_fract_y
 _atom_site_fract_z
 _atom_site_occupancy
  La3+  La0  1  0.87781255  0.01413524  0.39662145  1
  La3+  La1  1  0.36574023  0.23456892  0.92155086  1
  La3+  La2  1  0.13082234  0.49505103  0.90862083  1
  La3+  La3  1  0.13461946  0.25767779  0.42284269  1
  La3+  La4  1  0.74201269  0.86267663  0.09195935  1
  La3+  La5  1  0.63949802  -0.01954250  0.91158395  1
  Ce3+  Ce6  1  0.87093097  0.23521665  0.94639665  1
  Ce3+  Ce7  1  0.51055451  0.63037072  0.56882379  1
  Ce3+  Ce8  1  0.13232247  0.00963594  0.43218741  1
  Ce3+  Ce9  1  0.24715044  0.86497431  0.05981772  1
  Ce3+  Ce10  1  0.62391022  0.74215749  0.94695597  1
  Ce3+  Ce11  1  0.25251357  0.63421766  0.55254330  1
  Pr3+  Pr12  1  0.37964234  0.50939582  0.43743018  1
  Pr3+  Pr13  1  0.01098528  0.85394851  0.08705384  1
  Pr3+  Pr14  1  0.88736278  0.75358713  0.41815312  1
  Pr3+  Pr15  1  0.52032856  0.88450459  0.57553468  1
  Pr3+  Pr16  1  0.49473063  0.86752547  0.06793473  1
  Pr3+  Pr17  1  0.74580197  0.12295712  0.07713313  1
  Pr3+  Pr18  1  0.62062799  0.50953042  0.42193462  1
  Pr3+  Pr19  1  0.00386878  0.11444701  0.07965561  1
  Pr3+  Pr20  1  0.74223483  0.61357695  0.07055000  1
  Pr3+  Pr21  1  0.11832316  -0.01076552  0.93981428  1
  Pr3+  Pr22  1  0.49497124  0.61520377  0.06325068  1
  Pr3+  Pr23  1  0.38800883  0.24725640  0.42909837  1
  Pr3+  Pr24  1  -0.00256834  0.61228082  0.06086217  1
  Pr3+  Pr25  1  0.62220251  0.23740259  0.93489053  1
  Pr3+  Pr26  1  0.01511493  0.64079752  0.57647012  1
  Pr3+  Pr27  1  0.25231366  0.12318276  0.07520736  1
  Pr3+  Pr28  1  0.12661597  0.50851888  0.42466703  1
  Pr3+  Pr29  1  0.49627693  0.11476423  0.05487398  1
  Pr3+  Pr30  1  0.87020641  0.49043994  0.93278605  1
  Nd3+  Nd31  1  0.87053294  0.74353719  0.95034079  1
  Nd3+  Nd32  1  0.75530544  0.13017162  0.56676646  1
  Nd3+  Nd33  1  0.12090210  0.23519960  0.93848881  1
  Nd3+  Nd34  1  0.24435114  0.61357904  0.05861232  1
  Nd3+  Nd35  1  0.74811061  0.36567042  0.06125576  1
  Nd3+  Nd36  1  0.38700675  0.00867087  0.44816200  1
  Nd3+  Nd37  1  0.00085787  0.36741748  0.05038364  1
  Nd3+  Nd38  1  0.00897521  0.38648836  0.56095005  1
  Nd3+  Nd39  1  0.62013787  0.49091221  0.93977006  1
  Nd3+  Nd40  1  0.00830105  0.13168758  0.56268754  1
  Nd3+  Nd41  1  0.88115406  0.25753910  0.44598376  1
  Nd3+  Nd42  1  0.63371175  0.00638621  0.43634323  1
  Nd3+  Nd43  1  0.24538719  0.37134378  0.06055818  1
  Nd3+  Nd44  1  0.11709797  0.74560961  0.93225724  1
  Nd3+  Nd45  1  0.63006720  0.75949962  0.43448744  1
  Nd3+  Nd46  1  0.50537064  0.38924832  0.56524934  1
  Nd3+  Nd47  1  0.88147884  0.51176570  0.43724810  1
  Nd3+  Nd48  1  0.37409493  -0.01547176  0.93455830  1
  Nd3+  Nd49  1  0.49449337  0.36179188  0.05624608  1
  Nd3+  Nd50  1  0.25172496  0.13484204  0.56516178  1
  Sm3+  Sm51  1  0.25732369  0.88406991  0.55741923  1
  Sm3+  Sm52  1  0.00534580  0.88149214  0.54877915  1
  Sm3+  Sm53  1  0.13126277  0.76863412  0.42740721  1
  Sm3+  Sm54  1  0.37295830  0.49042085  0.93826579  1
  Sm3+  Sm55  1  0.49325761  0.14598503  0.57894129  1
  Sm3+  Sm56  1  0.25354466  0.38357353  0.55336763  1
  Sm3+  Sm57  1  0.75725531  0.38763304  0.55609953  1
  Sm3+  Sm58  1  0.63370731  0.25542035  0.45248014  1
  Sm3+  Sm59  1  0.37498714  0.74530511  0.93787573  1
  Sm3+  Sm60  1  0.38466452  0.75842992  0.45094200  1
  Sm3+  Sm61  1  0.86915641  -0.01243507  0.96383411  1
  Sm3+  Sm62  1  0.76221834  0.88152564  0.55324342  1
  Sm3+  Sm63  1  0.75946791  0.63403353  0.55172125  1
  Bi2+  Bi64  1  0.01149100  0.18208717  0.28689148  1
  Bi2+  Bi65  1  0.06411499  0.11467008  0.82150195  1
  Bi2+  Bi66  1  -0.07238505  0.42782486  0.31303280  1
  Bi2+  Bi67  1  -0.03204841  0.36174661  0.79472874  1
  Bi2+  Bi68  1  0.00841378  0.59620752  0.28794952  1
  Bi2+  Bi69  1  -0.01615901  0.63558427  0.78868033  1
  Bi2+  Bi70  1  0.03347119  0.86712075  0.28555016  1
  Bi2+  Bi71  1  -0.00541447  0.83644315  0.77934629  1
  Bi2+  Bi72  1  0.27297995  0.13527692  0.29342350  1
  Bi2+  Bi73  1  0.25218849  0.12002094  0.78369332  1
  Bi2+  Bi74  1  0.20938351  0.38761312  0.27740083  1
  Bi2+  Bi75  1  0.27087872  0.36570815  0.78788128  1
  Bi2+  Bi76  1  0.20860799  0.57400371  0.30507234  1
  Bi2+  Bi77  1  0.24854291  0.70769104  0.78700556  1
  Bi2+  Bi78  1  0.27879178  0.83132496  0.28420884  1
  Bi2+  Bi79  1  0.23996184  0.90251753  0.80178063  1
  Bi2+  Bi80  1  0.51207218  0.15468318  0.28419340  1
  Bi2+  Bi81  1  0.49379598  0.16102536  0.79271510  1
  Bi2+  Bi82  1  0.51371417  0.37609934  0.27576857  1
  Bi2+  Bi83  1  0.56231093  0.38913731  0.79284958  1
  Bi2+  Bi84  1  0.47434318  0.62073602  0.29388777  1
  Bi2+  Bi85  1  0.52003037  0.57959463  0.82204461  1
  Bi2+  Bi86  1  0.46330773  0.89000188  0.29681191  1
  Bi2+  Bi87  1  0.49592432  0.77028493  0.79419447  1
  Bi2+  Bi88  1  0.73292730  0.17980980  0.29359972  1
  Bi2+  Bi89  1  0.87506698  0.09904677  0.79985664  1
  Bi2+  Bi90  1  0.70796926  0.41592190  0.30991704  1
  Bi2+  Bi91  1  0.78596516  0.32754632  0.75667491  1
  Bi2+  Bi92  1  0.73434195  0.60959715  0.28189349  1
  Bi2+  Bi93  1  0.74515431  0.67643972  0.74748310  1
  Bi2+  Bi94  1  0.71446450  0.89266276  0.29049394  1
  Bi2+  Bi95  1  0.76952322  0.85473814  0.79964825  1
  Bi2+  Bi96  1  0.19830184  -0.00242296  0.22463135  1
  Bi2+  Bi97  1  0.13412011  0.00994896  0.70920636  1
  Bi2+  Bi98  1  0.09829206  0.25075029  0.19809291  1
  Bi2+  Bi99  1  0.08982397  0.23152798  0.72382184  1
  Bi2+  Bi100  1  0.10216351  0.50207675  0.20135702  1
  Bi2+  Bi101  1  0.12024628  0.48896030  0.69694338  1
  Bi2+  Bi102  1  0.17387846  0.71598817  0.20301821  1
  Bi2+  Bi103  1  0.12828294  0.76647994  0.70134180  1
  Bi2+  Bi104  1  0.38758023  -0.01930663  0.20111630  1
  Bi2+  Bi105  1  0.35000526  -0.01564440  0.71883362  1
  Bi2+  Bi106  1  0.36904970  0.25195127  0.20824257  1
  Bi2+  Bi107  1  0.35406962  0.27138489  0.69882066  1
  Bi2+  Bi108  1  0.33560965  0.59444501  0.20932837  1
  Bi2+  Bi109  1  0.35649833  0.54142555  0.75658371  1
  Bi2+  Bi110  1  0.36904109  0.78103542  0.17188779  1
  Bi2+  Bi111  1  0.38527582  0.70821405  0.70196704  1
  Bi2+  Bi112  1  0.58421435  0.01337363  0.21646347  1
  Bi2+  Bi113  1  0.61129020  -0.02820190  0.72204367  1
  Bi2+  Bi114  1  0.57551233  0.26397567  0.18881586  1
  Bi2+  Bi115  1  0.64697071  0.23065151  0.69572148  1
  Bi2+  Bi116  1  0.63258304  0.48357332  0.20530892  1
  Bi2+  Bi117  1  0.61227527  0.53962764  0.71405170  1
  Bi2+  Bi118  1  0.54845197  0.74907345  0.22210245  1
  Bi2+  Bi119  1  0.57753444  0.73377613  0.68819687  1
  Bi2+  Bi120  1  0.87177582  0.02944077  0.21479806  1
  Bi2+  Bi121  1  0.94059636  -0.01192036  0.70691968  1
  Bi2+  Bi122  1  0.83083516  0.35250981  0.22543688  1
  Bi2+  Bi123  1  0.90719358  0.18995337  0.69526953  1
  Bi2+  Bi124  1  0.82427743  0.54120744  0.18753980  1
  Bi2+  Bi125  1  0.85427454  0.48620347  0.70224584  1
  Bi2+  Bi126  1  0.89342406  0.76261084  0.21035122  1
  Bi2+  Bi127  1  0.83810836  0.82306974  0.69080116  1
  S2-  S128  1  -0.05596728  0.16500897  0.17314771  1
  S2-  S129  1  0.12597466  0.14229773  0.63821643  1
  S2-  S130  1  0.01642371  0.38652522  0.14942858  1
  S2-  S131  1  0.02465083  0.37354606  0.66101828  1
  S2-  S132  1  0.01823271  0.69804971  0.14894700  1
  S2-  S133  1  -0.02494342  0.58235072  0.67490092  1
  S2-  S134  1  -0.01668111  0.91051949  0.18449393  1
  S2-  S135  1  0.00349824  0.79194034  0.63423227  1
  S2-  S136  1  0.13693596  0.09484394  0.15206952  1
  S2-  S137  1  0.35456259  0.13261462  0.64722326  1
  S2-  S138  1  0.23973894  0.27082512  0.14320341  1
  S2-  S139  1  0.24889881  0.39568778  0.65304657  1
  S2-  S140  1  0.23919148  0.49998340  0.13578006  1
  S2-  S141  1  0.17007864  0.62673623  0.63817712  1
  S2-  S142  1  0.17058765  0.86103052  0.14635898  1
  S2-  S143  1  0.23500616  0.88749245  0.65521471  1
  S2-  S144  1  0.39692437  0.12363735  0.13983071  1
  S2-  S145  1  0.56506543  0.09344885  0.66499899  1
  S2-  S146  1  0.45244701  0.37694937  0.15226152  1
  S2-  S147  1  0.50017440  0.29081057  0.64919634  1
  S2-  S148  1  0.56922647  0.61329883  0.15373136  1
  S2-  S149  1  0.50257412  0.51311422  0.64065643  1
  S2-  S150  1  0.58963478  0.86969360  0.15325150  1
  S2-  S151  1  0.46982980  0.90648510  0.67273548  1
  S2-  S152  1  0.72129465  0.08175392  0.17566893  1
  S2-  S153  1  0.76119274  0.11320316  0.66745998  1
  S2-  S154  1  0.73515914  0.28252702  0.14751374  1
  S2-  S155  1  0.74384172  0.36838736  0.65383643  1
  S2-  S156  1  0.76776198  0.70768785  0.15423455  1
  S2-  S157  1  0.75923799  0.60061019  0.64896319  1
  S2-  S158  1  0.78654601  0.88839008  0.19416767  1
  S2-  S159  1  0.68622536  0.87603035  0.64293534  1
  S2-  S160  1  0.15591355  -0.09999525  0.35281842  1
  S2-  S161  1  0.09948707  -0.12537576  0.86198648  1
  S2-  S162  1  0.12758704  0.12684134  0.35515456  1
  S2-  S163  1  0.21849469  0.24869214  0.85699805  1
  S2-  S164  1  0.08873872  0.38321310  0.35034621  1
  S2-  S165  1  0.10896251  0.43473761  0.80738166  1
  S2-  S166  1  0.03050357  0.74272215  0.34830018  1
  S2-  S167  1  0.11200614  0.64161943  0.84985729  1
  S2-  S168  1  0.40089163  0.09857680  0.36218551  1
  S2-  S169  1  0.38064483  0.09365348  0.85488310  1
  S2-  S170  1  0.28391098  0.27750077  0.34746098  1
  S2-  S171  1  0.41845162  0.31614774  0.83224598  1
  S2-  S172  1  0.47668337  0.48143658  0.35574282  1
  S2-  S173  1  0.29104039  0.50030483  0.85260066  1
  S2-  S174  1  0.39447170  0.74928392  0.35244965  1
  S2-  S175  1  0.38764044  0.85469563  0.86031755  1
  S2-  S176  1  0.72437901  0.04214004  0.34635017  1
  S2-  S177  1  0.58531669  0.02379948  0.81269509  1
  S2-  S178  1  0.61276719  0.23246799  0.35558412  1
  S2-  S179  1  0.62301202  0.23522791  0.83304480  1
  S2-  S180  1  0.62020448  0.64801620  0.35409277  1
  S2-  S181  1  0.67415656  0.47976607  0.84591925  1
  S2-  S182  1  0.59663710  0.88214408  0.36374687  1
  S2-  S183  1  0.63456014  0.82089962  0.85940151  1
  S2-  S184  1  0.96352497  0.02529468  0.30578808  1
  S2-  S185  1  0.80820663  -0.01507536  0.86937664  1
  S2-  S186  1  0.87789468  0.19956574  0.35198110  1
  S2-  S187  1  0.84883103  0.25971658  0.85053461  1
  S2-  S188  1  0.86821592  0.60807033  0.35238849  1
  S2-  S189  1  0.90416702  0.50989345  0.83355822  1
  S2-  S190  1  0.85012165  0.85799767  0.33701357  1
  S2-  S191  1  0.88717948  0.74727537  0.85004017  1
  S2-  S192  1  -0.00091002  0.12851061  0.45701106  1
  S2-  S193  1  -0.00653762  0.11203741  0.96147254  1
  S2-  S194  1  0.00163018  0.38438563  0.45617144  1
  S2-  S195  1  -0.00143931  0.36460970  0.94319766  1
  S2-  S196  1  0.01045108  0.63314859  0.45492306  1
  S2-  S197  1  -0.00608071  0.61526326  0.95322012  1
  S2-  S198  1  0.00008146  0.88973547  0.44604545  1
  S2-  S199  1  -0.00877066  0.86637019  0.96838418  1
  S2-  S200  1  0.25937230  0.13100141  0.45905521  1
  S2-  S201  1  0.24435856  0.10880203  0.95815090  1
  S2-  S202  1  0.25585717  0.38732761  0.44899682  1
  S2-  S203  1  0.24607246  0.37046719  0.95321002  1
  S2-  S204  1  0.25373195  0.63859106  0.44545264  1
  S2-  S205  1  0.25343911  0.62251898  0.95274058  1
  S2-  S206  1  0.26438544  0.88314880  0.45364844  1
  S2-  S207  1  0.24736223  0.86277529  0.95542422  1
  S2-  S208  1  0.51326835  0.13178230  0.46799308  1
  S2-  S209  1  0.50843179  0.10459117  0.94943239  1
  S2-  S210  1  0.50700263  0.37684870  0.45761893  1
  S2-  S211  1  0.49683564  0.36589406  0.94898747  1
  S2-  S212  1  0.50353450  0.63331496  0.46110648  1
  S2-  S213  1  0.49497014  0.61777401  0.95502941  1
  S2-  S214  1  0.50421957  0.88161976  0.46717564  1
  S2-  S215  1  0.50413485  0.86810325  0.96112709  1
  S2-  S216  1  0.75845261  0.13260583  0.46020793  1
  S2-  S217  1  0.74520208  0.11365874  0.96358313  1
  S2-  S218  1  0.75487778  0.38469470  0.45099332  1
  S2-  S219  1  0.74579382  0.36473472  0.95481201  1
  S2-  S220  1  0.75177102  0.63068692  0.45046250  1
  S2-  S221  1  0.74679803  0.61491465  0.95692111  1
  S2-  S222  1  0.76205528  0.88433986  0.45105784  1
  S2-  S223  1  0.74647603  0.86558737  0.97125490  1
  S2-  S224  1  0.12071764  -0.01239908  0.04635384  1
  S2-  S225  1  0.13093642  0.00227655  0.54142177  1
  S2-  S226  1  0.12033924  0.24018586  0.04289846  1
  S2-  S227  1  0.12974000  0.26251054  0.53715668  1
  S2-  S228  1  0.12076655  0.49224808  0.03220483  1
  S2-  S229  1  0.13012563  0.50767294  0.53612803  1
  S2-  S230  1  0.12481302  0.73660608  0.03993181  1
  S2-  S231  1  0.13430106  0.76370654  0.53383395  1
  S2-  S232  1  0.36921889  -0.01141514  0.04297068  1
  S2-  S233  1  0.38453055  0.00473100  0.55260509  1
  S2-  S234  1  0.37166128  0.24292561  0.03367386  1
  S2-  S235  1  0.37660725  0.26296934  0.53968232  1
  S2-  S236  1  0.37486781  0.49097875  0.04148309  1
  S2-  S237  1  0.37509013  0.50917134  0.54323566  1
  S2-  S238  1  0.37133282  0.73892393  0.04295705  1
  S2-  S239  1  0.38193326  0.75846383  0.55600247  1
  S2-  S240  1  0.62398442  -0.00457085  0.05751153  1
  S2-  S241  1  0.63755843  0.00724727  0.54503332  1
  S2-  S242  1  0.62055789  0.24080398  0.04256792  1
  S2-  S243  1  0.63493359  0.25940074  0.55410694  1
  S2-  S244  1  0.62046543  0.48676786  0.04749005  1
  S2-  S245  1  0.63617513  0.50845319  0.53934700  1
  S2-  S246  1  0.62020997  0.73933627  0.05096486  1
  S2-  S247  1  0.63628830  0.75553286  0.54239397  1
  S2-  S248  1  0.87313354  -0.00935093  0.06756545  1
  S2-  S249  1  0.88396308  0.00501858  0.55936602  1
  S2-  S250  1  0.87704849  0.24161895  0.05141002  1
  S2-  S251  1  0.88128104  0.26021527  0.55253361  1
  S2-  S252  1  0.87050443  0.48967120  0.04315236  1
  S2-  S253  1  0.88333296  0.50979272  0.54531261  1
  S2-  S254  1  0.87311191  0.74019297  0.05401585  1
  S2-  S255  1  0.88127986  0.75515879  0.53614437  1
