# generated using pymatgen
data_La6Ce6Pr19Nd20Sm13(BiS2)64
_symmetry_space_group_name_H-M   'P 1'
_cell_length_a   16.05708436
_cell_length_b   16.11616414
_cell_length_c   27.26107699
_cell_angle_alpha   89.94776449
_cell_angle_beta   90.15569620
_cell_angle_gamma   90.04046412
_symmetry_Int_Tables_number   1
_chemical_formula_structural   La6Ce6Pr19Nd20Sm13(BiS2)64
_chemical_formula_sum   'La6 Ce6 Pr19 Nd20 Sm13 Bi64 S128'
_cell_volume   7054.55280714
_cell_formula_units_Z   1
loop_
 _symmetry_equiv_pos_site_id
 _symmetry_equiv_pos_as_xyz
  1  'x, y, z'
loop_
 _atom_type_symbol
 _atom_type_oxidation_number
  La3+  3.0
  Ce3+  3.0
  Pr3+  3.0
  Nd3+  3.0
  Sm3+  3.0
  Bi2+  2.0
  S2-  -2.0
loop_
 _atom_site_type_symbol
 _atom_site_label
 _atom_site_symmetry_multiplicity
 _atom_site_fract_x
 _atom_site_fract_y
 _atom_site_fract_z
 _atom_site_occupancy
  La3+  La0  1  0.61606912  0.48884778  0.92339972  1
  La3+  La1  1  0.38412328  0.76085182  0.40112634  1
  La3+  La2  1  0.51553982  0.60631874  0.08413033  1
  La3+  La3  1  0.62699335  0.74574002  0.89274855  1
  La3+  La4  1  0.88736966  0.75913695  0.40381971  1
  La3+  La5  1  0.01411166  0.39425019  0.59201116  1
  Ce3+  Ce6  1  0.75965734  0.88897114  0.55292988  1
  Ce3+  Ce7  1  0.00480685  0.88700126  0.56890983  1
  Ce3+  Ce8  1  0.38174530  0.49290111  0.95266617  1
  Ce3+  Ce9  1  0.25013226  0.61419612  0.06757532  1
  Ce3+  Ce10  1  0.38478991  0.73879794  0.95210878  1
  Ce3+  Ce11  1  0.74763890  0.61540371  0.04603379  1
  Pr3+  Pr12  1  0.38434517  0.01435826  0.43386474  1
  Pr3+  Pr13  1  0.63488271  0.01597097  0.43520536  1
  Pr3+  Pr14  1  0.87036531  -0.01384294  0.93759424  1
  Pr3+  Pr15  1  0.63301590  0.51873570  0.43868382  1
  Pr3+  Pr16  1  0.88537463  0.50951639  0.43801778  1
  Pr3+  Pr17  1  0.00892161  0.13820157  0.56292554  1
  Pr3+  Pr18  1  0.74778468  0.36523346  0.06014607  1
  Pr3+  Pr19  1  0.50135849  0.87081710  0.07753132  1
  Pr3+  Pr20  1  0.87987181  0.73354237  0.92892210  1
  Pr3+  Pr21  1  -0.00245585  0.60846481  0.06890202  1
  Pr3+  Pr22  1  0.88979234  0.01383131  0.42841511  1
  Pr3+  Pr23  1  0.49886919  0.35819007  0.06588145  1
  Pr3+  Pr24  1  0.24760619  0.86327649  0.06002035  1
  Pr3+  Pr25  1  0.26341532  0.14143229  0.56508914  1
  Pr3+  Pr26  1  0.50685647  0.64935933  0.55982566  1
  Pr3+  Pr27  1  0.13414929  0.01430283  0.44341247  1
  Pr3+  Pr28  1  0.24996962  0.36198432  0.05714626  1
  Pr3+  Pr29  1  0.39316636  0.26444728  0.42923151  1
  Pr3+  Pr30  1  0.62293855  0.23763765  0.92754534  1
  Nd3+  Nd31  1  0.49761269  0.11399820  0.06608929  1
  Nd3+  Nd32  1  0.38334514  0.51353557  0.43423946  1
  Nd3+  Nd33  1  0.62425544  -0.01306529  0.94392019  1
  Nd3+  Nd34  1  0.13097782  0.51423610  0.44387099  1
  Nd3+  Nd35  1  0.12434005  0.24570245  0.93521921  1
  Nd3+  Nd36  1  0.12756733  0.49242922  0.93799424  1
  Nd3+  Nd37  1  0.75281170  0.86120644  0.06400691  1
  Nd3+  Nd38  1  0.76003165  0.64190590  0.55785233  1
  Nd3+  Nd39  1  0.37411948  -0.01300077  0.94234575  1
  Nd3+  Nd40  1  0.50976434  0.39533984  0.56503537  1
  Nd3+  Nd41  1  0.37530809  0.23501033  0.93612673  1
  Nd3+  Nd42  1  0.12533630  0.73726396  0.93690412  1
  Nd3+  Nd43  1  0.75207466  0.11547654  0.05915037  1
  Nd3+  Nd44  1  0.13379538  0.26600095  0.44579023  1
  Nd3+  Nd45  1  0.23998046  0.11056700  0.06139329  1
  Nd3+  Nd46  1  0.87576014  0.48063378  0.92877559  1
  Nd3+  Nd47  1  0.51277047  0.13592801  0.57524197  1
  Nd3+  Nd48  1  0.11559621  -0.00780935  0.92709923  1
  Nd3+  Nd49  1  0.00866921  0.64396761  0.56712872  1
  Nd3+  Nd50  1  0.75902363  0.13881844  0.56555501  1
  Sm3+  Sm51  1  0.63715049  0.76764399  0.42617304  1
  Sm3+  Sm52  1  0.75998483  0.39351513  0.56251840  1
  Sm3+  Sm53  1  0.25950500  0.39266659  0.56159889  1
  Sm3+  Sm54  1  0.26149644  0.64540997  0.55484225  1
  Sm3+  Sm55  1  0.12936889  0.76554432  0.44384493  1
  Sm3+  Sm56  1  0.88366931  0.26879544  0.44713902  1
  Sm3+  Sm57  1  -0.00169564  0.86235796  0.05659730  1
  Sm3+  Sm58  1  -0.00068716  0.36578904  0.06464291  1
  Sm3+  Sm59  1  0.87531530  0.24266958  0.94236735  1
  Sm3+  Sm60  1  0.51128326  0.89230207  0.55718568  1
  Sm3+  Sm61  1  0.26278379  0.89009020  0.55628819  1
  Sm3+  Sm62  1  0.63195914  0.26399597  0.44692742  1
  Sm3+  Sm63  1  -0.00098477  0.11329005  0.05756343  1
  Bi2+  Bi64  1  0.00620023  0.17643390  0.29617938  1
  Bi2+  Bi65  1  -0.02391650  0.11552969  0.77709363  1
  Bi2+  Bi66  1  0.00770698  0.41013575  0.30216806  1
  Bi2+  Bi67  1  0.01563053  0.32983064  0.79130452  1
  Bi2+  Bi68  1  -0.01253100  0.65183786  0.26191073  1
  Bi2+  Bi69  1  0.04787610  0.58589367  0.80594596  1
  Bi2+  Bi70  1  0.00985341  0.91726019  0.27977929  1
  Bi2+  Bi71  1  0.01783702  0.86072146  0.78526692  1
  Bi2+  Bi72  1  0.31311902  0.14340271  0.32867358  1
  Bi2+  Bi73  1  0.18337862  0.07689406  0.77814693  1
  Bi2+  Bi74  1  0.26438881  0.32069448  0.28725745  1
  Bi2+  Bi75  1  0.30884377  0.34797395  0.74902037  1
  Bi2+  Bi76  1  0.21634408  0.58918516  0.26943328  1
  Bi2+  Bi77  1  0.22076223  0.67469405  0.82074459  1
  Bi2+  Bi78  1  0.21770050  0.97784906  0.30392268  1
  Bi2+  Bi79  1  0.24872861  0.84478048  0.75974161  1
  Bi2+  Bi80  1  0.49182902  0.13817507  0.28070339  1
  Bi2+  Bi81  1  0.49208424  0.15292608  0.82359627  1
  Bi2+  Bi82  1  0.51635917  0.37283041  0.30128260  1
  Bi2+  Bi83  1  0.48172749  0.35495046  0.80443054  1
  Bi2+  Bi84  1  0.47838396  0.62057906  0.28470455  1
  Bi2+  Bi85  1  0.50146922  0.61627397  0.79105277  1
  Bi2+  Bi86  1  0.49605060  0.87814696  0.28370167  1
  Bi2+  Bi87  1  0.47831935  0.87842287  0.79762303  1
  Bi2+  Bi88  1  0.81388096  0.14713733  0.32888429  1
  Bi2+  Bi89  1  0.68733560  0.08294735  0.82125911  1
  Bi2+  Bi90  1  0.74466273  0.32510679  0.30481207  1
  Bi2+  Bi91  1  0.75234868  0.26080521  0.79636639  1
  Bi2+  Bi92  1  0.75155398  0.60034994  0.29775854  1
  Bi2+  Bi93  1  0.78420257  0.64336915  0.78203537  1
  Bi2+  Bi94  1  0.75750686  0.98027337  0.28053779  1
  Bi2+  Bi95  1  0.82406162  0.91477422  0.78551540  1
  Bi2+  Bi96  1  0.17787234  0.13530850  0.23434828  1
  Bi2+  Bi97  1  0.04327176  -0.01226296  0.69450173  1
  Bi2+  Bi98  1  0.03806901  0.25958883  0.18746692  1
  Bi2+  Bi99  1  0.18372751  0.21673577  0.69963587  1
  Bi2+  Bi100  1  0.12734007  0.43833891  0.21461702  1
  Bi2+  Bi101  1  0.13104809  0.49812025  0.71416719  1
  Bi2+  Bi102  1  0.14434762  0.77482873  0.27191292  1
  Bi2+  Bi103  1  0.13777301  0.70924911  0.70830982  1
  Bi2+  Bi104  1  0.34911717  -0.00160272  0.20240883  1
  Bi2+  Bi105  1  0.38642288  0.03388342  0.72105554  1
  Bi2+  Bi106  1  0.44992824  0.23148699  0.17920833  1
  Bi2+  Bi107  1  0.37938456  0.21056600  0.67576576  1
  Bi2+  Bi108  1  0.39336212  0.40744976  0.21391890  1
  Bi2+  Bi109  1  0.32021448  0.54901762  0.75187221  1
  Bi2+  Bi110  1  0.33839930  0.75237612  0.18530568  1
  Bi2+  Bi111  1  0.37042697  0.73428541  0.69535665  1
  Bi2+  Bi112  1  0.63074497  0.06491990  0.21040847  1
  Bi2+  Bi113  1  0.60666817  0.02983440  0.71550294  1
  Bi2+  Bi114  1  0.63528440  0.26284918  0.21162811  1
  Bi2+  Bi115  1  0.56731155  0.23180727  0.72561231  1
  Bi2+  Bi116  1  0.66420454  0.47334051  0.20784323  1
  Bi2+  Bi117  1  0.61985829  0.47623129  0.70837406  1
  Bi2+  Bi118  1  0.62721092  0.72550606  0.19874443  1
  Bi2+  Bi119  1  0.63792741  0.72393686  0.67924726  1
  Bi2+  Bi120  1  0.93199210  0.02805718  0.20027920  1
  Bi2+  Bi121  1  0.85179680  -0.04438296  0.67028691  1
  Bi2+  Bi122  1  0.84918276  0.24365139  0.21687702  1
  Bi2+  Bi123  1  0.81040223  0.13535592  0.71526358  1
  Bi2+  Bi124  1  0.88647009  0.50115436  0.21614947  1
  Bi2+  Bi125  1  0.86842831  0.48306246  0.70539297  1
  Bi2+  Bi126  1  0.86136833  0.78333976  0.21398638  1
  Bi2+  Bi127  1  0.88578979  0.76919162  0.71455281  1
  S2-  S128  1  0.07307152  0.09542436  0.14521717  1
  S2-  S129  1  0.03480487  0.15538924  0.66195340  1
  S2-  S130  1  0.00473437  0.47516769  0.13985912  1
  S2-  S131  1  -0.04537349  0.35307484  0.69066181  1
  S2-  S132  1  -0.06546351  0.66550895  0.16118770  1
  S2-  S133  1  0.00098065  0.54246180  0.64959542  1
  S2-  S134  1  -0.03359131  0.88177909  0.15279090  1
  S2-  S135  1  0.01542977  0.76627326  0.64390448  1
  S2-  S136  1  0.29849385  0.13701280  0.15415011  1
  S2-  S137  1  0.25989860  0.06227576  0.65564894  1
  S2-  S138  1  0.25186059  0.36892477  0.15722113  1
  S2-  S139  1  0.16923451  0.38356390  0.64627823  1
  S2-  S140  1  0.21305979  0.63039882  0.16293528  1
  S2-  S141  1  0.26471307  0.60809432  0.65203846  1
  S2-  S142  1  0.23833067  0.89999278  0.15851689  1
  S2-  S143  1  0.26107877  0.83993245  0.65121203  1
  S2-  S144  1  0.50157442  0.01253402  0.14657969  1
  S2-  S145  1  0.49177582  -0.00122565  0.64118705  1
  S2-  S146  1  0.53698678  0.45290508  0.14798405  1
  S2-  S147  1  0.51542232  0.37430578  0.66461888  1
  S2-  S148  1  0.45172814  0.63107311  0.17991288  1
  S2-  S149  1  0.53661848  0.57940515  0.65567092  1
  S2-  S150  1  0.50183289  0.82469897  0.17910213  1
  S2-  S151  1  0.49549957  0.78093898  0.63362613  1
  S2-  S152  1  0.78513241  0.09843577  0.15591022  1
  S2-  S153  1  0.65056183  0.14613775  0.64407394  1
  S2-  S154  1  0.79973138  0.38911608  0.15573511  1
  S2-  S155  1  0.74638190  0.39084878  0.66090259  1
  S2-  S156  1  0.69173368  0.60416856  0.14014868  1
  S2-  S157  1  0.77870382  0.61940308  0.65889941  1
  S2-  S158  1  0.72581585  0.85234961  0.16395273  1
  S2-  S159  1  0.69397851  0.87509397  0.64382079  1
  S2-  S160  1  0.05579118  0.03031037  0.35404175  1
  S2-  S161  1  0.17679995  -0.05580365  0.83880111  1
  S2-  S162  1  0.11524467  0.28818761  0.34704971  1
  S2-  S163  1  0.09931514  0.19764669  0.84106072  1
  S2-  S164  1  0.12857801  0.52482786  0.34285676  1
  S2-  S165  1  0.11120962  0.41665241  0.84785648  1
  S2-  S166  1  0.05160831  0.76407338  0.35584463  1
  S2-  S167  1  0.01456558  0.73765429  0.85790622  1
  S2-  S168  1  0.37990364  -0.08203332  0.34918187  1
  S2-  S169  1  0.39809148  0.00307920  0.84400950  1
  S2-  S170  1  0.37101042  0.39043978  0.35759624  1
  S2-  S171  1  0.34281294  0.24768155  0.83788574  1
  S2-  S172  1  0.36009553  0.60341944  0.34911406  1
  S2-  S173  1  0.44765737  0.49527126  0.86316562  1
  S2-  S174  1  0.36964448  0.75815272  0.27929576  1
  S2-  S175  1  0.44957703  0.74221823  0.86091935  1
  S2-  S176  1  0.62262610  -0.04288150  0.33965188  1
  S2-  S177  1  0.60578610  -0.08874673  0.85517363  1
  S2-  S178  1  0.53798072  0.23990043  0.36459971  1
  S2-  S179  1  0.63550614  0.35692460  0.85198109  1
  S2-  S180  1  0.60097375  0.52099800  0.33869590  1
  S2-  S181  1  0.64111355  0.58974492  0.83911344  1
  S2-  S182  1  0.53415118  0.75033678  0.34569525  1
  S2-  S183  1  0.59713871  0.75645598  0.76988500  1
  S2-  S184  1  0.88083276  -0.09156339  0.34606133  1
  S2-  S185  1  0.95876412  -0.00563816  0.85133934  1
  S2-  S186  1  0.88330545  0.37595528  0.36672229  1
  S2-  S187  1  0.88398121  0.33302628  0.85797967  1
  S2-  S188  1  0.89501147  0.60067072  0.34951809  1
  S2-  S189  1  0.88221597  0.55069083  0.83531756  1
  S2-  S190  1  0.74160106  0.74004502  0.34437414  1
  S2-  S191  1  0.78579117  0.77379149  0.84592500  1
  S2-  S192  1  0.00563007  0.14450306  0.45643376  1
  S2-  S193  1  -0.00290010  0.11893698  0.95364395  1
  S2-  S194  1  0.01130192  0.38778760  0.46637698  1
  S2-  S195  1  0.00275026  0.36480850  0.96060366  1
  S2-  S196  1  0.00853074  0.63951776  0.45967530  1
  S2-  S197  1  0.00158143  0.60805247  0.95817966  1
  S2-  S198  1  0.00828395  0.88983312  0.46004942  1
  S2-  S199  1  0.00045415  0.86515479  0.95371174  1
  S2-  S200  1  0.25979220  0.14169928  0.45673983  1
  S2-  S201  1  0.24445873  0.11266977  0.95115289  1
  S2-  S202  1  0.25689457  0.38969808  0.45854448  1
  S2-  S203  1  0.25412161  0.36503524  0.95015037  1
  S2-  S204  1  0.25337995  0.64251329  0.45026132  1
  S2-  S205  1  0.25272967  0.61546749  0.95932170  1
  S2-  S206  1  0.25602500  0.88626653  0.45017549  1
  S2-  S207  1  0.24990549  0.86132053  0.95256436  1
  S2-  S208  1  0.50990770  0.13639260  0.46474164  1
  S2-  S209  1  0.50089921  0.11210020  0.95853654  1
  S2-  S210  1  0.51182710  0.39157972  0.45885749  1
  S2-  S211  1  0.49710173  0.35606434  0.95906417  1
  S2-  S212  1  0.50652114  0.64089370  0.45201697  1
  S2-  S213  1  0.50535138  0.61775241  0.96517782  1
  S2-  S214  1  0.51058606  0.88959979  0.45180004  1
  S2-  S215  1  0.49924712  0.86883874  0.96684960  1
  S2-  S216  1  0.75908676  0.14369572  0.45878782  1
  S2-  S217  1  0.75162605  0.11804940  0.95292273  1
  S2-  S218  1  0.75216968  0.38745465  0.45859762  1
  S2-  S219  1  0.74923181  0.36021965  0.95485567  1
  S2-  S220  1  0.76129149  0.63919946  0.45313042  1
  S2-  S221  1  0.75185841  0.61186302  0.94382123  1
  S2-  S222  1  0.76032654  0.89063070  0.44812588  1
  S2-  S223  1  0.74762465  0.86091602  0.95618122  1
  S2-  S224  1  0.11950734  -0.01358159  0.03774479  1
  S2-  S225  1  0.13489292  0.01219914  0.54970700  1
  S2-  S226  1  0.12082843  0.24065096  0.04381657  1
  S2-  S227  1  0.13524175  0.26422183  0.55038749  1
  S2-  S228  1  0.12867696  0.48843737  0.04411768  1
  S2-  S229  1  0.13894572  0.51929591  0.54817003  1
  S2-  S230  1  0.12056098  0.73808394  0.04735847  1
  S2-  S231  1  0.13794082  0.76660169  0.54598766  1
  S2-  S232  1  0.36902416  -0.00835997  0.04773944  1
  S2-  S233  1  0.38265545  0.01356173  0.54076226  1
  S2-  S234  1  0.37108332  0.23352868  0.04329523  1
  S2-  S235  1  0.38595519  0.26944948  0.54489142  1
  S2-  S236  1  0.37579030  0.48947583  0.05755441  1
  S2-  S237  1  0.38172367  0.51614273  0.54613661  1
  S2-  S238  1  0.37797347  0.73889320  0.05856563  1
  S2-  S239  1  0.37922674  0.76839847  0.53512398  1
  S2-  S240  1  0.63150018  -0.00944006  0.04982664  1
  S2-  S241  1  0.63622223  0.01577012  0.54174641  1
  S2-  S242  1  0.62520144  0.23589224  0.04758840  1
  S2-  S243  1  0.63335228  0.27007394  0.54964624  1
  S2-  S244  1  0.62605624  0.48451434  0.03620860  1
  S2-  S245  1  0.63581261  0.51556947  0.54622052  1
  S2-  S246  1  0.62447685  0.74432852  0.05696524  1
  S2-  S247  1  0.63625532  0.76529097  0.53357413  1
  S2-  S248  1  0.87687914  -0.01023932  0.04433701  1
  S2-  S249  1  0.88306086  0.01745782  0.54181505  1
  S2-  S250  1  0.87877226  0.24044672  0.04841700  1
  S2-  S251  1  0.88289321  0.26733355  0.55426680  1
  S2-  S252  1  0.87318250  0.48741309  0.03881180  1
  S2-  S253  1  0.88222923  0.51316593  0.54707938  1
  S2-  S254  1  0.87647933  0.73901074  0.04151969  1
  S2-  S255  1  0.88203885  0.76544424  0.54755040  1
