# generated using pymatgen
data_La6Ce6Pr19Nd20Sm13(BiS2)64
_symmetry_space_group_name_H-M   'P 1'
_cell_length_a   16.02290632
_cell_length_b   16.02510938
_cell_length_c   27.50734848
_cell_angle_alpha   89.99785670
_cell_angle_beta   89.99413908
_cell_angle_gamma   89.86538632
_symmetry_Int_Tables_number   1
_chemical_formula_structural   La6Ce6Pr19Nd20Sm13(BiS2)64
_chemical_formula_sum   'La6 Ce6 Pr19 Nd20 Sm13 Bi64 S128'
_cell_volume   7063.01004715
_cell_formula_units_Z   1
loop_
 _symmetry_equiv_pos_site_id
 _symmetry_equiv_pos_as_xyz
  1  'x, y, z'
loop_
 _atom_type_symbol
 _atom_type_oxidation_number
  La3+  3.0
  Ce3+  3.0
  Pr3+  3.0
  Nd3+  3.0
  Sm3+  3.0
  Bi2+  2.0
  S2-  -2.0
loop_
 _atom_site_type_symbol
 _atom_site_label
 _atom_site_symmetry_multiplicity
 _atom_site_fract_x
 _atom_site_fract_y
 _atom_site_fract_z
 _atom_site_occupancy
  La3+  La0  1  0.49949570  0.59564546  0.56529448  1
  La3+  La1  1  0.25198376  0.08549770  0.56788887  1
  La3+  La2  1  0.11615612  0.24671148  0.91805724  1
  La3+  La3  1  0.37427887  0.70752864  0.41382555  1
  La3+  La4  1  0.50896189  0.08658998  0.56248231  1
  La3+  La5  1  0.01112917  0.34094215  0.61131414  1
  Ce3+  Ce6  1  0.38110713  0.21380830  0.43889134  1
  Ce3+  Ce7  1  0.00267032  0.83874692  0.55822406  1
  Ce3+  Ce8  1  0.23190544  0.13511284  0.06943849  1
  Ce3+  Ce9  1  0.00318310  0.58489660  0.56290405  1
  Ce3+  Ce10  1  0.63191558  0.21300862  0.43509529  1
  Ce3+  Ce11  1  0.23729215  0.87808191  0.07351919  1
  Pr3+  Pr12  1  0.12478735  -0.00083972  0.93409721  1
  Pr3+  Pr13  1  0.63201922  0.71281287  0.42822804  1
  Pr3+  Pr14  1  0.13220879  0.45695833  0.45172019  1
  Pr3+  Pr15  1  0.50570143  0.33901534  0.56657470  1
  Pr3+  Pr16  1  0.26188062  0.33231797  0.58424984  1
  Pr3+  Pr17  1  0.88906323  -0.03594958  0.42250160  1
  Pr3+  Pr18  1  0.73949832  0.37529200  0.05306985  1
  Pr3+  Pr19  1  0.75095382  0.58327807  0.57063021  1
  Pr3+  Pr20  1  0.75829342  0.83530044  0.56074977  1
  Pr3+  Pr21  1  0.75885915  0.08397672  0.56296187  1
  Pr3+  Pr22  1  -0.01275607  0.87893775  0.05239951  1
  Pr3+  Pr23  1  0.63302045  -0.03631773  0.42704189  1
  Pr3+  Pr24  1  0.25711195  0.58646077  0.56622886  1
  Pr3+  Pr25  1  0.61814929  0.51232912  0.92506059  1
  Pr3+  Pr26  1  0.88190486  0.70975980  0.43139721  1
  Pr3+  Pr27  1  0.49217958  0.37777284  0.05792916  1
  Pr3+  Pr28  1  0.38032074  0.45748031  0.43373804  1
  Pr3+  Pr29  1  0.86266349  0.74869005  0.93321116  1
  Pr3+  Pr30  1  0.75872698  0.33317276  0.56839349  1
  Nd3+  Nd31  1  0.00299465  0.08506561  0.56576029  1
  Nd3+  Nd32  1  0.88108902  0.46050121  0.43880829  1
  Nd3+  Nd33  1  0.61310023  0.00713037  0.92698973  1
  Nd3+  Nd34  1  -0.00945430  0.62411239  0.07037876  1
  Nd3+  Nd35  1  0.59554496  0.75802044  0.91892709  1
  Nd3+  Nd36  1  0.11657933  0.74745900  0.95011797  1
  Nd3+  Nd37  1  0.86501890  0.00657287  0.93261558  1
  Nd3+  Nd38  1  0.36030671  0.00219109  0.95336371  1
  Nd3+  Nd39  1  -0.00694741  0.37737601  0.04735745  1
  Nd3+  Nd40  1  -0.01286249  0.12869681  0.06207342  1
  Nd3+  Nd41  1  0.12451647  0.51374571  0.91959680  1
  Nd3+  Nd42  1  0.25687759  0.83965506  0.56320951  1
  Nd3+  Nd43  1  0.88138484  0.21394045  0.43829287  1
  Nd3+  Nd44  1  0.73396294  0.11833291  0.07718422  1
  Nd3+  Nd45  1  0.73757083  0.62812955  0.06525642  1
  Nd3+  Nd46  1  0.12916363  0.21367875  0.45095521  1
  Nd3+  Nd47  1  0.50621689  0.83884499  0.55051258  1
  Nd3+  Nd48  1  0.61506066  0.25115747  0.92750214  1
  Nd3+  Nd49  1  0.49289154  0.62862921  0.07254064  1
  Nd3+  Nd50  1  0.24155683  0.61846955  0.08669831  1
  Sm3+  Sm51  1  0.49246278  0.88108528  0.06428517  1
  Sm3+  Sm52  1  0.36392879  0.74811199  0.95505772  1
  Sm3+  Sm53  1  0.73742801  0.87905733  0.04783023  1
  Sm3+  Sm54  1  0.23880722  0.37801034  0.05944379  1
  Sm3+  Sm55  1  0.36744263  0.50635478  0.93829667  1
  Sm3+  Sm56  1  0.62981929  0.46417702  0.43880676  1
  Sm3+  Sm57  1  0.13427292  0.71054028  0.44569306  1
  Sm3+  Sm58  1  0.86516128  0.50338172  0.93739542  1
  Sm3+  Sm59  1  0.36010265  0.25542406  0.93870175  1
  Sm3+  Sm60  1  0.38035477  -0.03693380  0.43770923  1
  Sm3+  Sm61  1  0.13291062  -0.03710632  0.43847437  1
  Sm3+  Sm62  1  0.86544240  0.25231908  0.93739201  1
  Sm3+  Sm63  1  0.49252793  0.12968220  0.05420310  1
  Bi2+  Bi64  1  0.00381349  0.14020726  0.30227089  1
  Bi2+  Bi65  1  -0.04422190  0.14449097  0.79804865  1
  Bi2+  Bi66  1  0.01905757  0.41180065  0.30224943  1
  Bi2+  Bi67  1  -0.07326938  0.38958181  0.80046259  1
  Bi2+  Bi68  1  -0.00564381  0.69842529  0.31001473  1
  Bi2+  Bi69  1  0.03076172  0.65420781  0.78388078  1
  Bi2+  Bi70  1  -0.01640909  0.89305171  0.27810490  1
  Bi2+  Bi71  1  0.04032135  0.88000212  0.76957298  1
  Bi2+  Bi72  1  0.26656663  0.23057342  0.29502900  1
  Bi2+  Bi73  1  0.22840402  0.08224298  0.79696965  1
  Bi2+  Bi74  1  0.23582817  0.41041653  0.24360284  1
  Bi2+  Bi75  1  0.19822568  0.44170225  0.76918732  1
  Bi2+  Bi76  1  0.24525448  0.59092942  0.29177982  1
  Bi2+  Bi77  1  0.29426397  0.66056193  0.81337244  1
  Bi2+  Bi78  1  0.24978747  0.95646870  0.31314985  1
  Bi2+  Bi79  1  0.23351320  0.85285437  0.79024954  1
  Bi2+  Bi80  1  0.54043255  0.17699836  0.27686551  1
  Bi2+  Bi81  1  0.47925222  0.13534522  0.78135746  1
  Bi2+  Bi82  1  0.50280296  0.37097164  0.29598346  1
  Bi2+  Bi83  1  0.45693905  0.35617169  0.83409820  1
  Bi2+  Bi84  1  0.51604495  0.63636033  0.29392634  1
  Bi2+  Bi85  1  0.50855306  0.65061515  0.79058432  1
  Bi2+  Bi86  1  0.52096580  0.91095084  0.29857082  1
  Bi2+  Bi87  1  0.48987438  0.93531789  0.77330626  1
  Bi2+  Bi88  1  0.74394451  0.11900437  0.27907952  1
  Bi2+  Bi89  1  0.72286120  0.07933553  0.78138521  1
  Bi2+  Bi90  1  0.76440522  0.31983481  0.29539942  1
  Bi2+  Bi91  1  0.64118555  0.35147617  0.80250085  1
  Bi2+  Bi92  1  0.77959154  0.70059365  0.26857360  1
  Bi2+  Bi93  1  0.79043171  0.64229738  0.78794721  1
  Bi2+  Bi94  1  0.75192067  0.87802178  0.22212795  1
  Bi2+  Bi95  1  0.68484735  0.88716377  0.76048944  1
  Bi2+  Bi96  1  0.17861715  0.07340290  0.23251979  1
  Bi2+  Bi97  1  0.09796467  0.02610509  0.69866921  1
  Bi2+  Bi98  1  0.11399580  0.27023014  0.19581416  1
  Bi2+  Bi99  1  0.14338690  0.22432119  0.71636964  1
  Bi2+  Bi100  1  0.04327614  0.56042366  0.22995395  1
  Bi2+  Bi101  1  0.22543709  0.59082672  0.70049598  1
  Bi2+  Bi102  1  0.16109724  0.79813557  0.26715976  1
  Bi2+  Bi103  1  0.19450143  0.78535059  0.68452676  1
  Bi2+  Bi104  1  0.37669125  0.04396807  0.23511443  1
  Bi2+  Bi105  1  0.35777043  0.05295848  0.70104630  1
  Bi2+  Bi106  1  0.39362818  0.23869667  0.20390125  1
  Bi2+  Bi107  1  0.32277857  0.28239699  0.76853902  1
  Bi2+  Bi108  1  0.40150916  0.48940726  0.20000501  1
  Bi2+  Bi109  1  0.40634674  0.48450041  0.72025062  1
  Bi2+  Bi110  1  0.36415968  0.77793904  0.21667895  1
  Bi2+  Bi111  1  0.39736798  0.78242488  0.72566273  1
  Bi2+  Bi112  1  0.59367123  -0.00335479  0.20125681  1
  Bi2+  Bi113  1  0.61578227  0.10957301  0.68731891  1
  Bi2+  Bi114  1  0.67806521  0.24876968  0.19872894  1
  Bi2+  Bi115  1  0.54672215  0.29150464  0.69808508  1
  Bi2+  Bi116  1  0.64504121  0.49626083  0.26548344  1
  Bi2+  Bi117  1  0.60539266  0.48715686  0.72234259  1
  Bi2+  Bi118  1  0.61416580  0.73307653  0.20768920  1
  Bi2+  Bi119  1  0.63755954  0.73820713  0.69308999  1
  Bi2+  Bi120  1  0.96361406  0.04793149  0.20387823  1
  Bi2+  Bi121  1  0.86297067  -0.10251567  0.70315631  1
  Bi2+  Bi122  1  0.89138279  0.29364232  0.19725153  1
  Bi2+  Bi123  1  0.77051946  0.30777931  0.71868169  1
  Bi2+  Bi124  1  0.85160837  0.51278331  0.26565769  1
  Bi2+  Bi125  1  0.85783330  0.56871028  0.69475846  1
  Bi2+  Bi126  1  0.91735857  0.75162002  0.18968430  1
  Bi2+  Bi127  1  0.99460276  0.74516699  0.68476028  1
  S2-  S128  1  0.10094328  0.12158518  0.13910404  1
  S2-  S129  1  0.01785337  0.16789298  0.65509808  1
  S2-  S130  1  0.00990563  0.37952143  0.14714776  1
  S2-  S131  1  -0.06782107  0.33461843  0.70740447  1
  S2-  S132  1  0.10029053  0.63049402  0.14887210  1
  S2-  S133  1  -0.00325152  0.51587460  0.65225897  1
  S2-  S134  1  -0.00621001  0.90465580  0.15130751  1
  S2-  S135  1  -0.00955584  0.95096758  0.63525863  1
  S2-  S136  1  0.25885716  0.25969467  0.13650919  1
  S2-  S137  1  0.27624136  0.18246908  0.65173079  1
  S2-  S138  1  0.25529328  0.47108537  0.14448500  1
  S2-  S139  1  0.15964420  0.36581518  0.66799720  1
  S2-  S140  1  0.37940982  0.64339352  0.15392792  1
  S2-  S141  1  0.37334781  0.58810346  0.64292784  1
  S2-  S142  1  0.23589479  0.83734349  0.16896843  1
  S2-  S143  1  0.24829747  0.95410917  0.64251169  1
  S2-  S144  1  0.58662816  0.13236659  0.13594710  1
  S2-  S145  1  0.50208390  -0.00301675  0.64867301  1
  S2-  S146  1  0.49267481  0.36921334  0.15790395  1
  S2-  S147  1  0.40272425  0.35801784  0.64915479  1
  S2-  S148  1  0.62022602  0.61236754  0.14183294  1
  S2-  S149  1  0.60950966  0.58889360  0.64448442  1
  S2-  S150  1  0.48806044  0.86263543  0.16217767  1
  S2-  S151  1  0.49334174  0.77089104  0.64145388  1
  S2-  S152  1  0.86967315  0.14303590  0.14041454  1
  S2-  S153  1  0.75821173  0.20197773  0.64376233  1
  S2-  S154  1  0.76482785  0.38009418  0.15256155  1
  S2-  S155  1  0.76332196  0.44799383  0.64817319  1
  S2-  S156  1  0.86060366  0.62265017  0.13934088  1
  S2-  S157  1  0.77857566  0.71484656  0.64028318  1
  S2-  S158  1  0.73106868  0.96286684  0.13381376  1
  S2-  S159  1  0.75634448  0.95649027  0.63804570  1
  S2-  S160  1  0.04793194  -0.01002755  0.35462278  1
  S2-  S161  1  0.07871346  0.08813890  0.85137635  1
  S2-  S162  1  0.12008678  0.23011559  0.35086325  1
  S2-  S163  1  0.04859763  0.28323365  0.82346917  1
  S2-  S164  1  0.14723497  0.47854782  0.35123952  1
  S2-  S165  1  0.04488198  0.50134363  0.82767967  1
  S2-  S166  1  0.21389482  0.71721777  0.35768679  1
  S2-  S167  1  0.13954390  0.67847692  0.86077924  1
  S2-  S168  1  0.39948343  0.02575092  0.34601143  1
  S2-  S169  1  0.27332319  -0.02618573  0.86824057  1
  S2-  S170  1  0.37231603  0.32363421  0.36203866  1
  S2-  S171  1  0.26271524  0.22876195  0.85797247  1
  S2-  S172  1  0.38164003  0.56356964  0.34979087  1
  S2-  S173  1  0.26301631  0.50014796  0.85478740  1
  S2-  S174  1  0.41758727  0.78266051  0.31951929  1
  S2-  S175  1  0.42894453  0.74760244  0.86422661  1
  S2-  S176  1  0.63019980  0.09685527  0.35472342  1
  S2-  S177  1  0.59540730  -0.10694937  0.85208215  1
  S2-  S178  1  0.62809545  0.34178844  0.36449082  1
  S2-  S179  1  0.61298060  0.13084003  0.85340459  1
  S2-  S180  1  0.63551493  0.57936717  0.35856359  1
  S2-  S181  1  0.48150892  0.52221975  0.86068222  1
  S2-  S182  1  0.63528842  0.84126419  0.35133430  1
  S2-  S183  1  0.65125314  0.64890458  0.84935481  1
  S2-  S184  1  0.86619079  0.10388873  0.35582505  1
  S2-  S185  1  0.85534198  0.01249592  0.83333973  1
  S2-  S186  1  0.89087023  0.33840451  0.36168381  1
  S2-  S187  1  0.83867719  0.24906392  0.84032749  1
  S2-  S188  1  0.88290052  0.57643917  0.35949210  1
  S2-  S189  1  0.80799693  0.50179163  0.84482686  1
  S2-  S190  1  0.88504115  0.82911562  0.35327227  1
  S2-  S191  1  0.89920331  0.74555822  0.83538672  1
  S2-  S192  1  0.00829572  0.08814666  0.45983918  1
  S2-  S193  1  -0.01267364  0.12843660  0.95488412  1
  S2-  S194  1  0.00729740  0.33668359  0.45862997  1
  S2-  S195  1  -0.01022833  0.38022669  0.94258523  1
  S2-  S196  1  0.01236396  0.58772103  0.45736702  1
  S2-  S197  1  -0.01132713  0.62451102  0.95473609  1
  S2-  S198  1  0.01403331  0.83496355  0.45299589  1
  S2-  S199  1  -0.00831195  0.87692722  0.94474299  1
  S2-  S200  1  0.25553540  0.08682281  0.45445004  1
  S2-  S201  1  0.24038601  0.12880281  0.96299475  1
  S2-  S202  1  0.25646652  0.33291802  0.46591959  1
  S2-  S203  1  0.23966164  0.38051430  0.95416785  1
  S2-  S204  1  0.25577026  0.58608027  0.46006231  1
  S2-  S205  1  0.24415478  0.62617863  0.96707262  1
  S2-  S206  1  0.25597066  0.84044547  0.45509825  1
  S2-  S207  1  0.24089456  0.86950523  0.96757909  1
  S2-  S208  1  0.50291781  0.08669978  0.45529772  1
  S2-  S209  1  0.48249198  0.12888257  0.95086345  1
  S2-  S210  1  0.50567307  0.33563322  0.46113416  1
  S2-  S211  1  0.49182477  0.37461699  0.95280204  1
  S2-  S212  1  0.50250727  0.58776514  0.45491620  1
  S2-  S213  1  0.49318488  0.63121411  0.96552628  1
  S2-  S214  1  0.49831970  0.83687372  0.44631419  1
  S2-  S215  1  0.48367846  0.88010681  0.96102287  1
  S2-  S216  1  0.75594265  0.08744974  0.45752842  1
  S2-  S217  1  0.74218009  0.12936805  0.95173453  1
  S2-  S218  1  0.75508123  0.33779192  0.46180497  1
  S2-  S219  1  0.73858218  0.37695624  0.94684232  1
  S2-  S220  1  0.75476900  0.58460384  0.46137402  1
  S2-  S221  1  0.74011017  0.62913897  0.95812183  1
  S2-  S222  1  0.75877052  0.83753691  0.45332298  1
  S2-  S223  1  0.73774132  0.87678047  0.94454169  1
  S2-  S224  1  0.11598539  -0.00025959  0.04110252  1
  S2-  S225  1  0.12948662  -0.04013963  0.53955220  1
  S2-  S226  1  0.11457266  0.25474165  0.03461983  1
  S2-  S227  1  0.12841195  0.21593106  0.55469026  1
  S2-  S228  1  0.11548621  0.50263335  0.04100650  1
  S2-  S229  1  0.13244938  0.45925539  0.55624522  1
  S2-  S230  1  0.11470517  0.75300775  0.05287111  1
  S2-  S231  1  0.13121898  0.71333312  0.54964797  1
  S2-  S232  1  0.36560274  0.00693275  0.05930816  1
  S2-  S233  1  0.37999263  -0.03782165  0.54058415  1
  S2-  S234  1  0.36939474  0.25185716  0.04034216  1
  S2-  S235  1  0.38268148  0.20997661  0.54535178  1
  S2-  S236  1  0.36925150  0.50237748  0.04317601  1
  S2-  S237  1  0.37899873  0.46078952  0.54168869  1
  S2-  S238  1  0.36648392  0.75865099  0.05597052  1
  S2-  S239  1  0.37444154  0.71798964  0.53675035  1
  S2-  S240  1  0.61101636  0.00295402  0.03331697  1
  S2-  S241  1  0.63039206  -0.03958204  0.53542733  1
  S2-  S242  1  0.61657164  0.24960495  0.03520240  1
  S2-  S243  1  0.62981410  0.21304415  0.54303041  1
  S2-  S244  1  0.61652295  0.50112949  0.03730195  1
  S2-  S245  1  0.62674799  0.46074181  0.54319698  1
  S2-  S246  1  0.61411787  0.76020264  0.04719221  1
  S2-  S247  1  0.63043363  0.71513888  0.53557764  1
  S2-  S248  1  0.86254285  0.00362099  0.03763524  1
  S2-  S249  1  0.88188508  -0.03940713  0.53177605  1
  S2-  S250  1  0.86482038  0.25333265  0.03985316  1
  S2-  S251  1  0.88675093  0.21335379  0.54675178  1
  S2-  S252  1  0.86498828  0.50007982  0.04024186  1
  S2-  S253  1  0.88597430  0.45859125  0.54599778  1
  S2-  S254  1  0.86187977  0.75607232  0.03982798  1
  S2-  S255  1  0.88589165  0.71037228  0.53864323  1
