# generated using pymatgen
data_La6Ce6Pr19Nd20Sm13(BiS2)64
_symmetry_space_group_name_H-M   'P 1'
_cell_length_a   16.00867956
_cell_length_b   16.10716507
_cell_length_c   27.44441029
_cell_angle_alpha   90.35739918
_cell_angle_beta   90.04542603
_cell_angle_gamma   89.99052631
_symmetry_Int_Tables_number   1
_chemical_formula_structural   La6Ce6Pr19Nd20Sm13(BiS2)64
_chemical_formula_sum   'La6 Ce6 Pr19 Nd20 Sm13 Bi64 S128'
_cell_volume   7076.52317178
_cell_formula_units_Z   1
loop_
 _symmetry_equiv_pos_site_id
 _symmetry_equiv_pos_as_xyz
  1  'x, y, z'
loop_
 _atom_type_symbol
 _atom_type_oxidation_number
  La3+  3.0
  Ce3+  3.0
  Pr3+  3.0
  Nd3+  3.0
  Sm3+  3.0
  Bi2+  2.0
  S2-  -2.0
loop_
 _atom_site_type_symbol
 _atom_site_label
 _atom_site_symmetry_multiplicity
 _atom_site_fract_x
 _atom_site_fract_y
 _atom_site_fract_z
 _atom_site_occupancy
  La3+  La0  1  0.62931812  0.48150351  0.90821856  1
  La3+  La1  1  0.89306506  -0.00926592  0.93802435  1
  La3+  La2  1  0.79724567  0.63971903  0.58441319  1
  La3+  La3  1  0.66597650  0.50556192  0.44155147  1
  La3+  La4  1  0.76018109  0.85243334  0.09649547  1
  La3+  La5  1  0.76730408  0.11610915  0.10009672  1
  Ce3+  Ce6  1  0.91191488  0.50513412  0.42376476  1
  Ce3+  Ce7  1  0.40456635  0.00821534  0.44065456  1
  Ce3+  Ce8  1  0.26404232  0.61972321  0.06311246  1
  Ce3+  Ce9  1  0.16470496  0.25341170  0.43129735  1
  Ce3+  Ce10  1  0.64436175  0.24725477  0.94988489  1
  Ce3+  Ce11  1  0.01627642  0.11669363  0.06604899  1
  Pr3+  Pr12  1  0.66278906  0.25420429  0.43210160  1
  Pr3+  Pr13  1  0.28350630  0.13422006  0.57278108  1
  Pr3+  Pr14  1  0.04419672  0.88213720  0.56002190  1
  Pr3+  Pr15  1  0.54808946  0.37993295  0.56814831  1
  Pr3+  Pr16  1  0.66623965  0.75727234  0.43918701  1
  Pr3+  Pr17  1  0.39230833  0.24479181  0.95493785  1
  Pr3+  Pr18  1  0.76759539  0.61919269  0.04156494  1
  Pr3+  Pr19  1  0.14796365  0.74241348  0.93142896  1
  Pr3+  Pr20  1  0.39272446  -0.00548171  0.94127493  1
  Pr3+  Pr21  1  0.26475477  0.11618784  0.07794133  1
  Pr3+  Pr22  1  0.29197902  0.62894834  0.55937058  1
  Pr3+  Pr23  1  0.89791686  0.74045856  0.92669682  1
  Pr3+  Pr24  1  0.52358085  0.62314631  0.05988752  1
  Pr3+  Pr25  1  0.66929712  0.00537886  0.42164169  1
  Pr3+  Pr26  1  0.01250844  0.86959561  0.06483201  1
  Pr3+  Pr27  1  0.03712029  0.13070365  0.55698596  1
  Pr3+  Pr28  1  0.29035612  0.37901610  0.56515958  1
  Pr3+  Pr29  1  0.64332168  0.74323956  0.92351520  1
  Pr3+  Pr30  1  0.79747721  0.38078438  0.56368064  1
  Nd3+  Nd31  1  0.27000611  0.36902633  0.07311907  1
  Nd3+  Nd32  1  0.03890611  0.63017233  0.55128846  1
  Nd3+  Nd33  1  0.16453127  0.00534559  0.42988350  1
  Nd3+  Nd34  1  0.64548788  -0.00799701  0.94605375  1
  Nd3+  Nd35  1  0.41272832  0.75397732  0.43777905  1
  Nd3+  Nd36  1  0.89877208  0.48047378  0.91875221  1
  Nd3+  Nd37  1  0.76861802  0.37431214  0.06810794  1
  Nd3+  Nd38  1  0.89075246  0.24526675  0.94705422  1
  Nd3+  Nd39  1  0.91174169  0.25161658  0.42320922  1
  Nd3+  Nd40  1  0.14399612  0.24402248  0.95146587  1
  Nd3+  Nd41  1  0.91840145  -0.00319426  0.42453828  1
  Nd3+  Nd42  1  0.54263516  0.63589789  0.56724336  1
  Nd3+  Nd43  1  0.54137329  0.12907562  0.55237765  1
  Nd3+  Nd44  1  0.16981481  0.75265315  0.42981585  1
  Nd3+  Nd45  1  0.52597095  0.37107124  0.07535699  1
  Nd3+  Nd46  1  0.26073366  0.86790257  0.06806476  1
  Nd3+  Nd47  1  0.01353201  0.62146215  0.05575174  1
  Nd3+  Nd48  1  0.79373398  0.88864133  0.56853790  1
  Nd3+  Nd49  1  0.28745466  0.88062724  0.56525518  1
  Nd3+  Nd50  1  0.51904483  0.87118523  0.05762624  1
  Sm3+  Sm51  1  0.39349254  0.49228130  0.95272043  1
  Sm3+  Sm52  1  0.14080795  0.49069463  0.94766528  1
  Sm3+  Sm53  1  0.52045367  0.11722775  0.06173810  1
  Sm3+  Sm54  1  0.91742618  0.75485950  0.43882246  1
  Sm3+  Sm55  1  0.39074535  0.74169127  0.94894110  1
  Sm3+  Sm56  1  0.17473960  0.50054526  0.43475148  1
  Sm3+  Sm57  1  0.03454399  0.38222086  0.54689144  1
  Sm3+  Sm58  1  0.42156479  0.50174725  0.43740813  1
  Sm3+  Sm59  1  0.54129110  0.88183235  0.54728116  1
  Sm3+  Sm60  1  0.14488622  -0.00630140  0.94084581  1
  Sm3+  Sm61  1  0.79539818  0.12476016  0.55739280  1
  Sm3+  Sm62  1  0.01161163  0.36999557  0.07049738  1
  Sm3+  Sm63  1  0.41393403  0.25736547  0.43462087  1
  Bi2+  Bi64  1  -0.01033097  0.13648158  0.28488174  1
  Bi2+  Bi65  1  0.00532485  0.19375255  0.77979278  1
  Bi2+  Bi66  1  -0.06544985  0.42381987  0.29460284  1
  Bi2+  Bi67  1  0.02330097  0.37977474  0.73567374  1
  Bi2+  Bi68  1  -0.07221835  0.62236635  0.30173227  1
  Bi2+  Bi69  1  0.02026749  0.63859542  0.73695518  1
  Bi2+  Bi70  1  0.00962763  0.88350037  0.28303068  1
  Bi2+  Bi71  1  -0.02821593  0.87626787  0.80624912  1
  Bi2+  Bi72  1  0.24403375  0.12675077  0.29219570  1
  Bi2+  Bi73  1  0.26560169  0.14521422  0.80219683  1
  Bi2+  Bi74  1  0.17136813  0.33514188  0.29697027  1
  Bi2+  Bi75  1  0.19679578  0.39405737  0.82380911  1
  Bi2+  Bi76  1  0.13476638  0.61466696  0.28524370  1
  Bi2+  Bi77  1  0.16724294  0.59154739  0.81508941  1
  Bi2+  Bi78  1  0.24141448  0.86324704  0.29859619  1
  Bi2+  Bi79  1  0.23246156  0.86640568  0.81318431  1
  Bi2+  Bi80  1  0.41947885  0.12290665  0.23475998  1
  Bi2+  Bi81  1  0.48344483  0.06400956  0.79417189  1
  Bi2+  Bi82  1  0.44294600  0.40254517  0.30354494  1
  Bi2+  Bi83  1  0.48165327  0.33734840  0.80195205  1
  Bi2+  Bi84  1  0.45070440  0.71344828  0.29986468  1
  Bi2+  Bi85  1  0.36355551  0.59465060  0.80261464  1
  Bi2+  Bi86  1  0.44221001  0.90919597  0.27570825  1
  Bi2+  Bi87  1  0.44441608  0.89378209  0.73414400  1
  Bi2+  Bi88  1  0.72435205  0.13097188  0.29027996  1
  Bi2+  Bi89  1  0.72952687  0.13114719  0.77090215  1
  Bi2+  Bi90  1  0.65045669  0.38207662  0.31374130  1
  Bi2+  Bi91  1  0.76938604  0.38659087  0.80233774  1
  Bi2+  Bi92  1  0.72664585  0.61793009  0.28956971  1
  Bi2+  Bi93  1  0.74456437  0.64083682  0.78595162  1
  Bi2+  Bi94  1  0.75775199  0.87786251  0.29437670  1
  Bi2+  Bi95  1  0.71914013  0.88793545  0.80141043  1
  Bi2+  Bi96  1  0.16832334  -0.00976259  0.21833727  1
  Bi2+  Bi97  1  0.12411879  0.05058213  0.73677771  1
  Bi2+  Bi98  1  0.07279876  0.25210233  0.19939962  1
  Bi2+  Bi99  1  0.14516089  0.24245985  0.69800323  1
  Bi2+  Bi100  1  0.08293906  0.45079196  0.21488980  1
  Bi2+  Bi101  1  0.16685249  0.50374818  0.70002462  1
  Bi2+  Bi102  1  0.13311705  0.72381353  0.19303955  1
  Bi2+  Bi103  1  0.15336753  0.78390874  0.72401121  1
  Bi2+  Bi104  1  0.34790906  -0.02975180  0.17150486  1
  Bi2+  Bi105  1  0.29162720  -0.02031948  0.68382504  1
  Bi2+  Bi106  1  0.27618397  0.24001897  0.19761683  1
  Bi2+  Bi107  1  0.38004445  0.15308438  0.70745560  1
  Bi2+  Bi108  1  0.32591407  0.57931140  0.26134873  1
  Bi2+  Bi109  1  0.33117599  0.42498409  0.74421310  1
  Bi2+  Bi110  1  0.35180200  0.77424924  0.20336107  1
  Bi2+  Bi111  1  0.34459254  0.72709449  0.71972886  1
  Bi2+  Bi112  1  0.60325471  -0.03560239  0.22030562  1
  Bi2+  Bi113  1  0.62162712  0.00148156  0.71011268  1
  Bi2+  Bi114  1  0.56665432  0.27122267  0.20066917  1
  Bi2+  Bi115  1  0.57995941  0.23482530  0.72493936  1
  Bi2+  Bi116  1  0.56111255  0.48157096  0.21998753  1
  Bi2+  Bi117  1  0.60754963  0.47678085  0.70374579  1
  Bi2+  Bi118  1  0.62493059  0.71509648  0.21058637  1
  Bi2+  Bi119  1  0.60723396  0.74005895  0.69948552  1
  Bi2+  Bi120  1  0.90071600  -0.00141223  0.21846972  1
  Bi2+  Bi121  1  0.86806807  0.02962724  0.70193841  1
  Bi2+  Bi122  1  0.87651849  0.27530560  0.22534994  1
  Bi2+  Bi123  1  0.85248097  0.24102067  0.71302163  1
  Bi2+  Bi124  1  0.82516431  0.50445559  0.21371917  1
  Bi2+  Bi125  1  0.86455146  0.48544933  0.69468921  1
  Bi2+  Bi126  1  0.87991683  0.71852664  0.20586622  1
  Bi2+  Bi127  1  0.89736993  0.78059261  0.70363990  1
  S2-  S128  1  -0.07723496  0.11360958  0.14922563  1
  S2-  S129  1  -0.08624201  0.14926120  0.63343081  1
  S2-  S130  1  -0.10940170  0.39245301  0.14233245  1
  S2-  S131  1  -0.05767284  0.39261062  0.62897337  1
  S2-  S132  1  0.00598026  0.62506777  0.15467165  1
  S2-  S133  1  -0.04521528  0.63461223  0.63923075  1
  S2-  S134  1  -0.08709285  0.85219227  0.15023291  1
  S2-  S135  1  -0.06128547  0.90588520  0.64213616  1
  S2-  S136  1  0.13291871  0.10416572  0.14452106  1
  S2-  S137  1  0.14175104  0.10137469  0.63797182  1
  S2-  S138  1  0.22173054  0.40221168  0.16609334  1
  S2-  S139  1  0.29316211  0.26709443  0.64194384  1
  S2-  S140  1  0.27645942  0.62618654  0.16029505  1
  S2-  S141  1  0.24417751  0.63797543  0.65492029  1
  S2-  S142  1  0.13629782  0.86051351  0.14067037  1
  S2-  S143  1  0.16509791  0.86785452  0.63692234  1
  S2-  S144  1  0.54536610  0.10471958  0.15810628  1
  S2-  S145  1  0.53203708  0.11737601  0.65131567  1
  S2-  S146  1  0.44752315  0.37069883  0.16605018  1
  S2-  S147  1  0.50512350  0.36836416  0.66510720  1
  S2-  S148  1  0.51941234  0.61452242  0.16073617  1
  S2-  S149  1  0.51410609  0.61276033  0.66497878  1
  S2-  S150  1  0.59240073  0.84292191  0.14613299  1
  S2-  S151  1  0.52698484  0.83918593  0.64245813  1
  S2-  S152  1  0.73568421  0.20278666  0.19193212  1
  S2-  S153  1  0.74441389  0.01962947  0.63432676  1
  S2-  S154  1  0.65418932  0.38990351  0.14673105  1
  S2-  S155  1  0.73096694  0.38090420  0.66112229  1
  S2-  S156  1  0.74975585  0.68349941  0.13653224  1
  S2-  S157  1  0.73257721  0.59619588  0.67897756  1
  S2-  S158  1  0.74512976  0.98275231  0.16711160  1
  S2-  S159  1  0.76123938  0.78540905  0.65033368  1
  S2-  S160  1  0.04462152  0.00912108  0.35127733  1
  S2-  S161  1  0.09805789  -0.02536402  0.84654650  1
  S2-  S162  1  0.04621665  0.24918660  0.35349929  1
  S2-  S163  1  0.13307803  0.23260064  0.85289991  1
  S2-  S164  1  0.10769595  0.48033952  0.34526826  1
  S2-  S165  1  0.05619393  0.47590332  0.86253526  1
  S2-  S166  1  0.09858974  0.77974621  0.33839266  1
  S2-  S167  1  0.03333052  0.74516553  0.85568449  1
  S2-  S168  1  0.29754973  0.00358623  0.36253309  1
  S2-  S169  1  0.33249391  -0.00448091  0.84757904  1
  S2-  S170  1  0.29128784  0.25545821  0.36071448  1
  S2-  S171  1  0.37788699  0.24202055  0.85548193  1
  S2-  S172  1  0.32298544  0.49508115  0.35479611  1
  S2-  S173  1  0.45853914  0.47956390  0.86321894  1
  S2-  S174  1  0.30459520  0.74417420  0.36047368  1
  S2-  S175  1  0.33795192  0.75228034  0.85679591  1
  S2-  S176  1  0.60209309  0.04321412  0.32657453  1
  S2-  S177  1  0.60230822  -0.01792780  0.84934534  1
  S2-  S178  1  0.53384406  0.27649335  0.35778803  1
  S2-  S179  1  0.63374899  0.31826968  0.86132934  1
  S2-  S180  1  0.54375681  0.50437129  0.36250683  1
  S2-  S181  1  0.64109670  0.51836095  0.80618083  1
  S2-  S182  1  0.66003213  0.77178611  0.33813735  1
  S2-  S183  1  0.61655123  0.75100966  0.82292289  1
  S2-  S184  1  0.80025178  0.02246557  0.34897350  1
  S2-  S185  1  0.85737559  -0.01270277  0.83809419  1
  S2-  S186  1  0.77666359  0.25636324  0.35288631  1
  S2-  S187  1  0.88472723  0.33031178  0.86044396  1
  S2-  S188  1  0.77120719  0.49102081  0.35862186  1
  S2-  S189  1  0.85172082  0.53495240  0.82394349  1
  S2-  S190  1  0.88724523  0.83297519  0.35223128  1
  S2-  S191  1  0.83161874  0.76927885  0.83240496  1
  S2-  S192  1  0.03865955  0.12869654  0.45174764  1
  S2-  S193  1  0.01927227  0.11928632  0.95500986  1
  S2-  S194  1  0.03871597  0.38396663  0.44717662  1
  S2-  S195  1  0.01917680  0.36542801  0.96688292  1
  S2-  S196  1  0.04306906  0.62771046  0.44561556  1
  S2-  S197  1  0.01817497  0.61400222  0.95237013  1
  S2-  S198  1  0.04456574  0.87476655  0.45276434  1
  S2-  S199  1  0.02282284  0.86990629  0.95714623  1
  S2-  S200  1  0.29059627  0.13538351  0.46313874  1
  S2-  S201  1  0.26639930  0.11765834  0.96469741  1
  S2-  S202  1  0.29435509  0.38212859  0.46028841  1
  S2-  S203  1  0.26812016  0.37151399  0.96560618  1
  S2-  S204  1  0.29390522  0.62282560  0.45593035  1
  S2-  S205  1  0.26847110  0.61387629  0.95695781  1
  S2-  S206  1  0.28937499  0.87743188  0.46071429  1
  S2-  S207  1  0.26764098  0.86937657  0.96132480  1
  S2-  S208  1  0.53606233  0.12689504  0.44833044  1
  S2-  S209  1  0.51894867  0.11913967  0.95686996  1
  S2-  S210  1  0.53984336  0.37818907  0.46328137  1
  S2-  S211  1  0.51658195  0.36891901  0.96829533  1
  S2-  S212  1  0.53760679  0.63437891  0.45972252  1
  S2-  S213  1  0.51649150  0.62004821  0.95187902  1
  S2-  S214  1  0.53469618  0.88289796  0.44272158  1
  S2-  S215  1  0.51387649  0.86563955  0.95120230  1
  S2-  S216  1  0.79001186  0.12855531  0.45418414  1
  S2-  S217  1  0.76598875  0.12102377  0.94322985  1
  S2-  S218  1  0.79212298  0.37747450  0.45721175  1
  S2-  S219  1  0.76516063  0.37365103  0.96068764  1
  S2-  S220  1  0.79280460  0.63673964  0.44997035  1
  S2-  S221  1  0.76336240  0.61054561  0.93652379  1
  S2-  S222  1  0.78992889  0.87930907  0.45671647  1
  S2-  S223  1  0.76625284  0.86616055  0.94376324  1
  S2-  S224  1  0.14294605  -0.00638368  0.04317118  1
  S2-  S225  1  0.16865543  0.00506844  0.53512844  1
  S2-  S226  1  0.14100336  0.24982697  0.05587437  1
  S2-  S227  1  0.15928756  0.26146057  0.54042696  1
  S2-  S228  1  0.13807379  0.49224855  0.05269630  1
  S2-  S229  1  0.16334030  0.50322416  0.54315604  1
  S2-  S230  1  0.14253172  0.74098374  0.03903340  1
  S2-  S231  1  0.16652018  0.74929337  0.53741634  1
  S2-  S232  1  0.39270829  -0.00494473  0.04789170  1
  S2-  S233  1  0.41346999  0.00408505  0.54842060  1
  S2-  S234  1  0.39335730  0.23971179  0.06078062  1
  S2-  S235  1  0.41968484  0.25665812  0.54230839  1
  S2-  S236  1  0.39431154  0.49631777  0.05638536  1
  S2-  S237  1  0.41856755  0.50404488  0.55139634  1
  S2-  S238  1  0.39166341  0.74695158  0.05290576  1
  S2-  S239  1  0.41373808  0.75681730  0.54391137  1
  S2-  S240  1  0.64573305  -0.00556371  0.05023522  1
  S2-  S241  1  0.66009996  0.00330767  0.53108617  1
  S2-  S242  1  0.64807031  0.23680014  0.05436707  1
  S2-  S243  1  0.66937776  0.24998088  0.54823589  1
  S2-  S244  1  0.64193489  0.49758292  0.04399462  1
  S2-  S245  1  0.66891248  0.51264611  0.55213042  1
  S2-  S246  1  0.64253216  0.74872543  0.03214816  1
  S2-  S247  1  0.66533184  0.75746997  0.54418258  1
  S2-  S248  1  0.88453521  -0.00641060  0.04602273  1
  S2-  S249  1  0.91651200  0.00393508  0.53232645  1
  S2-  S250  1  0.88913593  0.24229353  0.05064314  1
  S2-  S251  1  0.91537285  0.25579717  0.52972444  1
  S2-  S252  1  0.89436026  0.49565281  0.03802331  1
  S2-  S253  1  0.91193623  0.51275180  0.53136270  1
  S2-  S254  1  0.89113844  0.74562250  0.03548827  1
  S2-  S255  1  0.91536869  0.75795881  0.54038267  1
