# generated using pymatgen
data_La6Ce6Pr19Nd20Sm13(BiS2)64
_symmetry_space_group_name_H-M   'P 1'
_cell_length_a   16.08617860
_cell_length_b   16.09067392
_cell_length_c   27.35944640
_cell_angle_alpha   89.95279032
_cell_angle_beta   89.60919334
_cell_angle_gamma   90.02199445
_symmetry_Int_Tables_number   1
_chemical_formula_structural   La6Ce6Pr19Nd20Sm13(BiS2)64
_chemical_formula_sum   'La6 Ce6 Pr19 Nd20 Sm13 Bi64 S128'
_cell_volume   7081.48178753
_cell_formula_units_Z   1
loop_
 _symmetry_equiv_pos_site_id
 _symmetry_equiv_pos_as_xyz
  1  'x, y, z'
loop_
 _atom_type_symbol
 _atom_type_oxidation_number
  La3+  3.0
  Ce3+  3.0
  Pr3+  3.0
  Nd3+  3.0
  Sm3+  3.0
  Bi2+  2.0
  S2-  -2.0
loop_
 _atom_site_type_symbol
 _atom_site_label
 _atom_site_symmetry_multiplicity
 _atom_site_fract_x
 _atom_site_fract_y
 _atom_site_fract_z
 _atom_site_occupancy
  La3+  La0  1  0.24029115  0.09481862  0.07429303  1
  La3+  La1  1  0.37547547  -0.02278173  0.91985576  1
  La3+  La2  1  0.62053951  0.24365950  0.41452939  1
  La3+  La3  1  0.37185837  0.50655352  0.39075285  1
  La3+  La4  1  0.49797001  0.85225575  0.07768021  1
  La3+  La5  1  -0.01720741  0.14473111  0.61468683  1
  Ce3+  Ce6  1  0.11784921  0.47091849  0.93628856  1
  Ce3+  Ce7  1  0.61555001  -0.02194742  0.94107457  1
  Ce3+  Ce8  1  0.11667667  0.25042986  0.43993609  1
  Ce3+  Ce9  1  0.87248359  0.22653406  0.94366383  1
  Ce3+  Ce10  1  0.86222395  0.50543637  0.43169860  1
  Ce3+  Ce11  1  -0.01599167  0.62958619  0.57190606  1
  Pr3+  Pr12  1  0.73735721  0.87641211  0.55542636  1
  Pr3+  Pr13  1  0.48836585  0.35057926  0.08835980  1
  Pr3+  Pr14  1  0.74039919  0.85127125  0.05363335  1
  Pr3+  Pr15  1  -0.00863816  0.09600553  0.07260883  1
  Pr3+  Pr16  1  0.36893589  0.72881339  0.93480875  1
  Pr3+  Pr17  1  -0.00257584  0.35048340  0.06874757  1
  Pr3+  Pr18  1  0.24391906  0.60228976  0.05779121  1
  Pr3+  Pr19  1  0.48631440  0.13599168  0.56577589  1
  Pr3+  Pr20  1  -0.00865361  0.84990025  0.06880624  1
  Pr3+  Pr21  1  0.60912824  0.74673315  0.43192590  1
  Pr3+  Pr22  1  0.87076350  -0.00487499  0.43858742  1
  Pr3+  Pr23  1  0.36863596  0.22455447  0.94342957  1
  Pr3+  Pr24  1  0.61940383  0.47140464  0.93538651  1
  Pr3+  Pr25  1  0.61061912  -0.00006067  0.44062608  1
  Pr3+  Pr26  1  0.24118506  0.35110595  0.06867689  1
  Pr3+  Pr27  1  0.73639720  0.62537722  0.56487881  1
  Pr3+  Pr28  1  -0.01227927  0.87993106  0.57511946  1
  Pr3+  Pr29  1  0.73967127  0.37428217  0.55480502  1
  Pr3+  Pr30  1  0.74021781  0.12711044  0.55885319  1
  Nd3+  Nd31  1  0.36757749  0.47476425  0.94146079  1
  Nd3+  Nd32  1  0.11534104  0.00260627  0.44870899  1
  Nd3+  Nd33  1  0.11751361  0.73222313  0.93472456  1
  Nd3+  Nd34  1  0.11514699  0.75018105  0.44774619  1
  Nd3+  Nd35  1  0.74105780  0.59786054  0.05991421  1
  Nd3+  Nd36  1  0.48742773  0.37153064  0.54184600  1
  Nd3+  Nd37  1  0.48752551  0.10400624  0.07522587  1
  Nd3+  Nd38  1  0.24692982  0.85210056  0.06071080  1
  Nd3+  Nd39  1  0.74015351  0.10505489  0.05349882  1
  Nd3+  Nd40  1  0.23865617  0.13258156  0.57215929  1
  Nd3+  Nd41  1  0.24481841  0.62318550  0.56612818  1
  Nd3+  Nd42  1  0.61843812  0.72667455  0.94274519  1
  Nd3+  Nd43  1  0.48539372  0.87596727  0.55783990  1
  Nd3+  Nd44  1  -0.01148715  0.37603966  0.55059185  1
  Nd3+  Nd45  1  0.61902604  0.49968036  0.43237926  1
  Nd3+  Nd46  1  0.12250798  0.21815149  0.93765194  1
  Nd3+  Nd47  1  0.35574397  0.74982371  0.43068898  1
  Nd3+  Nd48  1  0.86945368  0.24138812  0.43011799  1
  Nd3+  Nd49  1  0.35673904  0.24895598  0.42286130  1
  Nd3+  Nd50  1  0.11610998  0.50650575  0.43655647  1
  Sm3+  Sm51  1  0.86903837  0.47384949  0.94539480  1
  Sm3+  Sm52  1  0.86751063  0.72518893  0.94377260  1
  Sm3+  Sm53  1  0.11803801  -0.02363579  0.93997439  1
  Sm3+  Sm54  1  0.87083181  -0.02289332  0.93812544  1
  Sm3+  Sm55  1  0.36372186  0.00436149  0.44194788  1
  Sm3+  Sm56  1  0.24067617  0.87950226  0.56240102  1
  Sm3+  Sm57  1  0.23871190  0.37666089  0.54955249  1
  Sm3+  Sm58  1  -0.00667776  0.60226157  0.05398525  1
  Sm3+  Sm59  1  0.48724619  0.62274444  0.56103521  1
  Sm3+  Sm60  1  0.86676068  0.75216845  0.43866363  1
  Sm3+  Sm61  1  0.49267951  0.59907312  0.05517927  1
  Sm3+  Sm62  1  0.74149004  0.35164278  0.06038241  1
  Sm3+  Sm63  1  0.61599743  0.22841235  0.94507231  1
  Bi2+  Bi64  1  0.02983182  0.13902777  0.30413158  1
  Bi2+  Bi65  1  -0.00508851  0.17482870  0.81916507  1
  Bi2+  Bi66  1  0.01581142  0.33795424  0.31511236  1
  Bi2+  Bi67  1  0.06194659  0.42512105  0.76560065  1
  Bi2+  Bi68  1  -0.02433592  0.59657872  0.32639677  1
  Bi2+  Bi69  1  0.08244498  0.67958386  0.80637652  1
  Bi2+  Bi70  1  0.03541117  0.78171564  0.31639611  1
  Bi2+  Bi71  1  -0.00806925  0.91930582  0.78804988  1
  Bi2+  Bi72  1  0.26444343  0.08940776  0.31387456  1
  Bi2+  Bi73  1  0.23826252  0.18002425  0.80545851  1
  Bi2+  Bi74  1  0.21690894  0.38222289  0.28663314  1
  Bi2+  Bi75  1  0.28212247  0.47882771  0.74589670  1
  Bi2+  Bi76  1  0.22861334  0.65145018  0.28834697  1
  Bi2+  Bi77  1  0.30334610  0.63572852  0.81324869  1
  Bi2+  Bi78  1  0.23411491  0.85182646  0.24253788  1
  Bi2+  Bi79  1  0.23137726  0.81880015  0.79341468  1
  Bi2+  Bi80  1  0.51843890  0.09441305  0.29784408  1
  Bi2+  Bi81  1  0.47908342  0.12079624  0.80022156  1
  Bi2+  Bi82  1  0.55934528  0.41123268  0.27506916  1
  Bi2+  Bi83  1  0.50738581  0.37464280  0.80467981  1
  Bi2+  Bi84  1  0.52011320  0.66881582  0.28546854  1
  Bi2+  Bi85  1  0.53464821  0.61769244  0.73296388  1
  Bi2+  Bi86  1  0.51859968  0.87457581  0.24696964  1
  Bi2+  Bi87  1  0.50661944  0.80793682  0.78499894  1
  Bi2+  Bi88  1  0.77847833  0.13132640  0.28626089  1
  Bi2+  Bi89  1  0.71991246  0.11465292  0.77749172  1
  Bi2+  Bi90  1  0.81740566  0.38670839  0.28903999  1
  Bi2+  Bi91  1  0.75250217  0.39462478  0.81074644  1
  Bi2+  Bi92  1  0.79281048  0.66084321  0.31999566  1
  Bi2+  Bi93  1  0.76682026  0.65404084  0.80457128  1
  Bi2+  Bi94  1  0.78585130  0.85487105  0.28667564  1
  Bi2+  Bi95  1  0.69122890  0.91960317  0.78286466  1
  Bi2+  Bi96  1  0.09833459  -0.00511336  0.21081047  1
  Bi2+  Bi97  1  0.11816449  -0.00904979  0.71888681  1
  Bi2+  Bi98  1  0.13414490  0.24405732  0.22015789  1
  Bi2+  Bi99  1  0.13013296  0.28034175  0.70478471  1
  Bi2+  Bi100  1  0.14059078  0.50271391  0.20885676  1
  Bi2+  Bi101  1  0.13703002  0.53902830  0.67819719  1
  Bi2+  Bi102  1  0.07047070  0.76558309  0.20210793  1
  Bi2+  Bi103  1  0.14143661  0.72818768  0.70127309  1
  Bi2+  Bi104  1  0.36529085  -0.00198060  0.20929896  1
  Bi2+  Bi105  1  0.36867469  -0.01517552  0.70891664  1
  Bi2+  Bi106  1  0.39332939  0.25142098  0.22065367  1
  Bi2+  Bi107  1  0.38671336  0.25774831  0.70016999  1
  Bi2+  Bi108  1  0.39212169  0.51660430  0.19980662  1
  Bi2+  Bi109  1  0.45782041  0.44853684  0.70008226  1
  Bi2+  Bi110  1  0.38741882  0.77537690  0.18879951  1
  Bi2+  Bi111  1  0.36385989  0.73077891  0.71618680  1
  Bi2+  Bi112  1  0.70364287  -0.01275438  0.21475336  1
  Bi2+  Bi113  1  0.58654730  0.02683791  0.69945214  1
  Bi2+  Bi114  1  0.65930902  0.24269809  0.20784232  1
  Bi2+  Bi115  1  0.59373958  0.22046691  0.71812298  1
  Bi2+  Bi116  1  0.69299584  0.49847750  0.21442762  1
  Bi2+  Bi117  1  0.72542727  0.52652784  0.70043772  1
  Bi2+  Bi118  1  0.65736801  0.73098739  0.21500232  1
  Bi2+  Bi119  1  0.66481073  0.76345053  0.71179898  1
  Bi2+  Bi120  1  0.90699130  -0.01161227  0.23838617  1
  Bi2+  Bi121  1  0.80476138  -0.00608611  0.69969931  1
  Bi2+  Bi122  1  0.93755710  0.26521212  0.21696151  1
  Bi2+  Bi123  1  0.85632490  0.28714335  0.71057288  1
  Bi2+  Bi124  1  0.95246514  0.48686715  0.22775244  1
  Bi2+  Bi125  1  0.91787101  0.54743254  0.73139257  1
  Bi2+  Bi126  1  0.88738563  0.70881953  0.22006983  1
  Bi2+  Bi127  1  0.92726417  0.75076246  0.74361921  1
  S2-  S128  1  0.10927347  0.12502394  0.14599715  1
  S2-  S129  1  -0.02807648  0.16886110  0.72616545  1
  S2-  S130  1  0.11640056  0.36467694  0.14269079  1
  S2-  S131  1  -0.01923578  0.32245621  0.64571966  1
  S2-  S132  1  0.00608148  0.62002685  0.15033995  1
  S2-  S133  1  -0.00416108  0.75255962  0.64506505  1
  S2-  S134  1  -0.03509202  0.96415682  0.14370183  1
  S2-  S135  1  -0.01736654  0.98099735  0.65913295  1
  S2-  S136  1  0.33229684  0.14548173  0.16022330  1
  S2-  S137  1  0.14437761  0.13052451  0.65835867  1
  S2-  S138  1  0.34576408  0.36847428  0.15314812  1
  S2-  S139  1  0.25095868  0.32349501  0.64395478  1
  S2-  S140  1  0.25450355  0.59525024  0.15835140  1
  S2-  S141  1  0.36944855  0.63510738  0.63617210  1
  S2-  S142  1  0.23230514  0.94695463  0.14408935  1
  S2-  S143  1  0.24814995  0.91693316  0.66065787  1
  S2-  S144  1  0.52376187  0.21645003  0.15541336  1
  S2-  S145  1  0.36825719  0.11701853  0.64467233  1
  S2-  S146  1  0.53690472  0.45092261  0.16854561  1
  S2-  S147  1  0.50867093  0.28259583  0.62908605  1
  S2-  S148  1  0.47965192  0.64685165  0.14943670  1
  S2-  S149  1  0.60725851  0.62980972  0.63634710  1
  S2-  S150  1  0.49385221  0.98092411  0.14852555  1
  S2-  S151  1  0.48734622  0.89297148  0.65656341  1
  S2-  S152  1  0.74186933  0.11748160  0.15263208  1
  S2-  S153  1  0.81390136  0.15412290  0.64809120  1
  S2-  S154  1  0.74716700  0.35716822  0.15808583  1
  S2-  S155  1  0.73325014  0.37956136  0.65658826  1
  S2-  S156  1  0.76165841  0.61967056  0.15708805  1
  S2-  S157  1  0.85524229  0.59266048  0.63989215  1
  S2-  S158  1  0.67631665  0.85212565  0.14624423  1
  S2-  S159  1  0.77573806  0.84567315  0.65169438  1
  S2-  S160  1  0.12304518  0.01104380  0.34780262  1
  S2-  S161  1  0.12882520  0.08952217  0.86446170  1
  S2-  S162  1  0.21213362  0.24177971  0.35871961  1
  S2-  S163  1  0.12159034  0.29874234  0.84645373  1
  S2-  S164  1  0.20436568  0.52364088  0.34974201  1
  S2-  S165  1  0.11823166  0.52497512  0.84404505  1
  S2-  S166  1  0.19904674  0.76910027  0.36000264  1
  S2-  S167  1  0.10568617  0.86027226  0.86386587  1
  S2-  S168  1  0.38317510  -0.01450769  0.34411890  1
  S2-  S169  1  0.32676960  0.04614150  0.82410445  1
  S2-  S170  1  0.39377038  0.20224691  0.32501297  1
  S2-  S171  1  0.37766624  0.25762729  0.84292875  1
  S2-  S172  1  0.37973269  0.42795599  0.29417186  1
  S2-  S173  1  0.37852818  0.48497599  0.84286482  1
  S2-  S174  1  0.37386385  0.66599182  0.34265997  1
  S2-  S175  1  0.37606868  0.83584207  0.85562191  1
  S2-  S176  1  0.64617048  0.04941263  0.34680708  1
  S2-  S177  1  0.52905571  0.00211462  0.85904960  1
  S2-  S178  1  0.57665473  0.26124169  0.31189169  1
  S2-  S179  1  0.62827266  0.28374056  0.85200228  1
  S2-  S180  1  0.53622360  0.53105913  0.34741381  1
  S2-  S181  1  0.61894723  0.49349962  0.83535176  1
  S2-  S182  1  0.57234107  0.80161791  0.33826485  1
  S2-  S183  1  0.61570095  0.72129371  0.84449795  1
  S2-  S184  1  0.88621270  0.10129658  0.35730144  1
  S2-  S185  1  0.90369591  0.02525693  0.84558914  1
  S2-  S186  1  0.76355169  0.26375348  0.35105254  1
  S2-  S187  1  0.86933817  0.28051691  0.85000209  1
  S2-  S188  1  0.74641364  0.50533617  0.35820718  1
  S2-  S189  1  0.84975031  0.50847450  0.84967607  1
  S2-  S190  1  0.89978713  0.86703871  0.36452223  1
  S2-  S191  1  0.86883344  0.75934218  0.84783634  1
  S2-  S192  1  -0.00390449  0.12670607  0.45528458  1
  S2-  S193  1  -0.00929519  0.09818658  0.96409384  1
  S2-  S194  1  -0.01003461  0.37852499  0.44572540  1
  S2-  S195  1  -0.00667098  0.35219314  0.96000640  1
  S2-  S196  1  -0.01098134  0.62922982  0.45903615  1
  S2-  S197  1  -0.00840829  0.60313159  0.95000482  1
  S2-  S198  1  -0.00456506  0.87346972  0.46800070  1
  S2-  S199  1  -0.01438305  0.85094243  0.96160819  1
  S2-  S200  1  0.24120105  0.12397839  0.46009244  1
  S2-  S201  1  0.24957751  0.09445297  0.96142861  1
  S2-  S202  1  0.24440248  0.38508406  0.44753236  1
  S2-  S203  1  0.24370362  0.35150378  0.95682375  1
  S2-  S204  1  0.24137356  0.62519017  0.45981071  1
  S2-  S205  1  0.24135371  0.60390184  0.95137345  1
  S2-  S206  1  0.24245503  0.87996364  0.45899168  1
  S2-  S207  1  0.24448716  0.85359324  0.95674455  1
  S2-  S208  1  0.48700295  0.12774655  0.45019218  1
  S2-  S209  1  0.49555175  0.10578385  0.96295744  1
  S2-  S210  1  0.48805432  0.37149321  0.43599868  1
  S2-  S211  1  0.49317041  0.35215443  0.95572517  1
  S2-  S212  1  0.48402737  0.62430160  0.45503207  1
  S2-  S213  1  0.49360585  0.60057391  0.94962841  1
  S2-  S214  1  0.48345809  0.87510002  0.45116548  1
  S2-  S215  1  0.49712043  0.84981166  0.96152572  1
  S2-  S216  1  0.74094913  0.12033701  0.45365933  1
  S2-  S217  1  0.74302693  0.10350068  0.94666129  1
  S2-  S218  1  0.74287019  0.37221299  0.45091522  1
  S2-  S219  1  0.74562368  0.35086878  0.95737487  1
  S2-  S220  1  0.73909716  0.63231686  0.45732536  1
  S2-  S221  1  0.74464043  0.60009073  0.95457746  1
  S2-  S222  1  0.73524902  0.87279501  0.44837284  1
  S2-  S223  1  0.74464312  0.85288707  0.94720268  1
  S2-  S224  1  0.11406123  -0.02972020  0.04300550  1
  S2-  S225  1  0.11923843  0.00183744  0.55369152  1
  S2-  S226  1  0.11744702  0.22540984  0.04301466  1
  S2-  S227  1  0.11376863  0.25249262  0.54492302  1
  S2-  S228  1  0.11676752  0.48145660  0.04231818  1
  S2-  S229  1  0.11352564  0.50264337  0.54368802  1
  S2-  S230  1  0.11717727  0.72798507  0.04360712  1
  S2-  S231  1  0.12328789  0.75006963  0.55152306  1
  S2-  S232  1  0.37218926  -0.02701028  0.04555242  1
  S2-  S233  1  0.36471006  0.00226375  0.54549607  1
  S2-  S234  1  0.36778753  0.22942373  0.04872749  1
  S2-  S235  1  0.35966096  0.25174864  0.53245745  1
  S2-  S236  1  0.37049984  0.47775079  0.04683660  1
  S2-  S237  1  0.36641031  0.49312515  0.54805600  1
  S2-  S238  1  0.37094926  0.72652018  0.04274834  1
  S2-  S239  1  0.36228174  0.75543616  0.53964146  1
  S2-  S240  1  0.61883699  -0.01862112  0.04504392  1
  S2-  S241  1  0.60949361  0.00374839  0.54781198  1
  S2-  S242  1  0.61761996  0.23237482  0.04770098  1
  S2-  S243  1  0.61730724  0.24829667  0.52959826  1
  S2-  S244  1  0.61696978  0.47448003  0.04548189  1
  S2-  S245  1  0.61109221  0.49669559  0.53859205  1
  S2-  S246  1  0.61700096  0.72201042  0.04785273  1
  S2-  S247  1  0.60919850  0.75387422  0.53928306  1
  S2-  S248  1  0.86135002  -0.02338238  0.04250511  1
  S2-  S249  1  0.86227679  0.00083550  0.54594152  1
  S2-  S250  1  0.86855265  0.22883606  0.05263739  1
  S2-  S251  1  0.86712129  0.25082925  0.53908022  1
  S2-  S252  1  0.87001270  0.47546497  0.05185922  1
  S2-  S253  1  0.86383957  0.49821405  0.53712891  1
  S2-  S254  1  0.86670876  0.72457053  0.04957210  1
  S2-  S255  1  0.86116683  0.75138805  0.54159577  1
