# generated using pymatgen
data_La6Ce6Pr19Nd20Sm13(BiS2)64
_symmetry_space_group_name_H-M   'P 1'
_cell_length_a   16.02493939
_cell_length_b   16.11425631
_cell_length_c   27.53586416
_cell_angle_alpha   90.28649189
_cell_angle_beta   89.96596996
_cell_angle_gamma   89.85663933
_symmetry_Int_Tables_number   1
_chemical_formula_structural   La6Ce6Pr19Nd20Sm13(BiS2)64
_chemical_formula_sum   'La6 Ce6 Pr19 Nd20 Sm13 Bi64 S128'
_cell_volume   7110.47321008
_cell_formula_units_Z   1
loop_
 _symmetry_equiv_pos_site_id
 _symmetry_equiv_pos_as_xyz
  1  'x, y, z'
loop_
 _atom_type_symbol
 _atom_type_oxidation_number
  La3+  3.0
  Ce3+  3.0
  Pr3+  3.0
  Nd3+  3.0
  Sm3+  3.0
  Bi2+  2.0
  S2-  -2.0
loop_
 _atom_site_type_symbol
 _atom_site_label
 _atom_site_symmetry_multiplicity
 _atom_site_fract_x
 _atom_site_fract_y
 _atom_site_fract_z
 _atom_site_occupancy
  La3+  La0  1  0.74440905  0.12985730  0.10054951  1
  La3+  La1  1  0.25394205  0.61795912  0.60957982  1
  La3+  La2  1  -0.01621764  0.85951822  0.57744890  1
  La3+  La3  1  0.60376246  -0.02282020  0.39011666  1
  La3+  La4  1  0.38083729  0.00655078  0.90030359  1
  La3+  La5  1  0.87653071  0.50434376  0.89532503  1
  Ce3+  Ce6  1  -0.00938599  0.37187548  0.56458565  1
  Ce3+  Ce7  1  0.12165371  0.00471638  0.92915535  1
  Ce3+  Ce8  1  0.50127964  0.88646575  0.06015072  1
  Ce3+  Ce9  1  0.62764009  0.50661595  0.93976428  1
  Ce3+  Ce10  1  0.50258709  0.13205949  0.05248724  1
  Ce3+  Ce11  1  0.12562850  0.75404909  0.93924927  1
  Pr3+  Pr12  1  0.49457917  0.11167643  0.55828772  1
  Pr3+  Pr13  1  0.12082015  0.25548595  0.93069245  1
  Pr3+  Pr14  1  0.25283716  0.38332587  0.05632270  1
  Pr3+  Pr15  1  0.48935320  0.36437319  0.56139499  1
  Pr3+  Pr16  1  0.49139305  0.86477350  0.55978152  1
  Pr3+  Pr17  1  0.75024506  0.11522771  0.56613446  1
  Pr3+  Pr18  1  0.74084537  0.61303899  0.55786854  1
  Pr3+  Pr19  1  0.00326934  0.13749277  0.06801720  1
  Pr3+  Pr20  1  0.37499290  0.50864509  0.92517972  1
  Pr3+  Pr21  1  0.87482424  0.25321032  0.93331976  1
  Pr3+  Pr22  1  0.62507790  0.75691688  0.94097329  1
  Pr3+  Pr23  1  0.86792398  0.75284029  0.93173738  1
  Pr3+  Pr24  1  0.61540636  0.48167521  0.42945212  1
  Pr3+  Pr25  1  0.75076433  0.37932778  0.05786983  1
  Pr3+  Pr26  1  -0.00791510  0.61147432  0.57242206  1
  Pr3+  Pr27  1  0.86778657  -0.01343977  0.43167742  1
  Pr3+  Pr28  1  -0.00069242  0.38390989  0.05551666  1
  Pr3+  Pr29  1  -0.00417344  0.11442802  0.56202028  1
  Pr3+  Pr30  1  0.11564729  -0.01745398  0.43506707  1
  Nd3+  Nd31  1  0.12080641  0.73697945  0.45424876  1
  Nd3+  Nd32  1  0.75307997  0.88100123  0.06883890  1
  Nd3+  Nd33  1  0.61516172  0.73042763  0.42162795  1
  Nd3+  Nd34  1  0.23945524  0.11257165  0.57245812  1
  Nd3+  Nd35  1  0.49693949  0.63021088  0.06496618  1
  Nd3+  Nd36  1  0.11959047  0.23859664  0.44183624  1
  Nd3+  Nd37  1  0.74308033  0.63436651  0.07184556  1
  Nd3+  Nd38  1  0.23646924  0.87091298  0.58076405  1
  Nd3+  Nd39  1  0.86766226  0.73808830  0.43847179  1
  Nd3+  Nd40  1  0.49136055  0.61570164  0.55733720  1
  Nd3+  Nd41  1  0.25114722  0.88436306  0.05046573  1
  Nd3+  Nd42  1  0.63261903  0.00749858  0.93696803  1
  Nd3+  Nd43  1  0.37766696  0.75524704  0.93829123  1
  Nd3+  Nd44  1  0.12702255  0.50750963  0.93229119  1
  Nd3+  Nd45  1  0.24304892  0.36912624  0.56104789  1
  Nd3+  Nd46  1  -0.00041562  0.88359675  0.05827958  1
  Nd3+  Nd47  1  0.36829303  0.23291076  0.44533006  1
  Nd3+  Nd48  1  0.87014144  0.23848938  0.43833949  1
  Nd3+  Nd49  1  0.61968759  0.23413038  0.44331609  1
  Nd3+  Nd50  1  -0.00262634  0.63125431  0.05370027  1
  Sm3+  Sm51  1  0.74321891  0.86500199  0.55053260  1
  Sm3+  Sm52  1  0.24723751  0.13214633  0.05270802  1
  Sm3+  Sm53  1  0.12131666  0.49155584  0.44721334  1
  Sm3+  Sm54  1  0.36702126  0.48857942  0.43935763  1
  Sm3+  Sm55  1  0.74190025  0.36590943  0.55530490  1
  Sm3+  Sm56  1  0.25369161  0.63396786  0.06287627  1
  Sm3+  Sm57  1  0.36724928  -0.01505464  0.44418830  1
  Sm3+  Sm58  1  0.87086313  0.48957541  0.43909062  1
  Sm3+  Sm59  1  0.36803998  0.25232963  0.92426708  1
  Sm3+  Sm60  1  0.49841096  0.37883283  0.04792838  1
  Sm3+  Sm61  1  0.87574130  0.00706888  0.94143840  1
  Sm3+  Sm62  1  0.63190224  0.25528200  0.93554146  1
  Sm3+  Sm63  1  0.36803665  0.73821212  0.44523532  1
  Bi2+  Bi64  1  0.00029847  0.11484280  0.29894242  1
  Bi2+  Bi65  1  -0.00497951  0.11412334  0.78263396  1
  Bi2+  Bi66  1  0.08519453  0.36961853  0.28655116  1
  Bi2+  Bi67  1  0.00873842  0.33380289  0.77120873  1
  Bi2+  Bi68  1  0.07438762  0.65219828  0.29143060  1
  Bi2+  Bi69  1  0.02761379  0.61527754  0.78686664  1
  Bi2+  Bi70  1  0.03006731  0.86202603  0.24637360  1
  Bi2+  Bi71  1  -0.03819289  0.87588018  0.78891041  1
  Bi2+  Bi72  1  0.24995184  0.10876680  0.29852952  1
  Bi2+  Bi73  1  0.25706414  0.14923444  0.78834484  1
  Bi2+  Bi74  1  0.26222610  0.44848895  0.30953624  1
  Bi2+  Bi75  1  0.33696590  0.38752579  0.79863864  1
  Bi2+  Bi76  1  0.27827669  0.64837676  0.28903908  1
  Bi2+  Bi77  1  0.25984965  0.63373949  0.79393918  1
  Bi2+  Bi78  1  0.19248346  0.91590563  0.31170838  1
  Bi2+  Bi79  1  0.31046223  0.89057495  0.78840724  1
  Bi2+  Bi80  1  0.49382635  0.21203952  0.28772727  1
  Bi2+  Bi81  1  0.53672863  0.21723516  0.78530542  1
  Bi2+  Bi82  1  0.46940034  0.43885525  0.24541231  1
  Bi2+  Bi83  1  0.52622815  0.40710512  0.83242293  1
  Bi2+  Bi84  1  0.47665813  0.61636164  0.28632387  1
  Bi2+  Bi85  1  0.52798213  0.60393295  0.80204422  1
  Bi2+  Bi86  1  0.38367050  0.88811311  0.28065228  1
  Bi2+  Bi87  1  0.48102320  0.82867018  0.82889196  1
  Bi2+  Bi88  1  0.73181299  0.16294865  0.31942714  1
  Bi2+  Bi89  1  0.79248473  0.12530492  0.79296752  1
  Bi2+  Bi90  1  0.72438535  0.40790851  0.28983226  1
  Bi2+  Bi91  1  0.70400787  0.35258432  0.77972054  1
  Bi2+  Bi92  1  0.74049690  0.65571833  0.29839528  1
  Bi2+  Bi93  1  0.75227679  0.64561120  0.79092944  1
  Bi2+  Bi94  1  0.75806684  0.85575071  0.28724255  1
  Bi2+  Bi95  1  0.75720000  0.89072550  0.78721617  1
  Bi2+  Bi96  1  0.15609969  -0.00048962  0.20913424  1
  Bi2+  Bi97  1  0.15500280  0.02462959  0.71648615  1
  Bi2+  Bi98  1  0.12424881  0.24535777  0.20225989  1
  Bi2+  Bi99  1  0.19837345  0.25226577  0.69666699  1
  Bi2+  Bi100  1  0.08773516  0.51439494  0.20242151  1
  Bi2+  Bi101  1  0.14849285  0.43655100  0.71949427  1
  Bi2+  Bi102  1  0.15176328  0.72728833  0.19347524  1
  Bi2+  Bi103  1  0.11776972  0.78538806  0.71614478  1
  Bi2+  Bi104  1  0.37108453  0.04905390  0.21255912  1
  Bi2+  Bi105  1  0.41295696  0.01229448  0.71485138  1
  Bi2+  Bi106  1  0.34010023  0.23991480  0.21816877  1
  Bi2+  Bi107  1  0.40022448  0.27625885  0.70555940  1
  Bi2+  Bi108  1  0.28399644  0.50342001  0.19850546  1
  Bi2+  Bi109  1  0.40634630  0.49931588  0.71289322  1
  Bi2+  Bi110  1  0.34817785  0.76115717  0.19794544  1
  Bi2+  Bi111  1  0.41255430  0.77082273  0.71397222  1
  Bi2+  Bi112  1  0.58003330  -0.00034748  0.20682414  1
  Bi2+  Bi113  1  0.59896925  0.03087043  0.75636152  1
  Bi2+  Bi114  1  0.59232642  0.28877395  0.20015300  1
  Bi2+  Bi115  1  0.67868765  0.17860381  0.70035417  1
  Bi2+  Bi116  1  0.72510995  0.51568647  0.19732046  1
  Bi2+  Bi117  1  0.60450304  0.48680013  0.71991888  1
  Bi2+  Bi118  1  0.62718310  0.74404144  0.20458462  1
  Bi2+  Bi119  1  0.60693749  0.76294746  0.74678493  1
  Bi2+  Bi120  1  0.86346351  -0.00184760  0.21377836  1
  Bi2+  Bi121  1  0.89147931  -0.01162039  0.70977524  1
  Bi2+  Bi122  1  0.87489573  0.25684185  0.21000613  1
  Bi2+  Bi123  1  0.87662197  0.24353466  0.70506328  1
  Bi2+  Bi124  1  0.90420236  0.45876089  0.24157272  1
  Bi2+  Bi125  1  0.86558460  0.49256463  0.70133215  1
  Bi2+  Bi126  1  0.86014534  0.66113754  0.21106781  1
  Bi2+  Bi127  1  0.86194325  0.74994193  0.70754893  1
  S2-  S128  1  -0.09606192  0.11765493  0.15088861  1
  S2-  S129  1  0.10883624  0.13184469  0.64173039  1
  S2-  S130  1  0.00390956  0.30362069  0.14454996  1
  S2-  S131  1  -0.00425697  0.47788877  0.64335962  1
  S2-  S132  1  0.00426701  0.64883653  0.15244529  1
  S2-  S133  1  -0.00676794  0.72257581  0.65175362  1
  S2-  S134  1  -0.03392992  0.89060893  0.15614098  1
  S2-  S135  1  0.09481518  0.90433258  0.65181134  1
  S2-  S136  1  0.14522435  0.12003765  0.13338305  1
  S2-  S137  1  0.28053239  0.00112636  0.64952647  1
  S2-  S138  1  0.25153069  0.34094995  0.15319740  1
  S2-  S139  1  0.26989279  0.45136720  0.64711660  1
  S2-  S140  1  0.36939582  0.62075524  0.13654074  1
  S2-  S141  1  0.16633234  0.60734468  0.70651685  1
  S2-  S142  1  0.23661720  0.87172938  0.14923302  1
  S2-  S143  1  0.26155289  0.77184983  0.66121556  1
  S2-  S144  1  0.57314860  0.13643701  0.14312585  1
  S2-  S145  1  0.46103079  0.13909985  0.65484193  1
  S2-  S146  1  0.49510499  0.38518993  0.14512078  1
  S2-  S147  1  0.52744804  0.37702255  0.65805578  1
  S2-  S148  1  0.60550335  0.61732861  0.14446179  1
  S2-  S149  1  0.42544865  0.62503384  0.64871196  1
  S2-  S150  1  0.51581373  0.85555435  0.15663244  1
  S2-  S151  1  0.49530281  0.88530708  0.65938578  1
  S2-  S152  1  0.75891827  0.13929184  0.22863485  1
  S2-  S153  1  0.87710557  0.11176559  0.63744690  1
  S2-  S154  1  0.74868276  0.29292896  0.14538852  1
  S2-  S155  1  0.79250908  0.37064684  0.64801079  1
  S2-  S156  1  0.76344106  0.75928235  0.14523358  1
  S2-  S157  1  0.78124979  0.61646549  0.65496737  1
  S2-  S158  1  0.72891292  0.97607857  0.15314514  1
  S2-  S159  1  0.82415782  0.87196426  0.63763648  1
  S2-  S160  1  -0.00338555  -0.00761812  0.35911208  1
  S2-  S161  1  -0.00900307  -0.00097359  0.86089075  1
  S2-  S162  1  0.12168668  0.20659112  0.34456763  1
  S2-  S163  1  0.23440828  0.27394328  0.85370581  1
  S2-  S164  1  0.08906505  0.50314513  0.35169701  1
  S2-  S165  1  0.03733394  0.49027773  0.84539157  1
  S2-  S166  1  0.11564929  0.77430198  0.35719113  1
  S2-  S167  1  0.13807617  0.72274379  0.84278206  1
  S2-  S168  1  0.43287881  -0.01949539  0.35496623  1
  S2-  S169  1  0.22506045  0.00127552  0.84702164  1
  S2-  S170  1  0.35974332  0.22426211  0.34755839  1
  S2-  S171  1  0.40152117  0.15385246  0.84302976  1
  S2-  S172  1  0.42411817  0.46227045  0.34839509  1
  S2-  S173  1  0.24416219  0.50710092  0.85392894  1
  S2-  S174  1  0.40651433  0.73157215  0.34928600  1
  S2-  S175  1  0.38759090  0.64839600  0.85762232  1
  S2-  S176  1  0.59270185  0.06224644  0.29617409  1
  S2-  S177  1  0.53935190  -0.01187935  0.85004553  1
  S2-  S178  1  0.62584887  0.30259838  0.35255793  1
  S2-  S179  1  0.74542895  0.25488235  0.85894710  1
  S2-  S180  1  0.61266612  0.59450109  0.35401924  1
  S2-  S181  1  0.71152766  0.53472486  0.85710467  1
  S2-  S182  1  0.61973065  0.82593776  0.33860910  1
  S2-  S183  1  0.73157705  0.77200995  0.86160038  1
  S2-  S184  1  0.76884307  -0.00194514  0.34847064  1
  S2-  S185  1  0.76182929  0.00540366  0.86391478  1
  S2-  S186  1  0.89051452  0.22978138  0.33945771  1
  S2-  S187  1  0.99656712  0.24409363  0.85553055  1
  S2-  S188  1  0.84628229  0.48141307  0.34301124  1
  S2-  S189  1  0.85990971  0.42288868  0.79846914  1
  S2-  S190  1  0.87069830  0.75781250  0.34070063  1
  S2-  S191  1  0.90437790  0.65868751  0.84438254  1
  S2-  S192  1  -0.00495971  0.11731681  0.45672272  1
  S2-  S193  1  0.00120575  0.12892693  0.96023240  1
  S2-  S194  1  -0.00460837  0.36705240  0.45385638  1
  S2-  S195  1  -0.00476012  0.38939531  0.95135237  1
  S2-  S196  1  -0.00687254  0.61215279  0.45798216  1
  S2-  S197  1  -0.00062100  0.62820017  0.95109780  1
  S2-  S198  1  -0.00831492  0.85820577  0.46262292  1
  S2-  S199  1  -0.00159961  0.87316968  0.95349649  1
  S2-  S200  1  0.24211800  0.10997006  0.45773275  1
  S2-  S201  1  0.25407240  0.12625415  0.95094091  1
  S2-  S202  1  0.24511538  0.36383631  0.45402747  1
  S2-  S203  1  0.25214036  0.38095998  0.95310916  1
  S2-  S204  1  0.24641734  0.61293439  0.44358538  1
  S2-  S205  1  0.25058189  0.63274492  0.95988459  1
  S2-  S206  1  0.24652746  0.86255637  0.45758780  1
  S2-  S207  1  0.25427394  0.87964061  0.94645350  1
  S2-  S208  1  0.49743614  0.10828871  0.45219213  1
  S2-  S209  1  0.50304000  0.13521373  0.94894935  1
  S2-  S210  1  0.49127789  0.36006057  0.45596723  1
  S2-  S211  1  0.49803625  0.37476181  0.94527218  1
  S2-  S212  1  0.49105300  0.61142898  0.45402218  1
  S2-  S213  1  0.50358306  0.62961839  0.95814380  1
  S2-  S214  1  0.49550610  0.86075173  0.45420034  1
  S2-  S215  1  0.49743785  0.88486276  0.95607731  1
  S2-  S216  1  0.74583279  0.11651858  0.45816415  1
  S2-  S217  1  0.75114002  0.13242592  0.95858927  1
  S2-  S218  1  0.74591485  0.36552183  0.45238633  1
  S2-  S219  1  0.75522940  0.38709155  0.95262926  1
  S2-  S220  1  0.74299630  0.61007758  0.45212071  1
  S2-  S221  1  0.75069462  0.62945783  0.96446869  1
  S2-  S222  1  0.73682491  0.85913090  0.44914558  1
  S2-  S223  1  0.75186329  0.88140804  0.96386946  1
  S2-  S224  1  0.12509482  0.00359931  0.03625025  1
  S2-  S225  1  0.11852373  -0.01177566  0.54119517  1
  S2-  S226  1  0.12858470  0.26049591  0.03652958  1
  S2-  S227  1  0.11728363  0.24897840  0.54526377  1
  S2-  S228  1  0.12892488  0.51026107  0.04670369  1
  S2-  S229  1  0.12568464  0.49698100  0.54911434  1
  S2-  S230  1  0.12719077  0.75537332  0.04547154  1
  S2-  S231  1  0.12634299  0.73240089  0.55700733  1
  S2-  S232  1  0.37248267  0.01080409  0.05512979  1
  S2-  S233  1  0.36744722  -0.01029514  0.54546403  1
  S2-  S234  1  0.37384543  0.25409297  0.03934112  1
  S2-  S235  1  0.36331629  0.23778481  0.55036372  1
  S2-  S236  1  0.37664701  0.50471218  0.03555498  1
  S2-  S237  1  0.36824960  0.49321692  0.54263781  1
  S2-  S238  1  0.37546498  0.75935693  0.04262178  1
  S2-  S239  1  0.36414526  0.73945633  0.54788051  1
  S2-  S240  1  0.62617208  0.00746583  0.04359171  1
  S2-  S241  1  0.62374895  -0.01066467  0.55998649  1
  S2-  S242  1  0.62338517  0.25841551  0.03852665  1
  S2-  S243  1  0.62030895  0.23990897  0.54918932  1
  S2-  S244  1  0.62141075  0.50109900  0.04387301  1
  S2-  S245  1  0.61586052  0.48736373  0.54306744  1
  S2-  S246  1  0.62075265  0.75914238  0.04557433  1
  S2-  S247  1  0.61848183  0.74003889  0.54716178  1
  S2-  S248  1  0.87505163  0.00604223  0.04582142  1
  S2-  S249  1  0.86774851  -0.01232132  0.53754819  1
  S2-  S250  1  0.87660432  0.25731198  0.04075876  1
  S2-  S251  1  0.86962383  0.24700791  0.54304483  1
  S2-  S252  1  0.87316021  0.50877935  0.06417962  1
  S2-  S253  1  0.86474461  0.48930854  0.54182105  1
  S2-  S254  1  0.87779396  0.75637630  0.04223272  1
  S2-  S255  1  0.86425536  0.73455318  0.54274542  1
