# generated using pymatgen
data_La6Ce6Pr19Nd20Sm13(BiS2)64
_symmetry_space_group_name_H-M   'P 1'
_cell_length_a   16.05028849
_cell_length_b   16.09940687
_cell_length_c   27.65475037
_cell_angle_alpha   89.64257463
_cell_angle_beta   90.25848051
_cell_angle_gamma   90.00088860
_symmetry_Int_Tables_number   1
_chemical_formula_structural   La6Ce6Pr19Nd20Sm13(BiS2)64
_chemical_formula_sum   'La6 Ce6 Pr19 Nd20 Sm13 Bi64 S128'
_cell_volume   7145.77918804
_cell_formula_units_Z   1
loop_
 _symmetry_equiv_pos_site_id
 _symmetry_equiv_pos_as_xyz
  1  'x, y, z'
loop_
 _atom_type_symbol
 _atom_type_oxidation_number
  La3+  3.0
  Ce3+  3.0
  Pr3+  3.0
  Nd3+  3.0
  Sm3+  3.0
  Bi2+  2.0
  S2-  -2.0
loop_
 _atom_site_type_symbol
 _atom_site_label
 _atom_site_symmetry_multiplicity
 _atom_site_fract_x
 _atom_site_fract_y
 _atom_site_fract_z
 _atom_site_occupancy
  La3+  La0  1  0.37443407  -0.01256016  0.93320375  1
  La3+  La1  1  0.63062900  0.48945002  0.93474247  1
  La3+  La2  1  0.63881846  0.23709848  0.93737523  1
  La3+  La3  1  0.88427160  -0.02004636  0.93741032  1
  La3+  La4  1  0.73025820  0.86656659  0.60104672  1
  La3+  La5  1  0.36193204  0.75020756  0.40328596  1
  Ce3+  Ce6  1  0.26188956  0.85679175  0.07278671  1
  Ce3+  Ce7  1  0.76196427  0.36143846  0.06397412  1
  Ce3+  Ce8  1  0.49495281  0.36767176  0.55161521  1
  Ce3+  Ce9  1  0.00762674  0.10960743  0.05808960  1
  Ce3+  Ce10  1  0.51035118  0.11041370  0.05689363  1
  Ce3+  Ce11  1  0.39011521  0.73815018  0.93908879  1
  Pr3+  Pr12  1  0.00703967  0.61069755  0.06404446  1
  Pr3+  Pr13  1  0.24658169  0.11258597  0.56435694  1
  Pr3+  Pr14  1  -0.01021456  0.86438312  0.56428674  1
  Pr3+  Pr15  1  0.36239592  0.00030919  0.42217690  1
  Pr3+  Pr16  1  0.24412501  0.61954602  0.55976492  1
  Pr3+  Pr17  1  0.13525013  0.24018179  0.94309165  1
  Pr3+  Pr18  1  0.63241217  0.00527499  0.40403070  1
  Pr3+  Pr19  1  0.51307083  0.36156049  0.06574634  1
  Pr3+  Pr20  1  0.88472206  0.23525809  0.94040583  1
  Pr3+  Pr21  1  0.87937778  0.73967416  0.93108161  1
  Pr3+  Pr22  1  0.86757831  0.24553870  0.43486813  1
  Pr3+  Pr23  1  0.61877154  0.24623061  0.43610981  1
  Pr3+  Pr24  1  0.13357204  0.73539638  0.94129513  1
  Pr3+  Pr25  1  0.85984853  0.75027452  0.43956599  1
  Pr3+  Pr26  1  0.12063838  0.49664852  0.44394781  1
  Pr3+  Pr27  1  -0.00874705  0.62148425  0.55543014  1
  Pr3+  Pr28  1  0.61565138  0.74903052  0.43646056  1
  Pr3+  Pr29  1  0.11705999  0.74916506  0.43753962  1
  Pr3+  Pr30  1  0.36220057  0.24584359  0.42419264  1
  Nd3+  Nd31  1  0.13417585  -0.01764333  0.95263472  1
  Nd3+  Nd32  1  0.11846194  -0.00502173  0.44192506  1
  Nd3+  Nd33  1  0.86736463  0.49822353  0.43687256  1
  Nd3+  Nd34  1  0.13455251  0.48970639  0.94603309  1
  Nd3+  Nd35  1  0.24745716  0.87113238  0.56122870  1
  Nd3+  Nd36  1  0.50848758  0.86437637  0.06910258  1
  Nd3+  Nd37  1  0.51364627  0.61473640  0.06660814  1
  Nd3+  Nd38  1  0.75938902  0.86198285  0.08068041  1
  Nd3+  Nd39  1  0.49364097  0.62252804  0.55248568  1
  Nd3+  Nd40  1  0.61547112  0.49787146  0.43098675  1
  Nd3+  Nd41  1  0.74269646  0.11814397  0.56257833  1
  Nd3+  Nd42  1  0.38425005  0.23787023  0.94343317  1
  Nd3+  Nd43  1  0.87917348  0.49470122  0.92749651  1
  Nd3+  Nd44  1  0.74317608  0.37453714  0.55781872  1
  Nd3+  Nd45  1  0.63035121  0.74358941  0.93595573  1
  Nd3+  Nd46  1  0.01095533  0.85322834  0.07842839  1
  Nd3+  Nd47  1  0.24890720  0.35721033  0.56906516  1
  Nd3+  Nd48  1  0.26114355  0.11144996  0.06747807  1
  Nd3+  Nd49  1  0.11404852  0.24502415  0.43757999  1
  Nd3+  Nd50  1  0.63645911  -0.01307588  0.94294989  1
  Sm3+  Sm51  1  0.26354241  0.61240985  0.05774433  1
  Sm3+  Sm52  1  -0.01094316  0.11684762  0.55794703  1
  Sm3+  Sm53  1  0.36541941  0.49407441  0.44600029  1
  Sm3+  Sm54  1  0.76156142  0.61532830  0.05844744  1
  Sm3+  Sm55  1  0.38922852  0.48861810  0.94338295  1
  Sm3+  Sm56  1  0.73943323  0.61720772  0.56803703  1
  Sm3+  Sm57  1  0.49807802  0.87084035  0.54581766  1
  Sm3+  Sm58  1  -0.00564926  0.36933722  0.55912375  1
  Sm3+  Sm59  1  0.49757802  0.11552004  0.54827010  1
  Sm3+  Sm60  1  0.00923608  0.36506839  0.05230026  1
  Sm3+  Sm61  1  0.26144406  0.36273087  0.05738800  1
  Sm3+  Sm62  1  0.76081285  0.11508429  0.06774245  1
  Sm3+  Sm63  1  0.86353460  -0.00674123  0.44747668  1
  Bi2+  Bi64  1  -0.00558592  0.11586079  0.29837728  1
  Bi2+  Bi65  1  0.05502463  0.14857725  0.75498845  1
  Bi2+  Bi66  1  -0.10793328  0.38777148  0.29012897  1
  Bi2+  Bi67  1  0.00504015  0.42217197  0.76050175  1
  Bi2+  Bi68  1  -0.03787089  0.58962140  0.29298429  1
  Bi2+  Bi69  1  0.03826482  0.64396707  0.79767848  1
  Bi2+  Bi70  1  0.00095306  0.91407919  0.30190045  1
  Bi2+  Bi71  1  0.01875630  0.85944231  0.74672432  1
  Bi2+  Bi72  1  0.25177475  0.13737374  0.29377965  1
  Bi2+  Bi73  1  0.27373967  0.13665507  0.82179810  1
  Bi2+  Bi74  1  0.17867716  0.38262432  0.28807494  1
  Bi2+  Bi75  1  0.18826532  0.37924387  0.81010631  1
  Bi2+  Bi76  1  0.15541983  0.62468134  0.28266425  1
  Bi2+  Bi77  1  0.30800775  0.68809436  0.81700450  1
  Bi2+  Bi78  1  0.24474090  0.88681729  0.28896206  1
  Bi2+  Bi79  1  0.26752853  0.88231483  0.80006333  1
  Bi2+  Bi80  1  0.46801504  0.14544967  0.25529159  1
  Bi2+  Bi81  1  0.48653297  0.15313754  0.77876058  1
  Bi2+  Bi82  1  0.43158442  0.33551246  0.30205908  1
  Bi2+  Bi83  1  0.59316252  0.40371377  0.79674984  1
  Bi2+  Bi84  1  0.45010330  0.52924531  0.27967724  1
  Bi2+  Bi85  1  0.49373990  0.62851442  0.79570659  1
  Bi2+  Bi86  1  0.51648659  0.81470390  0.28901940  1
  Bi2+  Bi87  1  0.49566309  0.90082662  0.73075041  1
  Bi2+  Bi88  1  0.78259927  0.22638749  0.31125362  1
  Bi2+  Bi89  1  0.74298386  0.13996360  0.81141617  1
  Bi2+  Bi90  1  0.62920579  0.35157905  0.31375673  1
  Bi2+  Bi91  1  0.80049349  0.44719761  0.76690595  1
  Bi2+  Bi92  1  0.75620605  0.60561986  0.24266073  1
  Bi2+  Bi93  1  0.72292107  0.63511656  0.78568570  1
  Bi2+  Bi94  1  0.76126327  0.86542248  0.30705262  1
  Bi2+  Bi95  1  0.79354170  0.90405987  0.80921009  1
  Bi2+  Bi96  1  0.09772137  0.00718156  0.21210336  1
  Bi2+  Bi97  1  0.16154174  -0.00844895  0.72373126  1
  Bi2+  Bi98  1  0.05578829  0.27188474  0.23414525  1
  Bi2+  Bi99  1  0.19231340  0.27468320  0.71391333  1
  Bi2+  Bi100  1  0.01868931  0.52801298  0.19062580  1
  Bi2+  Bi101  1  0.16135323  0.55229214  0.71067664  1
  Bi2+  Bi102  1  0.09933450  0.79057816  0.23042769  1
  Bi2+  Bi103  1  0.14931908  0.75168082  0.69085896  1
  Bi2+  Bi104  1  0.31327187  -0.00538208  0.20376919  1
  Bi2+  Bi105  1  0.37019605  0.06666196  0.70199822  1
  Bi2+  Bi106  1  0.36136333  0.27743230  0.20082252  1
  Bi2+  Bi107  1  0.40377463  0.32785461  0.74466470  1
  Bi2+  Bi108  1  0.25499066  0.50801263  0.21358449  1
  Bi2+  Bi109  1  0.33508060  0.50962600  0.76804576  1
  Bi2+  Bi110  1  0.36497252  0.72755251  0.20736870  1
  Bi2+  Bi111  1  0.34273770  0.78366796  0.71313665  1
  Bi2+  Bi112  1  0.62075344  -0.00211791  0.20746830  1
  Bi2+  Bi113  1  0.63656704  0.03983091  0.70802914  1
  Bi2+  Bi114  1  0.59808356  0.26031775  0.19945368  1
  Bi2+  Bi115  1  0.59184398  0.28891874  0.70581470  1
  Bi2+  Bi116  1  0.64817199  0.44726090  0.20785860  1
  Bi2+  Bi117  1  0.59414336  0.48693978  0.69111512  1
  Bi2+  Bi118  1  0.61429877  0.72494820  0.20881864  1
  Bi2+  Bi119  1  0.61249280  0.73713047  0.70993457  1
  Bi2+  Bi120  1  0.88507513  0.00796024  0.22024289  1
  Bi2+  Bi121  1  0.88703262  0.04637450  0.70013757  1
  Bi2+  Bi122  1  0.86420952  0.25493337  0.20847780  1
  Bi2+  Bi123  1  0.88668335  0.26832247  0.75196469  1
  Bi2+  Bi124  1  0.83276705  0.47101992  0.17126633  1
  Bi2+  Bi125  1  0.90873818  0.52765323  0.67967592  1
  Bi2+  Bi126  1  0.88060530  0.75102055  0.21201732  1
  Bi2+  Bi127  1  0.88344622  0.70234556  0.73064700  1
  S2-  S128  1  -0.00724487  0.10168082  0.15360800  1
  S2-  S129  1  0.00320853  0.13358574  0.65351812  1
  S2-  S130  1  0.01636285  0.36541504  0.14893311  1
  S2-  S131  1  -0.03627228  0.37548255  0.65387811  1
  S2-  S132  1  0.00720049  0.69739131  0.14974840  1
  S2-  S133  1  -0.00271511  0.68045861  0.64823750  1
  S2-  S134  1  -0.10962329  0.87709380  0.15061623  1
  S2-  S135  1  -0.04260644  0.90864973  0.65847462  1
  S2-  S136  1  0.25414641  0.13574658  0.16502251  1
  S2-  S137  1  0.27718878  0.22515757  0.63692065  1
  S2-  S138  1  0.24733328  0.37173280  0.15288345  1
  S2-  S139  1  0.20611058  0.42186088  0.65796791  1
  S2-  S140  1  0.25603150  0.65691646  0.15170158  1
  S2-  S141  1  0.28109432  0.64421235  0.65511638  1
  S2-  S142  1  0.14506513  0.87115436  0.14689072  1
  S2-  S143  1  0.25513065  0.98216909  0.63797349  1
  S2-  S144  1  0.50587326  0.08274622  0.15266577  1
  S2-  S145  1  0.50072585  0.10783918  0.64664847  1
  S2-  S146  1  0.49224624  0.38769725  0.16293218  1
  S2-  S147  1  0.46985468  0.37001456  0.64757991  1
  S2-  S148  1  0.49364442  0.63408080  0.16412485  1
  S2-  S149  1  0.52658805  0.62155376  0.64935153  1
  S2-  S150  1  0.38551683  0.86000991  0.14523546  1
  S2-  S151  1  0.55706982  0.86223857  0.63907327  1
  S2-  S152  1  0.75165923  0.03480465  0.15614517  1
  S2-  S153  1  0.75492003  0.13846373  0.66032129  1
  S2-  S154  1  0.74429423  0.24588135  0.13802819  1
  S2-  S155  1  0.73746778  0.48368053  0.63463432  1
  S2-  S156  1  0.75585600  0.69992462  0.14330747  1
  S2-  S157  1  0.74950669  0.71421632  0.65028381  1
  S2-  S158  1  0.62149440  0.86696770  0.14744160  1
  S2-  S159  1  0.75165225  0.92785710  0.69905920  1
  S2-  S160  1  0.20453873  0.01007762  0.35721598  1
  S2-  S161  1  0.20234831  -0.00344410  0.86271745  1
  S2-  S162  1  0.22059757  0.25918467  0.35931473  1
  S2-  S163  1  0.11654582  0.22210836  0.84505980  1
  S2-  S164  1  0.08932402  0.48859806  0.34643079  1
  S2-  S165  1  0.13959597  0.52463464  0.85050163  1
  S2-  S166  1  0.20521544  0.74543223  0.35308651  1
  S2-  S167  1  0.14838708  0.76494880  0.84314218  1
  S2-  S168  1  0.38849607  -0.10888512  0.34349382  1
  S2-  S169  1  0.41199514  0.03884545  0.83964161  1
  S2-  S170  1  0.38664390  0.12506705  0.34855847  1
  S2-  S171  1  0.36532956  0.27151286  0.84747384  1
  S2-  S172  1  0.34134744  0.46303492  0.35206101  1
  S2-  S173  1  0.49414002  0.49188446  0.86494909  1
  S2-  S174  1  0.40888171  0.67457385  0.31310114  1
  S2-  S175  1  0.50074925  0.75096474  0.86399771  1
  S2-  S176  1  0.59598493  -0.04368429  0.30826502  1
  S2-  S177  1  0.65957203  -0.00453857  0.84476535  1
  S2-  S178  1  0.63587955  0.16103183  0.35053996  1
  S2-  S179  1  0.60416808  0.24324291  0.84082470  1
  S2-  S180  1  0.59108658  0.52043345  0.33455870  1
  S2-  S181  1  0.74449318  0.48907194  0.85816554  1
  S2-  S182  1  0.65601586  0.74451600  0.33973988  1
  S2-  S183  1  0.73297632  0.75767743  0.85379431  1
  S2-  S184  1  0.79774014  -0.00076043  0.35668610  1
  S2-  S185  1  0.87003688  0.05455304  0.84168670  1
  S2-  S186  1  0.99231309  0.24391932  0.36323334  1
  S2-  S187  1  0.83697029  0.27270609  0.84759913  1
  S2-  S188  1  0.82456040  0.51568726  0.34284415  1
  S2-  S189  1  0.91695602  0.61936483  0.85853273  1
  S2-  S190  1  0.90017254  0.78352986  0.34394199  1
  S2-  S191  1  0.92181691  0.86250999  0.86214629  1
  S2-  S192  1  -0.01093182  0.11397128  0.45598046  1
  S2-  S193  1  0.01234328  0.11107042  0.95202369  1
  S2-  S194  1  -0.00863679  0.37559055  0.45621432  1
  S2-  S195  1  0.00677860  0.36741741  0.94745014  1
  S2-  S196  1  -0.00859974  0.62399358  0.44947579  1
  S2-  S197  1  0.01048827  0.61103915  0.96011506  1
  S2-  S198  1  -0.00925359  0.87218046  0.45718540  1
  S2-  S199  1  0.01514853  0.85911148  0.96912125  1
  S2-  S200  1  0.23939897  0.12168057  0.45971586  1
  S2-  S201  1  0.25794301  0.11626779  0.96205051  1
  S2-  S202  1  0.24172990  0.37123091  0.46289053  1
  S2-  S203  1  0.26262507  0.36709850  0.95410269  1
  S2-  S204  1  0.24662708  0.62230228  0.45347300  1
  S2-  S205  1  0.26438438  0.60986427  0.95450977  1
  S2-  S206  1  0.24529088  0.87008428  0.45690640  1
  S2-  S207  1  0.26048144  0.85701703  0.96114958  1
  S2-  S208  1  0.50108493  0.11418699  0.44763309  1
  S2-  S209  1  0.50762625  0.11251166  0.95135520  1
  S2-  S210  1  0.49139072  0.37133261  0.44666333  1
  S2-  S211  1  0.50833075  0.35974441  0.95998588  1
  S2-  S212  1  0.48559515  0.62324441  0.44635976  1
  S2-  S213  1  0.50914073  0.61379129  0.96281613  1
  S2-  S214  1  0.49620921  0.87615718  0.44455787  1
  S2-  S215  1  0.50674238  0.87084146  0.96188121  1
  S2-  S216  1  0.74559547  0.12120800  0.45838141  1
  S2-  S217  1  0.76090186  0.11178710  0.95998896  1
  S2-  S218  1  0.74364877  0.37330624  0.45143776  1
  S2-  S219  1  0.76097976  0.36363757  0.95903905  1
  S2-  S220  1  0.74034320  0.61924755  0.45420448  1
  S2-  S221  1  0.75394872  0.61614403  0.95749192  1
  S2-  S222  1  0.73659698  0.87601720  0.45018942  1
  S2-  S223  1  0.75539109  0.86312291  0.96328027  1
  S2-  S224  1  0.13633454  -0.01041961  0.05404554  1
  S2-  S225  1  0.11190975  -0.00727802  0.54656673  1
  S2-  S226  1  0.13476782  0.24065017  0.04962025  1
  S2-  S227  1  0.11148077  0.24217450  0.54586576  1
  S2-  S228  1  0.13802954  0.48751693  0.05036658  1
  S2-  S229  1  0.11664789  0.49471288  0.54903713  1
  S2-  S230  1  0.13817111  0.73090402  0.04652257  1
  S2-  S231  1  0.12123079  0.74749791  0.54329761  1
  S2-  S232  1  0.38218166  -0.01012502  0.04382308  1
  S2-  S233  1  0.37577757  -0.00715233  0.53660816  1
  S2-  S234  1  0.38451282  0.23862042  0.05028726  1
  S2-  S235  1  0.37704252  0.24039279  0.53247208  1
  S2-  S236  1  0.38638979  0.48747082  0.04834032  1
  S2-  S237  1  0.36814280  0.49341832  0.54959813  1
  S2-  S238  1  0.38767571  0.73343348  0.04462532  1
  S2-  S239  1  0.37195041  0.74959980  0.54955877  1
  S2-  S240  1  0.63725706  -0.00888319  0.04715439  1
  S2-  S241  1  0.62364361  -0.00691249  0.55023319  1
  S2-  S242  1  0.63184232  0.23582858  0.04284048  1
  S2-  S243  1  0.62120471  0.24506562  0.54443677  1
  S2-  S244  1  0.63684356  0.48937232  0.04943003  1
  S2-  S245  1  0.61574287  0.49691320  0.53607395  1
  S2-  S246  1  0.63322699  0.73750063  0.04397287  1
  S2-  S247  1  0.62165690  0.74355924  0.54170917  1
  S2-  S248  1  0.88256655  -0.01039265  0.04670972  1
  S2-  S249  1  0.86309498  -0.00929834  0.55107303  1
  S2-  S250  1  0.88895524  0.23998656  0.04581040  1
  S2-  S251  1  0.86864625  0.24711977  0.54519155  1
  S2-  S252  1  0.88384639  0.48809450  0.03838695  1
  S2-  S253  1  0.87006639  0.49550584  0.54081647  1
  S2-  S254  1  0.88349860  0.73609446  0.04279979  1
  S2-  S255  1  0.86033189  0.74567943  0.54528670  1
