# generated using pymatgen
data_La6Ce6Pr19Nd20Sm13(BiS2)64
_symmetry_space_group_name_H-M   'P 1'
_cell_length_a   16.10772419
_cell_length_b   16.13425184
_cell_length_c   27.22303072
_cell_angle_alpha   90.08822307
_cell_angle_beta   89.87701195
_cell_angle_gamma   90.02753148
_symmetry_Int_Tables_number   1
_chemical_formula_structural   La6Ce6Pr19Nd20Sm13(BiS2)64
_chemical_formula_sum   'La6 Ce6 Pr19 Nd20 Sm13 Bi64 S128'
_cell_volume   7074.86121071
_cell_formula_units_Z   1
loop_
 _symmetry_equiv_pos_site_id
 _symmetry_equiv_pos_as_xyz
  1  'x, y, z'
loop_
 _atom_type_symbol
 _atom_type_oxidation_number
  La3+  3.0
  Ce3+  3.0
  Pr3+  3.0
  Nd3+  3.0
  Sm3+  3.0
  Bi2+  2.0
  S2-  -2.0
loop_
 _atom_site_type_symbol
 _atom_site_label
 _atom_site_symmetry_multiplicity
 _atom_site_fract_x
 _atom_site_fract_y
 _atom_site_fract_z
 _atom_site_occupancy
  La3+  La0  1  0.50708840  0.12320766  0.57373583  1
  La3+  La1  1  0.26707613  0.38956057  0.11808397  1
  La3+  La2  1  0.63995182  0.74860600  0.90072243  1
  La3+  La3  1  0.14008721  -0.01447158  0.42103573  1
  La3+  La4  1  0.24817742  0.86829199  0.59272306  1
  La3+  La5  1  0.88623305  -0.00951858  0.41381317  1
  Ce3+  Ce6  1  0.25211900  0.11727707  0.54957895  1
  Ce3+  Ce7  1  0.50113993  0.37617855  0.06053980  1
  Ce3+  Ce8  1  0.75059098  0.62003539  0.56083823  1
  Ce3+  Ce9  1  0.50725170  0.87855655  0.58180219  1
  Ce3+  Ce10  1  0.00477817  0.87297299  0.55838143  1
  Ce3+  Ce11  1  0.87992290  0.00547374  0.93996491  1
  Pr3+  Pr12  1  0.38214658  -0.00986753  0.44226818  1
  Pr3+  Pr13  1  0.00542676  0.88059466  0.05652346  1
  Pr3+  Pr14  1  0.00419607  0.62072016  0.55258264  1
  Pr3+  Pr15  1  0.38460432  0.24199620  0.42528624  1
  Pr3+  Pr16  1  0.13510648  0.74334097  0.43834488  1
  Pr3+  Pr17  1  0.38121641  0.25103022  0.93548752  1
  Pr3+  Pr18  1  0.00819144  0.11819190  0.55704217  1
  Pr3+  Pr19  1  0.62588470  0.74839000  0.44706975  1
  Pr3+  Pr20  1  0.75608236  0.38345931  0.07716901  1
  Pr3+  Pr21  1  0.24380977  0.61108912  0.57794832  1
  Pr3+  Pr22  1  0.87584848  0.74455787  0.43520366  1
  Pr3+  Pr23  1  0.13025832  0.25622560  0.94580976  1
  Pr3+  Pr24  1  0.00719532  0.38145996  0.06907025  1
  Pr3+  Pr25  1  0.63175802  0.25765920  0.94355953  1
  Pr3+  Pr26  1  0.11754410  0.24591231  0.42367911  1
  Pr3+  Pr27  1  0.25267640  0.36787280  0.55690888  1
  Pr3+  Pr28  1  0.62272528  0.49589071  0.43170785  1
  Pr3+  Pr29  1  0.50251699  0.63080682  0.05437014  1
  Pr3+  Pr30  1  0.25712032  0.63393298  0.06627671  1
  Nd3+  Nd31  1  0.12959053  0.01424937  0.93248342  1
  Nd3+  Nd32  1  0.87929355  0.25967697  0.94580624  1
  Nd3+  Nd33  1  0.87920816  0.75533698  0.94409953  1
  Nd3+  Nd34  1  0.38012958  0.49645111  0.43913271  1
  Nd3+  Nd35  1  0.63259788  0.01175671  0.92719330  1
  Nd3+  Nd36  1  0.38336472  0.00007117  0.92892552  1
  Nd3+  Nd37  1  0.50484893  0.12493288  0.06247082  1
  Nd3+  Nd38  1  0.00392020  0.36926700  0.55738721  1
  Nd3+  Nd39  1  0.87476844  0.24403336  0.43928477  1
  Nd3+  Nd40  1  0.36567561  0.74016579  0.89258017  1
  Nd3+  Nd41  1  0.75235357  0.62968316  0.06809246  1
  Nd3+  Nd42  1  -0.00236408  0.12746626  0.07268171  1
  Nd3+  Nd43  1  0.25761375  0.88622667  0.06043153  1
  Nd3+  Nd44  1  0.62833457  0.24225432  0.43570931  1
  Nd3+  Nd45  1  0.13581177  0.49701749  0.42718705  1
  Nd3+  Nd46  1  0.50129936  0.62529169  0.57031653  1
  Nd3+  Nd47  1  0.75726258  0.87214645  0.56544628  1
  Nd3+  Nd48  1  0.50536467  0.36873916  0.56404109  1
  Nd3+  Nd49  1  0.13456307  0.50762404  0.94167667  1
  Nd3+  Nd50  1  0.25521133  0.13137313  0.06713076  1
  Sm3+  Sm51  1  0.13541264  0.75893734  0.94298938  1
  Sm3+  Sm52  1  0.75756704  0.11817344  0.55232760  1
  Sm3+  Sm53  1  0.75183485  0.87750704  0.05395739  1
  Sm3+  Sm54  1  0.62792310  -0.00696838  0.44454835  1
  Sm3+  Sm55  1  0.88048453  0.50820712  0.94535149  1
  Sm3+  Sm56  1  0.75207958  0.36954739  0.55430742  1
  Sm3+  Sm57  1  0.00718172  0.62952569  0.05687658  1
  Sm3+  Sm58  1  0.75300247  0.12813240  0.06328442  1
  Sm3+  Sm59  1  0.63099305  0.50686669  0.94036168  1
  Sm3+  Sm60  1  0.38083318  0.50681397  0.94483365  1
  Sm3+  Sm61  1  0.37827137  0.74570820  0.45675712  1
  Sm3+  Sm62  1  0.50594575  0.87761735  0.04213162  1
  Sm3+  Sm63  1  0.87718417  0.49458647  0.44566405  1
  Bi2+  Bi64  1  -0.04094291  0.12457548  0.28362040  1
  Bi2+  Bi65  1  -0.00148639  0.17328194  0.78339355  1
  Bi2+  Bi66  1  -0.04958754  0.39127547  0.28995349  1
  Bi2+  Bi67  1  -0.02858322  0.37203392  0.80471414  1
  Bi2+  Bi68  1  0.00230812  0.66072567  0.28463027  1
  Bi2+  Bi69  1  -0.00303989  0.63691055  0.79123089  1
  Bi2+  Bi70  1  -0.01347916  0.85859094  0.28569896  1
  Bi2+  Bi71  1  -0.02470773  0.90473831  0.78048477  1
  Bi2+  Bi72  1  0.23025434  0.09710009  0.28497637  1
  Bi2+  Bi73  1  0.23637236  0.10793572  0.79884838  1
  Bi2+  Bi74  1  0.25469001  0.36752977  0.32162332  1
  Bi2+  Bi75  1  0.23912035  0.33757307  0.79972053  1
  Bi2+  Bi76  1  0.19752971  0.65498621  0.30409472  1
  Bi2+  Bi77  1  0.23571713  0.53333997  0.78122998  1
  Bi2+  Bi78  1  0.26825596  0.84492465  0.29436719  1
  Bi2+  Bi79  1  0.23656678  0.85554071  0.78279119  1
  Bi2+  Bi80  1  0.59636591  0.12430453  0.29363101  1
  Bi2+  Bi81  1  0.52197469  0.13445122  0.79670857  1
  Bi2+  Bi82  1  0.51279319  0.38941919  0.29008917  1
  Bi2+  Bi83  1  0.43955852  0.32797861  0.81518140  1
  Bi2+  Bi84  1  0.49504851  0.70184023  0.29130168  1
  Bi2+  Bi85  1  0.50336548  0.51267499  0.80562146  1
  Bi2+  Bi86  1  0.54082681  0.87174838  0.23845055  1
  Bi2+  Bi87  1  0.48174904  0.88183948  0.77161135  1
  Bi2+  Bi88  1  0.73066195  0.25979391  0.31639304  1
  Bi2+  Bi89  1  0.82964766  0.11693615  0.72681688  1
  Bi2+  Bi90  1  0.69586388  0.45430912  0.30663060  1
  Bi2+  Bi91  1  0.64451132  0.35108814  0.82224586  1
  Bi2+  Bi92  1  0.77623913  0.64061677  0.29305473  1
  Bi2+  Bi93  1  0.78576897  0.58647174  0.79256250  1
  Bi2+  Bi94  1  0.69595849  0.88238614  0.31057075  1
  Bi2+  Bi95  1  0.78448165  0.86127530  0.78816877  1
  Bi2+  Bi96  1  0.12323721  -0.00353761  0.20904773  1
  Bi2+  Bi97  1  0.08169900  0.00791783  0.70437531  1
  Bi2+  Bi98  1  0.12676711  0.26400731  0.21772037  1
  Bi2+  Bi99  1  0.15289797  0.24289215  0.71077064  1
  Bi2+  Bi100  1  0.10651569  0.53414254  0.21621356  1
  Bi2+  Bi101  1  0.11249185  0.45626575  0.69824778  1
  Bi2+  Bi102  1  0.10782702  0.78236109  0.20153911  1
  Bi2+  Bi103  1  0.10616227  0.72206616  0.70959292  1
  Bi2+  Bi104  1  0.38833271  -0.01388569  0.20301753  1
  Bi2+  Bi105  1  0.34741510  0.05805966  0.70458112  1
  Bi2+  Bi106  1  0.38773257  0.24932705  0.21807881  1
  Bi2+  Bi107  1  0.35295301  0.25613387  0.70747413  1
  Bi2+  Bi108  1  0.35444429  0.62596312  0.22812251  1
  Bi2+  Bi109  1  0.37950729  0.45122606  0.71583676  1
  Bi2+  Bi110  1  0.29872337  0.79494064  0.18093870  1
  Bi2+  Bi111  1  0.40008366  0.66808277  0.70811150  1
  Bi2+  Bi112  1  0.64619668  0.12169232  0.18242217  1
  Bi2+  Bi113  1  0.64909959  0.02107861  0.70940935  1
  Bi2+  Bi114  1  0.63734431  0.31678844  0.20760081  1
  Bi2+  Bi115  1  0.61024771  0.27839721  0.71782901  1
  Bi2+  Bi116  1  0.60517608  0.56265426  0.21760747  1
  Bi2+  Bi117  1  0.64400482  0.46910055  0.72552263  1
  Bi2+  Bi118  1  0.66839517  0.74172731  0.18970733  1
  Bi2+  Bi119  1  0.64313401  0.72089226  0.70277299  1
  Bi2+  Bi120  1  0.77480054  0.00234174  0.23168323  1
  Bi2+  Bi121  1  0.87569330  -0.07289037  0.67822920  1
  Bi2+  Bi122  1  0.82450669  0.25398827  0.21396315  1
  Bi2+  Bi123  1  0.85942099  0.31099358  0.71699467  1
  Bi2+  Bi124  1  0.86281287  0.50630212  0.20813367  1
  Bi2+  Bi125  1  0.91902814  0.50058107  0.71698560  1
  Bi2+  Bi126  1  0.85646514  0.75265206  0.21356137  1
  Bi2+  Bi127  1  0.90699129  0.73740587  0.70588210  1
  S2-  S128  1  0.04891592  0.13656138  0.16988513  1
  S2-  S129  1  -0.04695689  0.08878952  0.65142408  1
  S2-  S130  1  0.09946525  0.39029443  0.15601219  1
  S2-  S131  1  0.04070599  0.31492215  0.64900053  1
  S2-  S132  1  -0.01239264  0.59897059  0.15304305  1
  S2-  S133  1  0.08576358  0.59883415  0.63951018  1
  S2-  S134  1  0.00761612  0.90521547  0.15634109  1
  S2-  S135  1  0.09249482  0.87288273  0.64466809  1
  S2-  S136  1  0.25710437  0.22253247  0.15497108  1
  S2-  S137  1  0.20393552  0.08721437  0.64256109  1
  S2-  S138  1  0.27172069  0.38061130  0.22879485  1
  S2-  S139  1  0.25720783  0.46631079  0.64097610  1
  S2-  S140  1  0.24421624  0.55551053  0.15592828  1
  S2-  S141  1  0.25704771  0.71729143  0.65842396  1
  S2-  S142  1  0.25296961  1.00074176  0.13744009  1
  S2-  S143  1  0.31242036  0.90490249  0.68906871  1
  S2-  S144  1  0.45163481  0.12722720  0.15836333  1
  S2-  S145  1  0.50713919  0.01202278  0.65308257  1
  S2-  S146  1  0.43626681  0.37076281  0.15085267  1
  S2-  S147  1  0.50073377  0.25934329  0.64262865  1
  S2-  S148  1  0.48706498  0.62352432  0.15599153  1
  S2-  S149  1  0.54842018  0.58374324  0.66383039  1
  S2-  S150  1  0.50019714  0.91096869  0.14041161  1
  S2-  S151  1  0.49506624  0.78491344  0.66532349  1
  S2-  S152  1  0.83681925  0.11322077  0.14936142  1
  S2-  S153  1  0.70521055  0.13056343  0.64659353  1
  S2-  S154  1  0.88739032  0.37051377  0.14718855  1
  S2-  S155  1  0.73406611  0.37193546  0.65166268  1
  S2-  S156  1  0.73526012  0.52042420  0.14621265  1
  S2-  S157  1  0.76954990  0.64990604  0.65686098  1
  S2-  S158  1  0.76513116  0.87639665  0.15271295  1
  S2-  S159  1  0.69035854  0.87290412  0.65873061  1
  S2-  S160  1  0.02746545  0.02018854  0.34309079  1
  S2-  S161  1  0.15531636  -0.04019085  0.83539374  1
  S2-  S162  1  0.14593997  0.22306950  0.32233322  1
  S2-  S163  1  0.11253784  0.15229390  0.86450596  1
  S2-  S164  1  0.08872283  0.43092352  0.33634984  1
  S2-  S165  1  0.09537198  0.52247827  0.84396559  1
  S2-  S166  1  0.12884643  0.83807931  0.35328618  1
  S2-  S167  1  0.20385933  0.74507288  0.85276834  1
  S2-  S168  1  0.29135877  -0.01326422  0.35549359  1
  S2-  S169  1  0.37122486  -0.10020847  0.84453353  1
  S2-  S170  1  0.34101178  0.21180456  0.32323187  1
  S2-  S171  1  0.37343485  0.12814754  0.85860367  1
  S2-  S172  1  0.27247963  0.52713311  0.36051286  1
  S2-  S173  1  0.35372242  0.57200814  0.85558286  1
  S2-  S174  1  0.39040578  0.76999693  0.35806268  1
  S2-  S175  1  0.43420601  0.73103019  0.79585316  1
  S2-  S176  1  0.56746306  -0.01913086  0.35260974  1
  S2-  S177  1  0.57438888  -0.00798989  0.83248929  1
  S2-  S178  1  0.52526307  0.24826405  0.35605076  1
  S2-  S179  1  0.65321061  0.17758005  0.85379591  1
  S2-  S180  1  0.49524038  0.50378092  0.36039549  1
  S2-  S181  1  0.63660362  0.59120094  0.85362711  1
  S2-  S182  1  0.64658773  0.72269888  0.34767257  1
  S2-  S183  1  0.62670483  0.79669675  0.80003869  1
  S2-  S184  1  0.82569225  0.06401713  0.32468904  1
  S2-  S185  1  0.86340016  -0.00475500  0.84266807  1
  S2-  S186  1  0.95694191  0.25459198  0.35276089  1
  S2-  S187  1  0.88279512  0.24273276  0.84637074  1
  S2-  S188  1  0.86176610  0.50710488  0.34851034  1
  S2-  S189  1  0.84584836  0.47247564  0.85106150  1
  S2-  S190  1  0.86114546  0.84580650  0.35286642  1
  S2-  S191  1  0.80803006  0.73469121  0.85473765  1
  S2-  S192  1  0.00043130  0.11955011  0.45082318  1
  S2-  S193  1  -0.00289738  0.13140815  0.96321971  1
  S2-  S194  1  -0.00052795  0.37402595  0.45282027  1
  S2-  S195  1  0.00522028  0.38413719  0.95678243  1
  S2-  S196  1  0.00351713  0.61813505  0.44507230  1
  S2-  S197  1  0.00659420  0.63345603  0.95170684  1
  S2-  S198  1  0.00320550  0.86541290  0.45304347  1
  S2-  S199  1  0.00692330  0.87904527  0.94794344  1
  S2-  S200  1  0.25299480  0.12460919  0.44563217  1
  S2-  S201  1  0.25550405  0.12994398  0.96035388  1
  S2-  S202  1  0.25402298  0.36406490  0.44931015  1
  S2-  S203  1  0.25736790  0.38160458  0.94308525  1
  S2-  S204  1  0.25675897  0.62170679  0.46659996  1
  S2-  S205  1  0.25576100  0.63378910  0.95907333  1
  S2-  S206  1  0.25811534  0.86569713  0.46265829  1
  S2-  S207  1  0.25269212  0.88285847  0.95506552  1
  S2-  S208  1  0.50549426  0.11719331  0.45976358  1
  S2-  S209  1  0.51017547  0.12858991  0.95548413  1
  S2-  S210  1  0.50345455  0.36824109  0.45947341  1
  S2-  S211  1  0.50516639  0.38379709  0.95310851  1
  S2-  S212  1  0.50330158  0.62320623  0.46265038  1
  S2-  S213  1  0.50330338  0.63467371  0.94795156  1
  S2-  S214  1  0.50443785  0.87027007  0.46637633  1
  S2-  S215  1  0.51613739  0.87369373  0.93987337  1
  S2-  S216  1  0.75257962  0.11590652  0.44758038  1
  S2-  S217  1  0.75826189  0.13046069  0.95854976  1
  S2-  S218  1  0.75174622  0.37260872  0.44962242  1
  S2-  S219  1  0.75568664  0.38560530  0.96284418  1
  S2-  S220  1  0.75094271  0.61764790  0.45372973  1
  S2-  S221  1  0.75504358  0.62882697  0.96146515  1
  S2-  S222  1  0.75235840  0.87239659  0.45744068  1
  S2-  S223  1  0.75160994  0.87923876  0.94872265  1
  S2-  S224  1  0.12408828  0.00815025  0.04107340  1
  S2-  S225  1  0.12880717  -0.00691365  0.53589592  1
  S2-  S226  1  0.12331568  0.24965437  0.05046747  1
  S2-  S227  1  0.12810078  0.24517835  0.53549742  1
  S2-  S228  1  0.12995803  0.50892933  0.04677301  1
  S2-  S229  1  0.12597075  0.48938965  0.53433523  1
  S2-  S230  1  0.13018391  0.75589663  0.04885458  1
  S2-  S231  1  0.12794429  0.74542932  0.54431807  1
  S2-  S232  1  0.38516908  0.00309626  0.03625100  1
  S2-  S233  1  0.37523193  -0.00620912  0.55050294  1
  S2-  S234  1  0.38267880  0.25077964  0.04258733  1
  S2-  S235  1  0.37698273  0.24443632  0.53972118  1
  S2-  S236  1  0.37642697  0.50263966  0.04854195  1
  S2-  S237  1  0.38428726  0.49338726  0.54689324  1
  S2-  S238  1  0.38066800  0.76017115  0.04909602  1
  S2-  S239  1  0.37811340  0.74858614  0.55874283  1
  S2-  S240  1  0.63261446  0.00249553  0.03954253  1
  S2-  S241  1  0.63418512  -0.00359591  0.54750109  1
  S2-  S242  1  0.63156384  0.25445273  0.05206883  1
  S2-  S243  1  0.63438947  0.24510979  0.54115118  1
  S2-  S244  1  0.62550068  0.50348844  0.04491166  1
  S2-  S245  1  0.62752446  0.49340061  0.54523398  1
  S2-  S246  1  0.62991747  0.75489399  0.04847112  1
  S2-  S247  1  0.62896031  0.74696445  0.55311350  1
  S2-  S248  1  0.87550875  0.00030743  0.04589264  1
  S2-  S249  1  0.87831694  -0.00425609  0.53796678  1
  S2-  S250  1  0.87588004  0.25277289  0.04991972  1
  S2-  S251  1  0.87690294  0.24538081  0.54648063  1
  S2-  S252  1  0.88134270  0.50969673  0.04736891  1
  S2-  S253  1  0.87742832  0.49319294  0.55117658  1
  S2-  S254  1  0.87903863  0.75275467  0.05068442  1
  S2-  S255  1  0.87788891  0.74453722  0.54398481  1
