# generated using pymatgen
data_La6Ce6Pr19Nd20Sm13(BiS2)64
_symmetry_space_group_name_H-M   'P 1'
_cell_length_a   16.15667016
_cell_length_b   16.15537498
_cell_length_c   27.22473774
_cell_angle_alpha   90.00887565
_cell_angle_beta   89.89430777
_cell_angle_gamma   89.98602986
_symmetry_Int_Tables_number   1
_chemical_formula_structural   La6Ce6Pr19Nd20Sm13(BiS2)64
_chemical_formula_sum   'La6 Ce6 Pr19 Nd20 Sm13 Bi64 S128'
_cell_volume   7106.10874914
_cell_formula_units_Z   1
loop_
 _symmetry_equiv_pos_site_id
 _symmetry_equiv_pos_as_xyz
  1  'x, y, z'
loop_
 _atom_type_symbol
 _atom_type_oxidation_number
  La3+  3.0
  Ce3+  3.0
  Pr3+  3.0
  Nd3+  3.0
  Sm3+  3.0
  Bi2+  2.0
  S2-  -2.0
loop_
 _atom_site_type_symbol
 _atom_site_label
 _atom_site_symmetry_multiplicity
 _atom_site_fract_x
 _atom_site_fract_y
 _atom_site_fract_z
 _atom_site_occupancy
  La3+  La0  1  0.48226136  0.86825230  0.58566047  1
  La3+  La1  1  0.87808448  0.25802201  0.40742406  1
  La3+  La2  1  0.22825861  0.36546762  0.58702439  1
  La3+  La3  1  0.61644302  0.76284596  0.88620830  1
  La3+  La4  1  0.24318558  0.12140684  0.56286188  1
  La3+  La5  1  0.61576731  -0.00757748  0.43250767  1
  Ce3+  Ce6  1  0.49242336  0.12214163  0.55542119  1
  Ce3+  Ce7  1  0.25268402  0.37098980  0.07221886  1
  Ce3+  Ce8  1  -0.00868744  0.62218454  0.55866862  1
  Ce3+  Ce9  1  0.48843051  0.11718810  0.07022056  1
  Ce3+  Ce10  1  0.49928445  0.86872938  0.05507082  1
  Ce3+  Ce11  1  0.37052843  0.49640572  0.93885778  1
  Pr3+  Pr12  1  0.73815141  0.62587018  0.56402191  1
  Pr3+  Pr13  1  0.74144977  0.36921116  0.55570906  1
  Pr3+  Pr14  1  0.61061966  0.49650347  0.43426772  1
  Pr3+  Pr15  1  0.48966540  0.37370690  0.56641212  1
  Pr3+  Pr16  1  0.23588356  0.86928476  0.56618338  1
  Pr3+  Pr17  1  0.36543367  0.74608083  0.43710598  1
  Pr3+  Pr18  1  0.37046273  0.74607006  0.93108901  1
  Pr3+  Pr19  1  0.87041269  0.24722580  0.94921475  1
  Pr3+  Pr20  1  0.62468124  0.00248555  0.93842171  1
  Pr3+  Pr21  1  0.61523692  0.24378854  0.39234450  1
  Pr3+  Pr22  1  0.74677522  0.88747564  0.58122460  1
  Pr3+  Pr23  1  0.75008413  0.87075849  0.06297644  1
  Pr3+  Pr24  1  0.50256206  0.62396232  0.05936652  1
  Pr3+  Pr25  1  0.11174571  0.49310456  0.44020395  1
  Pr3+  Pr26  1  -0.00277660  0.12009429  0.06663235  1
  Pr3+  Pr27  1  0.87262558  0.74450900  0.93382420  1
  Pr3+  Pr28  1  0.73954410  0.12229844  0.54333506  1
  Pr3+  Pr29  1  -0.01923222  0.36469023  0.57013883  1
  Pr3+  Pr30  1  0.11718826  -0.00359039  0.43805731  1
  Nd3+  Nd31  1  0.12389086  0.74280308  0.92957345  1
  Nd3+  Nd32  1  0.36271710  0.49218525  0.44230299  1
  Nd3+  Nd33  1  0.11845496  0.74410850  0.42905829  1
  Nd3+  Nd34  1  0.37399033  0.24820972  0.93970340  1
  Nd3+  Nd35  1  0.60800919  0.75022635  0.43651371  1
  Nd3+  Nd36  1  0.49495336  0.37273946  0.06239727  1
  Nd3+  Nd37  1  -0.00297649  0.36927035  0.06383639  1
  Nd3+  Nd38  1  0.24526872  0.86185440  0.06479332  1
  Nd3+  Nd39  1  0.23810655  0.62087864  0.55683777  1
  Nd3+  Nd40  1  0.87208976  -0.00086734  0.93728628  1
  Nd3+  Nd41  1  0.00074130  0.87145224  0.04952170  1
  Nd3+  Nd42  1  0.86264503  -0.00920633  0.42598765  1
  Nd3+  Nd43  1  0.75148152  0.62326436  0.06032765  1
  Nd3+  Nd44  1  0.25228299  0.62066039  0.06265470  1
  Nd3+  Nd45  1  0.62641591  0.50135982  0.93409153  1
  Nd3+  Nd46  1  0.36789550  -0.00422494  0.44053555  1
  Nd3+  Nd47  1  0.48857148  0.61852988  0.56814224  1
  Nd3+  Nd48  1  0.73828658  0.37139592  0.08062330  1
  Nd3+  Nd49  1  0.73980934  0.11058985  0.08244187  1
  Nd3+  Nd50  1  0.36903188  0.24819949  0.43851613  1
  Sm3+  Sm51  1  0.12531989  0.24602755  0.95205596  1
  Sm3+  Sm52  1  0.12633210  -0.00161685  0.94519980  1
  Sm3+  Sm53  1  0.86073342  0.74695657  0.44924818  1
  Sm3+  Sm54  1  0.11662377  0.24779076  0.44258592  1
  Sm3+  Sm55  1  0.25222246  0.11889920  0.06167583  1
  Sm3+  Sm56  1  0.62450241  0.24658057  0.95175575  1
  Sm3+  Sm57  1  -0.01438412  0.12126865  0.54706836  1
  Sm3+  Sm58  1  0.87211145  0.49307122  0.94944578  1
  Sm3+  Sm59  1  -0.01012058  0.87321588  0.54979165  1
  Sm3+  Sm60  1  0.86087800  0.49735176  0.43952105  1
  Sm3+  Sm61  1  0.12582521  0.49254376  0.95071839  1
  Sm3+  Sm62  1  -0.00107346  0.62084992  0.05720874  1
  Sm3+  Sm63  1  0.37431064  -0.00496593  0.93924695  1
  Bi2+  Bi64  1  0.04217251  0.14829766  0.28570109  1
  Bi2+  Bi65  1  0.05115264  0.09529881  0.74134506  1
  Bi2+  Bi66  1  0.02723359  0.42805939  0.30504867  1
  Bi2+  Bi67  1  0.00443169  0.34949808  0.80218169  1
  Bi2+  Bi68  1  0.03976153  0.64075009  0.32102420  1
  Bi2+  Bi69  1  -0.00661049  0.66957241  0.82725446  1
  Bi2+  Bi70  1  0.02556240  0.81893577  0.26997035  1
  Bi2+  Bi71  1  -0.00012083  0.84681514  0.78062643  1
  Bi2+  Bi72  1  0.24335405  0.13233622  0.29515608  1
  Bi2+  Bi73  1  0.21950425  0.13665086  0.79937596  1
  Bi2+  Bi74  1  0.25755945  0.33260923  0.29636473  1
  Bi2+  Bi75  1  0.26807167  0.38210799  0.81193735  1
  Bi2+  Bi76  1  0.22984294  0.61358450  0.29082655  1
  Bi2+  Bi77  1  0.17373000  0.62596863  0.78642486  1
  Bi2+  Bi78  1  0.20570476  0.87124976  0.28956676  1
  Bi2+  Bi79  1  0.19256260  0.87543908  0.79551803  1
  Bi2+  Bi80  1  0.48405198  0.11368743  0.28677690  1
  Bi2+  Bi81  1  0.47864178  0.12087726  0.75009419  1
  Bi2+  Bi82  1  0.47172394  0.39759770  0.29232491  1
  Bi2+  Bi83  1  0.49160782  0.33788587  0.77396414  1
  Bi2+  Bi84  1  0.57737721  0.61472346  0.31494097  1
  Bi2+  Bi85  1  0.49160552  0.61327853  0.78848423  1
  Bi2+  Bi86  1  0.51368522  0.86922373  0.29381111  1
  Bi2+  Bi87  1  0.49898905  0.89089482  0.77690070  1
  Bi2+  Bi88  1  0.75395166  0.10534938  0.27686174  1
  Bi2+  Bi89  1  0.78015214  0.14992399  0.80589665  1
  Bi2+  Bi90  1  0.72516996  0.46621183  0.26747822  1
  Bi2+  Bi91  1  0.67462613  0.33496029  0.80603893  1
  Bi2+  Bi92  1  0.77328084  0.62017003  0.33129023  1
  Bi2+  Bi93  1  0.80511781  0.61535650  0.79821195  1
  Bi2+  Bi94  1  0.76780554  0.86418876  0.28700135  1
  Bi2+  Bi95  1  0.75231599  0.89076775  0.78174442  1
  Bi2+  Bi96  1  0.12543278  -0.02488041  0.20515577  1
  Bi2+  Bi97  1  0.10364903  -0.06960456  0.68321564  1
  Bi2+  Bi98  1  0.16941137  0.23762979  0.20439179  1
  Bi2+  Bi99  1  0.12464487  0.27398388  0.72186062  1
  Bi2+  Bi100  1  0.14184703  0.43771109  0.20172776  1
  Bi2+  Bi101  1  0.05146091  0.49974055  0.73126261  1
  Bi2+  Bi102  1  0.09911025  0.65883905  0.20803586  1
  Bi2+  Bi103  1  0.12415571  0.73979883  0.69314517  1
  Bi2+  Bi104  1  0.34284040  0.00893425  0.22470743  1
  Bi2+  Bi105  1  0.31647826  0.00124005  0.74175486  1
  Bi2+  Bi106  1  0.37199385  0.25244582  0.21133505  1
  Bi2+  Bi107  1  0.37500177  0.25853423  0.69471698  1
  Bi2+  Bi108  1  0.32464302  0.48587171  0.22180342  1
  Bi2+  Bi109  1  0.37501512  0.53900257  0.71200968  1
  Bi2+  Bi110  1  0.36866120  0.75414977  0.19454342  1
  Bi2+  Bi111  1  0.33384790  0.76707699  0.70858693  1
  Bi2+  Bi112  1  0.61658924  -0.04524943  0.20105296  1
  Bi2+  Bi113  1  0.66155293  0.12144758  0.71523698  1
  Bi2+  Bi114  1  0.61881958  0.25474946  0.20216294  1
  Bi2+  Bi115  1  0.63148845  0.30953585  0.68857871  1
  Bi2+  Bi116  1  0.56807520  0.52887584  0.20755392  1
  Bi2+  Bi117  1  0.61726795  0.49767701  0.71914301  1
  Bi2+  Bi118  1  0.63170403  0.74052833  0.22845997  1
  Bi2+  Bi119  1  0.62629620  0.74297516  0.68240851  1
  Bi2+  Bi120  1  0.92924026  -0.02587838  0.20083150  1
  Bi2+  Bi121  1  0.88023704  0.04237749  0.69634197  1
  Bi2+  Bi122  1  0.88876098  0.28342607  0.21175120  1
  Bi2+  Bi123  1  0.88670240  0.26325303  0.71401468  1
  Bi2+  Bi124  1  0.89503388  0.56841377  0.24469373  1
  Bi2+  Bi125  1  0.86011874  0.44880230  0.74819696  1
  Bi2+  Bi126  1  0.81647075  0.73358825  0.19489887  1
  Bi2+  Bi127  1  0.89805817  0.72111794  0.71717715  1
  S2-  S128  1  -0.03420691  0.12314730  0.16616735  1
  S2-  S129  1  -0.02648980  0.16493656  0.64190459  1
  S2-  S130  1  -0.00619093  0.37499694  0.16272180  1
  S2-  S131  1  0.08546440  0.38920314  0.65056905  1
  S2-  S132  1  -0.05342635  0.63222058  0.14947398  1
  S2-  S133  1  -0.01597955  0.61550937  0.65692765  1
  S2-  S134  1  0.03239957  0.86575414  0.14677069  1
  S2-  S135  1  -0.05816114  0.91731836  0.63956212  1
  S2-  S136  1  0.35495349  0.11757567  0.14075127  1
  S2-  S137  1  0.22945117  0.21049608  0.64805756  1
  S2-  S138  1  0.37512336  0.37797604  0.14198051  1
  S2-  S139  1  0.29648843  0.41469777  0.67842730  1
  S2-  S140  1  0.22933317  0.71126510  0.14542702  1
  S2-  S141  1  0.25192229  0.63155033  0.65649073  1
  S2-  S142  1  0.28256200  0.89908445  0.16013993  1
  S2-  S143  1  0.33164311  0.89736622  0.65009271  1
  S2-  S144  1  0.57468430  0.10249428  0.15565307  1
  S2-  S145  1  0.44147593  0.11617011  0.64863499  1
  S2-  S146  1  0.59508600  0.39498531  0.14281487  1
  S2-  S147  1  0.49259126  0.49411978  0.64267226  1
  S2-  S148  1  0.43632515  0.62416217  0.15430191  1
  S2-  S149  1  0.46149718  0.71595126  0.65159482  1
  S2-  S150  1  0.49751146  0.85134564  0.15332814  1
  S2-  S151  1  0.55571745  0.89750572  0.67847395  1
  S2-  S152  1  0.75963458  0.18683975  0.17194663  1
  S2-  S153  1  0.74516828  0.04387329  0.63500981  1
  S2-  S154  1  0.79294918  0.39781369  0.17696806  1
  S2-  S155  1  0.84582392  0.36272644  0.63749117  1
  S2-  S156  1  0.69684176  0.62092863  0.15530943  1
  S2-  S157  1  0.71850314  0.59049202  0.66273693  1
  S2-  S158  1  0.76340557  0.96706124  0.14811045  1
  S2-  S159  1  0.76660152  0.83150934  0.67965335  1
  S2-  S160  1  0.12376874  0.01351520  0.33858167  1
  S2-  S161  1  0.12330819  0.01983126  0.84833008  1
  S2-  S162  1  0.05080646  0.27047356  0.35246362  1
  S2-  S163  1  0.15307513  0.26640255  0.85590805  1
  S2-  S164  1  0.19048832  0.47263672  0.35011083  1
  S2-  S165  1  0.17411527  0.49121332  0.85606119  1
  S2-  S166  1  0.24720754  0.75232938  0.35866022  1
  S2-  S167  1  0.24134468  0.74225658  0.85588099  1
  S2-  S168  1  0.40791858  -0.01714171  0.34369342  1
  S2-  S169  1  0.38581986  -0.01278189  0.84117157  1
  S2-  S170  1  0.45429329  0.24352484  0.34994550  1
  S2-  S171  1  0.37717662  0.25470680  0.84038558  1
  S2-  S172  1  0.42717183  0.51883254  0.35080010  1
  S2-  S173  1  0.38868329  0.49533216  0.84051660  1
  S2-  S174  1  0.47942451  0.74567706  0.35893242  1
  S2-  S175  1  0.45478874  0.75759734  0.84174068  1
  S2-  S176  1  0.61615539  0.08127872  0.34116884  1
  S2-  S177  1  0.62212380  -0.06625814  0.84571619  1
  S2-  S178  1  0.67808400  0.24739503  0.29152824  1
  S2-  S179  1  0.62974102  0.18998926  0.85931384  1
  S2-  S180  1  0.61857183  0.40522566  0.34833547  1
  S2-  S181  1  0.62333399  0.59228316  0.84894346  1
  S2-  S182  1  0.64197781  0.86650352  0.36033678  1
  S2-  S183  1  0.62197157  0.77165361  0.77681651  1
  S2-  S184  1  0.85958308  -0.00866937  0.32608970  1
  S2-  S185  1  0.84860962  -0.00081127  0.83830176  1
  S2-  S186  1  0.87685842  0.19883873  0.30838187  1
  S2-  S187  1  0.90821968  0.22878596  0.85166625  1
  S2-  S188  1  0.88594948  0.41387811  0.35397756  1
  S2-  S189  1  0.83121396  0.47449533  0.85514852  1
  S2-  S190  1  0.85407892  0.77405071  0.35251461  1
  S2-  S191  1  0.78444710  0.77334491  0.84852743  1
  S2-  S192  1  -0.01003168  0.12019588  0.44178118  1
  S2-  S193  1  0.00184129  0.12200595  0.95847701  1
  S2-  S194  1  -0.00926531  0.37199147  0.46112571  1
  S2-  S195  1  0.00067355  0.37091473  0.95772966  1
  S2-  S196  1  -0.01322497  0.62252231  0.45230325  1
  S2-  S197  1  -0.00080587  0.61396465  0.95346779  1
  S2-  S198  1  -0.00793414  0.86806934  0.44436538  1
  S2-  S199  1  0.00103175  0.87391092  0.94313080  1
  S2-  S200  1  0.24204308  0.12387988  0.45197083  1
  S2-  S201  1  0.25009165  0.12135492  0.95635491  1
  S2-  S202  1  0.23984872  0.36627659  0.45699138  1
  S2-  S203  1  0.24847774  0.36970934  0.96401362  1
  S2-  S204  1  0.23852394  0.61733773  0.45261841  1
  S2-  S205  1  0.24503407  0.61845360  0.95726929  1
  S2-  S206  1  0.23960381  0.87455661  0.45801608  1
  S2-  S207  1  0.24645410  0.87543444  0.95548271  1
  S2-  S208  1  0.49261004  0.12295640  0.45098357  1
  S2-  S209  1  0.49433194  0.12161983  0.95790774  1
  S2-  S210  1  0.49066551  0.37082944  0.45826105  1
  S2-  S211  1  0.50196200  0.37112172  0.95196501  1
  S2-  S212  1  0.48924728  0.61987031  0.46276570  1
  S2-  S213  1  0.49638547  0.62075899  0.95200556  1
  S2-  S214  1  0.48713888  0.87274598  0.46201423  1
  S2-  S215  1  0.49910440  0.87298303  0.94961749  1
  S2-  S216  1  0.74601642  0.12640997  0.43657081  1
  S2-  S217  1  0.74934284  0.12179245  0.96495734  1
  S2-  S218  1  0.74043010  0.36956811  0.44875665  1
  S2-  S219  1  0.74509338  0.37133416  0.96347946  1
  S2-  S220  1  0.73671284  0.62412977  0.45643297  1
  S2-  S221  1  0.75437921  0.61802512  0.95521343  1
  S2-  S222  1  0.74439468  0.87092535  0.46440835  1
  S2-  S223  1  0.75041267  0.87558852  0.95620569  1
  S2-  S224  1  0.12703526  -0.00237255  0.05018523  1
  S2-  S225  1  0.11311554  -0.00132831  0.54521052  1
  S2-  S226  1  0.12695384  0.24404567  0.05697783  1
  S2-  S227  1  0.11058796  0.24241631  0.54453298  1
  S2-  S228  1  0.12280337  0.49686930  0.05585012  1
  S2-  S229  1  0.11410197  0.49675921  0.54731574  1
  S2-  S230  1  0.12018027  0.74217312  0.03737944  1
  S2-  S231  1  0.11306575  0.74805051  0.54028137  1
  S2-  S232  1  0.36842499  -0.01132938  0.04396997  1
  S2-  S233  1  0.36453043  -0.00330965  0.54536538  1
  S2-  S234  1  0.37158151  0.24633550  0.04441222  1
  S2-  S235  1  0.36536633  0.25042994  0.54501413  1
  S2-  S236  1  0.37448299  0.49961932  0.04450989  1
  S2-  S237  1  0.35699278  0.49322047  0.54878751  1
  S2-  S238  1  0.37209214  0.74579398  0.04043596  1
  S2-  S239  1  0.35977676  0.74569293  0.54481122  1
  S2-  S240  1  0.62041343  -0.00564701  0.04569748  1
  S2-  S241  1  0.61119758  -0.00545733  0.54398465  1
  S2-  S242  1  0.62087754  0.24117249  0.05422845  1
  S2-  S243  1  0.61492769  0.24657877  0.55385843  1
  S2-  S244  1  0.62625449  0.50011830  0.04142227  1
  S2-  S245  1  0.61916112  0.49563303  0.54302116  1
  S2-  S246  1  0.62739695  0.74733872  0.05196254  1
  S2-  S247  1  0.61531297  0.75220001  0.55214798  1
  S2-  S248  1  0.87700324  -0.00303206  0.04450873  1
  S2-  S249  1  0.86890208  -0.00162854  0.53232006  1
  S2-  S250  1  0.86916121  0.24686766  0.05660569  1
  S2-  S251  1  0.86463694  0.24169529  0.53042019  1
  S2-  S252  1  0.87358435  0.49422710  0.05412480  1
  S2-  S253  1  0.86377843  0.50167893  0.54367864  1
  S2-  S254  1  0.87754505  0.74686225  0.04203325  1
  S2-  S255  1  0.86640333  0.75024882  0.55394887  1
