# generated using pymatgen
data_La6Ce6Pr19Nd20Sm13(BiS2)64
_symmetry_space_group_name_H-M   'P 1'
_cell_length_a   16.09270840
_cell_length_b   16.05627821
_cell_length_c   27.47383263
_cell_angle_alpha   89.79501924
_cell_angle_beta   89.70789051
_cell_angle_gamma   90.03825105
_symmetry_Int_Tables_number   1
_chemical_formula_structural   La6Ce6Pr19Nd20Sm13(BiS2)64
_chemical_formula_sum   'La6 Ce6 Pr19 Nd20 Sm13 Bi64 S128'
_cell_volume   7098.79687099
_cell_formula_units_Z   1
loop_
 _symmetry_equiv_pos_site_id
 _symmetry_equiv_pos_as_xyz
  1  'x, y, z'
loop_
 _atom_type_symbol
 _atom_type_oxidation_number
  La3+  3.0
  Ce3+  3.0
  Pr3+  3.0
  Nd3+  3.0
  Sm3+  3.0
  Bi2+  2.0
  S2-  -2.0
loop_
 _atom_site_type_symbol
 _atom_site_label
 _atom_site_symmetry_multiplicity
 _atom_site_fract_x
 _atom_site_fract_y
 _atom_site_fract_z
 _atom_site_occupancy
  La3+  La0  1  0.26222252  0.11675926  0.06683384  1
  La3+  La1  1  0.88460886  0.73267581  0.43507442  1
  La3+  La2  1  0.37807274  0.74230934  0.43031753  1
  La3+  La3  1  0.25507901  0.85916274  0.58472609  1
  La3+  La4  1  0.74224959  0.61145253  0.61937590  1
  La3+  La5  1  0.13927310  0.48513512  0.40685883  1
  Ce3+  Ce6  1  0.50055746  0.86701803  0.06055656  1
  Ce3+  Ce7  1  0.76030038  0.61257518  0.06982930  1
  Ce3+  Ce8  1  0.64046151  0.24190217  0.93749222  1
  Ce3+  Ce9  1  0.38332736  0.24445886  0.44396397  1
  Ce3+  Ce10  1  0.00788688  0.37061339  0.05809097  1
  Ce3+  Ce11  1  0.88195679  0.49183543  0.43798162  1
  Pr3+  Pr12  1  0.01414993  0.86538607  0.06593190  1
  Pr3+  Pr13  1  0.50675817  0.62107432  0.55874591  1
  Pr3+  Pr14  1  0.75735688  0.36874847  0.06468915  1
  Pr3+  Pr15  1  0.00137354  0.61501763  0.56342409  1
  Pr3+  Pr16  1  0.38567082  0.23875090  0.92598887  1
  Pr3+  Pr17  1  0.37924881  -0.00605237  0.43774473  1
  Pr3+  Pr18  1  0.24981955  0.11532659  0.57198899  1
  Pr3+  Pr19  1  0.88650211  0.49795009  0.93169156  1
  Pr3+  Pr20  1  0.88690372  -0.03270863  0.38290955  1
  Pr3+  Pr21  1  0.88355677  0.23798818  0.43520329  1
  Pr3+  Pr22  1  0.50722612  0.36677944  0.56792259  1
  Pr3+  Pr23  1  0.63894132  0.49628742  0.92992028  1
  Pr3+  Pr24  1  0.13637371  0.49424160  0.93849815  1
  Pr3+  Pr25  1  0.76240637  0.11374529  0.56841646  1
  Pr3+  Pr26  1  0.13857610  -0.00027202  0.90515302  1
  Pr3+  Pr27  1  0.38184848  0.74192154  0.92864374  1
  Pr3+  Pr28  1  0.13606787  -0.00879953  0.43268498  1
  Pr3+  Pr29  1  0.26059368  0.36289837  0.06167907  1
  Pr3+  Pr30  1  0.76113595  0.86207753  0.08177287  1
  Nd3+  Nd31  1  0.51033025  0.11635580  0.05331764  1
  Nd3+  Nd32  1  0.00857027  0.11424732  0.55624810  1
  Nd3+  Nd33  1  0.88973854  0.74114110  0.94580186  1
  Nd3+  Nd34  1  0.76003331  0.36781053  0.56298149  1
  Nd3+  Nd35  1  0.38678081  -0.00814017  0.92719196  1
  Nd3+  Nd36  1  0.63610706  0.74174895  0.94813886  1
  Nd3+  Nd37  1  0.64032157  -0.00659326  0.43964835  1
  Nd3+  Nd38  1  0.00905592  0.86717201  0.55832424  1
  Nd3+  Nd39  1  0.00790673  0.11171600  0.05775934  1
  Nd3+  Nd40  1  0.26154233  0.61024432  0.06821489  1
  Nd3+  Nd41  1  0.88886473  -0.01348981  0.93270473  1
  Nd3+  Nd42  1  0.88736539  0.24061728  0.94377193  1
  Nd3+  Nd43  1  0.01423293  0.61009328  0.07978190  1
  Nd3+  Nd44  1  0.50432992  0.11277008  0.55995819  1
  Nd3+  Nd45  1  0.50245077  0.61167540  0.05851654  1
  Nd3+  Nd46  1  0.50717693  0.36650275  0.04829353  1
  Nd3+  Nd47  1  0.00745582  0.37001668  0.55692297  1
  Nd3+  Nd48  1  0.13323163  0.73947544  0.44646151  1
  Nd3+  Nd49  1  0.63408802  0.24153345  0.45065388  1
  Nd3+  Nd50  1  0.50642305  0.86626743  0.55162733  1
  Sm3+  Sm51  1  0.75945011  0.11336392  0.05742366  1
  Sm3+  Sm52  1  0.13789596  0.24099272  0.94238852  1
  Sm3+  Sm53  1  0.38679900  0.48539778  0.43669272  1
  Sm3+  Sm54  1  0.63903501  -0.01224750  0.94638684  1
  Sm3+  Sm55  1  0.63703602  0.74256353  0.44111118  1
  Sm3+  Sm56  1  0.26115261  0.86762832  0.06020733  1
  Sm3+  Sm57  1  0.25796688  0.61571153  0.55908899  1
  Sm3+  Sm58  1  0.13695436  0.74297493  0.94521060  1
  Sm3+  Sm59  1  0.25740814  0.36847473  0.56173159  1
  Sm3+  Sm60  1  0.63457157  0.49379787  0.44936393  1
  Sm3+  Sm61  1  0.38849883  0.49116535  0.91679072  1
  Sm3+  Sm62  1  0.76048385  0.86632675  0.56317981  1
  Sm3+  Sm63  1  0.13768097  0.24447426  0.44379527  1
  Bi2+  Bi64  1  -0.05974309  0.20470762  0.26530169  1
  Bi2+  Bi65  1  -0.07368260  0.11864899  0.77808476  1
  Bi2+  Bi66  1  -0.09735078  0.36652238  0.32592861  1
  Bi2+  Bi67  1  0.00769920  0.39435391  0.81499251  1
  Bi2+  Bi68  1  0.00599252  0.69027698  0.30824390  1
  Bi2+  Bi69  1  0.02894079  0.60880566  0.78690822  1
  Bi2+  Bi70  1  0.02801732  0.92500657  0.26165991  1
  Bi2+  Bi71  1  0.02451546  0.84920066  0.79669065  1
  Bi2+  Bi72  1  0.20631039  0.11330099  0.29537554  1
  Bi2+  Bi73  1  0.27750318  0.19390979  0.79346836  1
  Bi2+  Bi74  1  0.28306487  0.37084318  0.29340199  1
  Bi2+  Bi75  1  0.20773479  0.40485829  0.75325359  1
  Bi2+  Bi76  1  0.24691054  0.63885654  0.29667559  1
  Bi2+  Bi77  1  0.21088662  0.63755256  0.71822199  1
  Bi2+  Bi78  1  0.24293323  0.89973506  0.27010646  1
  Bi2+  Bi79  1  0.27669017  0.83695179  0.78574982  1
  Bi2+  Bi80  1  0.38922567  0.16371106  0.32155767  1
  Bi2+  Bi81  1  0.52693635  0.15136779  0.78765052  1
  Bi2+  Bi82  1  0.54917272  0.34092704  0.23383227  1
  Bi2+  Bi83  1  0.47604205  0.37095398  0.79123269  1
  Bi2+  Bi84  1  0.49513482  0.54827247  0.28421086  1
  Bi2+  Bi85  1  0.48972945  0.64322476  0.79494716  1
  Bi2+  Bi86  1  0.42927608  0.83739613  0.30305503  1
  Bi2+  Bi87  1  0.51934309  0.88965754  0.78040814  1
  Bi2+  Bi88  1  0.71444005  0.12273111  0.30076259  1
  Bi2+  Bi89  1  0.75767626  0.02562064  0.81649673  1
  Bi2+  Bi90  1  0.70783179  0.36589849  0.30130250  1
  Bi2+  Bi91  1  0.81787949  0.35759472  0.78351601  1
  Bi2+  Bi92  1  0.69102743  0.63046413  0.28771296  1
  Bi2+  Bi93  1  0.77399306  0.63848523  0.81606886  1
  Bi2+  Bi94  1  0.66269698  0.88721739  0.26462174  1
  Bi2+  Bi95  1  0.82647876  0.84448136  0.83236526  1
  Bi2+  Bi96  1  0.12514829  0.04196071  0.18745032  1
  Bi2+  Bi97  1  0.15730040  0.00754184  0.70734883  1
  Bi2+  Bi98  1  0.12122836  0.27673895  0.25564113  1
  Bi2+  Bi99  1  0.09332107  0.24172958  0.76212820  1
  Bi2+  Bi100  1  0.11448112  0.50727122  0.20696149  1
  Bi2+  Bi101  1  0.11230482  0.49016651  0.66333089  1
  Bi2+  Bi102  1  0.08940607  0.76669133  0.20558976  1
  Bi2+  Bi103  1  0.03887173  0.72797133  0.69136162  1
  Bi2+  Bi104  1  0.31999037  0.02278028  0.18851110  1
  Bi2+  Bi105  1  0.41591512  0.00004095  0.70370197  1
  Bi2+  Bi106  1  0.34435073  0.23552178  0.21621470  1
  Bi2+  Bi107  1  0.39706720  0.25179864  0.69061198  1
  Bi2+  Bi108  1  0.37396065  0.50073236  0.20244798  1
  Bi2+  Bi109  1  0.36479893  0.52307007  0.74265702  1
  Bi2+  Bi110  1  0.35047901  0.75857917  0.20772717  1
  Bi2+  Bi111  1  0.45758797  0.73493015  0.69587962  1
  Bi2+  Bi112  1  0.48282620  0.01727036  0.26590782  1
  Bi2+  Bi113  1  0.66087891  0.04459314  0.71913973  1
  Bi2+  Bi114  1  0.59052805  0.15653492  0.20957555  1
  Bi2+  Bi115  1  0.67961391  0.24279305  0.73263513  1
  Bi2+  Bi116  1  0.61003381  0.53065694  0.18953099  1
  Bi2+  Bi117  1  0.62426142  0.48258481  0.71501880  1
  Bi2+  Bi118  1  0.54556126  0.72427641  0.22433770  1
  Bi2+  Bi119  1  0.68383626  0.82505062  0.73921840  1
  Bi2+  Bi120  1  0.82685505  0.02666742  0.18982957  1
  Bi2+  Bi121  1  0.91596600  0.02838020  0.67812411  1
  Bi2+  Bi122  1  0.83532567  0.34476400  0.21298775  1
  Bi2+  Bi123  1  0.84851925  0.21097507  0.68203249  1
  Bi2+  Bi124  1  0.85303204  0.52246876  0.26289498  1
  Bi2+  Bi125  1  0.93297935  0.48124659  0.71773823  1
  Bi2+  Bi126  1  0.84799641  0.77109351  0.21276233  1
  Bi2+  Bi127  1  0.87879627  0.83877025  0.71821253  1
  S2-  S128  1  -0.02329198  0.10922919  0.15625950  1
  S2-  S129  1  0.09054961  0.10731531  0.64420903  1
  S2-  S130  1  0.00827462  0.45590196  0.14265215  1
  S2-  S131  1  0.00133126  0.35450595  0.65561813  1
  S2-  S132  1  -0.05057855  0.66399795  0.17448972  1
  S2-  S133  1  -0.08785837  0.61792156  0.65020566  1
  S2-  S134  1  -0.09791104  0.88571687  0.14705545  1
  S2-  S135  1  0.10155480  0.87627100  0.64489031  1
  S2-  S136  1  0.24771748  0.24093801  0.13917213  1
  S2-  S137  1  0.29003835  0.11015124  0.67089633  1
  S2-  S138  1  0.24928489  0.46328113  0.14563441  1
  S2-  S139  1  0.27498288  0.34646181  0.65841934  1
  S2-  S140  1  0.15064901  0.63568878  0.14802646  1
  S2-  S141  1  0.30326471  0.70171352  0.64049259  1
  S2-  S142  1  0.14411789  0.87557976  0.13852746  1
  S2-  S143  1  0.29224746  0.90070453  0.68409758  1
  S2-  S144  1  0.45278149  0.12213947  0.14594948  1
  S2-  S145  1  0.51558226  0.12784628  0.65709783  1
  S2-  S146  1  0.49677597  0.40284463  0.14519817  1
  S2-  S147  1  0.50504509  0.37307625  0.66761576  1
  S2-  S148  1  0.39307376  0.63027468  0.13672745  1
  S2-  S149  1  0.56613556  0.61592499  0.65242776  1
  S2-  S150  1  0.38370659  0.87823941  0.13401308  1
  S2-  S151  1  0.50862357  0.87692251  0.65017684  1
  S2-  S152  1  0.74218651  0.15628533  0.15200004  1
  S2-  S153  1  0.75185791  -0.00911507  0.64045430  1
  S2-  S154  1  0.75414619  0.48307768  0.14064325  1
  S2-  S155  1  0.73998745  0.43748995  0.65291247  1
  S2-  S156  1  0.74774798  0.72180478  0.14631477  1
  S2-  S157  1  0.73024399  0.60465567  0.72785022  1
  S2-  S158  1  0.68719627  0.93133297  0.17159348  1
  S2-  S159  1  0.74600572  0.78030928  0.64989621  1
  S2-  S160  1  0.04542212  -0.00285800  0.34483134  1
  S2-  S161  1  0.21043523  -0.02282243  0.80927116  1
  S2-  S162  1  0.14422713  0.32281012  0.35558481  1
  S2-  S163  1  0.14348795  0.16712992  0.85385067  1
  S2-  S164  1  0.10247699  0.54016759  0.30979216  1
  S2-  S165  1  0.14283047  0.50176160  0.83782622  1
  S2-  S166  1  0.16519511  0.74912094  0.34827619  1
  S2-  S167  1  0.14861611  0.76885880  0.84625206  1
  S2-  S168  1  0.26695736  -0.01788054  0.36043581  1
  S2-  S169  1  0.38380571  0.11365526  0.85033245  1
  S2-  S170  1  0.40793865  0.33122280  0.36110310  1
  S2-  S171  1  0.34931025  0.35593611  0.85112243  1
  S2-  S172  1  0.29231311  0.50557419  0.35626777  1
  S2-  S173  1  0.35793602  0.62371316  0.85247440  1
  S2-  S174  1  0.40546398  0.67693964  0.33921477  1
  S2-  S175  1  0.38878637  0.86479027  0.85368041  1
  S2-  S176  1  0.60912022  0.00171459  0.34246843  1
  S2-  S177  1  0.59618879  -0.01873990  0.85196853  1
  S2-  S178  1  0.63090382  0.23067847  0.35164238  1
  S2-  S179  1  0.60824636  0.25998118  0.84164591  1
  S2-  S180  1  0.62299313  0.49810583  0.35180432  1
  S2-  S181  1  0.52774392  0.49304171  0.85072112  1
  S2-  S182  1  0.66282691  0.76356633  0.34474806  1
  S2-  S183  1  0.62904285  0.70916117  0.85118530  1
  S2-  S184  1  0.80901657  -0.03391288  0.28795923  1
  S2-  S185  1  0.99106977  -0.00610191  0.85046835  1
  S2-  S186  1  0.86808680  0.13738513  0.35317475  1
  S2-  S187  1  0.85136076  0.22879517  0.84760040  1
  S2-  S188  1  0.88552060  0.59500087  0.35702312  1
  S2-  S189  1  0.76345804  0.48098524  0.85667332  1
  S2-  S190  1  0.90751085  0.80519209  0.34211030  1
  S2-  S191  1  0.92596796  0.63456291  0.86668612  1
  S2-  S192  1  0.01643279  0.12322314  0.45217831  1
  S2-  S193  1  0.01106269  0.11641305  0.95271501  1
  S2-  S194  1  0.01118351  0.36798990  0.45226824  1
  S2-  S195  1  0.01085019  0.36532736  0.95134018  1
  S2-  S196  1  0.01791954  0.60675353  0.45538461  1
  S2-  S197  1  0.01745103  0.61822671  0.96705833  1
  S2-  S198  1  0.00885872  0.86627238  0.45150747  1
  S2-  S199  1  0.01484454  0.86744539  0.95589125  1
  S2-  S200  1  0.25864168  0.12219581  0.46018419  1
  S2-  S201  1  0.25783334  0.11532983  0.95518122  1
  S2-  S202  1  0.25974233  0.37037603  0.45934905  1
  S2-  S203  1  0.25676171  0.36512925  0.95398858  1
  S2-  S204  1  0.25786479  0.61187310  0.45638458  1
  S2-  S205  1  0.25819875  0.61701957  0.95694569  1
  S2-  S206  1  0.25752840  0.86345345  0.46085814  1
  S2-  S207  1  0.25224411  0.87464418  0.95223925  1
  S2-  S208  1  0.50822083  0.11537582  0.45434287  1
  S2-  S209  1  0.51753237  0.11507262  0.94979632  1
  S2-  S210  1  0.51159081  0.36910545  0.46259185  1
  S2-  S211  1  0.51189612  0.36428203  0.94608132  1
  S2-  S212  1  0.50883527  0.61660180  0.45190799  1
  S2-  S213  1  0.50852301  0.61829896  0.95446479  1
  S2-  S214  1  0.50925768  0.86842511  0.44599971  1
  S2-  S215  1  0.51248737  0.86734025  0.95621714  1
  S2-  S216  1  0.75601130  0.11901590  0.46166450  1
  S2-  S217  1  0.76201520  0.11326434  0.95341420  1
  S2-  S218  1  0.75721835  0.36690940  0.45623347  1
  S2-  S219  1  0.76296479  0.36490475  0.95796159  1
  S2-  S220  1  0.75243490  0.61583872  0.45232850  1
  S2-  S221  1  0.76154025  0.62020271  0.96240186  1
  S2-  S222  1  0.76254818  0.86960000  0.44894867  1
  S2-  S223  1  0.76183412  0.86525044  0.96321460  1
  S2-  S224  1  0.13563289  -0.00344795  0.04453085  1
  S2-  S225  1  0.13584479  -0.00979494  0.54031515  1
  S2-  S226  1  0.12735339  0.24054247  0.04405547  1
  S2-  S227  1  0.13428638  0.24685724  0.54761109  1
  S2-  S228  1  0.13542697  0.48872595  0.04251787  1
  S2-  S229  1  0.13605764  0.49216914  0.54821617  1
  S2-  S230  1  0.13988848  0.74077261  0.04553622  1
  S2-  S231  1  0.13317325  0.73570045  0.55008940  1
  S2-  S232  1  0.38509467  -0.00469327  0.03383259  1
  S2-  S233  1  0.37774869  -0.01017564  0.54740139  1
  S2-  S234  1  0.38768518  0.24042723  0.03567552  1
  S2-  S235  1  0.38043464  0.24101782  0.55036192  1
  S2-  S236  1  0.38418310  0.48759003  0.03244057  1
  S2-  S237  1  0.38207717  0.49258545  0.54911980  1
  S2-  S238  1  0.38123021  0.74385546  0.03532423  1
  S2-  S239  1  0.38266224  0.74354611  0.53740088  1
  S2-  S240  1  0.63397043  -0.00982282  0.05041442  1
  S2-  S241  1  0.63112907  -0.00916907  0.54413910  1
  S2-  S242  1  0.63545289  0.24113439  0.04528846  1
  S2-  S243  1  0.63362335  0.24007161  0.55694312  1
  S2-  S244  1  0.63040515  0.49226556  0.03784979  1
  S2-  S245  1  0.63288576  0.49352472  0.55169223  1
  S2-  S246  1  0.62379309  0.74063277  0.05244971  1
  S2-  S247  1  0.63355218  0.74504984  0.54445432  1
  S2-  S248  1  0.88115004  -0.00792549  0.04055171  1
  S2-  S249  1  0.88718049  -0.00990955  0.54589395  1
  S2-  S250  1  0.88224871  0.24129703  0.05005905  1
  S2-  S251  1  0.88495154  0.24249820  0.54363178  1
  S2-  S252  1  0.88526371  0.49020093  0.03945347  1
  S2-  S253  1  0.88009568  0.49003955  0.54457332  1
  S2-  S254  1  0.89129596  0.73574606  0.04931914  1
  S2-  S255  1  0.88419063  0.74627115  0.54298591  1
