# generated using pymatgen
data_La6Ce6Pr19Nd20Sm13(BiS2)64
_symmetry_space_group_name_H-M   'P 1'
_cell_length_a   16.08019985
_cell_length_b   16.11222831
_cell_length_c   27.41550263
_cell_angle_alpha   90.29469048
_cell_angle_beta   89.91896583
_cell_angle_gamma   89.85330337
_symmetry_Int_Tables_number   1
_chemical_formula_structural   La6Ce6Pr19Nd20Sm13(BiS2)64
_chemical_formula_sum   'La6 Ce6 Pr19 Nd20 Sm13 Bi64 S128'
_cell_volume   7102.89919592
_cell_formula_units_Z   1
loop_
 _symmetry_equiv_pos_site_id
 _symmetry_equiv_pos_as_xyz
  1  'x, y, z'
loop_
 _atom_type_symbol
 _atom_type_oxidation_number
  La3+  3.0
  Ce3+  3.0
  Pr3+  3.0
  Nd3+  3.0
  Sm3+  3.0
  Bi2+  2.0
  S2-  -2.0
loop_
 _atom_site_type_symbol
 _atom_site_label
 _atom_site_symmetry_multiplicity
 _atom_site_fract_x
 _atom_site_fract_y
 _atom_site_fract_z
 _atom_site_occupancy
  La3+  La0  1  -0.00824526  0.86373132  0.07265584  1
  La3+  La1  1  0.24653580  0.86130717  0.11503126  1
  La3+  La2  1  0.73783428  0.35690774  0.09448809  1
  La3+  La3  1  -0.01792182  0.60492504  0.07940228  1
  La3+  La4  1  -0.01215319  0.35705626  0.05685263  1
  La3+  La5  1  0.24676422  0.12529440  0.09650777  1
  Ce3+  Ce6  1  0.73558957  0.88024282  0.55933200  1
  Ce3+  Ce7  1  0.49373736  0.86893668  0.06625991  1
  Ce3+  Ce8  1  0.61887768  0.23757520  0.94123446  1
  Ce3+  Ce9  1  0.11662285  0.23625316  0.94087618  1
  Ce3+  Ce10  1  0.24447821  0.36353665  0.05841868  1
  Ce3+  Ce11  1  0.49183568  0.36129221  0.06093385  1
  Pr3+  Pr12  1  0.49561748  0.11235426  0.06730424  1
  Pr3+  Pr13  1  0.10071900  -0.00553019  0.41904537  1
  Pr3+  Pr14  1  0.10899307  0.73485360  0.40190094  1
  Pr3+  Pr15  1  0.48259057  0.37073193  0.56021875  1
  Pr3+  Pr16  1  0.11381407  0.24384846  0.40490330  1
  Pr3+  Pr17  1  -0.01521926  0.37367502  0.55468879  1
  Pr3+  Pr18  1  0.59977791  0.50372535  0.43122258  1
  Pr3+  Pr19  1  0.48490163  0.62700488  0.57335026  1
  Pr3+  Pr20  1  0.74293469  0.86514068  0.06236075  1
  Pr3+  Pr21  1  0.73686774  0.62789364  0.56685878  1
  Pr3+  Pr22  1  0.49080876  0.61362006  0.06817541  1
  Pr3+  Pr23  1  0.47771243  0.11852102  0.57360279  1
  Pr3+  Pr24  1  0.74327459  0.11251988  0.05575345  1
  Pr3+  Pr25  1  0.73503081  0.13927652  0.57414232  1
  Pr3+  Pr26  1  0.86935216  0.73281651  0.93430885  1
  Pr3+  Pr27  1  0.61057609  0.00351299  0.44069832  1
  Pr3+  Pr28  1  0.85662079  0.74684277  0.43463274  1
  Pr3+  Pr29  1  0.61539103  0.73765430  0.94075987  1
  Pr3+  Pr30  1  0.35901128  0.74797421  0.43316903  1
  Nd3+  Nd31  1  0.24187323  0.61411175  0.06917550  1
  Nd3+  Nd32  1  0.36454542  0.24588821  0.43044802  1
  Nd3+  Nd33  1  0.11806066  -0.01455045  0.94889865  1
  Nd3+  Nd34  1  0.35655154  0.50236793  0.44010296  1
  Nd3+  Nd35  1  -0.01416540  0.12822122  0.55430046  1
  Nd3+  Nd36  1  0.36851715  0.23632332  0.93854575  1
  Nd3+  Nd37  1  0.36450813  -0.01278158  0.95172753  1
  Nd3+  Nd38  1  0.61075698  0.24840195  0.43217927  1
  Nd3+  Nd39  1  -0.01413902  0.63038187  0.56899399  1
  Nd3+  Nd40  1  0.87209400  -0.02237723  0.92915549  1
  Nd3+  Nd41  1  0.61298209  0.74885254  0.43693170  1
  Nd3+  Nd42  1  0.73880120  0.61375038  0.05945952  1
  Nd3+  Nd43  1  0.36584920  0.73720163  0.95072231  1
  Nd3+  Nd44  1  0.60629852  -0.01137589  0.92383333  1
  Nd3+  Nd45  1  -0.00828805  0.11230336  0.05628988  1
  Nd3+  Nd46  1  0.86069104  0.25006399  0.42632047  1
  Nd3+  Nd47  1  0.36708170  0.48847009  0.94234706  1
  Nd3+  Nd48  1  0.86348452  0.22807140  0.92151264  1
  Nd3+  Nd49  1  0.23561240  0.37447439  0.55351108  1
  Nd3+  Nd50  1  0.11492289  0.48798032  0.94856519  1
  Sm3+  Sm51  1  0.48511687  0.87795248  0.55257620  1
  Sm3+  Sm52  1  0.85911859  0.00228521  0.44330861  1
  Sm3+  Sm53  1  0.86583034  0.48906919  0.94224465  1
  Sm3+  Sm54  1  0.23419776  0.12387179  0.55113802  1
  Sm3+  Sm55  1  0.85818361  0.49975525  0.43873041  1
  Sm3+  Sm56  1  0.23257554  0.63111697  0.56610250  1
  Sm3+  Sm57  1  0.22955011  0.87542738  0.55052620  1
  Sm3+  Sm58  1  0.73175833  0.37755684  0.55220297  1
  Sm3+  Sm59  1  0.11647719  0.73673604  0.95305219  1
  Sm3+  Sm60  1  0.35796438  -0.00044696  0.43898514  1
  Sm3+  Sm61  1  0.61888651  0.48567634  0.94585354  1
  Sm3+  Sm62  1  -0.01396401  0.87733706  0.55397676  1
  Sm3+  Sm63  1  0.10685341  0.50179636  0.44589898  1
  Bi2+  Bi64  1  -0.04727550  0.13441349  0.28027445  1
  Bi2+  Bi65  1  -0.01413369  0.12589856  0.79676331  1
  Bi2+  Bi66  1  0.06720384  0.37512696  0.28291138  1
  Bi2+  Bi67  1  0.00730594  0.40147475  0.78997120  1
  Bi2+  Bi68  1  0.00471474  0.59789396  0.29307658  1
  Bi2+  Bi69  1  0.00894926  0.62530309  0.79591072  1
  Bi2+  Bi70  1  -0.05317824  0.87680062  0.29138638  1
  Bi2+  Bi71  1  0.01131277  0.86981658  0.79881319  1
  Bi2+  Bi72  1  0.26388194  0.12954262  0.28557863  1
  Bi2+  Bi73  1  0.23810966  0.10625261  0.75474003  1
  Bi2+  Bi74  1  0.28032209  0.40173411  0.28738065  1
  Bi2+  Bi75  1  0.21651105  0.40151481  0.78916315  1
  Bi2+  Bi76  1  0.33799426  0.58996212  0.29428798  1
  Bi2+  Bi77  1  0.30170478  0.61293312  0.78755354  1
  Bi2+  Bi78  1  0.27125566  0.89361737  0.31479782  1
  Bi2+  Bi79  1  0.23911275  0.91628202  0.78707690  1
  Bi2+  Bi80  1  0.54691042  0.12599810  0.28704684  1
  Bi2+  Bi81  1  0.49618420  0.11676592  0.80443954  1
  Bi2+  Bi82  1  0.53254347  0.32682022  0.27209594  1
  Bi2+  Bi83  1  0.42399452  0.35480736  0.78418694  1
  Bi2+  Bi84  1  0.50398377  0.68365322  0.33024675  1
  Bi2+  Bi85  1  0.52515190  0.62116048  0.82425486  1
  Bi2+  Bi86  1  0.50103970  0.86575278  0.28722500  1
  Bi2+  Bi87  1  0.43728156  0.86041090  0.79043137  1
  Bi2+  Bi88  1  0.75622443  0.13859995  0.27806378  1
  Bi2+  Bi89  1  0.74044454  0.15291392  0.79158180  1
  Bi2+  Bi90  1  0.77829316  0.38811350  0.29508629  1
  Bi2+  Bi91  1  0.74137588  0.43815489  0.73421497  1
  Bi2+  Bi92  1  0.67227609  0.63131690  0.28229888  1
  Bi2+  Bi93  1  0.75195602  0.60215757  0.79493186  1
  Bi2+  Bi94  1  0.69937850  0.87737430  0.29473296  1
  Bi2+  Bi95  1  0.81107912  0.83884287  0.75837043  1
  Bi2+  Bi96  1  0.07187909  0.00382681  0.22538507  1
  Bi2+  Bi97  1  0.12692182  -0.02032113  0.69289115  1
  Bi2+  Bi98  1  0.09747514  0.23539829  0.20669702  1
  Bi2+  Bi99  1  0.11622625  0.25771302  0.73991452  1
  Bi2+  Bi100  1  0.16663931  0.50391610  0.21878871  1
  Bi2+  Bi101  1  0.12626030  0.52370057  0.70960075  1
  Bi2+  Bi102  1  0.13537196  0.74792321  0.22328067  1
  Bi2+  Bi103  1  0.17291268  0.74003820  0.75478832  1
  Bi2+  Bi104  1  0.46465190  0.01116839  0.20822507  1
  Bi2+  Bi105  1  0.37131753  -0.01619626  0.69957339  1
  Bi2+  Bi106  1  0.37401416  0.29769147  0.20220645  1
  Bi2+  Bi107  1  0.38576385  0.24071313  0.69443686  1
  Bi2+  Bi108  1  0.34860799  0.49037899  0.17330246  1
  Bi2+  Bi109  1  0.32712493  0.48702097  0.69852881  1
  Bi2+  Bi110  1  0.43313553  0.72121032  0.21762170  1
  Bi2+  Bi111  1  0.44402866  0.72202969  0.70969480  1
  Bi2+  Bi112  1  0.63658412  -0.00090464  0.15011500  1
  Bi2+  Bi113  1  0.59204462  -0.05603071  0.73764505  1
  Bi2+  Bi114  1  0.63816998  0.21015293  0.19506867  1
  Bi2+  Bi115  1  0.58700069  0.31351199  0.72074783  1
  Bi2+  Bi116  1  0.53452301  0.49397139  0.21614194  1
  Bi2+  Bi117  1  0.57057579  0.53917095  0.72033717  1
  Bi2+  Bi118  1  0.61765703  0.80857904  0.18837691  1
  Bi2+  Bi119  1  0.63898217  0.75384141  0.72420374  1
  Bi2+  Bi120  1  0.81167513  -0.01559819  0.21180723  1
  Bi2+  Bi121  1  0.87985102  -0.01361816  0.69031632  1
  Bi2+  Bi122  1  0.91546601  0.30069050  0.19255556  1
  Bi2+  Bi123  1  0.87735019  0.23107492  0.68706362  1
  Bi2+  Bi124  1  0.89622472  0.54279636  0.21013390  1
  Bi2+  Bi125  1  0.92260130  0.48448411  0.69993006  1
  Bi2+  Bi126  1  0.80356005  0.76433012  0.21940469  1
  Bi2+  Bi127  1  0.94593101  0.72722901  0.70584948  1
  S2-  S128  1  -0.00076647  0.10969442  0.15532730  1
  S2-  S129  1  -0.00567150  0.10645197  0.65342345  1
  S2-  S130  1  -0.01175814  0.43954214  0.14520331  1
  S2-  S131  1  -0.00575319  0.34094106  0.65273627  1
  S2-  S132  1  0.00409736  0.66736126  0.17248093  1
  S2-  S133  1  0.11417013  0.64146192  0.64088822  1
  S2-  S134  1  0.08371348  0.87465239  0.15888072  1
  S2-  S135  1  0.00709651  0.87015079  0.65231455  1
  S2-  S136  1  0.21087217  0.06781506  0.19089662  1
  S2-  S137  1  0.32788428  0.12233837  0.63411746  1
  S2-  S138  1  0.22431324  0.28673927  0.14516918  1
  S2-  S139  1  0.26587748  0.35355937  0.65017366  1
  S2-  S140  1  0.23781890  0.69753810  0.15684790  1
  S2-  S141  1  0.35140821  0.63866505  0.64080840  1
  S2-  S142  1  0.25077663  0.87117155  0.22388070  1
  S2-  S143  1  0.24496406  0.88784003  0.64877165  1
  S2-  S144  1  0.40481833  0.14283390  0.15251042  1
  S2-  S145  1  0.54098125  0.18691347  0.66020529  1
  S2-  S146  1  0.57985954  0.36492016  0.14588734  1
  S2-  S147  1  0.50648176  0.42403511  0.65452274  1
  S2-  S148  1  0.55667625  0.63620857  0.16024961  1
  S2-  S149  1  0.61827791  0.64149449  0.64144421  1
  S2-  S150  1  0.41511459  0.86328825  0.15310517  1
  S2-  S151  1  0.50441317  0.95000476  0.64183225  1
  S2-  S152  1  0.78600775  0.20668952  0.14047877  1
  S2-  S153  1  0.76320695  0.09534046  0.67360062  1
  S2-  S154  1  0.78218802  0.41246704  0.19018002  1
  S2-  S155  1  0.75512056  0.28872039  0.63432909  1
  S2-  S156  1  0.79364568  0.62484647  0.15237860  1
  S2-  S157  1  0.86083492  0.62636986  0.64243109  1
  S2-  S158  1  0.85724691  0.86887240  0.14158721  1
  S2-  S159  1  0.76666906  0.86772441  0.65437282  1
  S2-  S160  1  0.13404498  0.10383244  0.34086011  1
  S2-  S161  1  0.05263169  -0.00399454  0.85528108  1
  S2-  S162  1  0.26429938  0.26202377  0.34855644  1
  S2-  S163  1  0.09400364  0.22370404  0.84512078  1
  S2-  S164  1  0.12254433  0.57271563  0.35790664  1
  S2-  S165  1  0.10872332  0.50201532  0.85033177  1
  S2-  S166  1  0.10359857  0.87820784  0.34097167  1
  S2-  S167  1  0.10040509  0.74230043  0.85449994  1
  S2-  S168  1  0.36865689  0.03561329  0.34308829  1
  S2-  S169  1  0.45156566  -0.00623607  0.86483725  1
  S2-  S170  1  0.49167987  0.24671050  0.35873592  1
  S2-  S171  1  0.37320979  0.21258936  0.83951195  1
  S2-  S172  1  0.45772702  0.51409453  0.36001496  1
  S2-  S173  1  0.39748005  0.49504371  0.84561112  1
  S2-  S174  1  0.26654900  0.73317539  0.34732171  1
  S2-  S175  1  0.38216420  0.72723269  0.85237884  1
  S2-  S176  1  0.66029962  0.02793682  0.34597346  1
  S2-  S177  1  0.65142974  0.00307255  0.82401841  1
  S2-  S178  1  0.73445868  0.25682352  0.35585154  1
  S2-  S179  1  0.61231075  0.22926067  0.84285335  1
  S2-  S180  1  0.68070483  0.49123822  0.33968102  1
  S2-  S181  1  0.63522487  0.49964172  0.84836599  1
  S2-  S182  1  0.72624183  0.73364388  0.35898750  1
  S2-  S183  1  0.64695743  0.73482594  0.84186156  1
  S2-  S184  1  0.91907688  0.00296121  0.35085013  1
  S2-  S185  1  0.85348436  0.07819268  0.84824933  1
  S2-  S186  1  0.96931818  0.26232543  0.34585335  1
  S2-  S187  1  0.84683526  0.26613211  0.82135589  1
  S2-  S188  1  0.88844784  0.48731826  0.34170358  1
  S2-  S189  1  0.87205117  0.59787973  0.86384777  1
  S2-  S190  1  0.95283175  0.73037111  0.35041864  1
  S2-  S191  1  0.87267046  0.84727888  0.85816132  1
  S2-  S192  1  -0.01336112  0.12619135  0.44940897  1
  S2-  S193  1  -0.00895309  0.11314993  0.95229039  1
  S2-  S194  1  -0.01231916  0.37731447  0.44927068  1
  S2-  S195  1  -0.01176101  0.36328296  0.94845077  1
  S2-  S196  1  -0.01816649  0.62143647  0.46086546  1
  S2-  S197  1  -0.00635572  0.61070184  0.96687191  1
  S2-  S198  1  -0.01992931  0.87426315  0.45202210  1
  S2-  S199  1  -0.00341716  0.85967681  0.96356719  1
  S2-  S200  1  0.23426899  0.12208387  0.44998363  1
  S2-  S201  1  0.24279385  0.11132591  0.94373870  1
  S2-  S202  1  0.23041274  0.37863078  0.44822750  1
  S2-  S203  1  0.24245574  0.36280231  0.95021419  1
  S2-  S204  1  0.23345324  0.62617233  0.46078786  1
  S2-  S205  1  0.24100248  0.61174809  0.95947573  1
  S2-  S206  1  0.23249951  0.87532974  0.44686075  1
  S2-  S207  1  0.24132748  0.86020134  0.94889023  1
  S2-  S208  1  0.48160219  0.11982226  0.45914267  1
  S2-  S209  1  0.49216411  0.11560512  0.96031781  1
  S2-  S210  1  0.48200011  0.37509941  0.45493487  1
  S2-  S211  1  0.49249803  0.36382577  0.95244198  1
  S2-  S212  1  0.48362686  0.63044986  0.46499560  1
  S2-  S213  1  0.49272818  0.61019809  0.96077650  1
  S2-  S214  1  0.48573591  0.87565115  0.44732573  1
  S2-  S215  1  0.49004160  0.86089970  0.95875371  1
  S2-  S216  1  0.73791877  0.12576671  0.45859448  1
  S2-  S217  1  0.73713425  0.10764860  0.94895148  1
  S2-  S218  1  0.73356041  0.38032993  0.45145325  1
  S2-  S219  1  0.74500557  0.36511927  0.94085954  1
  S2-  S220  1  0.73375687  0.61808120  0.45902458  1
  S2-  S221  1  0.73838400  0.61088072  0.95607222  1
  S2-  S222  1  0.73605293  0.87896074  0.45333471  1
  S2-  S223  1  0.73633205  0.86525397  0.95330586  1
  S2-  S224  1  0.12592491  -0.00494073  0.05420235  1
  S2-  S225  1  0.10932792  0.00171977  0.53877512  1
  S2-  S226  1  0.11873340  0.23451214  0.04502648  1
  S2-  S227  1  0.11391080  0.24821672  0.54622742  1
  S2-  S228  1  0.11942934  0.48772383  0.05315421  1
  S2-  S229  1  0.11085023  0.49989004  0.54869468  1
  S2-  S230  1  0.11729503  0.73571093  0.05497031  1
  S2-  S231  1  0.10886721  0.75566761  0.54366767  1
  S2-  S232  1  0.36082437  -0.00852372  0.05564458  1
  S2-  S233  1  0.35654933  -0.00557847  0.54021378  1
  S2-  S234  1  0.36699149  0.23827760  0.04384909  1
  S2-  S235  1  0.35778177  0.24854608  0.53701610  1
  S2-  S236  1  0.36805733  0.48848685  0.04721468  1
  S2-  S237  1  0.35830802  0.50071637  0.54464193  1
  S2-  S238  1  0.36521721  0.73969314  0.05460624  1
  S2-  S239  1  0.35921094  0.75957098  0.54076672  1
  S2-  S240  1  0.61582134  -0.01247780  0.03399907  1
  S2-  S241  1  0.61421638  0.00660268  0.54657477  1
  S2-  S242  1  0.61849601  0.23918061  0.04550018  1
  S2-  S243  1  0.60796282  0.25127396  0.53923635  1
  S2-  S244  1  0.61852688  0.48677232  0.04977008  1
  S2-  S245  1  0.60856083  0.49838054  0.54276790  1
  S2-  S246  1  0.61596622  0.74028556  0.04788312  1
  S2-  S247  1  0.61014564  0.75891099  0.54236200  1
  S2-  S248  1  0.86804148  -0.00993821  0.03916396  1
  S2-  S249  1  0.86060703  0.00486280  0.54712779  1
  S2-  S250  1  0.86534716  0.23718619  0.03179381  1
  S2-  S251  1  0.86142850  0.25159555  0.53361874  1
  S2-  S252  1  0.85517904  0.47992909  0.04603109  1
  S2-  S253  1  0.85767070  0.49598015  0.54397578  1
  S2-  S254  1  0.86564738  0.73428143  0.04311410  1
  S2-  S255  1  0.86064399  0.75628787  0.54286862  1
