# generated using pymatgen
data_La6Ce6Pr19Nd20Sm13(BiS2)64
_symmetry_space_group_name_H-M   'P 1'
_cell_length_a   16.07201063
_cell_length_b   16.08701729
_cell_length_c   27.33094534
_cell_angle_alpha   90.06711477
_cell_angle_beta   89.97119179
_cell_angle_gamma   89.91431305
_symmetry_Int_Tables_number   1
_chemical_formula_structural   La6Ce6Pr19Nd20Sm13(BiS2)64
_chemical_formula_sum   'La6 Ce6 Pr19 Nd20 Sm13 Bi64 S128'
_cell_volume   7066.42175510
_cell_formula_units_Z   1
loop_
 _symmetry_equiv_pos_site_id
 _symmetry_equiv_pos_as_xyz
  1  'x, y, z'
loop_
 _atom_type_symbol
 _atom_type_oxidation_number
  La3+  3.0
  Ce3+  3.0
  Pr3+  3.0
  Nd3+  3.0
  Sm3+  3.0
  Bi2+  2.0
  S2-  -2.0
loop_
 _atom_site_type_symbol
 _atom_site_label
 _atom_site_symmetry_multiplicity
 _atom_site_fract_x
 _atom_site_fract_y
 _atom_site_fract_z
 _atom_site_occupancy
  La3+  La0  1  0.49946388  0.39109260  0.09292445  1
  La3+  La1  1  0.11005402  0.74849703  0.40823647  1
  La3+  La2  1  0.00804935  0.36342161  0.61537648  1
  La3+  La3  1  0.24020760  0.62781249  0.08385623  1
  La3+  La4  1  0.74286235  0.88357991  0.06930628  1
  La3+  La5  1  0.24416559  0.12873837  0.07363971  1
  Ce3+  Ce6  1  0.48727696  0.86750871  0.56006186  1
  Ce3+  Ce7  1  0.35799500  0.24673950  0.43137796  1
  Ce3+  Ce8  1  0.49391932  0.62799193  0.05820573  1
  Ce3+  Ce9  1  0.74005754  0.87366665  0.55283792  1
  Ce3+  Ce10  1  0.36223431  0.50484668  0.94288421  1
  Ce3+  Ce11  1  0.12153937  0.00985863  0.93357289  1
  Pr3+  Pr12  1  0.36505674  0.75296517  0.94500382  1
  Pr3+  Pr13  1  0.60368036  0.24184020  0.42468937  1
  Pr3+  Pr14  1  0.37061304  0.25721128  0.95508996  1
  Pr3+  Pr15  1  0.86062922  0.25178928  0.43808968  1
  Pr3+  Pr16  1  0.74712838  0.63232673  0.06744305  1
  Pr3+  Pr17  1  0.74407019  0.38032705  0.06540573  1
  Pr3+  Pr18  1  0.62531929  0.49621904  0.92801340  1
  Pr3+  Pr19  1  0.86671393  0.25492123  0.94293891  1
  Pr3+  Pr20  1  0.36806405  0.50265212  0.42322545  1
  Pr3+  Pr21  1  0.86614472  0.76004839  0.93484461  1
  Pr3+  Pr22  1  -0.00504038  0.13251855  0.07461620  1
  Pr3+  Pr23  1  0.12381161  0.51347989  0.92609997  1
  Pr3+  Pr24  1  0.86587313  0.00956506  0.94577441  1
  Pr3+  Pr25  1  0.61700234  0.24753761  0.94051615  1
  Pr3+  Pr26  1  -0.00711530  0.63166980  0.06537275  1
  Pr3+  Pr27  1  0.86322640  0.49870536  0.43624712  1
  Pr3+  Pr28  1  0.11377675  0.24986129  0.43510951  1
  Pr3+  Pr29  1  0.11235928  -0.00197763  0.43927358  1
  Pr3+  Pr30  1  0.87372535  0.51178746  0.92736486  1
  Nd3+  Nd31  1  0.36671701  0.74664182  0.43327389  1
  Nd3+  Nd32  1  0.48839526  0.12960347  0.07234685  1
  Nd3+  Nd33  1  0.86287753  0.74843689  0.43055211  1
  Nd3+  Nd34  1  -0.00381746  0.88311887  0.05825417  1
  Nd3+  Nd35  1  -0.00935987  0.62132504  0.55804188  1
  Nd3+  Nd36  1  0.11800190  0.49948414  0.42485432  1
  Nd3+  Nd37  1  0.23515495  0.38546204  0.07034188  1
  Nd3+  Nd38  1  0.23712549  0.87047204  0.54896816  1
  Nd3+  Nd39  1  0.74260138  0.62145836  0.55830625  1
  Nd3+  Nd40  1  0.61523330  -0.00433846  0.93058337  1
  Nd3+  Nd41  1  0.49206095  0.88030630  0.05743247  1
  Nd3+  Nd42  1  -0.00675331  0.38298231  0.06042337  1
  Nd3+  Nd43  1  0.86477487  -0.00210481  0.44439789  1
  Nd3+  Nd44  1  0.36247040  -0.00519303  0.43809627  1
  Nd3+  Nd45  1  0.48918520  0.61881524  0.55732765  1
  Nd3+  Nd46  1  0.74130986  0.37222213  0.56545606  1
  Nd3+  Nd47  1  0.48695323  0.12276234  0.55975271  1
  Nd3+  Nd48  1  0.23613726  0.62003169  0.55289235  1
  Nd3+  Nd49  1  0.36754126  0.01506474  0.92915775  1
  Nd3+  Nd50  1  0.61985756  0.48977553  0.41564586  1
  Sm3+  Sm51  1  0.61705474  0.74630000  0.93527278  1
  Sm3+  Sm52  1  -0.01132907  0.12673862  0.55717850  1
  Sm3+  Sm53  1  0.11863728  0.25738210  0.94166959  1
  Sm3+  Sm54  1  0.24412721  0.88201473  0.05776717  1
  Sm3+  Sm55  1  0.23741475  0.12481018  0.55746253  1
  Sm3+  Sm56  1  0.11963932  0.75517246  0.94575368  1
  Sm3+  Sm57  1  0.73760622  0.12436401  0.55618772  1
  Sm3+  Sm58  1  0.61384425  0.74814265  0.44165749  1
  Sm3+  Sm59  1  0.49588982  0.37173515  0.55727741  1
  Sm3+  Sm60  1  0.61179146  0.00028706  0.43625366  1
  Sm3+  Sm61  1  0.23892660  0.37480182  0.55351049  1
  Sm3+  Sm62  1  -0.00961212  0.86755036  0.56162096  1
  Sm3+  Sm63  1  0.73000113  0.12920037  0.07626542  1
  Bi2+  Bi64  1  -0.01613962  0.13479430  0.28764615  1
  Bi2+  Bi65  1  0.01320429  0.03340697  0.81006645  1
  Bi2+  Bi66  1  0.03437599  0.40626110  0.29355485  1
  Bi2+  Bi67  1  -0.02126222  0.33946658  0.81471811  1
  Bi2+  Bi68  1  -0.05817355  0.60617567  0.29319888  1
  Bi2+  Bi69  1  -0.00270930  0.64053348  0.79343198  1
  Bi2+  Bi70  1  -0.02332801  0.90622221  0.28631784  1
  Bi2+  Bi71  1  0.05040533  0.83686594  0.78970976  1
  Bi2+  Bi72  1  0.22508849  0.09088602  0.29030227  1
  Bi2+  Bi73  1  0.29535455  0.12759867  0.78760720  1
  Bi2+  Bi74  1  0.22989184  0.35168501  0.27811951  1
  Bi2+  Bi75  1  0.30657266  0.39062972  0.72543940  1
  Bi2+  Bi76  1  0.24711826  0.62329534  0.29730356  1
  Bi2+  Bi77  1  0.27582560  0.63779759  0.80081986  1
  Bi2+  Bi78  1  0.36088651  0.86903560  0.30687868  1
  Bi2+  Bi79  1  0.23702460  0.90875815  0.77380045  1
  Bi2+  Bi80  1  0.55058512  0.11610015  0.24741349  1
  Bi2+  Bi81  1  0.52745422  0.14220152  0.80635609  1
  Bi2+  Bi82  1  0.52135871  0.34539953  0.28273676  1
  Bi2+  Bi83  1  0.47884270  0.39851752  0.78768334  1
  Bi2+  Bi84  1  0.54609992  0.58558029  0.27967227  1
  Bi2+  Bi85  1  0.46955250  0.59897859  0.78779863  1
  Bi2+  Bi86  1  0.56035779  0.87450769  0.31517875  1
  Bi2+  Bi87  1  0.45060640  0.88334334  0.78233287  1
  Bi2+  Bi88  1  0.73450790  0.12452350  0.29065588  1
  Bi2+  Bi89  1  0.76804298  0.07020327  0.78882144  1
  Bi2+  Bi90  1  0.79266749  0.38298419  0.29783700  1
  Bi2+  Bi91  1  0.73701715  0.32156806  0.78991375  1
  Bi2+  Bi92  1  0.77846977  0.71759563  0.30261444  1
  Bi2+  Bi93  1  0.72461694  0.58306152  0.78719176  1
  Bi2+  Bi94  1  0.75172198  0.91022336  0.28668797  1
  Bi2+  Bi95  1  0.78853599  0.82203479  0.79780914  1
  Bi2+  Bi96  1  0.04789379  -0.00295846  0.19554735  1
  Bi2+  Bi97  1  0.14841844  0.01689795  0.69141842  1
  Bi2+  Bi98  1  0.08493304  0.25687096  0.21848360  1
  Bi2+  Bi99  1  0.11617156  0.17481599  0.76255408  1
  Bi2+  Bi100  1  0.12354955  0.50894859  0.20801105  1
  Bi2+  Bi101  1  0.14194427  0.50599644  0.70902949  1
  Bi2+  Bi102  1  0.16185595  0.77495172  0.21176659  1
  Bi2+  Bi103  1  0.13354446  0.74945762  0.69926927  1
  Bi2+  Bi104  1  0.34257266  -0.02076229  0.21027572  1
  Bi2+  Bi105  1  0.39860748  0.04433442  0.70302233  1
  Bi2+  Bi106  1  0.36605180  0.21140160  0.24098748  1
  Bi2+  Bi107  1  0.44579831  0.25501890  0.70747771  1
  Bi2+  Bi108  1  0.39249141  0.50023690  0.21796225  1
  Bi2+  Bi109  1  0.42883562  0.53047058  0.68186639  1
  Bi2+  Bi110  1  0.43521885  0.75238032  0.22524023  1
  Bi2+  Bi111  1  0.37974320  0.78134596  0.69446433  1
  Bi2+  Bi112  1  0.61217952  -0.05626588  0.20869800  1
  Bi2+  Bi113  1  0.66715096  -0.05616145  0.73108149  1
  Bi2+  Bi114  1  0.70720024  0.25320764  0.20451390  1
  Bi2+  Bi115  1  0.65782522  0.23215033  0.70169713  1
  Bi2+  Bi116  1  0.69778917  0.51895916  0.21673737  1
  Bi2+  Bi117  1  0.61079800  0.48220718  0.71416112  1
  Bi2+  Bi118  1  0.62302779  0.70047710  0.19971006  1
  Bi2+  Bi119  1  0.60893512  0.76414375  0.76359317  1
  Bi2+  Bi120  1  0.87143145  0.09250026  0.19329906  1
  Bi2+  Bi121  1  0.96339199  -0.05178295  0.70138795  1
  Bi2+  Bi122  1  0.89151712  0.28301293  0.16284783  1
  Bi2+  Bi123  1  0.90881343  0.13528211  0.71805851  1
  Bi2+  Bi124  1  0.89990262  0.46726430  0.21068347  1
  Bi2+  Bi125  1  0.87429804  0.49654971  0.70712790  1
  Bi2+  Bi126  1  0.88263966  0.72330230  0.20551712  1
  Bi2+  Bi127  1  0.85315654  0.75361408  0.69595861  1
  S2-  S128  1  0.12161709  0.13088866  0.14734301  1
  S2-  S129  1  0.01152673  0.19254771  0.64609265  1
  S2-  S130  1  0.10036153  0.37698269  0.14094885  1
  S2-  S131  1  0.00830779  0.38705371  0.72595859  1
  S2-  S132  1  0.09658010  0.64606867  0.15086602  1
  S2-  S133  1  0.00587843  0.53507159  0.64625458  1
  S2-  S134  1  -0.02975914  0.85849919  0.15609730  1
  S2-  S135  1  -0.00409048  0.74899368  0.63373035  1
  S2-  S136  1  0.36520546  0.11088975  0.14980700  1
  S2-  S137  1  0.26339497  0.12694462  0.65404312  1
  S2-  S138  1  0.26760885  0.49044611  0.15103771  1
  S2-  S139  1  0.18228508  0.37132093  0.64644201  1
  S2-  S140  1  0.29474953  0.70604951  0.17661260  1
  S2-  S141  1  0.22446375  0.62098161  0.65394118  1
  S2-  S142  1  0.21293775  0.90794753  0.15436326  1
  S2-  S143  1  0.23503502  0.85816318  0.64806744  1
  S2-  S144  1  0.59931016  0.15524798  0.14932027  1
  S2-  S145  1  0.53537449  0.12590633  0.65554034  1
  S2-  S146  1  0.43515688  0.33819677  0.18572030  1
  S2-  S147  1  0.60897571  0.36559208  0.63511088  1
  S2-  S148  1  0.48784185  0.55149052  0.14565572  1
  S2-  S149  1  0.49353439  0.69563914  0.64739377  1
  S2-  S150  1  0.46758738  0.88855002  0.15635030  1
  S2-  S151  1  0.47181348  0.91084014  0.65370559  1
  S2-  S152  1  0.74394958  0.00035910  0.14622092  1
  S2-  S153  1  0.76201020  0.13023988  0.65322717  1
  S2-  S154  1  0.65134189  0.39839053  0.15190553  1
  S2-  S155  1  0.83970270  0.37459421  0.64966775  1
  S2-  S156  1  0.87420577  0.59761035  0.13938150  1
  S2-  S157  1  0.77470368  0.62192786  0.65743158  1
  S2-  S158  1  0.74561544  0.76259660  0.14303335  1
  S2-  S159  1  0.74052356  0.86632743  0.65000334  1
  S2-  S160  1  0.10630929  -0.00389133  0.33893420  1
  S2-  S161  1  0.23719477  0.00682353  0.85836850  1
  S2-  S162  1  0.21704724  0.23001567  0.35440862  1
  S2-  S163  1  0.13070074  0.28850353  0.84499602  1
  S2-  S164  1  0.09015617  0.60774753  0.34464361  1
  S2-  S165  1  0.00263996  0.49530287  0.85182729  1
  S2-  S166  1  0.19574173  0.78633523  0.31601420  1
  S2-  S167  1  0.13188639  0.67291919  0.85876205  1
  S2-  S168  1  0.36147163  0.03412581  0.34107228  1
  S2-  S169  1  0.48640265  0.00028843  0.85479789  1
  S2-  S170  1  0.44592177  0.25354214  0.34830817  1
  S2-  S171  1  0.38657312  0.19406534  0.86119614  1
  S2-  S172  1  0.24608749  0.47440604  0.34945080  1
  S2-  S173  1  0.26633892  0.50480619  0.86076181  1
  S2-  S174  1  0.37487867  0.65507008  0.34980145  1
  S2-  S175  1  0.36604702  0.76218484  0.84432574  1
  S2-  S176  1  0.61180217  0.10322848  0.35568355  1
  S2-  S177  1  0.65714058  0.12145979  0.86364341  1
  S2-  S178  1  0.64642197  0.34377403  0.34624843  1
  S2-  S179  1  0.60774008  0.33702055  0.85021625  1
  S2-  S180  1  0.48725669  0.47737621  0.34843201  1
  S2-  S181  1  0.60992396  0.62377906  0.85807832  1
  S2-  S182  1  0.61449371  0.71078739  0.34621393  1
  S2-  S183  1  0.64722492  0.85040337  0.85815387  1
  S2-  S184  1  0.86949732  0.00287296  0.34559828  1
  S2-  S185  1  0.86030518  -0.04157801  0.84940579  1
  S2-  S186  1  0.87769241  0.23590205  0.33673718  1
  S2-  S187  1  0.85615040  0.22153202  0.84388014  1
  S2-  S188  1  0.76089473  0.51298884  0.35322920  1
  S2-  S189  1  0.77030008  0.45992298  0.84856179  1
  S2-  S190  1  0.96430590  0.78741534  0.35096271  1
  S2-  S191  1  0.86506689  0.66204593  0.85055035  1
  S2-  S192  1  -0.01189765  0.12469783  0.45101363  1
  S2-  S193  1  -0.00397363  0.13188259  0.95619983  1
  S2-  S194  1  -0.00999870  0.37531528  0.43582126  1
  S2-  S195  1  -0.00537465  0.37826346  0.95501948  1
  S2-  S196  1  -0.01383766  0.62499385  0.45051877  1
  S2-  S197  1  -0.00578026  0.63757033  0.95813024  1
  S2-  S198  1  -0.01137002  0.87421152  0.45804453  1
  S2-  S199  1  -0.00326297  0.88214293  0.95053742  1
  S2-  S200  1  0.23844366  0.11922073  0.45515639  1
  S2-  S201  1  0.24112537  0.13471390  0.96176962  1
  S2-  S202  1  0.24083563  0.37355080  0.45192458  1
  S2-  S203  1  0.24007438  0.37805463  0.96204514  1
  S2-  S204  1  0.23859239  0.62674324  0.44853916  1
  S2-  S205  1  0.24198170  0.63262678  0.96741389  1
  S2-  S206  1  0.23715756  0.87009140  0.44344657  1
  S2-  S207  1  0.24219233  0.87959228  0.95402354  1
  S2-  S208  1  0.48192463  0.11868549  0.45494456  1
  S2-  S209  1  0.49283862  0.12624941  0.96544645  1
  S2-  S210  1  0.48812415  0.37178144  0.45565647  1
  S2-  S211  1  0.49183421  0.38396012  0.95209204  1
  S2-  S212  1  0.49611927  0.62242625  0.45289497  1
  S2-  S213  1  0.48917741  0.62655612  0.95437646  1
  S2-  S214  1  0.49081405  0.87308119  0.45250527  1
  S2-  S215  1  0.49145032  0.87394595  0.95343826  1
  S2-  S216  1  0.73979420  0.12088480  0.45195477  1
  S2-  S217  1  0.74417656  0.12941227  0.97025589  1
  S2-  S218  1  0.73635241  0.37263607  0.45740849  1
  S2-  S219  1  0.74353961  0.37561502  0.95929123  1
  S2-  S220  1  0.73697712  0.62726745  0.45317217  1
  S2-  S221  1  0.74497752  0.63160253  0.95766566  1
  S2-  S222  1  0.73623820  0.87534609  0.44533585  1
  S2-  S223  1  0.74316663  0.88152312  0.96155192  1
  S2-  S224  1  0.11926973  0.00540305  0.04148907  1
  S2-  S225  1  0.11163769  -0.00145897  0.54716670  1
  S2-  S226  1  0.11706931  0.25411578  0.04480476  1
  S2-  S227  1  0.11522395  0.24938023  0.54129871  1
  S2-  S228  1  0.11474328  0.50765059  0.04100610  1
  S2-  S229  1  0.11582065  0.49513024  0.53558649  1
  S2-  S230  1  0.12083429  0.76053569  0.04849529  1
  S2-  S231  1  0.11609562  0.74771584  0.53451875  1
  S2-  S232  1  0.36644486  0.00199143  0.04106903  1
  S2-  S233  1  0.36071450  -0.00204924  0.54515191  1
  S2-  S234  1  0.36946429  0.26550648  0.06019174  1
  S2-  S235  1  0.36366889  0.24982858  0.54692265  1
  S2-  S236  1  0.36947257  0.50184103  0.04619295  1
  S2-  S237  1  0.36581122  0.49434285  0.54206282  1
  S2-  S238  1  0.36609664  0.75532013  0.05230755  1
  S2-  S239  1  0.36206671  0.74495591  0.54015876  1
  S2-  S240  1  0.61202076  0.00577911  0.04551846  1
  S2-  S241  1  0.61336611  -0.00153051  0.54230524  1
  S2-  S242  1  0.61280764  0.26050916  0.04805186  1
  S2-  S243  1  0.61247972  0.24157923  0.53703083  1
  S2-  S244  1  0.62167621  0.50839761  0.04167422  1
  S2-  S245  1  0.61532955  0.50051311  0.54270026  1
  S2-  S246  1  0.61484540  0.75375333  0.04208710  1
  S2-  S247  1  0.61661742  0.74728320  0.54555713  1
  S2-  S248  1  0.87340611  0.01026217  0.05071091  1
  S2-  S249  1  0.86756795  -0.00146042  0.55048605  1
  S2-  S250  1  0.86697377  0.25129111  0.04913386  1
  S2-  S251  1  0.86378722  0.24447726  0.54404388  1
  S2-  S252  1  0.86804949  0.50143464  0.03722074  1
  S2-  S253  1  0.86420392  0.49916558  0.54145438  1
  S2-  S254  1  0.87218857  0.75984402  0.04132545  1
  S2-  S255  1  0.86288645  0.75018182  0.53669480  1
