# generated using pymatgen
data_La6Ce6Pr19Nd20Sm13(BiS2)64
_symmetry_space_group_name_H-M   'P 1'
_cell_length_a   16.12601817
_cell_length_b   16.13239283
_cell_length_c   27.27387469
_cell_angle_alpha   90.05443962
_cell_angle_beta   90.12489998
_cell_angle_gamma   89.99395868
_symmetry_Int_Tables_number   1
_chemical_formula_structural   La6Ce6Pr19Nd20Sm13(BiS2)64
_chemical_formula_sum   'La6 Ce6 Pr19 Nd20 Sm13 Bi64 S128'
_cell_volume   7095.31276228
_cell_formula_units_Z   1
loop_
 _symmetry_equiv_pos_site_id
 _symmetry_equiv_pos_as_xyz
  1  'x, y, z'
loop_
 _atom_type_symbol
 _atom_type_oxidation_number
  La3+  3.0
  Ce3+  3.0
  Pr3+  3.0
  Nd3+  3.0
  Sm3+  3.0
  Bi2+  2.0
  S2-  -2.0
loop_
 _atom_site_type_symbol
 _atom_site_label
 _atom_site_symmetry_multiplicity
 _atom_site_fract_x
 _atom_site_fract_y
 _atom_site_fract_z
 _atom_site_occupancy
  La3+  La0  1  0.64572452  0.00243861  0.38520377  1
  La3+  La1  1  0.22793448  0.11591225  0.07396780  1
  La3+  La2  1  0.10726704  -0.01029954  0.92141485  1
  La3+  La3  1  0.74485239  0.37774459  0.57136229  1
  La3+  La4  1  0.49509799  0.12502719  0.56229675  1
  La3+  La5  1  0.61129726  0.75030525  0.91087207  1
  Ce3+  Ce6  1  0.10961394  0.49807769  0.94022765  1
  Ce3+  Ce7  1  0.24758251  0.88014575  0.55818726  1
  Ce3+  Ce8  1  0.24804519  0.63020098  0.55620661  1
  Ce3+  Ce9  1  -0.01268677  0.11975638  0.05751716  1
  Ce3+  Ce10  1  0.48764817  0.62368390  0.04911555  1
  Ce3+  Ce11  1  0.35877860  0.24356527  0.93931411  1
  Pr3+  Pr12  1  0.75259616  0.87917196  0.57697147  1
  Pr3+  Pr13  1  0.85332297  0.74447212  0.93289308  1
  Pr3+  Pr14  1  0.60855495  0.48888490  0.89948643  1
  Pr3+  Pr15  1  0.86496375  0.50577406  0.42838342  1
  Pr3+  Pr16  1  0.72803304  0.12055390  0.05506802  1
  Pr3+  Pr17  1  0.48943135  0.86228251  0.07231167  1
  Pr3+  Pr18  1  0.86877782  0.25259505  0.44385503  1
  Pr3+  Pr19  1  0.62067880  0.76015085  0.44764367  1
  Pr3+  Pr20  1  0.37639153  0.00414971  0.40421851  1
  Pr3+  Pr21  1  0.72974318  0.37184658  0.06080331  1
  Pr3+  Pr22  1  0.35594791  -0.00550563  0.94240463  1
  Pr3+  Pr23  1  0.37178747  0.25487751  0.43431963  1
  Pr3+  Pr24  1  0.48737158  0.63259750  0.57658849  1
  Pr3+  Pr25  1  0.24740554  0.38006206  0.56103719  1
  Pr3+  Pr26  1  0.11297526  0.24514833  0.93149244  1
  Pr3+  Pr27  1  -0.01746302  0.37232709  0.06064654  1
  Pr3+  Pr28  1  0.86207454  0.49113826  0.93070629  1
  Pr3+  Pr29  1  0.59993147  -0.00179476  0.93423188  1
  Pr3+  Pr30  1  0.37337440  0.75803043  0.43640455  1
  Nd3+  Nd31  1  0.72979069  0.62138052  0.04983988  1
  Nd3+  Nd32  1  0.49991419  0.87905385  0.56292367  1
  Nd3+  Nd33  1  -0.02087912  0.62127765  0.05723253  1
  Nd3+  Nd34  1  0.47706984  0.13349785  0.07839265  1
  Nd3+  Nd35  1  0.23110371  0.87112699  0.06482341  1
  Nd3+  Nd36  1  -0.00010004  0.88454996  0.56907126  1
  Nd3+  Nd37  1  -0.00568420  0.62796157  0.55734274  1
  Nd3+  Nd38  1  0.61892375  0.24811632  0.44289873  1
  Nd3+  Nd39  1  0.12391982  0.00288845  0.43155239  1
  Nd3+  Nd40  1  0.73220432  0.87048329  0.05394290  1
  Nd3+  Nd41  1  0.75567494  0.62786821  0.57561241  1
  Nd3+  Nd42  1  0.37316103  0.50292046  0.43434752  1
  Nd3+  Nd43  1  0.23286065  0.62162153  0.05321844  1
  Nd3+  Nd44  1  0.74491526  0.12587383  0.56022578  1
  Nd3+  Nd45  1  0.36195863  0.49725955  0.93340547  1
  Nd3+  Nd46  1  0.23316371  0.37425206  0.05764891  1
  Nd3+  Nd47  1  0.62276096  0.50832143  0.44843132  1
  Nd3+  Nd48  1  0.86751629  0.76066019  0.44316405  1
  Nd3+  Nd49  1  -0.00336070  0.37818475  0.55814258  1
  Nd3+  Nd50  1  0.49629604  0.38049684  0.56372405  1
  Sm3+  Sm51  1  0.87189730  0.00184133  0.45037087  1
  Sm3+  Sm52  1  0.48250739  0.37465046  0.05615787  1
  Sm3+  Sm53  1  0.24693573  0.12693596  0.55613926  1
  Sm3+  Sm54  1  0.85995101  -0.00096358  0.93704896  1
  Sm3+  Sm55  1  0.60154553  0.24618787  0.93235570  1
  Sm3+  Sm56  1  0.11946557  0.50471818  0.44493649  1
  Sm3+  Sm57  1  0.12064882  0.75515971  0.44712929  1
  Sm3+  Sm58  1  -0.00070539  0.13113021  0.55706287  1
  Sm3+  Sm59  1  0.12200576  0.25314015  0.44140413  1
  Sm3+  Sm60  1  0.85689178  0.24834137  0.94572966  1
  Sm3+  Sm61  1  0.10628815  0.74681502  0.94094934  1
  Sm3+  Sm62  1  -0.01856181  0.87095168  0.05604692  1
  Sm3+  Sm63  1  0.36127435  0.74903365  0.94220441  1
  Bi2+  Bi64  1  0.04099938  0.09292609  0.31606797  1
  Bi2+  Bi65  1  0.06494306  0.12413687  0.80297745  1
  Bi2+  Bi66  1  0.04201892  0.40907317  0.29101019  1
  Bi2+  Bi67  1  0.08512643  0.36173223  0.78250237  1
  Bi2+  Bi68  1  0.06935192  0.67579205  0.25135826  1
  Bi2+  Bi69  1  0.04347702  0.64553346  0.80174841  1
  Bi2+  Bi70  1  0.01081292  0.89317129  0.30051865  1
  Bi2+  Bi71  1  -0.05381716  0.84813912  0.81056756  1
  Bi2+  Bi72  1  0.22404259  0.15552606  0.28573838  1
  Bi2+  Bi73  1  0.25872674  0.12880772  0.78287998  1
  Bi2+  Bi74  1  0.29689306  0.43563028  0.27685096  1
  Bi2+  Bi75  1  0.26815181  0.40242616  0.81244691  1
  Bi2+  Bi76  1  0.24289133  0.62314099  0.29869332  1
  Bi2+  Bi77  1  0.24247689  0.60900875  0.79336772  1
  Bi2+  Bi78  1  0.23186084  0.87069453  0.28750352  1
  Bi2+  Bi79  1  0.22990822  0.88293375  0.78948959  1
  Bi2+  Bi80  1  0.49151146  0.15246597  0.28157059  1
  Bi2+  Bi81  1  0.48334134  0.12838526  0.78390570  1
  Bi2+  Bi82  1  0.51434956  0.38364421  0.29272193  1
  Bi2+  Bi83  1  0.51608264  0.34243010  0.78559597  1
  Bi2+  Bi84  1  0.51156292  0.57733091  0.31747964  1
  Bi2+  Bi85  1  0.46579676  0.59239367  0.77649224  1
  Bi2+  Bi86  1  0.49853330  0.85331785  0.27952821  1
  Bi2+  Bi87  1  0.47788988  0.88931397  0.79995851  1
  Bi2+  Bi88  1  0.75361779  0.16823418  0.28545169  1
  Bi2+  Bi89  1  0.69082938  0.11631115  0.80755674  1
  Bi2+  Bi90  1  0.78132427  0.41471079  0.29164134  1
  Bi2+  Bi91  1  0.78902747  0.36080907  0.78798407  1
  Bi2+  Bi92  1  0.79205212  0.60427929  0.28175515  1
  Bi2+  Bi93  1  0.78096714  0.63244119  0.77389253  1
  Bi2+  Bi94  1  0.76185372  0.85049249  0.29425280  1
  Bi2+  Bi95  1  0.77187095  0.93762664  0.79394745  1
  Bi2+  Bi96  1  0.10046199  -0.00637808  0.20600321  1
  Bi2+  Bi97  1  0.10417995  -0.01820642  0.72105345  1
  Bi2+  Bi98  1  0.11772433  0.25603826  0.20995685  1
  Bi2+  Bi99  1  0.09727075  0.22670993  0.70352159  1
  Bi2+  Bi100  1  0.13506500  0.50134837  0.20135098  1
  Bi2+  Bi101  1  0.11320905  0.52011368  0.70637126  1
  Bi2+  Bi102  1  0.22676365  0.75169072  0.19470146  1
  Bi2+  Bi103  1  0.12322335  0.71965425  0.70297678  1
  Bi2+  Bi104  1  0.36946172  0.02529361  0.20289081  1
  Bi2+  Bi105  1  0.36187354  -0.00395191  0.68235179  1
  Bi2+  Bi106  1  0.39115647  0.31163612  0.20538708  1
  Bi2+  Bi107  1  0.35378172  0.28096891  0.73168683  1
  Bi2+  Bi108  1  0.42018235  0.50744290  0.19334451  1
  Bi2+  Bi109  1  0.31192152  0.48653919  0.70556306  1
  Bi2+  Bi110  1  0.40349224  0.68911591  0.24422494  1
  Bi2+  Bi111  1  0.31674618  0.74629644  0.71898901  1
  Bi2+  Bi112  1  0.63717777  -0.01531585  0.18658625  1
  Bi2+  Bi113  1  0.64873485  0.02348968  0.70700259  1
  Bi2+  Bi114  1  0.66385604  0.24738022  0.19737209  1
  Bi2+  Bi115  1  0.62527245  0.22536109  0.70682816  1
  Bi2+  Bi116  1  0.61162675  0.51164690  0.22485819  1
  Bi2+  Bi117  1  0.64403385  0.49275494  0.70099312  1
  Bi2+  Bi118  1  0.65227390  0.71467298  0.19413933  1
  Bi2+  Bi119  1  0.58001750  0.75274913  0.70573951  1
  Bi2+  Bi120  1  0.91197354  0.03217502  0.23674724  1
  Bi2+  Bi121  1  0.90653220  0.00120494  0.71755261  1
  Bi2+  Bi122  1  0.93502919  0.22717888  0.25106289  1
  Bi2+  Bi123  1  0.87117721  0.17505519  0.77085062  1
  Bi2+  Bi124  1  0.88056001  0.49165743  0.18658103  1
  Bi2+  Bi125  1  0.92344343  0.47154920  0.70278698  1
  Bi2+  Bi126  1  0.91481608  0.78337378  0.22298554  1
  Bi2+  Bi127  1  0.92957047  0.73790307  0.71556817  1
  S2-  S128  1  0.08181358  0.12913443  0.13906848  1
  S2-  S129  1  0.02328575  0.08976767  0.65035956  1
  S2-  S130  1  -0.01818580  0.36992286  0.16137425  1
  S2-  S131  1  -0.00540979  0.33153492  0.65426307  1
  S2-  S132  1  0.00192337  0.60239495  0.15510561  1
  S2-  S133  1  -0.09773498  0.60474618  0.64011642  1
  S2-  S134  1  0.00161789  0.87272783  0.15358772  1
  S2-  S135  1  -0.10674378  0.87038273  0.64743305  1
  S2-  S136  1  0.33977956  0.15573924  0.14924033  1
  S2-  S137  1  0.26950025  0.11693078  0.65398855  1
  S2-  S138  1  0.21567877  0.35981826  0.15640664  1
  S2-  S139  1  0.25066542  0.34472669  0.65868091  1
  S2-  S140  1  0.24964043  0.59115969  0.15041427  1
  S2-  S141  1  0.33139707  0.63932192  0.64073578  1
  S2-  S142  1  0.23662284  0.97205082  0.14566123  1
  S2-  S143  1  0.21953698  0.90485757  0.65352924  1
  S2-  S144  1  0.52403571  0.10123871  0.17802332  1
  S2-  S145  1  0.49563775  0.09975109  0.66354295  1
  S2-  S146  1  0.52222692  0.29865907  0.14107000  1
  S2-  S147  1  0.54872210  0.36695337  0.65780311  1
  S2-  S148  1  0.52279629  0.71011987  0.13043664  1
  S2-  S149  1  0.51949004  0.59058594  0.67416184  1
  S2-  S150  1  0.47916007  0.90183025  0.17481893  1
  S2-  S151  1  0.45503648  0.84497003  0.65938813  1
  S2-  S152  1  0.74778556  0.11183366  0.15441355  1
  S2-  S153  1  0.75116883  0.15650627  0.65819115  1
  S2-  S154  1  0.75766858  0.36786544  0.16064998  1
  S2-  S155  1  0.78229727  0.39998710  0.66919216  1
  S2-  S156  1  0.76772071  0.61527616  0.14744214  1
  S2-  S157  1  0.70912629  0.64926893  0.67291552  1
  S2-  S158  1  0.73336162  0.84617765  0.15292158  1
  S2-  S159  1  0.67076658  0.87055070  0.66822711  1
  S2-  S160  1  0.22505002  0.00109111  0.34868648  1
  S2-  S161  1  0.24766137  0.00639219  0.85903197  1
  S2-  S162  1  0.14180852  0.26497582  0.34397678  1
  S2-  S163  1  0.24444182  0.24064199  0.86085140  1
  S2-  S164  1  0.14945040  0.49812676  0.34863983  1
  S2-  S165  1  0.05088899  0.48818209  0.84976759  1
  S2-  S166  1  0.11664706  0.77617025  0.35026662  1
  S2-  S167  1  0.10622356  0.83321675  0.85602632  1
  S2-  S168  1  0.49520494  0.00178109  0.32845717  1
  S2-  S169  1  0.46653760  0.01602790  0.86246129  1
  S2-  S170  1  0.37150308  0.16255330  0.34673602  1
  S2-  S171  1  0.46999814  0.23568404  0.86387220  1
  S2-  S172  1  0.37586644  0.38377279  0.36093056  1
  S2-  S173  1  0.45136138  0.47684419  0.84817583  1
  S2-  S174  1  0.37249597  0.84138232  0.34759750  1
  S2-  S175  1  0.35591028  0.80819042  0.84982405  1
  S2-  S176  1  0.68322780  0.00508705  0.27819000  1
  S2-  S177  1  0.62439398  -0.10256275  0.84980170  1
  S2-  S178  1  0.62434870  0.17658132  0.35184078  1
  S2-  S179  1  0.64988905  0.33952165  0.84993908  1
  S2-  S180  1  0.72040171  0.50852711  0.36610702  1
  S2-  S181  1  0.64114381  0.54411000  0.80143301  1
  S2-  S182  1  0.62175999  0.82668630  0.35294404  1
  S2-  S183  1  0.53898388  0.72483965  0.81309150  1
  S2-  S184  1  0.81762314  -0.03945144  0.36140688  1
  S2-  S185  1  0.96411526  0.00435223  0.85830778  1
  S2-  S186  1  0.85572564  0.28072455  0.34577840  1
  S2-  S187  1  0.89482832  0.27963750  0.85168948  1
  S2-  S188  1  0.93230899  0.50763313  0.33176216  1
  S2-  S189  1  0.83951082  0.49834270  0.83030339  1
  S2-  S190  1  0.83771326  0.72216883  0.34764013  1
  S2-  S191  1  0.76168685  0.73070554  0.84749068  1
  S2-  S192  1  -0.00334316  0.12820652  0.45244216  1
  S2-  S193  1  -0.01731938  0.12685374  0.95367365  1
  S2-  S194  1  -0.00223283  0.37866600  0.45077041  1
  S2-  S195  1  -0.01325897  0.36879972  0.95416343  1
  S2-  S196  1  -0.00418707  0.63038200  0.45082481  1
  S2-  S197  1  -0.01877335  0.62347063  0.95006348  1
  S2-  S198  1  -0.00206341  0.88046361  0.45884637  1
  S2-  S199  1  -0.02268627  0.86685856  0.95412913  1
  S2-  S200  1  0.24380029  0.13005417  0.45195901  1
  S2-  S201  1  0.23123727  0.12061237  0.96382146  1
  S2-  S202  1  0.24129639  0.38057280  0.45531039  1
  S2-  S203  1  0.23480118  0.37741043  0.95298135  1
  S2-  S204  1  0.24557827  0.62904043  0.45003869  1
  S2-  S205  1  0.23441954  0.62540243  0.94578639  1
  S2-  S206  1  0.24400732  0.87815119  0.45359116  1
  S2-  S207  1  0.23260240  0.86423228  0.96012708  1
  S2-  S208  1  0.49380509  0.12730703  0.45462406  1
  S2-  S209  1  0.48336822  0.12401304  0.96908805  1
  S2-  S210  1  0.50206427  0.38081186  0.45723549  1
  S2-  S211  1  0.48982927  0.37843765  0.95459368  1
  S2-  S212  1  0.49494089  0.62946218  0.45966650  1
  S2-  S213  1  0.48604730  0.62342201  0.94278718  1
  S2-  S214  1  0.49524119  0.88418619  0.45566917  1
  S2-  S215  1  0.48355038  0.86643614  0.95957395  1
  S2-  S216  1  0.74611698  0.12221972  0.45365648  1
  S2-  S217  1  0.73456944  0.12307037  0.94768437  1
  S2-  S218  1  0.74275418  0.37451831  0.46163827  1
  S2-  S219  1  0.73488559  0.37174724  0.95400021  1
  S2-  S220  1  0.74719926  0.63471950  0.46573414  1
  S2-  S221  1  0.72744669  0.60857511  0.94402559  1
  S2-  S222  1  0.74603472  0.88139381  0.46726756  1
  S2-  S223  1  0.73852692  0.87876580  0.94954957  1
  S2-  S224  1  0.10325078  -0.01114037  0.03709798  1
  S2-  S225  1  0.12171629  0.00655510  0.54112152  1
  S2-  S226  1  0.10897316  0.25154137  0.03983546  1
  S2-  S227  1  0.12283938  0.25238561  0.54645984  1
  S2-  S228  1  0.10673233  0.49888461  0.04610744  1
  S2-  S229  1  0.12034112  0.50502053  0.55015205  1
  S2-  S230  1  0.10544547  0.74577707  0.04644425  1
  S2-  S231  1  0.11897507  0.75330300  0.55191477  1
  S2-  S232  1  0.36496354  -0.00989634  0.05077427  1
  S2-  S233  1  0.36952016  0.00236419  0.54962453  1
  S2-  S234  1  0.35731248  0.25464273  0.04429663  1
  S2-  S235  1  0.37059822  0.25448349  0.54696406  1
  S2-  S236  1  0.35972512  0.49851509  0.04068816  1
  S2-  S237  1  0.37276514  0.50284936  0.54222214  1
  S2-  S238  1  0.35554091  0.74572407  0.04820158  1
  S2-  S239  1  0.37105303  0.75736041  0.54214664  1
  S2-  S240  1  0.60583053  -0.00556492  0.04856439  1
  S2-  S241  1  0.62384724  0.00198338  0.55828270  1
  S2-  S242  1  0.60844967  0.24771348  0.03785056  1
  S2-  S243  1  0.62105482  0.25240197  0.54899778  1
  S2-  S244  1  0.60664968  0.49692915  0.05569244  1
  S2-  S245  1  0.62117864  0.50840134  0.55437845  1
  S2-  S246  1  0.61537351  0.74722964  0.02718883  1
  S2-  S247  1  0.62084823  0.74991776  0.55487545  1
  S2-  S248  1  0.85994261  -0.00380010  0.04326323  1
  S2-  S249  1  0.87572400  0.00860825  0.55280443  1
  S2-  S250  1  0.85841992  0.24453734  0.05052073  1
  S2-  S251  1  0.87259588  0.25125843  0.55020121  1
  S2-  S252  1  0.85737491  0.49570756  0.03959368  1
  S2-  S253  1  0.87107412  0.49807907  0.53853929  1
  S2-  S254  1  0.85780244  0.74661543  0.04195690  1
  S2-  S255  1  0.87523215  0.75555659  0.54761210  1
