# generated using pymatgen
data_La6Ce6Pr19Nd20Sm13(BiS2)64
_symmetry_space_group_name_H-M   'P 1'
_cell_length_a   16.11303962
_cell_length_b   16.07708796
_cell_length_c   27.27725609
_cell_angle_alpha   90.03595174
_cell_angle_beta   90.12826559
_cell_angle_gamma   90.12454900
_symmetry_Int_Tables_number   1
_chemical_formula_structural   La6Ce6Pr19Nd20Sm13(BiS2)64
_chemical_formula_sum   'La6 Ce6 Pr19 Nd20 Sm13 Bi64 S128'
_cell_volume   7066.15797705
_cell_formula_units_Z   1
loop_
 _symmetry_equiv_pos_site_id
 _symmetry_equiv_pos_as_xyz
  1  'x, y, z'
loop_
 _atom_type_symbol
 _atom_type_oxidation_number
  La3+  3.0
  Ce3+  3.0
  Pr3+  3.0
  Nd3+  3.0
  Sm3+  3.0
  Bi2+  2.0
  S2-  -2.0
loop_
 _atom_site_type_symbol
 _atom_site_label
 _atom_site_symmetry_multiplicity
 _atom_site_fract_x
 _atom_site_fract_y
 _atom_site_fract_z
 _atom_site_occupancy
  La3+  La0  1  0.11886492  0.22885667  0.89064043  1
  La3+  La1  1  0.25814348  0.36560596  0.59135155  1
  La3+  La2  1  0.61889078  -0.00744568  0.93308925  1
  La3+  La3  1  0.35980792  0.23574252  0.41604689  1
  La3+  La4  1  0.36650586  -0.00810453  0.93138474  1
  La3+  La5  1  0.86312976  0.75517472  0.38449343  1
  Ce3+  Ce6  1  0.49218413  0.87037144  0.06656282  1
  Ce3+  Ce7  1  0.49737692  0.61329122  0.55863487  1
  Ce3+  Ce8  1  0.62943322  -0.01509535  0.44789101  1
  Ce3+  Ce9  1  0.62179450  0.23627682  0.44027580  1
  Ce3+  Ce10  1  0.49406875  0.60590676  0.07260146  1
  Ce3+  Ce11  1  0.11618078  0.74125888  0.95266994  1
  Pr3+  Pr12  1  0.11530544  0.49526823  0.91709449  1
  Pr3+  Pr13  1  0.24279353  0.36780088  0.05038423  1
  Pr3+  Pr14  1  -0.00819933  0.12022346  0.06013412  1
  Pr3+  Pr15  1  0.49938389  0.10951993  0.55925651  1
  Pr3+  Pr16  1  0.76019841  0.85637344  0.58743615  1
  Pr3+  Pr17  1  0.86893673  0.24323279  0.92466125  1
  Pr3+  Pr18  1  -0.01119329  0.37937399  0.59019020  1
  Pr3+  Pr19  1  0.61616925  0.74035959  0.94164614  1
  Pr3+  Pr20  1  0.87594375  -0.00618191  0.43533585  1
  Pr3+  Pr21  1  0.87140293  0.49365131  0.92687438  1
  Pr3+  Pr22  1  0.49480024  0.36221546  0.55551794  1
  Pr3+  Pr23  1  0.75222604  0.61096301  0.56247903  1
  Pr3+  Pr24  1  -0.00499139  0.86806365  0.07221521  1
  Pr3+  Pr25  1  0.75130608  0.11187971  0.56436667  1
  Pr3+  Pr26  1  0.37157924  0.48890113  0.43035722  1
  Pr3+  Pr27  1  0.37348436  -0.01324618  0.43573650  1
  Pr3+  Pr28  1  0.12256844  -0.01073955  0.44683560  1
  Pr3+  Pr29  1  -0.00179024  0.11530980  0.57218878  1
  Pr3+  Pr30  1  0.24527795  0.61442595  0.06215930  1
  Nd3+  Nd31  1  0.24685057  0.86657195  0.06648028  1
  Nd3+  Nd32  1  0.62009029  0.48985810  0.43031923  1
  Nd3+  Nd33  1  -0.01534514  0.60613374  0.07484692  1
  Nd3+  Nd34  1  0.37464842  0.74276635  0.43757699  1
  Nd3+  Nd35  1  0.12964631  0.48185461  0.44124790  1
  Nd3+  Nd36  1  0.74337906  0.11816086  0.05653322  1
  Nd3+  Nd37  1  -0.00451139  0.36704421  0.04782520  1
  Nd3+  Nd38  1  0.48414247  0.11802312  0.07434073  1
  Nd3+  Nd39  1  0.74047112  0.86958782  0.06353921  1
  Nd3+  Nd40  1  0.87066557  0.74248128  0.94502380  1
  Nd3+  Nd41  1  0.63262413  0.73892974  0.44706907  1
  Nd3+  Nd42  1  -0.00032413  0.85827911  0.56090908  1
  Nd3+  Nd43  1  0.61696958  0.24287827  0.94008833  1
  Nd3+  Nd44  1  0.87116423  -0.00967700  0.93768129  1
  Nd3+  Nd45  1  0.25312659  0.11082005  0.57218514  1
  Nd3+  Nd46  1  0.74775598  0.36593560  0.55350171  1
  Nd3+  Nd47  1  0.36992373  0.24192359  0.92835649  1
  Nd3+  Nd48  1  0.73785864  0.61550931  0.06300815  1
  Nd3+  Nd49  1  0.86980187  0.49131696  0.42415714  1
  Nd3+  Nd50  1  0.88025902  0.24045227  0.44254141  1
  Sm3+  Sm51  1  0.24502098  0.12027646  0.05576161  1
  Sm3+  Sm52  1  0.36490390  0.48742075  0.93008190  1
  Sm3+  Sm53  1  0.49375384  0.36120605  0.06372039  1
  Sm3+  Sm54  1  0.36827615  0.74458316  0.94073499  1
  Sm3+  Sm55  1  0.50038355  0.86050857  0.56505572  1
  Sm3+  Sm56  1  0.11806430  0.73957275  0.43122895  1
  Sm3+  Sm57  1  0.12750726  0.24266183  0.45954053  1
  Sm3+  Sm58  1  0.11719980  -0.00659512  0.94807010  1
  Sm3+  Sm59  1  0.61500695  0.49364314  0.94153155  1
  Sm3+  Sm60  1  0.24815153  0.61443323  0.55442888  1
  Sm3+  Sm61  1  0.24883665  0.86547185  0.56395394  1
  Sm3+  Sm62  1  0.74493857  0.36726253  0.05126514  1
  Sm3+  Sm63  1  0.00046686  0.61180484  0.54794821  1
  Bi2+  Bi64  1  -0.00243032  0.13390129  0.29639972  1
  Bi2+  Bi65  1  -0.04672498  0.09698881  0.77944200  1
  Bi2+  Bi66  1  -0.00613573  0.34844835  0.34672875  1
  Bi2+  Bi67  1  -0.01930746  0.43100101  0.77941475  1
  Bi2+  Bi68  1  0.08856131  0.51129307  0.30917288  1
  Bi2+  Bi69  1  0.01914917  0.68331662  0.74211978  1
  Bi2+  Bi70  1  0.01622397  0.91251123  0.28651181  1
  Bi2+  Bi71  1  -0.01222274  0.86454778  0.79347876  1
  Bi2+  Bi72  1  0.26747164  0.17462966  0.28901341  1
  Bi2+  Bi73  1  0.23544157  0.05747798  0.78808730  1
  Bi2+  Bi74  1  0.31387597  0.43655155  0.27172383  1
  Bi2+  Bi75  1  0.25921394  0.39532508  0.78755906  1
  Bi2+  Bi76  1  0.31949719  0.66873927  0.31448829  1
  Bi2+  Bi77  1  0.20633291  0.65594214  0.78991373  1
  Bi2+  Bi78  1  0.25265813  0.85150934  0.29630449  1
  Bi2+  Bi79  1  0.23533837  0.85994853  0.80292964  1
  Bi2+  Bi80  1  0.52987058  0.11543816  0.30063127  1
  Bi2+  Bi81  1  0.49018966  0.11942741  0.78708625  1
  Bi2+  Bi82  1  0.59261521  0.40622141  0.28688510  1
  Bi2+  Bi83  1  0.52444312  0.38961034  0.79460878  1
  Bi2+  Bi84  1  0.50385798  0.62698893  0.28752532  1
  Bi2+  Bi85  1  0.40337463  0.63169576  0.80076700  1
  Bi2+  Bi86  1  0.47601867  0.88846124  0.27078747  1
  Bi2+  Bi87  1  0.48505036  0.80335760  0.78144965  1
  Bi2+  Bi88  1  0.80186853  0.17715774  0.27149452  1
  Bi2+  Bi89  1  0.74735143  0.18007406  0.80976800  1
  Bi2+  Bi90  1  0.84117594  0.37068969  0.27628276  1
  Bi2+  Bi91  1  0.80275715  0.37489078  0.81832655  1
  Bi2+  Bi92  1  0.74165680  0.60917004  0.29188416  1
  Bi2+  Bi93  1  0.73281044  0.55719166  0.78856635  1
  Bi2+  Bi94  1  0.72593717  0.88104818  0.28869471  1
  Bi2+  Bi95  1  0.72600986  0.88817096  0.80969570  1
  Bi2+  Bi96  1  0.17565208  -0.00584560  0.23072178  1
  Bi2+  Bi97  1  0.11819864  -0.06702175  0.71673614  1
  Bi2+  Bi98  1  0.10597553  0.27722444  0.25461214  1
  Bi2+  Bi99  1  0.12012631  0.22987429  0.71026187  1
  Bi2+  Bi100  1  0.15345263  0.46160404  0.19868485  1
  Bi2+  Bi101  1  0.14222138  0.54672576  0.69447395  1
  Bi2+  Bi102  1  0.13775687  0.69393428  0.27643204  1
  Bi2+  Bi103  1  0.13805307  0.76537317  0.65883946  1
  Bi2+  Bi104  1  0.36705841  0.01597026  0.20537334  1
  Bi2+  Bi105  1  0.37236900  -0.02486455  0.71292848  1
  Bi2+  Bi106  1  0.40807216  0.32856267  0.20081532  1
  Bi2+  Bi107  1  0.40027368  0.24465497  0.71317457  1
  Bi2+  Bi108  1  0.38857026  0.59911595  0.19567893  1
  Bi2+  Bi109  1  0.42411097  0.52341951  0.70578384  1
  Bi2+  Bi110  1  0.35879544  0.81124530  0.18148505  1
  Bi2+  Bi111  1  0.32279960  0.76157862  0.71250625  1
  Bi2+  Bi112  1  0.61453075  0.01317972  0.22058123  1
  Bi2+  Bi113  1  0.59894870  0.02249274  0.70848815  1
  Bi2+  Bi114  1  0.64810515  0.26223394  0.21620253  1
  Bi2+  Bi115  1  0.60084437  0.31440229  0.70210078  1
  Bi2+  Bi116  1  0.68603841  0.49433328  0.20185688  1
  Bi2+  Bi117  1  0.64265570  0.50242669  0.68472370  1
  Bi2+  Bi118  1  0.54570456  0.74955894  0.20005732  1
  Bi2+  Bi119  1  0.62220715  0.68719567  0.72519104  1
  Bi2+  Bi120  1  0.85688666  -0.00444339  0.18884566  1
  Bi2+  Bi121  1  0.84812989  0.01722271  0.69942411  1
  Bi2+  Bi122  1  0.93481048  0.25383660  0.19506253  1
  Bi2+  Bi123  1  0.79462780  0.27267714  0.71753125  1
  Bi2+  Bi124  1  0.94275982  0.52146838  0.22041297  1
  Bi2+  Bi125  1  0.84181916  0.53478146  0.69397438  1
  Bi2+  Bi126  1  0.86580367  0.73964585  0.17916208  1
  Bi2+  Bi127  1  0.85476770  0.77392548  0.72224824  1
  S2-  S128  1  -0.02018247  0.09048388  0.15924558  1
  S2-  S129  1  0.00181644  0.11059427  0.67385430  1
  S2-  S130  1  -0.01151219  0.40533068  0.14586403  1
  S2-  S131  1  -0.00027176  0.32689496  0.69046804  1
  S2-  S132  1  0.01413037  0.65181404  0.17166552  1
  S2-  S133  1  -0.01410307  0.54041644  0.63815682  1
  S2-  S134  1  -0.02640525  0.87281041  0.17270439  1
  S2-  S135  1  -0.08896465  0.88333048  0.64638959  1
  S2-  S136  1  0.33450719  0.13075000  0.13890420  1
  S2-  S137  1  0.26240423  0.20918246  0.65440567  1
  S2-  S138  1  0.25725196  0.35582468  0.15206646  1
  S2-  S139  1  0.19222359  0.38767303  0.68853387  1
  S2-  S140  1  0.22797161  0.60425802  0.16256775  1
  S2-  S141  1  0.28901161  0.55805314  0.64407001  1
  S2-  S142  1  0.19563943  0.86810872  0.16174237  1
  S2-  S143  1  0.25668120  0.97850561  0.64301405  1
  S2-  S144  1  0.51641433  0.24698534  0.14439883  1
  S2-  S145  1  0.47338292  0.11981042  0.65853008  1
  S2-  S146  1  0.46841628  0.46289731  0.14274954  1
  S2-  S147  1  0.41285731  0.37661093  0.64506832  1
  S2-  S148  1  0.62129250  0.62299083  0.14178431  1
  S2-  S149  1  0.50417561  0.65741368  0.65402551  1
  S2-  S150  1  0.50996830  0.98538197  0.14198429  1
  S2-  S151  1  0.49902298  0.90042984  0.66089613  1
  S2-  S152  1  0.73141025  0.09584912  0.15443274  1
  S2-  S153  1  0.72640137  0.12443500  0.66388158  1
  S2-  S154  1  0.73397034  0.35407747  0.14993236  1
  S2-  S155  1  0.82712446  0.38574196  0.64063443  1
  S2-  S156  1  0.83623005  0.57638779  0.14290096  1
  S2-  S157  1  0.75444606  0.70817115  0.64985576  1
  S2-  S158  1  0.73994101  0.86109025  0.16277175  1
  S2-  S159  1  0.71063018  0.91392342  0.68384438  1
  S2-  S160  1  0.09964396  0.00873223  0.34678561  1
  S2-  S161  1  0.11004887  0.05055068  0.85512167  1
  S2-  S162  1  0.19226889  0.23310587  0.36786378  1
  S2-  S163  1  0.21380257  0.22754486  0.80166490  1
  S2-  S164  1  0.24048361  0.46972720  0.36124338  1
  S2-  S165  1  0.10999978  0.38358177  0.83457467  1
  S2-  S166  1  0.03283140  0.76619757  0.34571534  1
  S2-  S167  1  0.10226700  0.77291943  0.85702207  1
  S2-  S168  1  0.37279869  0.09232816  0.35273204  1
  S2-  S169  1  0.37348337  0.11198691  0.85667316  1
  S2-  S170  1  0.38252526  0.30021944  0.31541955  1
  S2-  S171  1  0.38580479  0.36437546  0.85510025  1
  S2-  S172  1  0.49632533  0.49311491  0.35511620  1
  S2-  S173  1  0.25531020  0.52631934  0.85344994  1
  S2-  S174  1  0.38764025  0.86136341  0.36278032  1
  S2-  S175  1  0.38026015  0.85588114  0.86173424  1
  S2-  S176  1  0.63442813  -0.00194236  0.34946087  1
  S2-  S177  1  0.59288529  -0.00877728  0.83287367  1
  S2-  S178  1  0.61123722  0.24420576  0.34174373  1
  S2-  S179  1  0.58999443  0.23639346  0.84164823  1
  S2-  S180  1  0.72538459  0.46438565  0.35035766  1
  S2-  S181  1  0.58434431  0.51881600  0.84606865  1
  S2-  S182  1  0.68709958  0.74755633  0.35182660  1
  S2-  S183  1  0.62889621  0.77108772  0.84243922  1
  S2-  S184  1  0.86447997  -0.08048095  0.34177023  1
  S2-  S185  1  0.82555965  0.02350352  0.84247421  1
  S2-  S186  1  0.87056362  0.13050553  0.36424907  1
  S2-  S187  1  0.96491173  0.22265001  0.83881701  1
  S2-  S188  1  0.88298468  0.59404935  0.34279888  1
  S2-  S189  1  0.97886590  0.54374258  0.85171715  1
  S2-  S190  1  0.83754025  0.75261074  0.27285596  1
  S2-  S191  1  0.85670733  0.79351351  0.85048992  1
  S2-  S192  1  0.00421993  0.11809507  0.46453992  1
  S2-  S193  1  -0.00708224  0.11782828  0.95398441  1
  S2-  S194  1  0.00206704  0.36447328  0.46350823  1
  S2-  S195  1  -0.00507878  0.36499501  0.94393883  1
  S2-  S196  1  0.00741631  0.60821399  0.44644042  1
  S2-  S197  1  -0.00782518  0.61892983  0.96463332  1
  S2-  S198  1  -0.00288965  0.86293229  0.45504543  1
  S2-  S199  1  -0.00655380  0.86995729  0.96296455  1
  S2-  S200  1  0.24714069  0.11114585  0.46551224  1
  S2-  S201  1  0.23577917  0.12205839  0.95294320  1
  S2-  S202  1  0.25443985  0.35923506  0.46621900  1
  S2-  S203  1  0.23539135  0.36259402  0.94495753  1
  S2-  S204  1  0.24676581  0.62111625  0.45098441  1
  S2-  S205  1  0.24518327  0.62257039  0.95572781  1
  S2-  S206  1  0.24351123  0.86068610  0.45836746  1
  S2-  S207  1  0.23950152  0.86792741  0.95952031  1
  S2-  S208  1  0.50104160  0.11041658  0.45388439  1
  S2-  S209  1  0.49592393  0.11765666  0.95796452  1
  S2-  S210  1  0.49520119  0.35760766  0.44938367  1
  S2-  S211  1  0.49658186  0.36922546  0.95715887  1
  S2-  S212  1  0.49873338  0.62089344  0.45250444  1
  S2-  S213  1  0.48834190  0.61648747  0.95483137  1
  S2-  S214  1  0.50557370  0.86180530  0.46054613  1
  S2-  S215  1  0.49540043  0.86683289  0.95928359  1
  S2-  S216  1  0.74773887  0.11615109  0.45915787  1
  S2-  S217  1  0.74571891  0.11900000  0.95049961  1
  S2-  S218  1  0.75023069  0.35933613  0.44997310  1
  S2-  S219  1  0.74085141  0.36973190  0.94697241  1
  S2-  S220  1  0.74845412  0.61054290  0.45431071  1
  S2-  S221  1  0.74338845  0.61658773  0.95143483  1
  S2-  S222  1  0.75575026  0.86338653  0.45641132  1
  S2-  S223  1  0.74428904  0.86714353  0.95638699  1
  S2-  S224  1  0.12113276  -0.00543809  0.05345837  1
  S2-  S225  1  0.11999813  -0.01220097  0.55265540  1
  S2-  S226  1  0.11929765  0.24082567  0.05740547  1
  S2-  S227  1  0.11875311  0.24633502  0.56296540  1
  S2-  S228  1  0.11669312  0.49456716  0.04332536  1
  S2-  S229  1  0.12852083  0.48747087  0.54781321  1
  S2-  S230  1  0.11683347  0.73981321  0.05814259  1
  S2-  S231  1  0.12483592  0.73707452  0.53702861  1
  S2-  S232  1  0.36469082  -0.00893466  0.04094226  1
  S2-  S233  1  0.37747473  -0.01867219  0.54364558  1
  S2-  S234  1  0.36839851  0.24466709  0.03578103  1
  S2-  S235  1  0.37560448  0.23280057  0.54596927  1
  S2-  S236  1  0.36777189  0.49076971  0.03606302  1
  S2-  S237  1  0.37483358  0.49311175  0.53746152  1
  S2-  S238  1  0.37197475  0.74000027  0.04653489  1
  S2-  S239  1  0.37131479  0.74180805  0.54721948  1
  S2-  S240  1  0.62076900  -0.00545921  0.04188879  1
  S2-  S241  1  0.62869430  -0.01860479  0.55505329  1
  S2-  S242  1  0.62230322  0.24258442  0.04384942  1
  S2-  S243  1  0.62438147  0.23846072  0.54907089  1
  S2-  S244  1  0.61934170  0.48541664  0.04440733  1
  S2-  S245  1  0.62200269  0.48879536  0.54038119  1
  S2-  S246  1  0.61589962  0.74520075  0.04662639  1
  S2-  S247  1  0.62571701  0.74064138  0.55192970  1
  S2-  S248  1  0.86829067  -0.00886790  0.04585437  1
  S2-  S249  1  0.87514716  -0.01039302  0.54572911  1
  S2-  S250  1  0.86748648  0.24432287  0.03897214  1
  S2-  S251  1  0.87531036  0.24098189  0.55070949  1
  S2-  S252  1  0.86569987  0.48762125  0.03436188  1
  S2-  S253  1  0.87380839  0.49012754  0.53350384  1
  S2-  S254  1  0.86716710  0.74266855  0.05171640  1
  S2-  S255  1  0.88004026  0.73239791  0.55043402  1
