# generated using pymatgen
data_La6Ce6Pr19Nd20Sm13(BiS2)64
_symmetry_space_group_name_H-M   'P 1'
_cell_length_a   16.14972539
_cell_length_b   16.16829678
_cell_length_c   27.24149234
_cell_angle_alpha   89.98164202
_cell_angle_beta   90.12842020
_cell_angle_gamma   90.00022788
_symmetry_Int_Tables_number   1
_chemical_formula_structural   La6Ce6Pr19Nd20Sm13(BiS2)64
_chemical_formula_sum   'La6 Ce6 Pr19 Nd20 Sm13 Bi64 S128'
_cell_volume   7113.10462022
_cell_formula_units_Z   1
loop_
 _symmetry_equiv_pos_site_id
 _symmetry_equiv_pos_as_xyz
  1  'x, y, z'
loop_
 _atom_type_symbol
 _atom_type_oxidation_number
  La3+  3.0
  Ce3+  3.0
  Pr3+  3.0
  Nd3+  3.0
  Sm3+  3.0
  Bi2+  2.0
  S2-  -2.0
loop_
 _atom_site_type_symbol
 _atom_site_label
 _atom_site_symmetry_multiplicity
 _atom_site_fract_x
 _atom_site_fract_y
 _atom_site_fract_z
 _atom_site_occupancy
  La3+  La0  1  0.48128522  0.62248276  0.11045848  1
  La3+  La1  1  0.00232760  0.36696960  0.07696729  1
  La3+  La2  1  0.51562880  0.37241139  0.07378874  1
  La3+  La3  1  0.61719490  0.49745419  0.91916196  1
  La3+  La4  1  0.11637850  0.51587132  0.42532411  1
  La3+  La5  1  0.01601030  0.38119078  0.59502518  1
  Ce3+  Ce6  1  0.62998769  0.26848904  0.44017083  1
  Ce3+  Ce7  1  0.25460109  0.12380989  0.06015296  1
  Ce3+  Ce8  1  0.76009432  0.63732421  0.57362843  1
  Ce3+  Ce9  1  0.38023853  0.49762243  0.94837556  1
  Ce3+  Ce10  1  0.12362534  0.49475217  0.93811693  1
  Ce3+  Ce11  1  0.38363766  0.01273787  0.43958952  1
  Pr3+  Pr12  1  0.62338831  0.74681798  0.93342770  1
  Pr3+  Pr13  1  0.88278412  0.50482040  0.90230355  1
  Pr3+  Pr14  1  0.74447059  0.61996439  0.05375361  1
  Pr3+  Pr15  1  0.39196658  0.77221990  0.42137971  1
  Pr3+  Pr16  1  0.12867000  0.76410083  0.42867035  1
  Pr3+  Pr17  1  -0.00155231  0.62080920  0.05731952  1
  Pr3+  Pr18  1  0.00615196  0.13608026  0.56166961  1
  Pr3+  Pr19  1  0.88270187  0.01494892  0.43804133  1
  Pr3+  Pr20  1  0.24458412  0.62006981  0.05975323  1
  Pr3+  Pr21  1  0.25300142  0.39342992  0.55751590  1
  Pr3+  Pr22  1  0.75723899  0.88987068  0.56212415  1
  Pr3+  Pr23  1  0.37728163  -0.00137102  0.94873237  1
  Pr3+  Pr24  1  0.00173147  0.86939805  0.06513227  1
  Pr3+  Pr25  1  0.50679148  0.12642909  0.06550583  1
  Pr3+  Pr26  1  0.63346396  0.76203230  0.44658553  1
  Pr3+  Pr27  1  0.12840029  -0.00167957  0.94536484  1
  Pr3+  Pr28  1  0.38192555  0.51401487  0.43011774  1
  Pr3+  Pr29  1  0.88067769  -0.00114485  0.93415257  1
  Pr3+  Pr30  1  0.62561397  0.25009159  0.92537150  1
  Nd3+  Nd31  1  0.25717493  0.86934657  0.05951104  1
  Nd3+  Nd32  1  0.12249640  0.74686194  0.93706304  1
  Nd3+  Nd33  1  0.88339087  0.26668911  0.44579175  1
  Nd3+  Nd34  1  0.75787520  0.87176411  0.06244034  1
  Nd3+  Nd35  1  0.38183294  0.74541480  0.93865937  1
  Nd3+  Nd36  1  0.25804817  0.13909478  0.55328372  1
  Nd3+  Nd37  1  0.50538631  0.88678797  0.57091824  1
  Nd3+  Nd38  1  0.75256433  0.37385077  0.04735573  1
  Nd3+  Nd39  1  0.88215683  0.76220432  0.45085547  1
  Nd3+  Nd40  1  0.86602673  0.75313740  0.92079170  1
  Nd3+  Nd41  1  0.75694840  0.12513337  0.04689996  1
  Nd3+  Nd42  1  0.13170329  0.26968429  0.43325185  1
  Nd3+  Nd43  1  0.75583655  0.38886728  0.56479492  1
  Nd3+  Nd44  1  0.02379579  0.64284460  0.58373157  1
  Nd3+  Nd45  1  0.50699584  0.14142457  0.55560451  1
  Nd3+  Nd46  1  0.51609692  0.87243095  0.06852659  1
  Nd3+  Nd47  1  0.37761309  0.25004498  0.94220300  1
  Nd3+  Nd48  1  0.25805999  0.88669761  0.55028590  1
  Nd3+  Nd49  1  0.63164334  0.51419043  0.44661809  1
  Nd3+  Nd50  1  0.50164399  0.64394053  0.56685818  1
  Sm3+  Sm51  1  0.00575749  0.12408438  0.05674098  1
  Sm3+  Sm52  1  0.87953100  0.25426741  0.93537621  1
  Sm3+  Sm53  1  0.25423493  0.37088829  0.06486543  1
  Sm3+  Sm54  1  0.50336711  0.40094808  0.56723639  1
  Sm3+  Sm55  1  0.38198256  0.26596158  0.44641555  1
  Sm3+  Sm56  1  0.62625092  -0.00064502  0.94300198  1
  Sm3+  Sm57  1  0.12542464  0.25269327  0.94124984  1
  Sm3+  Sm58  1  0.13057637  0.01505250  0.44502634  1
  Sm3+  Sm59  1  0.00729902  0.88695164  0.56269378  1
  Sm3+  Sm60  1  0.75554589  0.14154509  0.55338792  1
  Sm3+  Sm61  1  0.88615880  0.51342908  0.45884960  1
  Sm3+  Sm62  1  0.63058143  0.01384951  0.44373212  1
  Sm3+  Sm63  1  0.25370415  0.63996133  0.54609828  1
  Bi2+  Bi64  1  -0.05790977  0.11462994  0.28834988  1
  Bi2+  Bi65  1  -0.02837104  0.08703163  0.77787643  1
  Bi2+  Bi66  1  0.00483421  0.36626855  0.30957864  1
  Bi2+  Bi67  1  -0.00471832  0.35389132  0.79600816  1
  Bi2+  Bi68  1  -0.03956747  0.61667401  0.29181099  1
  Bi2+  Bi69  1  0.01179906  0.62105182  0.77980112  1
  Bi2+  Bi70  1  0.07405837  0.86099012  0.29854708  1
  Bi2+  Bi71  1  0.04028452  0.87078935  0.79362017  1
  Bi2+  Bi72  1  0.24491693  0.07300794  0.27947560  1
  Bi2+  Bi73  1  0.24358020  0.07390216  0.79803866  1
  Bi2+  Bi74  1  0.23369793  0.29910814  0.28849299  1
  Bi2+  Bi75  1  0.24490237  0.39267448  0.79898654  1
  Bi2+  Bi76  1  0.19024887  0.68244539  0.27354986  1
  Bi2+  Bi77  1  0.27953049  0.59069587  0.78645603  1
  Bi2+  Bi78  1  0.26767980  0.86876941  0.29725546  1
  Bi2+  Bi79  1  0.28778876  0.86801648  0.79272323  1
  Bi2+  Bi80  1  0.49986077  0.08532529  0.28875790  1
  Bi2+  Bi81  1  0.51996626  0.17891045  0.79991832  1
  Bi2+  Bi82  1  0.50012089  0.36530187  0.30918319  1
  Bi2+  Bi83  1  0.47075554  0.37062976  0.79132608  1
  Bi2+  Bi84  1  0.49228740  0.61922578  0.31985318  1
  Bi2+  Bi85  1  0.48616951  0.63308586  0.79330661  1
  Bi2+  Bi86  1  0.53114997  0.89239278  0.28976465  1
  Bi2+  Bi87  1  0.49634055  0.89507894  0.79134836  1
  Bi2+  Bi88  1  0.74278404  0.08432949  0.24297335  1
  Bi2+  Bi89  1  0.69687374  0.09496177  0.78230424  1
  Bi2+  Bi90  1  0.75385115  0.34877788  0.28533516  1
  Bi2+  Bi91  1  0.75347950  0.28240046  0.79906740  1
  Bi2+  Bi92  1  0.74751767  0.64926606  0.29934463  1
  Bi2+  Bi93  1  0.74349435  0.67179652  0.77596905  1
  Bi2+  Bi94  1  0.80652617  0.85119250  0.28290555  1
  Bi2+  Bi95  1  0.77108919  0.91162127  0.78845997  1
  Bi2+  Bi96  1  0.08386162  0.03901462  0.21481111  1
  Bi2+  Bi97  1  0.12932278  -0.01173958  0.71121575  1
  Bi2+  Bi98  1  0.11134296  0.23918142  0.20682210  1
  Bi2+  Bi99  1  0.13211490  0.18556007  0.72632954  1
  Bi2+  Bi100  1  0.12593272  0.50049619  0.21150988  1
  Bi2+  Bi101  1  0.13990828  0.51113007  0.70995990  1
  Bi2+  Bi102  1  0.07707954  0.77898903  0.19660066  1
  Bi2+  Bi103  1  0.16266871  0.75941013  0.70566332  1
  Bi2+  Bi104  1  0.37751889  -0.00158594  0.20431133  1
  Bi2+  Bi105  1  0.36798989  -0.03114331  0.70243682  1
  Bi2+  Bi106  1  0.37914448  0.19403120  0.21841730  1
  Bi2+  Bi107  1  0.36778390  0.17012912  0.72459762  1
  Bi2+  Bi108  1  0.35704136  0.50047103  0.22116515  1
  Bi2+  Bi109  1  0.34901723  0.45691870  0.71148268  1
  Bi2+  Bi110  1  0.35203253  0.76335086  0.20655978  1
  Bi2+  Bi111  1  0.36057720  0.73588850  0.71781131  1
  Bi2+  Bi112  1  0.57028257  0.01647128  0.18745117  1
  Bi2+  Bi113  1  0.56215258  -0.01916442  0.69124133  1
  Bi2+  Bi114  1  0.63958847  0.25109218  0.20591554  1
  Bi2+  Bi115  1  0.62267793  0.23915154  0.70145533  1
  Bi2+  Bi116  1  0.63200782  0.49551678  0.20756244  1
  Bi2+  Bi117  1  0.60338919  0.48948235  0.69830460  1
  Bi2+  Bi118  1  0.67897459  0.75986275  0.21541855  1
  Bi2+  Bi119  1  0.61037983  0.80127728  0.71367212  1
  Bi2+  Bi120  1  0.89966981  -0.02434887  0.20600935  1
  Bi2+  Bi121  1  0.94525344  0.00508093  0.67135031  1
  Bi2+  Bi122  1  0.85927714  0.24073033  0.21206923  1
  Bi2+  Bi123  1  0.87915635  0.19776021  0.69903915  1
  Bi2+  Bi124  1  0.82709303  0.50857977  0.22879799  1
  Bi2+  Bi125  1  0.84241206  0.49091308  0.71263628  1
  Bi2+  Bi126  1  0.86632951  0.69912366  0.19740553  1
  Bi2+  Bi127  1  0.89970580  0.82608832  0.71498393  1
  S2-  S128  1  -0.00991210  0.21366884  0.13991750  1
  S2-  S129  1  0.03121616  0.22137030  0.64666104  1
  S2-  S130  1  0.00961508  0.41366237  0.17671346  1
  S2-  S131  1  -0.05673457  0.37446457  0.69284641  1
  S2-  S132  1  0.09015170  0.62560579  0.14415290  1
  S2-  S133  1  -0.02510812  0.58100872  0.67702309  1
  S2-  S134  1  -0.11883253  0.85133672  0.13670585  1
  S2-  S135  1  0.02749786  0.78910418  0.64310452  1
  S2-  S136  1  0.24583403  0.18826018  0.14982518  1
  S2-  S137  1  0.25140123  0.14663391  0.65203781  1
  S2-  S138  1  0.24238685  0.40925970  0.16200414  1
  S2-  S139  1  0.16990979  0.38976601  0.64590511  1
  S2-  S140  1  0.31614095  0.62288152  0.15094734  1
  S2-  S141  1  0.18419742  0.63457839  0.63674275  1
  S2-  S142  1  0.22149636  0.85219458  0.15594654  1
  S2-  S143  1  0.26568895  0.86332750  0.64810974  1
  S2-  S144  1  0.50442345  0.23409942  0.14516066  1
  S2-  S145  1  0.50333374  0.13694053  0.65430557  1
  S2-  S146  1  0.47883231  0.45909666  0.16142483  1
  S2-  S147  1  0.52262269  0.34766023  0.66063337  1
  S2-  S148  1  0.47001512  0.63268140  0.22630745  1
  S2-  S149  1  0.47676437  0.53636119  0.64505857  1
  S2-  S150  1  0.47598626  0.78784385  0.15032561  1
  S2-  S151  1  0.48569386  0.76367070  0.64162453  1
  S2-  S152  1  0.75222921  0.14811550  0.14516647  1
  S2-  S153  1  0.74932825  0.13814870  0.65131907  1
  S2-  S154  1  0.67529478  0.37408866  0.13762610  1
  S2-  S155  1  0.73058495  0.38649585  0.66357278  1
  S2-  S156  1  0.65097176  0.61643198  0.14237754  1
  S2-  S157  1  0.72332735  0.61093393  0.67027985  1
  S2-  S158  1  0.65583981  0.88648162  0.14468235  1
  S2-  S159  1  0.75214824  0.85851442  0.66091804  1
  S2-  S160  1  0.12586006  0.00247895  0.34803119  1
  S2-  S161  1  0.09450231  0.01850549  0.84823223  1
  S2-  S162  1  0.10080426  0.22934362  0.33718398  1
  S2-  S163  1  0.12066973  0.28708197  0.84454186  1
  S2-  S164  1  0.14983596  0.42448908  0.33822097  1
  S2-  S165  1  0.03997317  0.49480931  0.85027152  1
  S2-  S166  1  0.10051990  0.64818288  0.35550734  1
  S2-  S167  1  0.10448447  0.73390120  0.83836314  1
  S2-  S168  1  0.39659547  -0.07894386  0.35748171  1
  S2-  S169  1  0.37727518  -0.00756296  0.84887920  1
  S2-  S170  1  0.38169004  0.27039097  0.34862989  1
  S2-  S171  1  0.35346337  0.27842854  0.84459815  1
  S2-  S172  1  0.37544832  0.48759292  0.32882749  1
  S2-  S173  1  0.45233785  0.50076395  0.85964172  1
  S2-  S174  1  0.33981428  0.70351850  0.33272383  1
  S2-  S175  1  0.49277241  0.75407191  0.86015787  1
  S2-  S176  1  0.62528200  0.00242292  0.34611000  1
  S2-  S177  1  0.62803631  -0.02745455  0.84669850  1
  S2-  S178  1  0.61894053  0.26690508  0.34195397  1
  S2-  S179  1  0.62389105  0.36095495  0.84736969  1
  S2-  S180  1  0.60184440  0.49366637  0.34936812  1
  S2-  S181  1  0.64338960  0.57893863  0.82479151  1
  S2-  S182  1  0.54997154  0.76766336  0.35899572  1
  S2-  S183  1  0.72603808  0.77559857  0.85063489  1
  S2-  S184  1  0.87828593  -0.01448755  0.34006767  1
  S2-  S185  1  0.89522106  -0.10702716  0.85516816  1
  S2-  S186  1  0.87203640  0.26623196  0.34648953  1
  S2-  S187  1  0.90988555  0.21937574  0.84053535  1
  S2-  S188  1  0.94446212  0.49636900  0.36614001  1
  S2-  S189  1  0.83621986  0.43125671  0.81211732  1
  S2-  S190  1  0.87807609  0.74005154  0.35205805  1
  S2-  S191  1  0.88612687  0.64653940  0.83770807  1
  S2-  S192  1  0.00796110  0.13916200  0.45335249  1
  S2-  S193  1  0.00368096  0.12756971  0.95274019  1
  S2-  S194  1  0.00618866  0.38453784  0.46312358  1
  S2-  S195  1  -0.00101963  0.37314954  0.95759935  1
  S2-  S196  1  0.00200031  0.64123878  0.46718479  1
  S2-  S197  1  0.00008007  0.62181778  0.95122013  1
  S2-  S198  1  0.00694730  0.88953809  0.45581129  1
  S2-  S199  1  0.00482273  0.87334243  0.95818454  1
  S2-  S200  1  0.25695733  0.13919851  0.44666866  1
  S2-  S201  1  0.24990344  0.12743008  0.95243609  1
  S2-  S202  1  0.25857551  0.38893681  0.45050409  1
  S2-  S203  1  0.25106963  0.37281326  0.95691845  1
  S2-  S204  1  0.25619087  0.63868970  0.44442041  1
  S2-  S205  1  0.25093445  0.62335657  0.94898045  1
  S2-  S206  1  0.25256282  0.89031191  0.44612994  1
  S2-  S207  1  0.25234826  0.86995576  0.95159549  1
  S2-  S208  1  0.50656940  0.13960862  0.44904864  1
  S2-  S209  1  0.50268997  0.12380614  0.95352800  1
  S2-  S210  1  0.50417290  0.39017922  0.45943194  1
  S2-  S211  1  0.50068743  0.36822024  0.95827728  1
  S2-  S212  1  0.50645593  0.63675697  0.45842370  1
  S2-  S213  1  0.50066247  0.62275582  0.95682951  1
  S2-  S214  1  0.51198445  0.89222384  0.46461766  1
  S2-  S215  1  0.50324900  0.87835146  0.96048431  1
  S2-  S216  1  0.75455811  0.13955927  0.44807699  1
  S2-  S217  1  0.75410294  0.12474563  0.94063476  1
  S2-  S218  1  0.75881219  0.39168783  0.45657121  1
  S2-  S219  1  0.76091478  0.37740285  0.94287400  1
  S2-  S220  1  0.75938603  0.63535987  0.46299453  1
  S2-  S221  1  0.75455241  0.61724583  0.94613599  1
  S2-  S222  1  0.75591889  0.89046833  0.45345758  1
  S2-  S223  1  0.75180966  0.88270670  0.95696458  1
  S2-  S224  1  0.12784561  -0.00254204  0.05323938  1
  S2-  S225  1  0.13242130  0.01127549  0.55011211  1
  S2-  S226  1  0.12964942  0.24862277  0.04488530  1
  S2-  S227  1  0.13469587  0.26086056  0.54025532  1
  S2-  S228  1  0.12528602  0.49074060  0.04530825  1
  S2-  S229  1  0.12889873  0.51509837  0.53976099  1
  S2-  S230  1  0.12685904  0.75011547  0.04257189  1
  S2-  S231  1  0.13330379  0.76767438  0.53568825  1
  S2-  S232  1  0.38168448  -0.00237944  0.05541061  1
  S2-  S233  1  0.38360637  0.01298901  0.54698364  1
  S2-  S234  1  0.37668825  0.24951700  0.04736749  1
  S2-  S235  1  0.38207664  0.26769613  0.55173537  1
  S2-  S236  1  0.37463003  0.49492761  0.05178988  1
  S2-  S237  1  0.37665402  0.51723878  0.53888768  1
  S2-  S238  1  0.37585710  0.74499718  0.04360744  1
  S2-  S239  1  0.37779630  0.76272417  0.53525110  1
  S2-  S240  1  0.63136019  0.00493109  0.04515717  1
  S2-  S241  1  0.63154376  0.01562415  0.54906752  1
  S2-  S242  1  0.63215627  0.24410900  0.03303637  1
  S2-  S243  1  0.63025560  0.26647089  0.54711508  1
  S2-  S244  1  0.62993579  0.49227480  0.03282252  1
  S2-  S245  1  0.63213080  0.51617970  0.55249380  1
  S2-  S246  1  0.63264405  0.75271049  0.03958000  1
  S2-  S247  1  0.63473249  0.76199660  0.55215304  1
  S2-  S248  1  0.88352549  0.00266683  0.04240950  1
  S2-  S249  1  0.87883445  0.01485653  0.54457087  1
  S2-  S250  1  0.87915005  0.24818583  0.03949920  1
  S2-  S251  1  0.88005228  0.26458480  0.55237067  1
  S2-  S252  1  0.87539719  0.49572199  0.06222471  1
  S2-  S253  1  0.88601851  0.50942005  0.56244351  1
  S2-  S254  1  0.87592176  0.74314851  0.03333543  1
  S2-  S255  1  0.88184411  0.76331136  0.55552417  1
