# generated using pymatgen
data_La6Ce6Pr19Nd20Sm13(BiS2)64
_symmetry_space_group_name_H-M   'P 1'
_cell_length_a   16.11762509
_cell_length_b   16.05227666
_cell_length_c   27.22075504
_cell_angle_alpha   89.54346581
_cell_angle_beta   89.67419961
_cell_angle_gamma   90.07158589
_symmetry_Int_Tables_number   1
_chemical_formula_structural   La6Ce6Pr19Nd20Sm13(BiS2)64
_chemical_formula_sum   'La6 Ce6 Pr19 Nd20 Sm13 Bi64 S128'
_cell_volume   7042.33500803
_cell_formula_units_Z   1
loop_
 _symmetry_equiv_pos_site_id
 _symmetry_equiv_pos_as_xyz
  1  'x, y, z'
loop_
 _atom_type_symbol
 _atom_type_oxidation_number
  La3+  3.0
  Ce3+  3.0
  Pr3+  3.0
  Nd3+  3.0
  Sm3+  3.0
  Bi2+  2.0
  S2-  -2.0
loop_
 _atom_site_type_symbol
 _atom_site_label
 _atom_site_symmetry_multiplicity
 _atom_site_fract_x
 _atom_site_fract_y
 _atom_site_fract_z
 _atom_site_occupancy
  La3+  La0  1  0.38326125  0.77761320  0.43023634  1
  La3+  La1  1  0.01024543  0.89860224  0.58381540  1
  La3+  La2  1  0.00302267  0.63636603  0.58821112  1
  La3+  La3  1  -0.01383667  0.85652785  0.06390892  1
  La3+  La4  1  0.38622767  0.02178697  0.43824634  1
  La3+  La5  1  0.48219328  0.60700425  0.08750152  1
  Ce3+  Ce6  1  0.73769130  0.35985575  0.05777351  1
  Ce3+  Ce7  1  0.88897041  0.52082117  0.44357905  1
  Ce3+  Ce8  1  0.13544118  0.27143259  0.42930612  1
  Ce3+  Ce9  1  0.12607865  0.76977368  0.44494025  1
  Ce3+  Ce10  1  0.10693928  -0.01446519  0.94080596  1
  Ce3+  Ce11  1  -0.01407875  0.61716998  0.06127545  1
  Pr3+  Pr12  1  0.00867044  0.14464133  0.56132237  1
  Pr3+  Pr13  1  0.13381143  0.01114835  0.43294960  1
  Pr3+  Pr14  1  0.36057972  -0.01259350  0.94042280  1
  Pr3+  Pr15  1  0.61257566  0.73238076  0.93615298  1
  Pr3+  Pr16  1  0.75621121  0.64505761  0.55919899  1
  Pr3+  Pr17  1  0.75695871  0.14729490  0.56195368  1
  Pr3+  Pr18  1  0.88439493  0.01918032  0.43802761  1
  Pr3+  Pr19  1  0.75557782  0.90004520  0.57603141  1
  Pr3+  Pr20  1  0.73383195  0.10095692  0.07394062  1
  Pr3+  Pr21  1  0.86187049  -0.01287199  0.93056422  1
  Pr3+  Pr22  1  -0.01427589  0.36181849  0.06872568  1
  Pr3+  Pr23  1  0.88781433  0.77538941  0.44252239  1
  Pr3+  Pr24  1  0.50679341  0.14516285  0.56948623  1
  Pr3+  Pr25  1  0.23058326  0.35916621  0.06582733  1
  Pr3+  Pr26  1  -0.01827773  0.10317643  0.08878110  1
  Pr3+  Pr27  1  0.48406739  0.85625526  0.05736128  1
  Pr3+  Pr28  1  0.36207536  0.48432739  0.93553746  1
  Pr3+  Pr29  1  0.50785207  0.64661766  0.56572448  1
  Pr3+  Pr30  1  0.00978521  0.38891026  0.56531041  1
  Nd3+  Nd31  1  0.61282180  0.23631844  0.94882109  1
  Nd3+  Nd32  1  0.63260335  0.52011855  0.42830637  1
  Nd3+  Nd33  1  0.23723323  0.61481028  0.06124063  1
  Nd3+  Nd34  1  0.87247006  0.73100165  0.89533331  1
  Nd3+  Nd35  1  0.48718541  0.11044356  0.06818406  1
  Nd3+  Nd36  1  0.50829899  0.39462208  0.56466283  1
  Nd3+  Nd37  1  0.73564307  0.85700932  0.05107879  1
  Nd3+  Nd38  1  0.61165795  0.48650184  0.94412451  1
  Nd3+  Nd39  1  0.11526986  0.73485606  0.92401110  1
  Nd3+  Nd40  1  0.25780799  0.64860119  0.55859471  1
  Nd3+  Nd41  1  0.36251954  0.24106147  0.93443568  1
  Nd3+  Nd42  1  0.36223305  0.72996026  0.92522480  1
  Nd3+  Nd43  1  0.63605302  0.02060936  0.43670273  1
  Nd3+  Nd44  1  0.25595041  0.90096014  0.57207760  1
  Nd3+  Nd45  1  0.63231794  0.27135394  0.43026126  1
  Nd3+  Nd46  1  0.47814132  0.36133618  0.07336442  1
  Nd3+  Nd47  1  0.60886362  -0.01343615  0.93488954  1
  Nd3+  Nd48  1  0.37959406  0.27269393  0.43179114  1
  Nd3+  Nd49  1  0.89065448  0.26568700  0.42372769  1
  Nd3+  Nd50  1  0.63613658  0.76920480  0.43421205  1
  Sm3+  Sm51  1  0.86415211  0.48809480  0.94145777  1
  Sm3+  Sm52  1  0.23833927  0.85907146  0.05196918  1
  Sm3+  Sm53  1  0.10701472  0.23653221  0.94579303  1
  Sm3+  Sm54  1  0.13161797  0.52350195  0.44899411  1
  Sm3+  Sm55  1  0.38474337  0.52441906  0.43852178  1
  Sm3+  Sm56  1  0.73765784  0.61194342  0.05347834  1
  Sm3+  Sm57  1  0.75613638  0.39336736  0.55215254  1
  Sm3+  Sm58  1  0.23434544  0.11071359  0.05210222  1
  Sm3+  Sm59  1  0.10890846  0.48761303  0.94234399  1
  Sm3+  Sm60  1  0.86185390  0.23029114  0.94170738  1
  Sm3+  Sm61  1  0.25984512  0.39312954  0.55597255  1
  Sm3+  Sm62  1  0.50674783  0.89669413  0.56594326  1
  Sm3+  Sm63  1  0.25670690  0.14437347  0.55773100  1
  Bi2+  Bi64  1  -0.01061569  0.15212793  0.28682207  1
  Bi2+  Bi65  1  -0.01254624  0.14287109  0.78765881  1
  Bi2+  Bi66  1  -0.02239725  0.38985970  0.27502161  1
  Bi2+  Bi67  1  -0.01331307  0.34428115  0.79524912  1
  Bi2+  Bi68  1  -0.02786637  0.62449472  0.29301670  1
  Bi2+  Bi69  1  0.01261197  0.58865807  0.78585709  1
  Bi2+  Bi70  1  0.02400710  0.88724464  0.31358856  1
  Bi2+  Bi71  1  -0.00504142  0.88829770  0.78531588  1
  Bi2+  Bi72  1  0.29636366  0.16808719  0.28531596  1
  Bi2+  Bi73  1  0.26206931  0.14467715  0.78479675  1
  Bi2+  Bi74  1  0.18489071  0.43126096  0.26626388  1
  Bi2+  Bi75  1  0.25341232  0.34076372  0.79041107  1
  Bi2+  Bi76  1  0.27381099  0.59922301  0.30015155  1
  Bi2+  Bi77  1  0.25476996  0.61952985  0.79010706  1
  Bi2+  Bi78  1  0.27700694  0.91995337  0.23618912  1
  Bi2+  Bi79  1  0.26584063  0.92529513  0.79941326  1
  Bi2+  Bi80  1  0.46985554  0.07071938  0.31551698  1
  Bi2+  Bi81  1  0.45181958  0.15628859  0.75585565  1
  Bi2+  Bi82  1  0.46465415  0.26691874  0.30583177  1
  Bi2+  Bi83  1  0.52077303  0.33611229  0.78800724  1
  Bi2+  Bi84  1  0.52155964  0.61072259  0.29016902  1
  Bi2+  Bi85  1  0.49749886  0.58951253  0.77759051  1
  Bi2+  Bi86  1  0.50143168  0.85830539  0.29702451  1
  Bi2+  Bi87  1  0.45601098  0.85558629  0.77900695  1
  Bi2+  Bi88  1  0.74154472  0.16320032  0.28328040  1
  Bi2+  Bi89  1  0.72448831  0.14736515  0.79523086  1
  Bi2+  Bi90  1  0.77089794  0.36327526  0.30241756  1
  Bi2+  Bi91  1  0.79138446  0.33283111  0.80827501  1
  Bi2+  Bi92  1  0.81445584  0.57567301  0.22515295  1
  Bi2+  Bi93  1  0.75306388  0.52320418  0.79153963  1
  Bi2+  Bi94  1  0.77514246  0.81284519  0.29262809  1
  Bi2+  Bi95  1  0.69980282  0.85969321  0.79838877  1
  Bi2+  Bi96  1  0.12358085  0.01809254  0.20396068  1
  Bi2+  Bi97  1  0.12307911  0.07372581  0.71180105  1
  Bi2+  Bi98  1  0.17939025  0.25962945  0.20727171  1
  Bi2+  Bi99  1  0.10972274  0.25526146  0.65967645  1
  Bi2+  Bi100  1  0.13350977  0.59842730  0.20944002  1
  Bi2+  Bi101  1  0.12495309  0.42343180  0.71765758  1
  Bi2+  Bi102  1  0.17218750  0.76368012  0.27169244  1
  Bi2+  Bi103  1  0.15844223  0.75400923  0.71764939  1
  Bi2+  Bi104  1  0.43924460  0.01937845  0.20428077  1
  Bi2+  Bi105  1  0.35246813  -0.06497762  0.69516574  1
  Bi2+  Bi106  1  0.41641526  0.21199547  0.18300011  1
  Bi2+  Bi107  1  0.31982179  0.25203527  0.68753649  1
  Bi2+  Bi108  1  0.41863414  0.40880993  0.23090084  1
  Bi2+  Bi109  1  0.40762976  0.44569757  0.72036115  1
  Bi2+  Bi110  1  0.37489704  0.74797165  0.19115827  1
  Bi2+  Bi111  1  0.37490156  0.72041585  0.70596572  1
  Bi2+  Bi112  1  0.66774502  -0.03022782  0.26709313  1
  Bi2+  Bi113  1  0.60340483  0.04955181  0.71873917  1
  Bi2+  Bi114  1  0.60607858  0.23018031  0.20919364  1
  Bi2+  Bi115  1  0.63653995  0.25374463  0.70650402  1
  Bi2+  Bi116  1  0.63028118  0.42353128  0.22607454  1
  Bi2+  Bi117  1  0.65095259  0.53083796  0.69318492  1
  Bi2+  Bi118  1  0.64355425  0.78399772  0.19213521  1
  Bi2+  Bi119  1  0.60152307  0.71956195  0.71528895  1
  Bi2+  Bi120  1  0.84732828  -0.02294174  0.21081517  1
  Bi2+  Bi121  1  0.84144269  -0.01960166  0.70970703  1
  Bi2+  Bi122  1  0.85653048  0.28084482  0.20669729  1
  Bi2+  Bi123  1  0.92034094  0.22023174  0.68837751  1
  Bi2+  Bi124  1  0.97227565  0.49695106  0.17668033  1
  Bi2+  Bi125  1  0.87449498  0.40925776  0.70455391  1
  Bi2+  Bi126  1  0.90270926  0.75596134  0.21503729  1
  Bi2+  Bi127  1  0.84801214  0.72618449  0.71860460  1
  S2-  S128  1  0.04042661  0.16477836  0.18262364  1
  S2-  S129  1  -0.00673428  0.04845436  0.64755931  1
  S2-  S130  1  0.10800770  0.36650942  0.14271912  1
  S2-  S131  1  0.00857558  0.48292643  0.65039594  1
  S2-  S132  1  0.00460845  0.72656485  0.13685186  1
  S2-  S133  1  0.01062037  0.67304377  0.69021072  1
  S2-  S134  1  -0.00415135  0.95704796  0.15005159  1
  S2-  S135  1  -0.05776256  0.86078735  0.68234131  1
  S2-  S136  1  0.23905155  0.11148642  0.15028328  1
  S2-  S137  1  0.25986807  0.04793340  0.64219625  1
  S2-  S138  1  0.34058454  0.35724985  0.14512533  1
  S2-  S139  1  0.28227478  0.41802755  0.65327668  1
  S2-  S140  1  0.33209492  0.61182485  0.14553446  1
  S2-  S141  1  0.24135958  0.64220698  0.65913495  1
  S2-  S142  1  0.23922451  0.82721006  0.14830074  1
  S2-  S143  1  0.14872520  0.86766470  0.65143852  1
  S2-  S144  1  0.60158163  0.10008025  0.14470678  1
  S2-  S145  1  0.50769813  0.27335806  0.63978878  1
  S2-  S146  1  0.51806992  0.46525460  0.15244737  1
  S2-  S147  1  0.50873603  0.51760613  0.63877961  1
  S2-  S148  1  0.53127530  0.66594856  0.18645239  1
  S2-  S149  1  0.51063863  0.77343718  0.63968451  1
  S2-  S150  1  0.49879889  0.87309643  0.15754442  1
  S2-  S151  1  0.50225229  1.01257788  0.64371246  1
  S2-  S152  1  0.84015334  0.12047807  0.15313394  1
  S2-  S153  1  0.74125961  0.04758354  0.64565043  1
  S2-  S154  1  0.75550015  0.38427543  0.15374799  1
  S2-  S155  1  0.72180624  0.38252205  0.64927746  1
  S2-  S156  1  0.73728033  0.65671392  0.14908981  1
  S2-  S157  1  0.80238210  0.61562724  0.65544873  1
  S2-  S158  1  0.74305427  0.91629947  0.14483716  1
  S2-  S159  1  0.73633425  0.84200747  0.67627213  1
  S2-  S160  1  0.08713780  0.05064815  0.33347617  1
  S2-  S161  1  0.10537687  -0.02917988  0.84292921  1
  S2-  S162  1  0.02174864  0.28190464  0.35271698  1
  S2-  S163  1  0.10073378  0.24309467  0.84718487  1
  S2-  S164  1  0.14334352  0.52232382  0.34983308  1
  S2-  S165  1  0.13339982  0.52507341  0.84589712  1
  S2-  S166  1  0.16848708  0.86569564  0.36362902  1
  S2-  S167  1  0.01874135  0.73958716  0.83801770  1
  S2-  S168  1  0.38566198  -0.08257174  0.35706602  1
  S2-  S169  1  0.40510286  -0.00910235  0.84376510  1
  S2-  S170  1  0.25676928  0.27697582  0.35756231  1
  S2-  S171  1  0.37278794  0.35996710  0.86057426  1
  S2-  S172  1  0.41126936  0.50237762  0.34067316  1
  S2-  S173  1  0.37967145  0.59712164  0.85535510  1
  S2-  S174  1  0.42032483  0.71569788  0.33413831  1
  S2-  S175  1  0.24245212  0.75362269  0.84883641  1
  S2-  S176  1  0.63541469  -0.10368337  0.36242711  1
  S2-  S177  1  0.64801689  -0.00007140  0.83788733  1
  S2-  S178  1  0.63046930  0.14136872  0.36066820  1
  S2-  S179  1  0.59104388  0.22157835  0.85084381  1
  S2-  S180  1  0.63184614  0.39672501  0.35605130  1
  S2-  S181  1  0.61090209  0.50850951  0.84503287  1
  S2-  S182  1  0.63316147  0.64503411  0.35529035  1
  S2-  S183  1  0.56452872  0.77778499  0.84290605  1
  S2-  S184  1  0.87509085  -0.10209017  0.36199555  1
  S2-  S185  1  0.85971343  -0.10840261  0.84152530  1
  S2-  S186  1  0.87294407  0.13016144  0.35433193  1
  S2-  S187  1  0.86465327  0.12472627  0.86201162  1
  S2-  S188  1  0.88298628  0.49530675  0.34623554  1
  S2-  S189  1  0.89771619  0.55920178  0.85280556  1
  S2-  S190  1  1.00723729  0.73339327  0.36825369  1
  S2-  S191  1  0.76439026  0.70543027  0.81632038  1
  S2-  S192  1  0.01233390  0.14418139  0.45508385  1
  S2-  S193  1  -0.01147599  0.11205015  0.95939044  1
  S2-  S194  1  0.01148588  0.39623240  0.45744121  1
  S2-  S195  1  -0.01581558  0.36130617  0.95599835  1
  S2-  S196  1  0.00721225  0.63943802  0.47335020  1
  S2-  S197  1  -0.01166299  0.61318330  0.95488279  1
  S2-  S198  1  0.00947017  0.89709053  0.46776525  1
  S2-  S199  1  -0.01399567  0.85754953  0.95051904  1
  S2-  S200  1  0.25700477  0.14147029  0.45287007  1
  S2-  S201  1  0.23522844  0.11595983  0.94633820  1
  S2-  S202  1  0.25910586  0.40402373  0.45279280  1
  S2-  S203  1  0.22910896  0.36009144  0.95713708  1
  S2-  S204  1  0.25830840  0.64666179  0.45095107  1
  S2-  S205  1  0.23429724  0.60848189  0.95449962  1
  S2-  S206  1  0.25936051  0.89468285  0.46638416  1
  S2-  S207  1  0.23736647  0.86343461  0.94919106  1
  S2-  S208  1  0.50428064  0.15137766  0.45872984  1
  S2-  S209  1  0.48504581  0.11428547  0.95703548  1
  S2-  S210  1  0.50145527  0.39635067  0.45584260  1
  S2-  S211  1  0.48999153  0.36078505  0.96331334  1
  S2-  S212  1  0.50588880  0.64644381  0.45748684  1
  S2-  S213  1  0.48918448  0.60931570  0.95770875  1
  S2-  S214  1  0.51106984  0.89466231  0.46158854  1
  S2-  S215  1  0.48372455  0.85973634  0.95069042  1
  S2-  S216  1  0.76070484  0.14916045  0.45722322  1
  S2-  S217  1  0.73341239  0.11083584  0.96114697  1
  S2-  S218  1  0.76690192  0.39149315  0.44967091  1
  S2-  S219  1  0.74071153  0.36109217  0.95082347  1
  S2-  S220  1  0.76441663  0.64562689  0.45220844  1
  S2-  S221  1  0.74153365  0.61115589  0.94829535  1
  S2-  S222  1  0.75783598  0.89444766  0.46606002  1
  S2-  S223  1  0.73424933  0.86027722  0.94572991  1
  S2-  S224  1  0.11573951  -0.01512743  0.04652585  1
  S2-  S225  1  0.13368093  0.02282132  0.54228826  1
  S2-  S226  1  0.10555690  0.22766812  0.04960855  1
  S2-  S227  1  0.13812119  0.27005289  0.53808982  1
  S2-  S228  1  0.10982639  0.49146471  0.04547685  1
  S2-  S229  1  0.13758184  0.51780363  0.55263141  1
  S2-  S230  1  0.11825055  0.73736822  0.03413899  1
  S2-  S231  1  0.12770687  0.76349780  0.55159441  1
  S2-  S232  1  0.36051226  -0.01284570  0.04852344  1
  S2-  S233  1  0.38316984  0.02167477  0.54339747  1
  S2-  S234  1  0.35983353  0.23200849  0.04083829  1
  S2-  S235  1  0.37823273  0.26920624  0.53933013  1
  S2-  S236  1  0.35844796  0.48541749  0.04295591  1
  S2-  S237  1  0.37945794  0.52065735  0.54335515  1
  S2-  S238  1  0.36120529  0.73452913  0.03685343  1
  S2-  S239  1  0.37937957  0.77361925  0.54450202  1
  S2-  S240  1  0.60666164  -0.01782974  0.04108295  1
  S2-  S241  1  0.63051550  0.02113387  0.54232011  1
  S2-  S242  1  0.60913920  0.24073483  0.05353357  1
  S2-  S243  1  0.63366467  0.27100919  0.53854721  1
  S2-  S244  1  0.61457960  0.48766631  0.04872230  1
  S2-  S245  1  0.63554149  0.51768321  0.53642824  1
  S2-  S246  1  0.60868813  0.73074780  0.04467845  1
  S2-  S247  1  0.63571122  0.77201565  0.54402670  1
  S2-  S248  1  0.86080321  -0.01578485  0.04056355  1
  S2-  S249  1  0.88065369  0.02058754  0.54564983  1
  S2-  S250  1  0.86372773  0.23550089  0.04668447  1
  S2-  S251  1  0.88202885  0.27078655  0.54352597  1
  S2-  S252  1  0.86176263  0.48811625  0.04578274  1
  S2-  S253  1  0.88045377  0.51421833  0.54900191  1
  S2-  S254  1  0.85778422  0.73468012  0.04337176  1
  S2-  S255  1  0.88306353  0.77070179  0.55701022  1
