# generated using pymatgen
data_La6Ce6Pr19Nd20Sm13(BiS2)64
_symmetry_space_group_name_H-M   'P 1'
_cell_length_a   16.06668029
_cell_length_b   16.11622762
_cell_length_c   27.36617757
_cell_angle_alpha   90.17385696
_cell_angle_beta   89.98039425
_cell_angle_gamma   90.13752642
_symmetry_Int_Tables_number   1
_chemical_formula_structural   La6Ce6Pr19Nd20Sm13(BiS2)64
_chemical_formula_sum   'La6 Ce6 Pr19 Nd20 Sm13 Bi64 S128'
_cell_volume   7085.98796405
_cell_formula_units_Z   1
loop_
 _symmetry_equiv_pos_site_id
 _symmetry_equiv_pos_as_xyz
  1  'x, y, z'
loop_
 _atom_type_symbol
 _atom_type_oxidation_number
  La3+  3.0
  Ce3+  3.0
  Pr3+  3.0
  Nd3+  3.0
  Sm3+  3.0
  Bi2+  2.0
  S2-  -2.0
loop_
 _atom_site_type_symbol
 _atom_site_label
 _atom_site_symmetry_multiplicity
 _atom_site_fract_x
 _atom_site_fract_y
 _atom_site_fract_z
 _atom_site_occupancy
  La3+  La0  1  0.62269585  0.49422377  0.41942041  1
  La3+  La1  1  0.63583493  0.74310862  0.89187766  1
  La3+  La2  1  0.50074007  0.63426948  0.10608640  1
  La3+  La3  1  0.01882301  0.12187627  0.10635804  1
  La3+  La4  1  -0.00426900  0.37024570  0.58823498  1
  La3+  La5  1  0.25177163  0.36648197  0.57711857  1
  Ce3+  Ce6  1  0.25323700  0.62560342  0.56300024  1
  Ce3+  Ce7  1  0.50869327  0.12138761  0.05135451  1
  Ce3+  Ce8  1  0.75360514  0.12548970  0.55683688  1
  Ce3+  Ce9  1  0.25866174  0.87288447  0.05448427  1
  Ce3+  Ce10  1  0.12979330  0.00300417  0.43317837  1
  Ce3+  Ce11  1  0.63535637  0.74440980  0.42296423  1
  Pr3+  Pr12  1  0.24947238  0.61989333  0.06549537  1
  Pr3+  Pr13  1  0.50607819  0.37449253  0.57632082  1
  Pr3+  Pr14  1  0.62672843  0.25089888  0.43632701  1
  Pr3+  Pr15  1  0.63674506  0.24814383  0.93106196  1
  Pr3+  Pr16  1  0.38212269  0.00007415  0.43117515  1
  Pr3+  Pr17  1  0.26221127  0.37238790  0.06343369  1
  Pr3+  Pr18  1  0.74936075  0.37694281  0.56486755  1
  Pr3+  Pr19  1  0.50577629  0.62528190  0.56126768  1
  Pr3+  Pr20  1  0.13803936  0.48453414  0.92609571  1
  Pr3+  Pr21  1  0.00813231  0.87161720  0.06243018  1
  Pr3+  Pr22  1  0.75708896  0.86445629  0.05662855  1
  Pr3+  Pr23  1  0.63478176  0.49421456  0.93436873  1
  Pr3+  Pr24  1  0.00409160  0.87851652  0.56279192  1
  Pr3+  Pr25  1  0.13288186  -0.00200222  0.93823547  1
  Pr3+  Pr26  1  0.38003858  0.24924554  0.44371750  1
  Pr3+  Pr27  1  0.51012856  0.37447419  0.06854203  1
  Pr3+  Pr28  1  0.12633252  0.49759726  0.45207274  1
  Pr3+  Pr29  1  0.38450782  0.74162308  0.93916650  1
  Pr3+  Pr30  1  0.50292039  0.12299715  0.56877937  1
  Nd3+  Nd31  1  0.76178676  0.11943639  0.05957739  1
  Nd3+  Nd32  1  0.88051418  0.00072033  0.43854752  1
  Nd3+  Nd33  1  0.50185595  0.87016320  0.56622673  1
  Nd3+  Nd34  1  0.88272968  0.74076748  0.93579539  1
  Nd3+  Nd35  1  0.38647207  -0.00761273  0.93647277  1
  Nd3+  Nd36  1  0.75582373  0.37287417  0.06727981  1
  Nd3+  Nd37  1  0.88414188  0.74757017  0.43405798  1
  Nd3+  Nd38  1  0.00394667  0.12631558  0.56196549  1
  Nd3+  Nd39  1  0.13583246  0.23449100  0.93651467  1
  Nd3+  Nd40  1  0.12907029  0.25412845  0.43507095  1
  Nd3+  Nd41  1  0.75287701  0.62738413  0.55809504  1
  Nd3+  Nd42  1  0.26920414  0.12294759  0.06631280  1
  Nd3+  Nd43  1  0.01153551  0.63021915  0.57871162  1
  Nd3+  Nd44  1  0.01671351  0.36797904  0.07003609  1
  Nd3+  Nd45  1  0.38652324  0.74950543  0.43095225  1
  Nd3+  Nd46  1  0.75431782  0.61855868  0.05940417  1
  Nd3+  Nd47  1  0.25517627  0.87711752  0.55091071  1
  Nd3+  Nd48  1  0.12871069  0.74706346  0.43779248  1
  Nd3+  Nd49  1  0.88358147  -0.00715130  0.93947448  1
  Nd3+  Nd50  1  0.87855500  0.25268116  0.43705496  1
  Sm3+  Sm51  1  0.25372431  0.12414215  0.55849736  1
  Sm3+  Sm52  1  0.37695100  0.49751596  0.44265829  1
  Sm3+  Sm53  1  0.62747043  -0.00254376  0.44865651  1
  Sm3+  Sm54  1  0.88032516  0.49893391  0.45173596  1
  Sm3+  Sm55  1  0.51084200  0.86590306  0.05616915  1
  Sm3+  Sm56  1  0.88669051  0.24491722  0.94863948  1
  Sm3+  Sm57  1  0.38689176  0.49797839  0.94811442  1
  Sm3+  Sm58  1  0.38536938  0.24699656  0.93433630  1
  Sm3+  Sm59  1  0.13166430  0.74268662  0.93903506  1
  Sm3+  Sm60  1  0.75469691  0.87157925  0.55321393  1
  Sm3+  Sm61  1  0.88597900  0.49129225  0.93928734  1
  Sm3+  Sm62  1  0.00997282  0.61671440  0.05748798  1
  Sm3+  Sm63  1  0.63554112  -0.00780397  0.93930228  1
  Bi2+  Bi64  1  0.00000096  0.10824901  0.30347170  1
  Bi2+  Bi65  1  -0.00147267  0.10632229  0.77159874  1
  Bi2+  Bi66  1  -0.01283829  0.40074229  0.28984268  1
  Bi2+  Bi67  1  -0.00732731  0.38655656  0.80719033  1
  Bi2+  Bi68  1  -0.04614064  0.59181223  0.30123498  1
  Bi2+  Bi69  1  -0.02048568  0.73209751  0.81193762  1
  Bi2+  Bi70  1  -0.04680061  0.85433672  0.30891237  1
  Bi2+  Bi71  1  0.01151205  0.92649057  0.81811052  1
  Bi2+  Bi72  1  0.29237444  0.09017191  0.24518848  1
  Bi2+  Bi73  1  0.22819294  0.07765198  0.71443547  1
  Bi2+  Bi74  1  0.22972063  0.33623641  0.29404438  1
  Bi2+  Bi75  1  0.24824453  0.41177391  0.80217105  1
  Bi2+  Bi76  1  0.21486694  0.57481918  0.28649590  1
  Bi2+  Bi77  1  0.28467857  0.63169795  0.72353653  1
  Bi2+  Bi78  1  0.30256292  0.84119067  0.30874263  1
  Bi2+  Bi79  1  0.21540488  0.96887362  0.80967215  1
  Bi2+  Bi80  1  0.46453293  0.11465717  0.31906857  1
  Bi2+  Bi81  1  0.49597574  0.11810219  0.78497039  1
  Bi2+  Bi82  1  0.50160853  0.36958997  0.29501709  1
  Bi2+  Bi83  1  0.48718186  0.32566624  0.80510337  1
  Bi2+  Bi84  1  0.48800600  0.63877307  0.30050678  1
  Bi2+  Bi85  1  0.47124213  0.61781007  0.80673693  1
  Bi2+  Bi86  1  0.50699641  0.92547794  0.29572980  1
  Bi2+  Bi87  1  0.48198023  0.88110608  0.79351149  1
  Bi2+  Bi88  1  0.74579927  0.11497270  0.29217887  1
  Bi2+  Bi89  1  0.68210739  0.14461689  0.81539017  1
  Bi2+  Bi90  1  0.80176423  0.40307980  0.24489475  1
  Bi2+  Bi91  1  0.75844848  0.32416999  0.78865098  1
  Bi2+  Bi92  1  0.76642566  0.65387567  0.27781537  1
  Bi2+  Bi93  1  0.77938619  0.60960319  0.78784951  1
  Bi2+  Bi94  1  0.72685357  0.88418176  0.26342644  1
  Bi2+  Bi95  1  0.72545777  0.96380912  0.77290552  1
  Bi2+  Bi96  1  0.15667841  -0.05611377  0.24025139  1
  Bi2+  Bi97  1  0.05426709  0.01020426  0.67514292  1
  Bi2+  Bi98  1  0.12775878  0.26947007  0.21041366  1
  Bi2+  Bi99  1  0.14089495  0.30492887  0.70549644  1
  Bi2+  Bi100  1  0.06504375  0.51050149  0.20194412  1
  Bi2+  Bi101  1  0.08621756  0.57865936  0.72792220  1
  Bi2+  Bi102  1  0.15719451  0.75163034  0.25422588  1
  Bi2+  Bi103  1  0.15326160  0.80683032  0.75727443  1
  Bi2+  Bi104  1  0.44033816  -0.01001649  0.19574669  1
  Bi2+  Bi105  1  0.38560245  -0.01212287  0.66512709  1
  Bi2+  Bi106  1  0.39379150  0.25211541  0.21581915  1
  Bi2+  Bi107  1  0.37710134  0.23538506  0.72458733  1
  Bi2+  Bi108  1  0.32823254  0.49422728  0.21081604  1
  Bi2+  Bi109  1  0.41518472  0.47134021  0.73068698  1
  Bi2+  Bi110  1  0.34865146  0.78610369  0.20540940  1
  Bi2+  Bi111  1  0.37580834  0.79325314  0.70444393  1
  Bi2+  Bi112  1  0.63492288  0.03238283  0.20467694  1
  Bi2+  Bi113  1  0.56981639  -0.02653202  0.69940377  1
  Bi2+  Bi114  1  0.58796826  0.21173358  0.24458793  1
  Bi2+  Bi115  1  0.63036326  0.23780055  0.71380670  1
  Bi2+  Bi116  1  0.63572783  0.47827045  0.20926113  1
  Bi2+  Bi117  1  0.61137663  0.49386751  0.71135660  1
  Bi2+  Bi118  1  0.63409732  0.75014249  0.21032856  1
  Bi2+  Bi119  1  0.64878733  0.74839292  0.69590577  1
  Bi2+  Bi120  1  0.89021918  -0.04934706  0.19862322  1
  Bi2+  Bi121  1  0.86050232  0.02712717  0.69597753  1
  Bi2+  Bi122  1  0.84731497  0.22407424  0.21687031  1
  Bi2+  Bi123  1  0.88283865  0.23117859  0.71385364  1
  Bi2+  Bi124  1  0.87514145  0.50216562  0.15335724  1
  Bi2+  Bi125  1  0.85976108  0.50036489  0.70986678  1
  Bi2+  Bi126  1  0.90704049  0.68083370  0.20009768  1
  Bi2+  Bi127  1  0.89190749  0.82318996  0.72389744  1
  S2-  S128  1  0.02638191  0.04618701  0.20417261  1
  S2-  S129  1  0.01569506  0.22266791  0.64590920  1
  S2-  S130  1  -0.01542689  0.27142424  0.15650117  1
  S2-  S131  1  0.03609192  0.43388484  0.68586541  1
  S2-  S132  1  0.11235208  0.62457808  0.13586657  1
  S2-  S133  1  -0.05575232  0.62697158  0.67210781  1
  S2-  S134  1  -0.01793902  0.83027489  0.15939268  1
  S2-  S135  1  0.01714247  0.83457451  0.65982188  1
  S2-  S136  1  0.18270439  0.14697020  0.15097546  1
  S2-  S137  1  0.24693275  0.21342249  0.64271560  1
  S2-  S138  1  0.15064687  0.39173301  0.14133671  1
  S2-  S139  1  0.24848440  0.41640254  0.67601264  1
  S2-  S140  1  0.33551782  0.63581638  0.15277508  1
  S2-  S141  1  0.16171586  0.64091191  0.64555749  1
  S2-  S142  1  0.23620734  0.88228631  0.15031853  1
  S2-  S143  1  0.25369788  0.86952099  0.64968664  1
  S2-  S144  1  0.41848655  0.13351828  0.13435580  1
  S2-  S145  1  0.48801158  0.22849203  0.65090892  1
  S2-  S146  1  0.38208566  0.37450369  0.14325545  1
  S2-  S147  1  0.63858487  0.37421629  0.64664924  1
  S2-  S148  1  0.48923532  0.56034886  0.20723245  1
  S2-  S149  1  0.48926468  0.51619034  0.64130947  1
  S2-  S150  1  0.50544569  0.79822964  0.14864445  1
  S2-  S151  1  0.51195283  0.74707266  0.63819215  1
  S2-  S152  1  0.84464359  0.10127740  0.14666836  1
  S2-  S153  1  0.75086157  0.14753073  0.65329177  1
  S2-  S154  1  0.63579649  0.35776826  0.14104958  1
  S2-  S155  1  0.84819822  0.36816481  0.64986721  1
  S2-  S156  1  0.66575785  0.61643334  0.14715009  1
  S2-  S157  1  0.71662566  0.59952468  0.65569291  1
  S2-  S158  1  0.74962701  0.85932505  0.15727336  1
  S2-  S159  1  0.76808188  0.82971279  0.64790988  1
  S2-  S160  1  0.08528063  -0.03426430  0.34071997  1
  S2-  S161  1  0.14110063  0.10505047  0.85850587  1
  S2-  S162  1  0.11882673  0.20729952  0.33822507  1
  S2-  S163  1  0.12200939  0.32712164  0.85289813  1
  S2-  S164  1  0.15225745  0.46121977  0.35460896  1
  S2-  S165  1  0.11050684  0.51433279  0.82628813  1
  S2-  S166  1  0.01530758  0.73041227  0.36302025  1
  S2-  S167  1  0.15088742  0.72852472  0.84224811  1
  S2-  S168  1  0.30882611  0.05521801  0.34472560  1
  S2-  S169  1  0.38529602  0.01497251  0.83831890  1
  S2-  S170  1  0.36155992  0.30511667  0.34916802  1
  S2-  S171  1  0.33478124  0.26724399  0.84052006  1
  S2-  S172  1  0.46347196  0.50084276  0.35639133  1
  S2-  S173  1  0.33864220  0.51730722  0.85360919  1
  S2-  S174  1  0.33228449  0.67410010  0.34464075  1
  S2-  S175  1  0.38905181  0.75669855  0.83881610  1
  S2-  S176  1  0.62301777  0.02803454  0.35252250  1
  S2-  S177  1  0.62477321  -0.08911280  0.85333200  1
  S2-  S178  1  0.63339977  0.35213445  0.35479439  1
  S2-  S179  1  0.63547305  0.36943954  0.85839375  1
  S2-  S180  1  0.64074956  0.61866497  0.34742171  1
  S2-  S181  1  0.63509107  0.58016191  0.84414969  1
  S2-  S182  1  0.51358137  0.78274082  0.35667824  1
  S2-  S183  1  0.58244499  0.74081340  0.78761367  1
  S2-  S184  1  0.87612451  -0.00326938  0.33905728  1
  S2-  S185  1  0.85864649  0.00058357  0.84150262  1
  S2-  S186  1  0.87538064  0.21293571  0.33978605  1
  S2-  S187  1  0.89402901  0.26963580  0.85081578  1
  S2-  S188  1  0.87128682  0.46294764  0.35545656  1
  S2-  S189  1  0.87693527  0.50907728  0.84109365  1
  S2-  S190  1  0.79678026  0.78379015  0.34724377  1
  S2-  S191  1  0.79897337  0.74507174  0.84745675  1
  S2-  S192  1  0.00418787  0.12681964  0.45388613  1
  S2-  S193  1  0.00248838  0.11962664  0.95199480  1
  S2-  S194  1  0.00212287  0.37244154  0.45712999  1
  S2-  S195  1  0.00806894  0.36800192  0.95847863  1
  S2-  S196  1  0.00347003  0.62208818  0.46665061  1
  S2-  S197  1  0.01005167  0.61653687  0.95069632  1
  S2-  S198  1  0.00565901  0.87776658  0.45594799  1
  S2-  S199  1  0.00890568  0.86766597  0.95385453  1
  S2-  S200  1  0.25239461  0.12723310  0.45511021  1
  S2-  S201  1  0.26890980  0.11954206  0.95817845  1
  S2-  S202  1  0.25413407  0.37360661  0.46293781  1
  S2-  S203  1  0.26475844  0.36820795  0.95615109  1
  S2-  S204  1  0.25260215  0.62329588  0.45673613  1
  S2-  S205  1  0.25459719  0.62009490  0.95550826  1
  S2-  S206  1  0.25353563  0.87339054  0.44527510  1
  S2-  S207  1  0.25662655  0.86934828  0.94759616  1
  S2-  S208  1  0.50538444  0.12327465  0.45883006  1
  S2-  S209  1  0.51121392  0.11969393  0.94501374  1
  S2-  S210  1  0.50069933  0.37484280  0.46240106  1
  S2-  S211  1  0.50432640  0.37003632  0.95738295  1
  S2-  S212  1  0.50097626  0.62351931  0.45532953  1
  S2-  S213  1  0.50990612  0.62193466  0.94155057  1
  S2-  S214  1  0.50399987  0.87905594  0.46037683  1
  S2-  S215  1  0.51113931  0.86785866  0.95257369  1
  S2-  S216  1  0.75257711  0.12396298  0.45077837  1
  S2-  S217  1  0.75941071  0.11934060  0.95355017  1
  S2-  S218  1  0.75614123  0.37436771  0.45777255  1
  S2-  S219  1  0.76430002  0.36978249  0.95939426  1
  S2-  S220  1  0.76061819  0.62236787  0.45186218  1
  S2-  S221  1  0.76307355  0.61641452  0.95329459  1
  S2-  S222  1  0.75374520  0.87816748  0.45068713  1
  S2-  S223  1  0.75689166  0.86692124  0.95128075  1
  S2-  S224  1  0.13145179  0.00073921  0.04828983  1
  S2-  S225  1  0.13107875  0.00299716  0.54184338  1
  S2-  S226  1  0.13472292  0.24129739  0.04347579  1
  S2-  S227  1  0.12711722  0.24817511  0.54175555  1
  S2-  S228  1  0.13126214  0.49335428  0.03442736  1
  S2-  S229  1  0.12512386  0.49393814  0.55728037  1
  S2-  S230  1  0.13097666  0.74955063  0.04183340  1
  S2-  S231  1  0.12889418  0.75383261  0.54238988  1
  S2-  S232  1  0.38797431  -0.00886401  0.04234081  1
  S2-  S233  1  0.37862052  0.00216614  0.53906807  1
  S2-  S234  1  0.38765209  0.24890639  0.03804867  1
  S2-  S235  1  0.37971998  0.24788599  0.54763407  1
  S2-  S236  1  0.39079230  0.50849790  0.04970884  1
  S2-  S237  1  0.37077360  0.49733183  0.54649464  1
  S2-  S238  1  0.38248670  0.74710451  0.04508722  1
  S2-  S239  1  0.37493167  0.75018364  0.54053309  1
  S2-  S240  1  0.63353960  -0.00593250  0.04590221  1
  S2-  S241  1  0.62901317  -0.00461243  0.55327307  1
  S2-  S242  1  0.63597011  0.24164754  0.03898567  1
  S2-  S243  1  0.62647625  0.24611037  0.54305647  1
  S2-  S244  1  0.63320020  0.49588006  0.04177988  1
  S2-  S245  1  0.63066857  0.50318323  0.53768780  1
  S2-  S246  1  0.63003963  0.74269914  0.04790575  1
  S2-  S247  1  0.63245503  0.75199960  0.53501444  1
  S2-  S248  1  0.88381681  -0.00710269  0.04521548  1
  S2-  S249  1  0.87694919  -0.00022042  0.54573616  1
  S2-  S250  1  0.88176592  0.24769561  0.05096987  1
  S2-  S251  1  0.87754924  0.24779437  0.54349934  1
  S2-  S252  1  0.88609344  0.49301841  0.04202789  1
  S2-  S253  1  0.88261077  0.50548246  0.55496269  1
  S2-  S254  1  0.88555062  0.74051585  0.04376076  1
  S2-  S255  1  0.88197517  0.75035341  0.54471129  1
