# generated using pymatgen
data_La6Ce6Pr19Nd20Sm13(BiS2)64
_symmetry_space_group_name_H-M   'P 1'
_cell_length_a   16.07453239
_cell_length_b   16.04828829
_cell_length_c   27.25666743
_cell_angle_alpha   90.19398298
_cell_angle_beta   89.59975669
_cell_angle_gamma   90.17321537
_symmetry_Int_Tables_number   1
_chemical_formula_structural   La6Ce6Pr19Nd20Sm13(BiS2)64
_chemical_formula_sum   'La6 Ce6 Pr19 Nd20 Sm13 Bi64 S128'
_cell_volume   7031.12439211
_cell_formula_units_Z   1
loop_
 _symmetry_equiv_pos_site_id
 _symmetry_equiv_pos_as_xyz
  1  'x, y, z'
loop_
 _atom_type_symbol
 _atom_type_oxidation_number
  La3+  3.0
  Ce3+  3.0
  Pr3+  3.0
  Nd3+  3.0
  Sm3+  3.0
  Bi2+  2.0
  S2-  -2.0
loop_
 _atom_site_type_symbol
 _atom_site_label
 _atom_site_symmetry_multiplicity
 _atom_site_fract_x
 _atom_site_fract_y
 _atom_site_fract_z
 _atom_site_occupancy
  La3+  La0  1  -0.00039297  0.62595921  0.58121292  1
  La3+  La1  1  0.62169186  0.00065270  0.38920253  1
  La3+  La2  1  0.87463506  -0.00741784  0.42912659  1
  La3+  La3  1  0.61429180  0.75319238  0.89178916  1
  La3+  La4  1  0.00694284  0.36860378  0.62161102  1
  La3+  La5  1  0.46655217  0.12457732  0.08402263  1
  Ce3+  Ce6  1  0.72790199  0.36887715  0.05689737  1
  Ce3+  Ce7  1  -0.02185183  0.37328887  0.05041445  1
  Ce3+  Ce8  1  0.12583092  0.74624858  0.44477111  1
  Ce3+  Ce9  1  0.50165974  0.37448372  0.56596543  1
  Ce3+  Ce10  1  0.35943736  0.24181473  0.93894478  1
  Ce3+  Ce11  1  0.09480773  -0.00252991  0.92708621  1
  Pr3+  Pr12  1  0.37751767  0.24813051  0.43864333  1
  Pr3+  Pr13  1  0.47908295  0.87264050  0.06247741  1
  Pr3+  Pr14  1  0.87485547  0.24574435  0.44578080  1
  Pr3+  Pr15  1  0.85597086  0.50292244  0.93328771  1
  Pr3+  Pr16  1  0.74899910  0.11881651  0.56225372  1
  Pr3+  Pr17  1  0.74388899  0.62558188  0.57076706  1
  Pr3+  Pr18  1  0.10795728  0.24062104  0.92668628  1
  Pr3+  Pr19  1  0.49450433  0.87775708  0.56479815  1
  Pr3+  Pr20  1  0.88390540  0.73197734  0.41789154  1
  Pr3+  Pr21  1  0.74491909  0.87057841  0.55508592  1
  Pr3+  Pr22  1  0.60710683  -0.00303570  0.94174467  1
  Pr3+  Pr23  1  0.72776119  0.13152102  0.07772373  1
  Pr3+  Pr24  1  0.84349050  0.24358247  0.92508012  1
  Pr3+  Pr25  1  0.60464400  0.50379237  0.93479397  1
  Pr3+  Pr26  1  0.36205974  -0.00432499  0.93258385  1
  Pr3+  Pr27  1  0.74965910  0.37125156  0.57194814  1
  Pr3+  Pr28  1  0.10953719  0.49169374  0.92694345  1
  Pr3+  Pr29  1  0.47912917  0.62256193  0.06727750  1
  Pr3+  Pr30  1  0.47782666  0.37529667  0.06705878  1
  Nd3+  Nd31  1  0.00072797  0.12010715  0.56382331  1
  Nd3+  Nd32  1  0.24776467  0.12122101  0.56127513  1
  Nd3+  Nd33  1  0.62710354  0.49975110  0.43643484  1
  Nd3+  Nd34  1  0.12343450  0.24725390  0.44546770  1
  Nd3+  Nd35  1  0.87603467  0.49744116  0.45470898  1
  Nd3+  Nd36  1  0.22594405  0.37437778  0.05838844  1
  Nd3+  Nd37  1  0.37570183  0.00117774  0.42742153  1
  Nd3+  Nd38  1  -0.00201440  0.87049600  0.56345499  1
  Nd3+  Nd39  1  0.37093462  0.49536545  0.42798655  1
  Nd3+  Nd40  1  0.59897204  0.24531787  0.93894616  1
  Nd3+  Nd41  1  -0.01542588  0.86986578  0.06997896  1
  Nd3+  Nd42  1  0.22473613  0.62414885  0.05411664  1
  Nd3+  Nd43  1  0.73411040  0.87341530  0.06641979  1
  Nd3+  Nd44  1  0.22743993  0.87464471  0.04828348  1
  Nd3+  Nd45  1  0.73189903  0.62455919  0.05957483  1
  Nd3+  Nd46  1  0.21891867  0.12384911  0.06647287  1
  Nd3+  Nd47  1  -0.02529163  0.61282308  0.07634143  1
  Nd3+  Nd48  1  0.49991380  0.62000612  0.56423334  1
  Nd3+  Nd49  1  0.12326208  -0.00621562  0.42841434  1
  Nd3+  Nd50  1  0.12512801  0.49871046  0.44549221  1
  Sm3+  Sm51  1  0.62690839  0.24463203  0.44126106  1
  Sm3+  Sm52  1  0.84737994  -0.00517049  0.94123458  1
  Sm3+  Sm53  1  0.24906599  0.37167124  0.56317546  1
  Sm3+  Sm54  1  0.10066700  0.74563397  0.93678185  1
  Sm3+  Sm55  1  -0.02111414  0.12170472  0.05364786  1
  Sm3+  Sm56  1  0.35962567  0.74695438  0.93695114  1
  Sm3+  Sm57  1  0.49951612  0.12153767  0.55520562  1
  Sm3+  Sm58  1  0.24923613  0.61813875  0.56324744  1
  Sm3+  Sm59  1  0.25157075  0.87587101  0.56258409  1
  Sm3+  Sm60  1  0.86366655  0.74959724  0.93874118  1
  Sm3+  Sm61  1  0.35782292  0.49976354  0.94258890  1
  Sm3+  Sm62  1  0.62497713  0.74714221  0.43456039  1
  Sm3+  Sm63  1  0.37881313  0.74958161  0.44839941  1
  Bi2+  Bi64  1  0.01606078  0.12412481  0.30404531  1
  Bi2+  Bi65  1  0.07468886  0.06633775  0.75622510  1
  Bi2+  Bi66  1  -0.00817405  0.47822902  0.29915032  1
  Bi2+  Bi67  1  -0.01836891  0.38898190  0.81927776  1
  Bi2+  Bi68  1  0.06686073  0.65419009  0.26040392  1
  Bi2+  Bi69  1  0.08577016  0.60961685  0.74942894  1
  Bi2+  Bi70  1  0.07118220  0.85176138  0.28834680  1
  Bi2+  Bi71  1  0.07606679  0.87258981  0.81199905  1
  Bi2+  Bi72  1  0.22823039  0.13712475  0.29040257  1
  Bi2+  Bi73  1  0.29854707  0.11834931  0.82432825  1
  Bi2+  Bi74  1  0.26983352  0.40906681  0.28419669  1
  Bi2+  Bi75  1  0.27923800  0.30622216  0.79370663  1
  Bi2+  Bi76  1  0.25516046  0.64716960  0.29463359  1
  Bi2+  Bi77  1  0.21204576  0.72396376  0.81275440  1
  Bi2+  Bi78  1  0.23285274  0.94115033  0.31443550  1
  Bi2+  Bi79  1  0.28650530  0.91475877  0.80192060  1
  Bi2+  Bi80  1  0.48424584  0.12122934  0.29000223  1
  Bi2+  Bi81  1  0.48887973  0.12132001  0.78866311  1
  Bi2+  Bi82  1  0.50149153  0.39218348  0.28579130  1
  Bi2+  Bi83  1  0.47594116  0.43009407  0.79477503  1
  Bi2+  Bi84  1  0.47485710  0.58665001  0.30767012  1
  Bi2+  Bi85  1  0.38046859  0.63297090  0.77924947  1
  Bi2+  Bi86  1  0.48370519  0.82444669  0.28263457  1
  Bi2+  Bi87  1  0.47716539  0.87615013  0.78022291  1
  Bi2+  Bi88  1  0.75191218  0.12785672  0.28431571  1
  Bi2+  Bi89  1  0.77765694  0.12559705  0.79453706  1
  Bi2+  Bi90  1  0.68771139  0.41922413  0.31373199  1
  Bi2+  Bi91  1  0.65636584  0.36121931  0.78573685  1
  Bi2+  Bi92  1  0.76223793  0.61405252  0.29564922  1
  Bi2+  Bi93  1  0.75121914  0.61588352  0.79536265  1
  Bi2+  Bi94  1  0.73482853  0.86655896  0.27370341  1
  Bi2+  Bi95  1  0.83362871  0.91499330  0.79699305  1
  Bi2+  Bi96  1  0.12817709  0.01247710  0.21120430  1
  Bi2+  Bi97  1  0.11907010  -0.01343052  0.65137504  1
  Bi2+  Bi98  1  0.04514704  0.29960802  0.25261371  1
  Bi2+  Bi99  1  0.15593200  0.23039937  0.71361643  1
  Bi2+  Bi100  1  0.13186792  0.45410585  0.19875510  1
  Bi2+  Bi101  1  0.24433576  0.50226045  0.71547752  1
  Bi2+  Bi102  1  0.25326291  0.74478357  0.19613233  1
  Bi2+  Bi103  1  0.15958106  0.80744949  0.69457701  1
  Bi2+  Bi104  1  0.33421627  -0.01579022  0.21346860  1
  Bi2+  Bi105  1  0.34204120  0.03841785  0.71667946  1
  Bi2+  Bi106  1  0.32752958  0.25545070  0.21334357  1
  Bi2+  Bi107  1  0.39794367  0.31861949  0.70214730  1
  Bi2+  Bi108  1  0.37190837  0.52739075  0.21264444  1
  Bi2+  Bi109  1  0.42133063  0.50703737  0.66832118  1
  Bi2+  Bi110  1  0.44631161  0.74043876  0.18068167  1
  Bi2+  Bi111  1  0.35162758  0.77516242  0.70456245  1
  Bi2+  Bi112  1  0.62614393  -0.02966446  0.17910318  1
  Bi2+  Bi113  1  0.66045592  0.00899436  0.68951055  1
  Bi2+  Bi114  1  0.61823369  0.27818251  0.20221665  1
  Bi2+  Bi115  1  0.57669773  0.23821848  0.70961948  1
  Bi2+  Bi116  1  0.64653196  0.47344483  0.19854633  1
  Bi2+  Bi117  1  0.60729532  0.50631930  0.71358884  1
  Bi2+  Bi118  1  0.60596584  0.65964621  0.22710440  1
  Bi2+  Bi119  1  0.69008274  0.76653397  0.69788888  1
  Bi2+  Bi120  1  0.93738049  0.07676745  0.19893664  1
  Bi2+  Bi121  1  0.93144631  -0.02610273  0.69924366  1
  Bi2+  Bi122  1  0.85015636  0.32937092  0.27270352  1
  Bi2+  Bi123  1  0.87874380  0.23662982  0.72211448  1
  Bi2+  Bi124  1  0.86247315  0.49442685  0.20790768  1
  Bi2+  Bi125  1  0.85472601  0.51503608  0.71825904  1
  Bi2+  Bi126  1  0.89429631  0.75823863  0.19786707  1
  Bi2+  Bi127  1  0.94697327  0.78028481  0.74112888  1
  S2-  S128  1  0.07956415  0.12121304  0.13475418  1
  S2-  S129  1  0.00111711  0.19561357  0.65374484  1
  S2-  S130  1  -0.01122052  0.46054237  0.13599874  1
  S2-  S131  1  0.01720366  0.34623727  0.73084224  1
  S2-  S132  1  0.03016794  0.70254868  0.15829778  1
  S2-  S133  1  -0.00063031  0.52934682  0.66705203  1
  S2-  S134  1  -0.04339580  0.90247951  0.16802483  1
  S2-  S135  1  0.00151133  0.76819387  0.64772412  1
  S2-  S136  1  0.31913633  0.11750380  0.14958658  1
  S2-  S137  1  0.28644828  0.16048372  0.65690946  1
  S2-  S138  1  0.20403097  0.31820780  0.15202140  1
  S2-  S139  1  0.17882816  0.37377983  0.65338508  1
  S2-  S140  1  0.23185097  0.57911856  0.15009732  1
  S2-  S141  1  0.19251282  0.63422006  0.65666519  1
  S2-  S142  1  0.20586582  0.88602053  0.14732456  1
  S2-  S143  1  0.36303732  0.90464591  0.63900711  1
  S2-  S144  1  0.59789942  0.12784358  0.15198131  1
  S2-  S145  1  0.53474320  0.09179039  0.65165033  1
  S2-  S146  1  0.46106414  0.27886884  0.15263384  1
  S2-  S147  1  0.61549214  0.37158137  0.64187192  1
  S2-  S148  1  0.49086807  0.50148132  0.14208387  1
  S2-  S149  1  0.60697368  0.63874058  0.64391822  1
  S2-  S150  1  0.45925955  0.96417759  0.14954043  1
  S2-  S151  1  0.58901638  0.86516048  0.65167733  1
  S2-  S152  1  0.78635514  0.05127437  0.16544239  1
  S2-  S153  1  0.76292374  0.13809147  0.66381906  1
  S2-  S154  1  0.75181874  0.28385596  0.14126060  1
  S2-  S155  1  0.83807057  0.36693648  0.66142083  1
  S2-  S156  1  0.83111525  0.62163252  0.14281249  1
  S2-  S157  1  0.81478643  0.64380542  0.66618285  1
  S2-  S158  1  0.73615914  0.82991504  0.16649616  1
  S2-  S159  1  0.78754335  0.89731003  0.65449242  1
  S2-  S160  1  0.00377085  -0.02284057  0.35426586  1
  S2-  S161  1  0.12252445  0.11469651  0.85247271  1
  S2-  S162  1  0.12871383  0.25467389  0.34512869  1
  S2-  S163  1  0.13670391  0.35784953  0.85163314  1
  S2-  S164  1  0.22783377  0.51362932  0.36251528  1
  S2-  S165  1  0.04517857  0.54561414  0.83710514  1
  S2-  S166  1  0.04369488  0.72926415  0.35923303  1
  S2-  S167  1  -0.00958128  0.75122385  0.86262714  1
  S2-  S168  1  0.46451216  -0.02894598  0.34136201  1
  S2-  S169  1  0.49479863  -0.00477352  0.86046746  1
  S2-  S170  1  0.36861607  0.14284033  0.35611875  1
  S2-  S171  1  0.47417062  0.23842939  0.86368580  1
  S2-  S172  1  0.38623496  0.36285714  0.35872912  1
  S2-  S173  1  0.33991181  0.49970524  0.84409674  1
  S2-  S174  1  0.38324999  0.73455395  0.34910348  1
  S2-  S175  1  0.44773574  0.74786866  0.85180331  1
  S2-  S176  1  0.62205411  0.01851158  0.27222190  1
  S2-  S177  1  0.72965709  0.00140616  0.86235668  1
  S2-  S178  1  0.62025954  0.17555581  0.34919889  1
  S2-  S179  1  0.70279149  0.23822844  0.85518867  1
  S2-  S180  1  0.62319424  0.61954649  0.36254093  1
  S2-  S181  1  0.61153821  0.59216944  0.84732250  1
  S2-  S182  1  0.61898558  0.83471090  0.34647790  1
  S2-  S183  1  0.62343022  0.81080563  0.78731174  1
  S2-  S184  1  0.78175905  -0.00431683  0.34082460  1
  S2-  S185  1  0.94990753  -0.02152451  0.86035997  1
  S2-  S186  1  0.86809873  0.20062861  0.34794479  1
  S2-  S187  1  0.91148128  0.22174809  0.82971501  1
  S2-  S188  1  0.88220600  0.57132115  0.36380723  1
  S2-  S189  1  0.82491490  0.47419295  0.83413493  1
  S2-  S190  1  0.83793317  0.77170772  0.31774283  1
  S2-  S191  1  0.78029472  0.75514749  0.85170647  1
  S2-  S192  1  0.00164214  0.12049240  0.45610810  1
  S2-  S193  1  -0.02757580  0.12431760  0.95169373  1
  S2-  S194  1  0.00043752  0.37385526  0.44544384  1
  S2-  S195  1  -0.02458046  0.36927576  0.94496733  1
  S2-  S196  1  0.00375551  0.62036365  0.46801276  1
  S2-  S197  1  -0.01835893  0.61942745  0.96075621  1
  S2-  S198  1  0.00034500  0.86651342  0.45808866  1
  S2-  S199  1  -0.01975600  0.87313030  0.96310361  1
  S2-  S200  1  0.24430607  0.12038895  0.45377595  1
  S2-  S201  1  0.23266038  0.11791450  0.95786219  1
  S2-  S202  1  0.24803724  0.37067845  0.45925033  1
  S2-  S203  1  0.23839919  0.37161246  0.95305146  1
  S2-  S204  1  0.25367534  0.62586087  0.46000051  1
  S2-  S205  1  0.23082837  0.62433410  0.94727083  1
  S2-  S206  1  0.25215670  0.87238492  0.45473584  1
  S2-  S207  1  0.22935211  0.87009420  0.94256444  1
  S2-  S208  1  0.50511432  0.12026507  0.45249773  1
  S2-  S209  1  0.47872865  0.11925608  0.96717500  1
  S2-  S210  1  0.50703185  0.37270964  0.45712871  1
  S2-  S211  1  0.47915728  0.38001444  0.95762172  1
  S2-  S212  1  0.49315771  0.61947966  0.45848279  1
  S2-  S213  1  0.47842719  0.62406011  0.95881868  1
  S2-  S214  1  0.49936288  0.87212749  0.45493214  1
  S2-  S215  1  0.48610336  0.86320929  0.95673330  1
  S2-  S216  1  0.74735000  0.11961810  0.45443617  1
  S2-  S217  1  0.72825722  0.12354293  0.96519687  1
  S2-  S218  1  0.74909446  0.37171215  0.45733344  1
  S2-  S219  1  0.72705926  0.37658272  0.95050409  1
  S2-  S220  1  0.75143263  0.62336130  0.46197687  1
  S2-  S221  1  0.73145986  0.62844499  0.95469394  1
  S2-  S222  1  0.75782983  0.85949855  0.44810142  1
  S2-  S223  1  0.72870969  0.86420018  0.95922116  1
  S2-  S224  1  0.10125154  -0.00424846  0.03697763  1
  S2-  S225  1  0.12591754  -0.00503334  0.53580970  1
  S2-  S226  1  0.10129105  0.25021933  0.03479243  1
  S2-  S227  1  0.12468475  0.24824803  0.55036507  1
  S2-  S228  1  0.10525255  0.49775019  0.03550880  1
  S2-  S229  1  0.12571445  0.49478726  0.55057096  1
  S2-  S230  1  0.10358396  0.74707618  0.04170301  1
  S2-  S231  1  0.13320939  0.74987885  0.54856218  1
  S2-  S232  1  0.35013356  -0.00414316  0.04022537  1
  S2-  S233  1  0.37267697  0.00429672  0.53598119  1
  S2-  S234  1  0.34784661  0.24989837  0.04420216  1
  S2-  S235  1  0.37514628  0.24780080  0.54690310  1
  S2-  S236  1  0.34984432  0.49970198  0.04608355  1
  S2-  S237  1  0.37171248  0.49495577  0.54106221  1
  S2-  S238  1  0.35147451  0.74734639  0.04320652  1
  S2-  S239  1  0.37134152  0.74344311  0.55241916  1
  S2-  S240  1  0.60909652  -0.00509648  0.04969373  1
  S2-  S241  1  0.62221788  -0.00104177  0.54648308  1
  S2-  S242  1  0.59970546  0.25079652  0.04419758  1
  S2-  S243  1  0.62406820  0.24342640  0.54498043  1
  S2-  S244  1  0.60921805  0.50011211  0.04191519  1
  S2-  S245  1  0.62423033  0.49765193  0.54202132  1
  S2-  S246  1  0.60677662  0.74657991  0.06211371  1
  S2-  S247  1  0.61723803  0.74856223  0.53912571  1
  S2-  S248  1  0.85914175  -0.00348871  0.04716593  1
  S2-  S249  1  0.87702816  -0.00396609  0.54346333  1
  S2-  S250  1  0.85871142  0.24669231  0.03794627  1
  S2-  S251  1  0.87676288  0.24641898  0.55070957  1
  S2-  S252  1  0.85001779  0.49348067  0.03983456  1
  S2-  S253  1  0.87280408  0.49830605  0.55774572  1
  S2-  S254  1  0.85991928  0.74931203  0.04619846  1
  S2-  S255  1  0.87323716  0.74743446  0.54745222  1
