# generated using pymatgen
data_La6Ce6Pr19Nd20Sm13(BiS2)64
_symmetry_space_group_name_H-M   'P 1'
_cell_length_a   16.08992208
_cell_length_b   16.07404126
_cell_length_c   27.22004313
_cell_angle_alpha   89.65924189
_cell_angle_beta   90.30599311
_cell_angle_gamma   90.01730459
_symmetry_Int_Tables_number   1
_chemical_formula_structural   La6Ce6Pr19Nd20Sm13(BiS2)64
_chemical_formula_sum   'La6 Ce6 Pr19 Nd20 Sm13 Bi64 S128'
_cell_volume   7039.69654306
_cell_formula_units_Z   1
loop_
 _symmetry_equiv_pos_site_id
 _symmetry_equiv_pos_as_xyz
  1  'x, y, z'
loop_
 _atom_type_symbol
 _atom_type_oxidation_number
  La3+  3.0
  Ce3+  3.0
  Pr3+  3.0
  Nd3+  3.0
  Sm3+  3.0
  Bi2+  2.0
  S2-  -2.0
loop_
 _atom_site_type_symbol
 _atom_site_label
 _atom_site_symmetry_multiplicity
 _atom_site_fract_x
 _atom_site_fract_y
 _atom_site_fract_z
 _atom_site_occupancy
  La3+  La0  1  0.74912054  0.87208498  0.56262726  1
  La3+  La1  1  0.37600424  0.74393662  0.89191416  1
  La3+  La2  1  0.88736509  0.48359185  0.91922069  1
  La3+  La3  1  0.36354349  0.24758586  0.41552939  1
  La3+  La4  1  0.63708508  -0.00323467  0.38352901  1
  La3+  La5  1  -0.00591974  0.10985921  0.60536292  1
  Ce3+  Ce6  1  0.12371767  0.74262842  0.45138078  1
  Ce3+  Ce7  1  0.00286544  0.11212218  0.06175444  1
  Ce3+  Ce8  1  0.62283475  0.24090488  0.43703366  1
  Ce3+  Ce9  1  0.38356500  0.23635143  0.93733478  1
  Ce3+  Ce10  1  0.13188781  -0.00101875  0.43710869  1
  Ce3+  Ce11  1  -0.00494659  0.61307022  0.57053049  1
  Pr3+  Pr12  1  0.50745255  0.61573713  0.05385465  1
  Pr3+  Pr13  1  0.87933917  -0.01036726  0.92813376  1
  Pr3+  Pr14  1  0.63521527  0.49904355  0.90336215  1
  Pr3+  Pr15  1  0.24756031  0.86816728  0.56436430  1
  Pr3+  Pr16  1  0.62434882  0.49496884  0.43385375  1
  Pr3+  Pr17  1  0.25397522  0.11778632  0.57027131  1
  Pr3+  Pr18  1  0.76345955  0.86526291  0.06828784  1
  Pr3+  Pr19  1  0.11995947  0.49805608  0.43559191  1
  Pr3+  Pr20  1  0.12911651  0.24032990  0.94406307  1
  Pr3+  Pr21  1  0.75614011  0.11320564  0.05948223  1
  Pr3+  Pr22  1  -0.00560755  0.36930326  0.57721438  1
  Pr3+  Pr23  1  0.24962435  0.61305987  0.57561152  1
  Pr3+  Pr24  1  0.38196638  0.49306127  0.93173510  1
  Pr3+  Pr25  1  0.25559267  0.61382633  0.05688001  1
  Pr3+  Pr26  1  0.26225668  0.36248180  0.06429786  1
  Pr3+  Pr27  1  0.37985160  -0.00709053  0.93234293  1
  Pr3+  Pr28  1  0.75028903  0.36360034  0.56129595  1
  Pr3+  Pr29  1  0.50466777  0.85628017  0.06104314  1
  Pr3+  Pr30  1  0.75572852  0.61082130  0.05669841  1
  Nd3+  Nd31  1  0.87704284  0.00252610  0.43188089  1
  Nd3+  Nd32  1  -0.00120651  0.60903176  0.07406253  1
  Nd3+  Nd33  1  0.50831373  0.60741395  0.57913659  1
  Nd3+  Nd34  1  0.87848395  0.23721325  0.93224666  1
  Nd3+  Nd35  1  0.37719312  0.74179270  0.44996953  1
  Nd3+  Nd36  1  0.49988766  0.86655051  0.56046895  1
  Nd3+  Nd37  1  0.49899850  0.10559629  0.07794967  1
  Nd3+  Nd38  1  0.25595481  0.86002536  0.05406417  1
  Nd3+  Nd39  1  0.63616761  0.74655902  0.92493731  1
  Nd3+  Nd40  1  0.00125339  0.36269014  0.06953300  1
  Nd3+  Nd41  1  0.36993878  0.49761274  0.43211612  1
  Nd3+  Nd42  1  0.87639757  0.49237379  0.43500113  1
  Nd3+  Nd43  1  0.37569774  -0.00819472  0.42844538  1
  Nd3+  Nd44  1  0.62856034  0.23830372  0.94169533  1
  Nd3+  Nd45  1  0.62327071  0.74310333  0.43658965  1
  Nd3+  Nd46  1  0.49440709  0.11766228  0.55205119  1
  Nd3+  Nd47  1  0.12767500  -0.01345520  0.94325525  1
  Nd3+  Nd48  1  0.75411270  0.61715873  0.56299059  1
  Nd3+  Nd49  1  0.87128998  0.74961042  0.43591370  1
  Nd3+  Nd50  1  0.49740489  0.36733187  0.55694013  1
  Sm3+  Sm51  1  0.25551845  0.11119624  0.06109073  1
  Sm3+  Sm52  1  0.12819275  0.48769847  0.94477967  1
  Sm3+  Sm53  1  -0.00081164  0.87528343  0.55234996  1
  Sm3+  Sm54  1  0.75056336  0.11765977  0.55607796  1
  Sm3+  Sm55  1  0.75518398  0.36414059  0.05232951  1
  Sm3+  Sm56  1  0.12527662  0.24410577  0.45382142  1
  Sm3+  Sm57  1  0.12678475  0.73656938  0.93446935  1
  Sm3+  Sm58  1  0.87764896  0.24009090  0.44373832  1
  Sm3+  Sm59  1  0.87973995  0.73612476  0.94062580  1
  Sm3+  Sm60  1  0.00511589  0.85819454  0.06309109  1
  Sm3+  Sm61  1  0.62661580  -0.01548827  0.94336752  1
  Sm3+  Sm62  1  0.50693783  0.36177070  0.05284296  1
  Sm3+  Sm63  1  0.24848768  0.37198441  0.56036232  1
  Bi2+  Bi64  1  0.02093363  0.08064781  0.31704042  1
  Bi2+  Bi65  1  0.01372069  0.12939042  0.78592176  1
  Bi2+  Bi66  1  -0.10295574  0.36316079  0.32217947  1
  Bi2+  Bi67  1  0.00852005  0.35944864  0.79124870  1
  Bi2+  Bi68  1  0.00918994  0.60436141  0.27957288  1
  Bi2+  Bi69  1  -0.01512031  0.73739746  0.82547594  1
  Bi2+  Bi70  1  -0.00128794  0.89037694  0.28583510  1
  Bi2+  Bi71  1  -0.02194135  0.93397631  0.81362280  1
  Bi2+  Bi72  1  0.23553496  0.14313298  0.28977445  1
  Bi2+  Bi73  1  0.23749437  0.21182977  0.72721672  1
  Bi2+  Bi74  1  0.27944115  0.41939985  0.27992679  1
  Bi2+  Bi75  1  0.24432276  0.38657486  0.80036862  1
  Bi2+  Bi76  1  0.24478266  0.66716278  0.30487924  1
  Bi2+  Bi77  1  0.24328983  0.61726764  0.76397377  1
  Bi2+  Bi78  1  0.19704487  0.88683810  0.28674347  1
  Bi2+  Bi79  1  0.21143479  0.87210804  0.79353955  1
  Bi2+  Bi80  1  0.52083639  0.12199516  0.27244790  1
  Bi2+  Bi81  1  0.52147788  0.14825716  0.82106011  1
  Bi2+  Bi82  1  0.51455336  0.42038413  0.27598363  1
  Bi2+  Bi83  1  0.42689994  0.32298814  0.81237697  1
  Bi2+  Bi84  1  0.46313358  0.60697429  0.31183205  1
  Bi2+  Bi85  1  0.49187447  0.59293522  0.77551758  1
  Bi2+  Bi86  1  0.47093001  0.86096757  0.28095408  1
  Bi2+  Bi87  1  0.50033336  0.92650338  0.78700304  1
  Bi2+  Bi88  1  0.77740378  0.21741580  0.28391952  1
  Bi2+  Bi89  1  0.74867975  0.09403149  0.79388422  1
  Bi2+  Bi90  1  0.69945709  0.40480882  0.32176779  1
  Bi2+  Bi91  1  0.71716011  0.37143117  0.78608339  1
  Bi2+  Bi92  1  0.75757481  0.59260251  0.29729379  1
  Bi2+  Bi93  1  0.73899047  0.64228812  0.77764958  1
  Bi2+  Bi94  1  0.74189248  0.84385219  0.28738146  1
  Bi2+  Bi95  1  0.76973270  0.89920319  0.80534117  1
  Bi2+  Bi96  1  0.10078374  0.02088564  0.21580695  1
  Bi2+  Bi97  1  0.13848035  -0.03483872  0.70792473  1
  Bi2+  Bi98  1  0.06752979  0.27479051  0.28472896  1
  Bi2+  Bi99  1  0.14921721  0.37920839  0.69815287  1
  Bi2+  Bi100  1  0.10475499  0.45240968  0.23287858  1
  Bi2+  Bi101  1  0.05368007  0.57798561  0.76828060  1
  Bi2+  Bi102  1  0.11723220  0.73812974  0.22436149  1
  Bi2+  Bi103  1  0.07254717  0.76068901  0.72020994  1
  Bi2+  Bi104  1  0.36583712  -0.01406392  0.20860959  1
  Bi2+  Bi105  1  0.38731778  0.08022139  0.73670475  1
  Bi2+  Bi106  1  0.39003509  0.26711268  0.18916788  1
  Bi2+  Bi107  1  0.41861178  0.26503571  0.68769905  1
  Bi2+  Bi108  1  0.36585813  0.55378278  0.21188569  1
  Bi2+  Bi109  1  0.37321397  0.45227151  0.72013694  1
  Bi2+  Bi110  1  0.35060986  0.74623922  0.19095684  1
  Bi2+  Bi111  1  0.36995308  0.78920538  0.70106763  1
  Bi2+  Bi112  1  0.65269916  -0.00900602  0.17877023  1
  Bi2+  Bi113  1  0.59820236  0.06479360  0.72132306  1
  Bi2+  Bi114  1  0.66186121  0.33014566  0.21161062  1
  Bi2+  Bi115  1  0.62068777  0.26017494  0.69221945  1
  Bi2+  Bi116  1  0.64456969  0.53003400  0.21025542  1
  Bi2+  Bi117  1  0.65335818  0.45413103  0.69111794  1
  Bi2+  Bi118  1  0.56120766  0.70758255  0.22958150  1
  Bi2+  Bi119  1  0.61416073  0.76073822  0.69701445  1
  Bi2+  Bi120  1  0.90063141  0.01846739  0.21370197  1
  Bi2+  Bi121  1  0.86841018  -0.02987347  0.71449188  1
  Bi2+  Bi122  1  0.92088632  0.26665309  0.20743628  1
  Bi2+  Bi123  1  0.82481421  0.23613632  0.70840906  1
  Bi2+  Bi124  1  0.88878935  0.48775614  0.21644916  1
  Bi2+  Bi125  1  0.89487771  0.49939117  0.70869605  1
  Bi2+  Bi126  1  0.86898076  0.75601908  0.19124548  1
  Bi2+  Bi127  1  0.87137471  0.74917611  0.72010431  1
  S2-  S128  1  0.02069481  0.15504941  0.15661009  1
  S2-  S129  1  -0.01786293  0.21565639  0.69170585  1
  S2-  S130  1  0.01580198  0.47854491  0.14507041  1
  S2-  S131  1  0.03331849  0.49465110  0.64709674  1
  S2-  S132  1  0.02048249  0.73942404  0.14089663  1
  S2-  S133  1  -0.12868358  0.63112585  0.64123453  1
  S2-  S134  1  -0.10038989  0.90424014  0.13860458  1
  S2-  S135  1  -0.00475726  0.94317758  0.64356823  1
  S2-  S136  1  0.31148159  0.11745946  0.15429951  1
  S2-  S137  1  0.15475032  0.11326042  0.65449348  1
  S2-  S138  1  0.25224059  0.34759163  0.16528106  1
  S2-  S139  1  0.26316695  0.47229204  0.64062648  1
  S2-  S140  1  0.23506544  0.61989385  0.15768949  1
  S2-  S141  1  0.23896046  0.68834905  0.67206584  1
  S2-  S142  1  0.26199250  0.87712897  0.15407336  1
  S2-  S143  1  0.27505444  0.92107276  0.65885624  1
  S2-  S144  1  0.53979282  0.16829308  0.17005329  1
  S2-  S145  1  0.39703128  0.10963365  0.63594610  1
  S2-  S146  1  0.46790380  0.38688314  0.14689676  1
  S2-  S147  1  0.50180346  0.45906434  0.64211204  1
  S2-  S148  1  0.50213432  0.72456082  0.13517693  1
  S2-  S149  1  0.46423040  0.66477369  0.67370351  1
  S2-  S150  1  0.48883089  0.96164850  0.14367575  1
  S2-  S151  1  0.51269859  0.87388406  0.66158886  1
  S2-  S152  1  0.77729596  0.10140965  0.16013982  1
  S2-  S153  1  0.82286976  0.09693692  0.64570515  1
  S2-  S154  1  0.79528692  0.35662262  0.14905500  1
  S2-  S155  1  0.85181132  0.38058714  0.64471925  1
  S2-  S156  1  0.84318026  0.61589613  0.14575305  1
  S2-  S157  1  0.65547731  0.60980567  0.64630295  1
  S2-  S158  1  0.71213248  0.82703133  0.16521422  1
  S2-  S159  1  0.75047701  0.85004690  0.66362684  1
  S2-  S160  1  0.24160113  0.00187712  0.35827047  1
  S2-  S161  1  0.13394140  0.00890324  0.84368365  1
  S2-  S162  1  0.19697255  0.24962810  0.36192553  1
  S2-  S163  1  0.09034173  0.23393692  0.84418796  1
  S2-  S164  1  0.23735103  0.51679824  0.35885688  1
  S2-  S165  1  0.04001323  0.48908978  0.85970406  1
  S2-  S166  1  0.10778347  0.71138793  0.35638565  1
  S2-  S167  1  0.21323837  0.72986956  0.84695103  1
  S2-  S168  1  0.46929269  -0.00816473  0.34141715  1
  S2-  S169  1  0.35992565  -0.09443203  0.84547375  1
  S2-  S170  1  0.38904630  0.18593935  0.31520848  1
  S2-  S171  1  0.36421720  0.12961439  0.86203251  1
  S2-  S172  1  0.39826376  0.38811407  0.35170791  1
  S2-  S173  1  0.36860158  0.58272216  0.84433686  1
  S2-  S174  1  0.37962207  0.75907241  0.34987567  1
  S2-  S175  1  0.45223252  0.75746921  0.79325487  1
  S2-  S176  1  0.65295273  -0.00152966  0.27256879  1
  S2-  S177  1  0.61727948  -0.10778801  0.85895883  1
  S2-  S178  1  0.62624453  0.17160876  0.34668159  1
  S2-  S179  1  0.67683190  0.23564006  0.84558104  1
  S2-  S180  1  0.61605147  0.61898639  0.36062690  1
  S2-  S181  1  0.55749853  0.43851646  0.81633687  1
  S2-  S182  1  0.61483695  0.83014258  0.34773488  1
  S2-  S183  1  0.60629034  0.64384505  0.84325493  1
  S2-  S184  1  0.80105291  -0.04937208  0.34744852  1
  S2-  S185  1  0.88882715  0.11882766  0.85509468  1
  S2-  S186  1  0.87212073  0.14719597  0.35891516  1
  S2-  S187  1  0.88418142  0.33963566  0.85043569  1
  S2-  S188  1  0.99566356  0.50036917  0.36060787  1
  S2-  S189  1  0.77833657  0.51483716  0.83867282  1
  S2-  S190  1  0.84265711  0.72265415  0.33731835  1
  S2-  S191  1  0.78257511  0.74855841  0.85784256  1
  S2-  S192  1  0.00659354  0.12126248  0.45469801  1
  S2-  S193  1  0.00641990  0.11362021  0.95635635  1
  S2-  S194  1  -0.00102765  0.36279881  0.46185292  1
  S2-  S195  1  0.00616782  0.36142678  0.96260849  1
  S2-  S196  1  -0.00683610  0.62385813  0.46171413  1
  S2-  S197  1  0.00551119  0.61441877  0.95953564  1
  S2-  S198  1  0.00094905  0.87267775  0.44684520  1
  S2-  S199  1  0.00395167  0.86135440  0.95576922  1
  S2-  S200  1  0.25163249  0.12177273  0.46161981  1
  S2-  S201  1  0.24925844  0.11290299  0.95817753  1
  S2-  S202  1  0.24651503  0.37322022  0.45777522  1
  S2-  S203  1  0.25669311  0.36520715  0.95361800  1
  S2-  S204  1  0.24864837  0.62228441  0.46642544  1
  S2-  S205  1  0.24943642  0.61145921  0.95057808  1
  S2-  S206  1  0.25004309  0.86467301  0.45681796  1
  S2-  S207  1  0.25061086  0.86077282  0.94955923  1
  S2-  S208  1  0.49238441  0.12314778  0.44785603  1
  S2-  S209  1  0.50888677  0.11143566  0.96312876  1
  S2-  S210  1  0.50207769  0.36811111  0.45176713  1
  S2-  S211  1  0.50937394  0.36836926  0.94774684  1
  S2-  S212  1  0.49774952  0.61545013  0.46302658  1
  S2-  S213  1  0.50854378  0.61501716  0.94827529  1
  S2-  S214  1  0.49970700  0.86818680  0.45531396  1
  S2-  S215  1  0.49870500  0.86013553  0.95296850  1
  S2-  S216  1  0.74372330  0.11510374  0.45364040  1
  S2-  S217  1  0.74949948  0.11001744  0.95291342  1
  S2-  S218  1  0.75257532  0.36355818  0.45351911  1
  S2-  S219  1  0.74903971  0.36716764  0.94915377  1
  S2-  S220  1  0.75510626  0.61780848  0.45540954  1
  S2-  S221  1  0.75690299  0.60969469  0.95200891  1
  S2-  S222  1  0.74567952  0.87106732  0.45494048  1
  S2-  S223  1  0.75888702  0.86861218  0.95938579  1
  S2-  S224  1  0.12916191  -0.01298963  0.05164932  1
  S2-  S225  1  0.12505311  -0.00455489  0.54444744  1
  S2-  S226  1  0.13279703  0.23910873  0.05191856  1
  S2-  S227  1  0.12353530  0.24855192  0.55762748  1
  S2-  S228  1  0.13258078  0.48435486  0.04742079  1
  S2-  S229  1  0.12312051  0.49286344  0.54174628  1
  S2-  S230  1  0.12990599  0.73736658  0.03983888  1
  S2-  S231  1  0.11820106  0.74425758  0.55843692  1
  S2-  S232  1  0.37505670  -0.01116296  0.04070202  1
  S2-  S233  1  0.37484852  -0.01276737  0.53755996  1
  S2-  S234  1  0.38299608  0.23477979  0.04503464  1
  S2-  S235  1  0.37026838  0.25025667  0.53988712  1
  S2-  S236  1  0.38306239  0.48921244  0.04057720  1
  S2-  S237  1  0.37666159  0.49368544  0.53968168  1
  S2-  S238  1  0.37587008  0.73674298  0.03984841  1
  S2-  S239  1  0.37506944  0.73977924  0.55631295  1
  S2-  S240  1  0.63120113  -0.01298765  0.04738517  1
  S2-  S241  1  0.62257464  -0.00089000  0.56003955  1
  S2-  S242  1  0.62977814  0.23918941  0.04957451  1
  S2-  S243  1  0.62317558  0.24024841  0.54569957  1
  S2-  S244  1  0.62967319  0.48495978  0.05420350  1
  S2-  S245  1  0.62986284  0.48829684  0.53994966  1
  S2-  S246  1  0.63760234  0.73965882  0.03753069  1
  S2-  S247  1  0.62404969  0.74175457  0.54586066  1
  S2-  S248  1  0.88301179  -0.00760844  0.03565498  1
  S2-  S249  1  0.87603241  -0.00315692  0.53934859  1
  S2-  S250  1  0.87957791  0.23967105  0.04284258  1
  S2-  S251  1  0.87943414  0.23627425  0.54804339  1
  S2-  S252  1  0.87981222  0.48332264  0.03946425  1
  S2-  S253  1  0.87373140  0.48985651  0.53958247  1
  S2-  S254  1  0.88103382  0.73735365  0.04199063  1
  S2-  S255  1  0.87706709  0.75128092  0.54322032  1
