# generated using pymatgen
data_La6Ce6Pr19Nd20Sm13(BiS2)64
_symmetry_space_group_name_H-M   'P 1'
_cell_length_a   16.17529839
_cell_length_b   16.15678461
_cell_length_c   27.22574031
_cell_angle_alpha   89.97269156
_cell_angle_beta   90.02768167
_cell_angle_gamma   89.96295576
_symmetry_Int_Tables_number   1
_chemical_formula_structural   La6Ce6Pr19Nd20Sm13(BiS2)64
_chemical_formula_sum   'La6 Ce6 Pr19 Nd20 Sm13 Bi64 S128'
_cell_volume   7115.19395859
_cell_formula_units_Z   1
loop_
 _symmetry_equiv_pos_site_id
 _symmetry_equiv_pos_as_xyz
  1  'x, y, z'
loop_
 _atom_type_symbol
 _atom_type_oxidation_number
  La3+  3.0
  Ce3+  3.0
  Pr3+  3.0
  Nd3+  3.0
  Sm3+  3.0
  Bi2+  2.0
  S2-  -2.0
loop_
 _atom_site_type_symbol
 _atom_site_label
 _atom_site_symmetry_multiplicity
 _atom_site_fract_x
 _atom_site_fract_y
 _atom_site_fract_z
 _atom_site_occupancy
  La3+  La0  1  0.88078429  -0.01593309  0.39354448  1
  La3+  La1  1  0.74137121  0.35152416  0.59452878  1
  La3+  La2  1  0.12442782  0.23991337  0.91311187  1
  La3+  La3  1  0.36422301  0.50355066  0.93466188  1
  La3+  La4  1  -0.00708873  0.59991866  0.57583043  1
  La3+  La5  1  0.85981411  0.50828804  0.90876541  1
  Ce3+  Ce6  1  0.62042127  0.23295185  0.44020808  1
  Ce3+  Ce7  1  0.74529823  0.62127266  0.05835098  1
  Ce3+  Ce8  1  0.11912627  -0.01381806  0.44366426  1
  Ce3+  Ce9  1  0.24408602  0.10969479  0.55931611  1
  Ce3+  Ce10  1  0.61704779  -0.00205487  0.94385365  1
  Ce3+  Ce11  1  0.86915597  0.75079601  0.94366124  1
  Pr3+  Pr12  1  0.86866889  0.73822222  0.44002010  1
  Pr3+  Pr13  1  -0.00498927  0.34903040  0.57155555  1
  Pr3+  Pr14  1  0.48967008  0.87571697  0.06696408  1
  Pr3+  Pr15  1  0.62234023  -0.02019144  0.43117691  1
  Pr3+  Pr16  1  0.11608857  0.23475554  0.43493430  1
  Pr3+  Pr17  1  0.49439093  0.37403883  0.05876245  1
  Pr3+  Pr18  1  0.11495779  0.48437916  0.43941461  1
  Pr3+  Pr19  1  0.86855165  0.48423642  0.44770154  1
  Pr3+  Pr20  1  0.86411066  0.23536443  0.43421280  1
  Pr3+  Pr21  1  0.49608039  0.35924453  0.56543198  1
  Pr3+  Pr22  1  0.49532615  0.62133907  0.06604044  1
  Pr3+  Pr23  1  -0.01116301  0.12756410  0.05810063  1
  Pr3+  Pr24  1  0.37077147  0.48627479  0.43809564  1
  Pr3+  Pr25  1  0.11556195  0.73573851  0.44137872  1
  Pr3+  Pr26  1  0.36654239  -0.00400510  0.92996668  1
  Pr3+  Pr27  1  0.74362103  0.10531728  0.56300634  1
  Pr3+  Pr28  1  0.24644356  0.61465006  0.07892663  1
  Pr3+  Pr29  1  0.24342847  0.12671355  0.06516053  1
  Pr3+  Pr30  1  0.74503986  0.60998882  0.56447871  1
  Nd3+  Nd31  1  0.11604094  0.00056446  0.94512175  1
  Nd3+  Nd32  1  0.11580544  0.49892868  0.93686935  1
  Nd3+  Nd33  1  0.24316569  0.60936868  0.55749427  1
  Nd3+  Nd34  1  -0.01202602  0.61923695  0.06017157  1
  Nd3+  Nd35  1  0.49377040  0.86065300  0.55835348  1
  Nd3+  Nd36  1  0.61975926  0.48615818  0.44575536  1
  Nd3+  Nd37  1  0.49414662  0.61051959  0.56047774  1
  Nd3+  Nd38  1  -0.00632151  0.86107847  0.56072500  1
  Nd3+  Nd39  1  -0.01036638  0.37079153  0.04367658  1
  Nd3+  Nd40  1  0.36510662  0.74702709  0.93671803  1
  Nd3+  Nd41  1  0.74657890  0.86349490  0.56615028  1
  Nd3+  Nd42  1  0.24191730  0.87095779  0.05789757  1
  Nd3+  Nd43  1  0.49288871  0.12410972  0.05180631  1
  Nd3+  Nd44  1  0.24423023  0.35856301  0.56193181  1
  Nd3+  Nd45  1  0.36953406  0.23516105  0.44399299  1
  Nd3+  Nd46  1  0.86854585  -0.00187738  0.93290393  1
  Nd3+  Nd47  1  -0.00844241  0.87386243  0.06640360  1
  Nd3+  Nd48  1  0.36963665  -0.01510707  0.44260554  1
  Nd3+  Nd49  1  0.61784621  0.75078798  0.94731339  1
  Nd3+  Nd50  1  0.85980600  0.24340309  0.91028925  1
  Sm3+  Sm51  1  0.74413285  0.87584483  0.06213418  1
  Sm3+  Sm52  1  0.74553568  0.12390566  0.05627123  1
  Sm3+  Sm53  1  0.36817209  0.73481750  0.44460349  1
  Sm3+  Sm54  1  0.23798421  0.36836502  0.06089572  1
  Sm3+  Sm55  1  0.24258534  0.86053207  0.55724952  1
  Sm3+  Sm56  1  0.49612800  0.10884177  0.55288819  1
  Sm3+  Sm57  1  0.37070175  0.25863932  0.93397337  1
  Sm3+  Sm58  1  0.62148902  0.50009884  0.94056978  1
  Sm3+  Sm59  1  0.62106773  0.73733400  0.44654844  1
  Sm3+  Sm60  1  0.11535719  0.74715043  0.94796416  1
  Sm3+  Sm61  1  0.74712888  0.37219208  0.04998864  1
  Sm3+  Sm62  1  -0.00888494  0.11270775  0.55613768  1
  Sm3+  Sm63  1  0.62203103  0.24770402  0.93930909  1
  Bi2+  Bi64  1  0.01642546  0.15666529  0.30224663  1
  Bi2+  Bi65  1  0.00725935  0.05944696  0.77954293  1
  Bi2+  Bi66  1  -0.00151340  0.39474719  0.30368348  1
  Bi2+  Bi67  1  0.02284929  0.40962702  0.78461115  1
  Bi2+  Bi68  1  0.01907915  0.62558065  0.29714052  1
  Bi2+  Bi69  1  0.01982748  0.69639204  0.79314643  1
  Bi2+  Bi70  1  0.01505363  0.86476338  0.28689836  1
  Bi2+  Bi71  1  0.00477836  0.88088363  0.82930755  1
  Bi2+  Bi72  1  0.27615776  0.13464648  0.30986123  1
  Bi2+  Bi73  1  0.27812564  0.06389383  0.80985615  1
  Bi2+  Bi74  1  0.33911675  0.36481934  0.26726072  1
  Bi2+  Bi75  1  0.25577413  0.36205425  0.79627054  1
  Bi2+  Bi76  1  0.28721668  0.63114556  0.27700218  1
  Bi2+  Bi77  1  0.29915750  0.61669441  0.76328480  1
  Bi2+  Bi78  1  0.26579601  0.88559339  0.26393609  1
  Bi2+  Bi79  1  0.24012748  0.87003964  0.80208955  1
  Bi2+  Bi80  1  0.52123205  0.15905191  0.30304108  1
  Bi2+  Bi81  1  0.46327037  0.13071748  0.78830952  1
  Bi2+  Bi82  1  0.54551100  0.42249229  0.28432452  1
  Bi2+  Bi83  1  0.51156151  0.38426602  0.78939133  1
  Bi2+  Bi84  1  0.47049349  0.60023771  0.30932334  1
  Bi2+  Bi85  1  0.48757403  0.64982644  0.78846589  1
  Bi2+  Bi86  1  0.49191004  0.97037138  0.30577339  1
  Bi2+  Bi87  1  0.50753237  0.93960948  0.80065424  1
  Bi2+  Bi88  1  0.71369329  0.12156666  0.27628941  1
  Bi2+  Bi89  1  0.74169399  0.10997374  0.79076112  1
  Bi2+  Bi90  1  0.73664862  0.43060288  0.23772576  1
  Bi2+  Bi91  1  0.75615999  0.38409206  0.79270579  1
  Bi2+  Bi92  1  0.77065710  0.60013807  0.29535324  1
  Bi2+  Bi93  1  0.73475698  0.70711121  0.79397346  1
  Bi2+  Bi94  1  0.74203519  0.85466738  0.28663468  1
  Bi2+  Bi95  1  0.80800491  0.89207270  0.80678981  1
  Bi2+  Bi96  1  0.14975800  0.04543401  0.23959463  1
  Bi2+  Bi97  1  0.15869344  0.01843325  0.71024597  1
  Bi2+  Bi98  1  0.16740481  0.24200643  0.23310406  1
  Bi2+  Bi99  1  0.13089259  0.23726802  0.70496989  1
  Bi2+  Bi100  1  0.16316003  0.51806482  0.22314727  1
  Bi2+  Bi101  1  0.13562162  0.52035274  0.70003140  1
  Bi2+  Bi102  1  0.12166952  0.78773027  0.20497772  1
  Bi2+  Bi103  1  0.10857908  0.82614888  0.72098471  1
  Bi2+  Bi104  1  0.38864468  -0.01195923  0.19439656  1
  Bi2+  Bi105  1  0.36071882  -0.02255967  0.71743525  1
  Bi2+  Bi106  1  0.35749042  0.18104083  0.20282411  1
  Bi2+  Bi107  1  0.39989729  0.27735046  0.71544507  1
  Bi2+  Bi108  1  0.41573890  0.47235682  0.18310983  1
  Bi2+  Bi109  1  0.40282902  0.47941750  0.70420993  1
  Bi2+  Bi110  1  0.43580554  0.77487654  0.22294316  1
  Bi2+  Bi111  1  0.37776791  0.78074910  0.71765330  1
  Bi2+  Bi112  1  0.60482549  -0.00825470  0.21361976  1
  Bi2+  Bi113  1  0.60841022  0.02270522  0.71100347  1
  Bi2+  Bi114  1  0.61612036  0.26986105  0.22244574  1
  Bi2+  Bi115  1  0.59589327  0.24511636  0.71242211  1
  Bi2+  Bi116  1  0.59452828  0.54703373  0.18628358  1
  Bi2+  Bi117  1  0.59309225  0.52241543  0.72549408  1
  Bi2+  Bi118  1  0.62064302  0.70957768  0.25133935  1
  Bi2+  Bi119  1  0.64167582  0.82664606  0.71922614  1
  Bi2+  Bi120  1  0.87443111  0.00384762  0.19371104  1
  Bi2+  Bi121  1  0.86573441  -0.00350257  0.71014838  1
  Bi2+  Bi122  1  0.90030091  0.24888933  0.18787402  1
  Bi2+  Bi123  1  0.86939779  0.24610005  0.71276667  1
  Bi2+  Bi124  1  0.91903755  0.49053496  0.18468157  1
  Bi2+  Bi125  1  0.88555368  0.55190641  0.70536056  1
  Bi2+  Bi126  1  0.88865549  0.69538014  0.22265750  1
  Bi2+  Bi127  1  0.83440971  0.79362410  0.70432742  1
  S2-  S128  1  -0.00431811  0.13008074  0.15965818  1
  S2-  S129  1  -0.00704023  0.20958367  0.64090414  1
  S2-  S130  1  0.00855552  0.36475248  0.14474822  1
  S2-  S131  1  -0.00288441  0.45553894  0.65090241  1
  S2-  S132  1  0.01590068  0.62382482  0.15884451  1
  S2-  S133  1  0.02363060  0.64753770  0.67150241  1
  S2-  S134  1  -0.00666029  0.89248357  0.16510535  1
  S2-  S135  1  -0.02804407  0.87939476  0.65914730  1
  S2-  S136  1  0.23947434  0.24897272  0.13637892  1
  S2-  S137  1  0.24460463  0.14299028  0.65480297  1
  S2-  S138  1  0.23935396  0.47020036  0.14190924  1
  S2-  S139  1  0.19702840  0.36693948  0.65865814  1
  S2-  S140  1  0.21881776  0.66609141  0.17778013  1
  S2-  S141  1  0.25316156  0.60379482  0.65655333  1
  S2-  S142  1  0.24357476  0.88539096  0.15636192  1
  S2-  S143  1  0.24738417  0.84082546  0.65368193  1
  S2-  S144  1  0.50534414  0.09538077  0.14957015  1
  S2-  S145  1  0.51315326  0.12198093  0.64965122  1
  S2-  S146  1  0.50463852  0.32870172  0.15526981  1
  S2-  S147  1  0.59285651  0.37346692  0.64936565  1
  S2-  S148  1  0.41676326  0.64516634  0.15427568  1
  S2-  S149  1  0.50302907  0.60860410  0.65897103  1
  S2-  S150  1  0.54360144  0.85299757  0.16137335  1
  S2-  S151  1  0.50661166  0.85032249  0.65679548  1
  S2-  S152  1  0.78271354  0.13636655  0.15192265  1
  S2-  S153  1  0.75429788  0.20222118  0.65049504  1
  S2-  S154  1  0.78790812  0.36874666  0.14535485  1
  S2-  S155  1  0.80240464  0.40019034  0.68849244  1
  S2-  S156  1  0.80163229  0.61431627  0.14927514  1
  S2-  S157  1  0.76025519  0.63138277  0.66353921  1
  S2-  S158  1  0.77312831  0.89639761  0.15875701  1
  S2-  S159  1  0.73447839  0.98130182  0.63999518  1
  S2-  S160  1  0.05334561  -0.02294936  0.35378286  1
  S2-  S161  1  0.11828489  0.08035818  0.85726867  1
  S2-  S162  1  0.12158923  0.29499927  0.34051482  1
  S2-  S163  1  0.10569805  0.27305297  0.80758623  1
  S2-  S164  1  0.11966847  0.50937218  0.33936325  1
  S2-  S165  1  0.15307718  0.48071593  0.83962949  1
  S2-  S166  1  0.11195705  0.74749912  0.34016465  1
  S2-  S167  1  0.14525612  0.71620055  0.85262818  1
  S2-  S168  1  0.32295283  -0.02601076  0.34749385  1
  S2-  S169  1  0.37843847  -0.13681680  0.86077207  1
  S2-  S170  1  0.38545400  0.26063933  0.34640092  1
  S2-  S171  1  0.27754465  0.22598368  0.85467388  1
  S2-  S172  1  0.33731271  0.48882416  0.33958586  1
  S2-  S173  1  0.38636601  0.39005483  0.85923412  1
  S2-  S174  1  0.36918444  0.72989029  0.34677768  1
  S2-  S175  1  0.36379163  0.62766012  0.86225090  1
  S2-  S176  1  0.72035088  -0.01741071  0.34799977  1
  S2-  S177  1  0.65308931  -0.00850971  0.84895948  1
  S2-  S178  1  0.66963023  0.23558696  0.34661076  1
  S2-  S179  1  0.69826228  0.24746039  0.85076735  1
  S2-  S180  1  0.63593299  0.52122517  0.34938439  1
  S2-  S181  1  0.69766792  0.50039198  0.85248762  1
  S2-  S182  1  0.63308487  0.77805989  0.35203924  1
  S2-  S183  1  0.59547257  0.74233091  0.84864367  1
  S2-  S184  1  0.88521398  0.06389222  0.29606853  1
  S2-  S185  1  0.87197730  0.09866653  0.85064827  1
  S2-  S186  1  0.90176362  0.27788572  0.33745687  1
  S2-  S187  1  0.89996194  0.29674870  0.81461941  1
  S2-  S188  1  0.89875464  0.51634852  0.34978962  1
  S2-  S189  1  0.88881690  0.49655692  0.80655529  1
  S2-  S190  1  0.87495881  0.82282408  0.35031457  1
  S2-  S191  1  0.87406168  0.67557120  0.85583586  1
  S2-  S192  1  -0.01004852  0.10953932  0.45092341  1
  S2-  S193  1  -0.01108983  0.12548797  0.95149988  1
  S2-  S194  1  -0.00688105  0.35888063  0.45863458  1
  S2-  S195  1  -0.01039050  0.37271798  0.93605829  1
  S2-  S196  1  -0.00771014  0.61168743  0.46200256  1
  S2-  S197  1  -0.00665383  0.62293046  0.95332543  1
  S2-  S198  1  -0.00709111  0.86315986  0.45560612  1
  S2-  S199  1  -0.00639029  0.87471696  0.95937204  1
  S2-  S200  1  0.24446151  0.11088277  0.45250241  1
  S2-  S201  1  0.24808046  0.12049667  0.95944036  1
  S2-  S202  1  0.24487103  0.36084930  0.45323205  1
  S2-  S203  1  0.23878382  0.37248509  0.95530422  1
  S2-  S204  1  0.24334251  0.61149198  0.45079645  1
  S2-  S205  1  0.23577045  0.62516573  0.96581330  1
  S2-  S206  1  0.24429594  0.85875400  0.45224911  1
  S2-  S207  1  0.23685781  0.87306915  0.95329242  1
  S2-  S208  1  0.49399990  0.10825606  0.44771190  1
  S2-  S209  1  0.49251004  0.12709458  0.94457947  1
  S2-  S210  1  0.49492672  0.36130738  0.45576894  1
  S2-  S211  1  0.50436607  0.37378551  0.95311256  1
  S2-  S212  1  0.49537975  0.61441230  0.45454489  1
  S2-  S213  1  0.49945510  0.62300453  0.95871269  1
  S2-  S214  1  0.49232238  0.85757010  0.45185642  1
  S2-  S215  1  0.49370758  0.87458504  0.96013563  1
  S2-  S216  1  0.74624365  0.10624106  0.45184573  1
  S2-  S217  1  0.74232681  0.12095299  0.95273564  1
  S2-  S218  1  0.74194280  0.36318031  0.44935400  1
  S2-  S219  1  0.74529812  0.37264653  0.94775206  1
  S2-  S220  1  0.74383652  0.61371028  0.45690971  1
  S2-  S221  1  0.74164844  0.62660681  0.95432869  1
  S2-  S222  1  0.74481968  0.85892296  0.46066333  1
  S2-  S223  1  0.74406627  0.87448917  0.95585736  1
  S2-  S224  1  0.11738009  0.00014840  0.05275717  1
  S2-  S225  1  0.11758668  -0.01325418  0.55138464  1
  S2-  S226  1  0.11525505  0.24726770  0.03418206  1
  S2-  S227  1  0.12248115  0.23361372  0.54175096  1
  S2-  S228  1  0.11292786  0.49613729  0.04431556  1
  S2-  S229  1  0.12166016  0.48256734  0.54608985  1
  S2-  S230  1  0.11552600  0.74724751  0.05363332  1
  S2-  S231  1  0.11927221  0.73497447  0.54980060  1
  S2-  S232  1  0.36649029  -0.00060592  0.04301525  1
  S2-  S233  1  0.36901512  -0.01536940  0.55043837  1
  S2-  S234  1  0.37171996  0.24971901  0.03935049  1
  S2-  S235  1  0.37176938  0.23460071  0.55032787  1
  S2-  S236  1  0.36966991  0.49597613  0.04297979  1
  S2-  S237  1  0.36973435  0.48478273  0.54692206  1
  S2-  S238  1  0.36703030  0.74844733  0.04625264  1
  S2-  S239  1  0.36784467  0.73574973  0.54992301  1
  S2-  S240  1  0.62073898  -0.00063383  0.05017979  1
  S2-  S241  1  0.61452736  -0.01632751  0.53936378  1
  S2-  S242  1  0.62266621  0.24662836  0.04474531  1
  S2-  S243  1  0.61793120  0.23411507  0.54558630  1
  S2-  S244  1  0.62272290  0.49570453  0.04581769  1
  S2-  S245  1  0.62055338  0.48725030  0.55069369  1
  S2-  S246  1  0.62089795  0.74981696  0.05415931  1
  S2-  S247  1  0.62004103  0.73703041  0.55248803  1
  S2-  S248  1  0.86679544  -0.00208383  0.04260148  1
  S2-  S249  1  0.87550888  -0.01244708  0.54914564  1
  S2-  S250  1  0.86421145  0.24749376  0.03450804  1
  S2-  S251  1  0.86556714  0.23511074  0.54179721  1
  S2-  S252  1  0.86691706  0.49694130  0.03438089  1
  S2-  S253  1  0.86215284  0.47699156  0.55380858  1
  S2-  S254  1  0.86747399  0.75140852  0.05102493  1
  S2-  S255  1  0.87008846  0.73618868  0.55019667  1
