# generated using pymatgen
data_La6Ce6Pr19Nd20Sm13(BiS2)64
_symmetry_space_group_name_H-M   'P 1'
_cell_length_a   16.09093984
_cell_length_b   16.06425796
_cell_length_c   27.21376796
_cell_angle_alpha   90.06359607
_cell_angle_beta   90.03778323
_cell_angle_gamma   89.88139646
_symmetry_Int_Tables_number   1
_chemical_formula_structural   La6Ce6Pr19Nd20Sm13(BiS2)64
_chemical_formula_sum   'La6 Ce6 Pr19 Nd20 Sm13 Bi64 S128'
_cell_volume   7034.43897228
_cell_formula_units_Z   1
loop_
 _symmetry_equiv_pos_site_id
 _symmetry_equiv_pos_as_xyz
  1  'x, y, z'
loop_
 _atom_type_symbol
 _atom_type_oxidation_number
  La3+  3.0
  Ce3+  3.0
  Pr3+  3.0
  Nd3+  3.0
  Sm3+  3.0
  Bi2+  2.0
  S2-  -2.0
loop_
 _atom_site_type_symbol
 _atom_site_label
 _atom_site_symmetry_multiplicity
 _atom_site_fract_x
 _atom_site_fract_y
 _atom_site_fract_z
 _atom_site_occupancy
  La3+  La0  1  0.74307497  0.64052232  0.58081083  1
  La3+  La1  1  0.11160082  0.51522691  0.40921988  1
  La3+  La2  1  0.62572142  0.00524275  0.42179699  1
  La3+  La3  1  0.00230346  0.38583372  0.11504764  1
  La3+  La4  1  0.37594769  0.02941306  0.39139433  1
  La3+  La5  1  0.00358635  0.63072540  0.60355529  1
  Ce3+  Ce6  1  0.50428220  0.36023787  0.06556778  1
  Ce3+  Ce7  1  0.23988654  0.63542538  0.55472770  1
  Ce3+  Ce8  1  0.49277195  0.89024899  0.54880524  1
  Ce3+  Ce9  1  0.37114915  0.51334489  0.44121406  1
  Ce3+  Ce10  1  0.00579379  0.60570569  0.05021361  1
  Ce3+  Ce11  1  0.87870266  0.24122724  0.93356991  1
  Pr3+  Pr12  1  -0.00565215  0.13359669  0.57270849  1
  Pr3+  Pr13  1  0.11797938  0.26119313  0.44217792  1
  Pr3+  Pr14  1  -0.00691872  0.39065833  0.56131717  1
  Pr3+  Pr15  1  0.63297374  0.72774847  0.93493960  1
  Pr3+  Pr16  1  0.87187606  0.75945110  0.44980774  1
  Pr3+  Pr17  1  0.62568724  0.47834929  0.92052729  1
  Pr3+  Pr18  1  0.74549379  0.39056009  0.57595983  1
  Pr3+  Pr19  1  0.49424120  0.38503782  0.55992217  1
  Pr3+  Pr20  1  -0.00124516  0.88580182  0.56870687  1
  Pr3+  Pr21  1  0.49334448  0.13129316  0.55956100  1
  Pr3+  Pr22  1  0.38207474  -0.02446829  0.93533483  1
  Pr3+  Pr23  1  0.24477953  0.13688910  0.55837562  1
  Pr3+  Pr24  1  0.12907951  0.48247678  0.92935491  1
  Pr3+  Pr25  1  0.75492651  0.35799911  0.05777015  1
  Pr3+  Pr26  1  0.25304498  0.60682347  0.06006267  1
  Pr3+  Pr27  1  -0.00006721  0.11580112  0.06633285  1
  Pr3+  Pr28  1  0.24858374  0.85702619  0.07441096  1
  Pr3+  Pr29  1  0.49459890  0.63603641  0.56554234  1
  Pr3+  Pr30  1  0.11753929  0.76106768  0.43108937  1
  Nd3+  Nd31  1  0.62159437  0.23425272  0.92666372  1
  Nd3+  Nd32  1  0.37575069  0.22690539  0.93982703  1
  Nd3+  Nd33  1  0.88433186  -0.01332200  0.92934828  1
  Nd3+  Nd34  1  0.13166389  0.73855102  0.93345915  1
  Nd3+  Nd35  1  0.25788357  0.36009232  0.06596463  1
  Nd3+  Nd36  1  0.76047331  0.60414042  0.04859606  1
  Nd3+  Nd37  1  0.50782921  0.60992868  0.06162744  1
  Nd3+  Nd38  1  0.00701903  0.86072050  0.06052113  1
  Nd3+  Nd39  1  0.86826242  0.26156471  0.45027960  1
  Nd3+  Nd40  1  0.12101450  0.01359329  0.43386042  1
  Nd3+  Nd41  1  0.51393297  0.85663384  0.07910592  1
  Nd3+  Nd42  1  0.24410364  0.88653260  0.55309346  1
  Nd3+  Nd43  1  0.62310592  0.76240816  0.43992415  1
  Nd3+  Nd44  1  0.25881888  0.10791384  0.07324592  1
  Nd3+  Nd45  1  0.88611895  0.49002960  0.88843570  1
  Nd3+  Nd46  1  0.37033002  0.26499356  0.43776994  1
  Nd3+  Nd47  1  0.76002998  0.85976232  0.06065326  1
  Nd3+  Nd48  1  0.37938521  0.48134526  0.93615929  1
  Nd3+  Nd49  1  0.13598202  -0.00859841  0.94156996  1
  Nd3+  Nd50  1  0.36914158  0.76186999  0.43868834  1
  Sm3+  Sm51  1  0.75286990  0.10983899  0.04520210  1
  Sm3+  Sm52  1  0.38042713  0.73794865  0.94494699  1
  Sm3+  Sm53  1  0.88261650  0.73994013  0.93276744  1
  Sm3+  Sm54  1  0.50720200  0.10616744  0.06062170  1
  Sm3+  Sm55  1  0.23981852  0.39060086  0.55178412  1
  Sm3+  Sm56  1  0.62211305  0.25935648  0.44708540  1
  Sm3+  Sm57  1  0.12333810  0.24068189  0.95222067  1
  Sm3+  Sm58  1  0.74522028  0.88882428  0.56883335  1
  Sm3+  Sm59  1  0.87207603  0.01262323  0.44106298  1
  Sm3+  Sm60  1  0.62659954  -0.02765436  0.93113684  1
  Sm3+  Sm61  1  0.74206273  0.13135695  0.56403984  1
  Sm3+  Sm62  1  0.86576500  0.51478799  0.43877907  1
  Sm3+  Sm63  1  0.62478899  0.51180425  0.44232936  1
  Bi2+  Bi64  1  -0.01646777  0.09778947  0.23497421  1
  Bi2+  Bi65  1  -0.10487863  0.13479232  0.80868768  1
  Bi2+  Bi66  1  -0.03487896  0.33104570  0.31572581  1
  Bi2+  Bi67  1  0.02516427  0.32818388  0.78838327  1
  Bi2+  Bi68  1  -0.08936978  0.61299227  0.28119206  1
  Bi2+  Bi69  1  0.02126080  0.63326915  0.78343321  1
  Bi2+  Bi70  1  0.00278367  0.96834131  0.32242876  1
  Bi2+  Bi71  1  0.00714470  0.87764287  0.78891303  1
  Bi2+  Bi72  1  0.22539995  0.15005233  0.28465578  1
  Bi2+  Bi73  1  0.26455083  0.21244169  0.80256247  1
  Bi2+  Bi74  1  0.30394043  0.35482957  0.29953700  1
  Bi2+  Bi75  1  0.26862791  0.41008892  0.82334518  1
  Bi2+  Bi76  1  0.28260970  0.60755070  0.29877542  1
  Bi2+  Bi77  1  0.27853389  0.59714126  0.78840689  1
  Bi2+  Bi78  1  0.24770766  0.85385931  0.30725329  1
  Bi2+  Bi79  1  0.24075587  0.93985800  0.80424425  1
  Bi2+  Bi80  1  0.57487452  0.16331324  0.26416887  1
  Bi2+  Bi81  1  0.50022993  0.10495215  0.78212120  1
  Bi2+  Bi82  1  0.52802148  0.43465493  0.27861226  1
  Bi2+  Bi83  1  0.52247715  0.34049658  0.78796000  1
  Bi2+  Bi84  1  0.52548902  0.65021787  0.24398503  1
  Bi2+  Bi85  1  0.48142229  0.60217027  0.78993255  1
  Bi2+  Bi86  1  0.55627772  0.91261855  0.27635497  1
  Bi2+  Bi87  1  0.48670299  0.85182633  0.80075405  1
  Bi2+  Bi88  1  0.77465658  0.12343450  0.28762771  1
  Bi2+  Bi89  1  0.69524163  0.11141100  0.81517557  1
  Bi2+  Bi90  1  0.71614950  0.37353895  0.29405961  1
  Bi2+  Bi91  1  0.75932737  0.28353579  0.76742674  1
  Bi2+  Bi92  1  0.68747342  0.64229262  0.31082213  1
  Bi2+  Bi93  1  0.74230702  0.65901801  0.78840720  1
  Bi2+  Bi94  1  0.83612042  0.87585652  0.29909105  1
  Bi2+  Bi95  1  0.74828384  0.91916631  0.79129325  1
  Bi2+  Bi96  1  0.11343940  -0.04565959  0.20379926  1
  Bi2+  Bi97  1  0.13880301  0.01170459  0.71511603  1
  Bi2+  Bi98  1  0.12702478  0.25834917  0.21451703  1
  Bi2+  Bi99  1  0.12261967  0.20717489  0.71497580  1
  Bi2+  Bi100  1  0.12591394  0.51258791  0.21569028  1
  Bi2+  Bi101  1  0.16824831  0.48494431  0.70879747  1
  Bi2+  Bi102  1  0.06969605  0.79174391  0.28536828  1
  Bi2+  Bi103  1  0.15762181  0.77084173  0.70755041  1
  Bi2+  Bi104  1  0.37743690  0.03554205  0.20756798  1
  Bi2+  Bi105  1  0.38511423  0.04122658  0.70204675  1
  Bi2+  Bi106  1  0.42993091  0.28071132  0.22237180  1
  Bi2+  Bi107  1  0.35635323  0.33557338  0.72930331  1
  Bi2+  Bi108  1  0.37777076  0.52732444  0.19860959  1
  Bi2+  Bi109  1  0.38882255  0.54301740  0.69244660  1
  Bi2+  Bi110  1  0.37800408  0.77450888  0.19910001  1
  Bi2+  Bi111  1  0.37266300  0.73664511  0.71735555  1
  Bi2+  Bi112  1  0.73128947  -0.00923037  0.20571945  1
  Bi2+  Bi113  1  0.60842997  -0.06155723  0.70725836  1
  Bi2+  Bi114  1  0.61809986  0.30467285  0.17846026  1
  Bi2+  Bi115  1  0.64175198  0.14462812  0.69857797  1
  Bi2+  Bi116  1  0.57658366  0.49705043  0.17032183  1
  Bi2+  Bi117  1  0.63913126  0.47141361  0.70315026  1
  Bi2+  Bi118  1  0.70946568  0.75509484  0.21563242  1
  Bi2+  Bi119  1  0.57548011  0.74201823  0.71680512  1
  Bi2+  Bi120  1  0.91409794  -0.04550074  0.16444114  1
  Bi2+  Bi121  1  0.87708219  0.03710377  0.71095779  1
  Bi2+  Bi122  1  0.80521747  0.25532022  0.20868801  1
  Bi2+  Bi123  1  0.93062163  0.22516771  0.69504408  1
  Bi2+  Bi124  1  0.77465324  0.51815367  0.22051090  1
  Bi2+  Bi125  1  0.89419964  0.47102552  0.72081288  1
  Bi2+  Bi126  1  0.91136223  0.76904978  0.20874770  1
  Bi2+  Bi127  1  0.86645642  0.82004168  0.71432999  1
  S2-  S128  1  -0.00027674  0.21368972  0.15087176  1
  S2-  S129  1  0.00888049  0.01030196  0.64430590  1
  S2-  S130  1  0.01182705  0.38957056  0.22478934  1
  S2-  S131  1  0.02041743  0.46446666  0.65140139  1
  S2-  S132  1  0.02574065  0.56181331  0.14600636  1
  S2-  S133  1  -0.07436183  0.62802029  0.70204618  1
  S2-  S134  1  0.10620598  0.82751000  0.14146941  1
  S2-  S135  1  0.01540640  0.78954873  0.65460783  1
  S2-  S136  1  0.25288152  0.14668126  0.17210349  1
  S2-  S137  1  0.25625031  0.12153956  0.65923550  1
  S2-  S138  1  0.17327348  0.39154607  0.15355307  1
  S2-  S139  1  0.24088228  0.37667275  0.65020935  1
  S2-  S140  1  0.26791365  0.63986301  0.16125802  1
  S2-  S141  1  0.16972754  0.63020636  0.64513896  1
  S2-  S142  1  0.27747183  0.91554372  0.17066351  1
  S2-  S143  1  0.22206873  0.88917412  0.65329401  1
  S2-  S144  1  0.49638549  0.12405753  0.15983129  1
  S2-  S145  1  0.48565104  0.16679764  0.65866717  1
  S2-  S146  1  0.38561334  0.36912319  0.13982877  1
  S2-  S147  1  0.49455968  0.41159771  0.65957564  1
  S2-  S148  1  0.50002020  0.71428078  0.14324676  1
  S2-  S149  1  0.59637893  0.61713538  0.64766027  1
  S2-  S150  1  0.47596300  0.91063155  0.17786456  1
  S2-  S151  1  0.47260798  0.92365245  0.64469160  1
  S2-  S152  1  0.74822429  0.12475434  0.14351177  1
  S2-  S153  1  0.73482840  0.01942632  0.63990709  1
  S2-  S154  1  0.83082929  0.38702297  0.14928916  1
  S2-  S155  1  0.70135226  0.32330055  0.67012069  1
  S2-  S156  1  0.76134748  0.63744047  0.14806707  1
  S2-  S157  1  0.77571049  0.51126649  0.65061808  1
  S2-  S158  1  0.66196146  0.86810065  0.14174698  1
  S2-  S159  1  0.75447094  0.78210105  0.64855551  1
  S2-  S160  1  0.21149493  0.01628027  0.34679642  1
  S2-  S161  1  0.08527083  -0.00842768  0.84532170  1
  S2-  S162  1  0.10504626  0.23992283  0.34230469  1
  S2-  S163  1  0.11393161  0.22797552  0.85204163  1
  S2-  S164  1  0.17970644  0.45850281  0.31516541  1
  S2-  S165  1  0.04107707  0.49131404  0.83904906  1
  S2-  S166  1  0.13694514  0.66176561  0.34626827  1
  S2-  S167  1  0.11468533  0.75523412  0.83395995  1
  S2-  S168  1  0.38626591  -0.06321800  0.30125385  1
  S2-  S169  1  0.29339863  0.06030879  0.85960002  1
  S2-  S170  1  0.36007203  0.19621634  0.34597233  1
  S2-  S171  1  0.48088796  0.22426856  0.85909786  1
  S2-  S172  1  0.39620588  0.48889759  0.34534408  1
  S2-  S173  1  0.47932025  0.46759735  0.85491597  1
  S2-  S174  1  0.36526037  0.73122941  0.33917889  1
  S2-  S175  1  0.35026707  0.83184707  0.86293276  1
  S2-  S176  1  0.53455286  0.05129154  0.33782441  1
  S2-  S177  1  0.50527883  -0.01150189  0.85920388  1
  S2-  S178  1  0.62490534  0.26012988  0.34843341  1
  S2-  S179  1  0.65183364  0.34662890  0.84735752  1
  S2-  S180  1  0.73660037  0.50375207  0.36784000  1
  S2-  S181  1  0.62763703  0.61731589  0.85270138  1
  S2-  S182  1  0.62170668  0.84582360  0.35154009  1
  S2-  S183  1  0.63932709  0.83937824  0.85513323  1
  S2-  S184  1  0.77071877  0.00567900  0.36098177  1
  S2-  S185  1  0.88324723  -0.13391747  0.85762432  1
  S2-  S186  1  0.88176533  0.21197047  0.35512224  1
  S2-  S187  1  0.87789454  0.32439300  0.84568998  1
  S2-  S188  1  0.95927682  0.49858910  0.35144007  1
  S2-  S189  1  0.78408350  0.50391532  0.80007371  1
  S2-  S190  1  0.83752432  0.72307255  0.35117875  1
  S2-  S191  1  0.88639973  0.65619256  0.84455466  1
  S2-  S192  1  -0.00567420  0.13474936  0.46174712  1
  S2-  S193  1  0.00460907  0.11188038  0.95643472  1
  S2-  S194  1  -0.00735686  0.38625073  0.45484617  1
  S2-  S195  1  0.00323735  0.36363921  0.94476000  1
  S2-  S196  1  -0.00633755  0.63536888  0.44750168  1
  S2-  S197  1  0.00675931  0.61289890  0.94560089  1
  S2-  S198  1  -0.00453404  0.88894155  0.45518028  1
  S2-  S199  1  0.01043016  0.86253299  0.95543533  1
  S2-  S200  1  0.24709843  0.13824737  0.45210664  1
  S2-  S201  1  0.24981047  0.11547597  0.96734279  1
  S2-  S202  1  0.24196030  0.38972991  0.44657692  1
  S2-  S203  1  0.25501160  0.35622295  0.95700397  1
  S2-  S204  1  0.24551968  0.63478060  0.45019491  1
  S2-  S205  1  0.25616744  0.61158455  0.94772103  1
  S2-  S206  1  0.24486592  0.88607528  0.44697713  1
  S2-  S207  1  0.25041344  0.86140180  0.96505559  1
  S2-  S208  1  0.49482663  0.13993772  0.45199670  1
  S2-  S209  1  0.50502004  0.10388688  0.95810710  1
  S2-  S210  1  0.50010469  0.38650157  0.45173954  1
  S2-  S211  1  0.49963680  0.35560839  0.95971966  1
  S2-  S212  1  0.49943559  0.63702870  0.45341552  1
  S2-  S213  1  0.49833878  0.61125158  0.95567964  1
  S2-  S214  1  0.48648515  0.89146896  0.44343341  1
  S2-  S215  1  0.50732623  0.85239091  0.96441331  1
  S2-  S216  1  0.74489328  0.13660197  0.46019836  1
  S2-  S217  1  0.75128083  0.10607469  0.94163680  1
  S2-  S218  1  0.74365730  0.38317894  0.46567661  1
  S2-  S219  1  0.75214980  0.35946054  0.95146944  1
  S2-  S220  1  0.74193207  0.63837046  0.46648922  1
  S2-  S221  1  0.76691227  0.60220373  0.94478053  1
  S2-  S222  1  0.74823529  0.88503805  0.46432637  1
  S2-  S223  1  0.75823643  0.86131392  0.95642309  1
  S2-  S224  1  0.12846320  -0.00935522  0.05062287  1
  S2-  S225  1  0.12180105  0.01265516  0.54061890  1
  S2-  S226  1  0.13435486  0.23477292  0.05445967  1
  S2-  S227  1  0.11742263  0.26220565  0.55064762  1
  S2-  S228  1  0.13173897  0.48212798  0.03816274  1
  S2-  S229  1  0.11820443  0.51188555  0.53931522  1
  S2-  S230  1  0.12999619  0.73020650  0.03915977  1
  S2-  S231  1  0.11969825  0.76141492  0.53931263  1
  S2-  S232  1  0.38292156  -0.01789019  0.05264701  1
  S2-  S233  1  0.36587206  0.01211918  0.54426196  1
  S2-  S234  1  0.38232236  0.22847917  0.04694134  1
  S2-  S235  1  0.36662094  0.26512911  0.54560005  1
  S2-  S236  1  0.38119601  0.48934507  0.04153464  1
  S2-  S237  1  0.36846516  0.51082257  0.54757753  1
  S2-  S238  1  0.37563478  0.73595973  0.04736409  1
  S2-  S239  1  0.36875825  0.75984769  0.54659417  1
  S2-  S240  1  0.63078871  -0.01437370  0.03971581  1
  S2-  S241  1  0.61913060  0.01115942  0.53793764  1
  S2-  S242  1  0.62737927  0.23157408  0.03938531  1
  S2-  S243  1  0.62101523  0.25858450  0.55195458  1
  S2-  S244  1  0.62964867  0.48559501  0.03763900  1
  S2-  S245  1  0.61916703  0.50892291  0.54481580  1
  S2-  S246  1  0.63641591  0.73135157  0.04161486  1
  S2-  S247  1  0.61570698  0.76562077  0.54615913  1
  S2-  S248  1  0.87968082  -0.01273363  0.03684294  1
  S2-  S249  1  0.87002204  0.01154430  0.54470959  1
  S2-  S250  1  0.87503825  0.23254959  0.03983920  1
  S2-  S251  1  0.86675954  0.25824837  0.55700935  1
  S2-  S252  1  0.88560643  0.48280587  0.04822203  1
  S2-  S253  1  0.87433192  0.51713285  0.54535345  1
  S2-  S254  1  0.88322742  0.73563515  0.04198242  1
  S2-  S255  1  0.87920254  0.75613420  0.55415627  1
