# generated using pymatgen
data_La6Ce6Pr19Nd20Sm13(BiS2)64
_symmetry_space_group_name_H-M   'P 1'
_cell_length_a   16.02643042
_cell_length_b   15.97679070
_cell_length_c   27.55206686
_cell_angle_alpha   90.23111380
_cell_angle_beta   89.21336710
_cell_angle_gamma   90.17190385
_symmetry_Int_Tables_number   1
_chemical_formula_structural   La6Ce6Pr19Nd20Sm13(BiS2)64
_chemical_formula_sum   'La6 Ce6 Pr19 Nd20 Sm13 Bi64 S128'
_cell_volume   7053.97932858
_cell_formula_units_Z   1
loop_
 _symmetry_equiv_pos_site_id
 _symmetry_equiv_pos_as_xyz
  1  'x, y, z'
loop_
 _atom_type_symbol
 _atom_type_oxidation_number
  La3+  3.0
  Ce3+  3.0
  Pr3+  3.0
  Nd3+  3.0
  Sm3+  3.0
  Bi2+  2.0
  S2-  -2.0
loop_
 _atom_site_type_symbol
 _atom_site_label
 _atom_site_symmetry_multiplicity
 _atom_site_fract_x
 _atom_site_fract_y
 _atom_site_fract_z
 _atom_site_occupancy
  La3+  La0  1  0.33128089  0.23359226  0.92966992  1
  La3+  La1  1  0.24440386  0.61997477  0.58298373  1
  La3+  La2  1  0.71432441  0.87758779  0.07465954  1
  La3+  La3  1  0.23676744  0.87338756  0.57687022  1
  La3+  La4  1  0.12729612  0.03157985  0.88426029  1
  La3+  La5  1  0.46952021  0.12637696  0.06634118  1
  Ce3+  Ce6  1  0.59567811  0.49352196  0.91911710  1
  Ce3+  Ce7  1  0.12363219  0.48772383  0.43890787  1
  Ce3+  Ce8  1  0.21706374  0.62012833  0.06814684  1
  Ce3+  Ce9  1  0.24141576  0.35306237  0.56504838  1
  Ce3+  Ce10  1  0.61790928  0.48430185  0.44715231  1
  Ce3+  Ce11  1  0.74500662  0.11360802  0.56205212  1
  Pr3+  Pr12  1  -0.04087588  0.37016459  0.07414539  1
  Pr3+  Pr13  1  0.84835614  0.49441086  0.93237948  1
  Pr3+  Pr14  1  0.87041937  0.73403376  0.42167577  1
  Pr3+  Pr15  1  0.74719152  0.61305414  0.56224716  1
  Pr3+  Pr16  1  0.86829863  0.23889191  0.41938827  1
  Pr3+  Pr17  1  0.33986638  0.74865366  0.93652422  1
  Pr3+  Pr18  1  -0.00572335  0.60624248  0.56790782  1
  Pr3+  Pr19  1  -0.03340195  0.86864526  0.06370008  1
  Pr3+  Pr20  1  -0.04013869  0.61987107  0.07170883  1
  Pr3+  Pr21  1  0.85269157  0.23981039  0.93197670  1
  Pr3+  Pr22  1  -0.02563933  0.11838684  0.05790715  1
  Pr3+  Pr23  1  -0.00740316  0.11565617  0.54810089  1
  Pr3+  Pr24  1  0.33759077  -0.00889919  0.95942146  1
  Pr3+  Pr25  1  0.85424359  -0.00782607  0.93360297  1
  Pr3+  Pr26  1  0.84680744  0.74689741  0.93545855  1
  Pr3+  Pr27  1  0.22210851  0.12386891  0.08370590  1
  Pr3+  Pr28  1  0.48982285  0.10614075  0.57117440  1
  Pr3+  Pr29  1  0.36968564  0.48482947  0.44404002  1
  Pr3+  Pr30  1  0.71646286  0.12161147  0.06025177  1
  Nd3+  Nd31  1  0.11655548  0.73336572  0.43699239  1
  Nd3+  Nd32  1  0.12207151  -0.01409821  0.43147154  1
  Nd3+  Nd33  1  0.37108857  0.73623762  0.43862317  1
  Nd3+  Nd34  1  0.48449328  0.36287780  0.57437188  1
  Nd3+  Nd35  1  0.21959296  0.37374004  0.07005276  1
  Nd3+  Nd36  1  0.13035879  0.23956915  0.41866906  1
  Nd3+  Nd37  1  0.71758978  0.36750171  0.04800915  1
  Nd3+  Nd38  1  0.58745270  0.24079256  0.91803023  1
  Nd3+  Nd39  1  0.59516827  -0.00692455  0.93339458  1
  Nd3+  Nd40  1  0.33907329  0.49838457  0.92998054  1
  Nd3+  Nd41  1  0.46578049  0.37019420  0.04290211  1
  Nd3+  Nd42  1  0.87068185  0.48630296  0.43219871  1
  Nd3+  Nd43  1  0.46947837  0.61744081  0.05068267  1
  Nd3+  Nd44  1  0.37949035  0.22948556  0.42976171  1
  Nd3+  Nd45  1  -0.00955926  0.86069537  0.56464720  1
  Nd3+  Nd46  1  0.24017097  0.11504496  0.55810500  1
  Nd3+  Nd47  1  0.62336938  -0.01540084  0.44540243  1
  Nd3+  Nd48  1  0.46957920  0.86577399  0.06490362  1
  Nd3+  Nd49  1  0.71566764  0.62063798  0.05671165  1
  Nd3+  Nd50  1  0.09239034  0.74846456  0.93104471  1
  Sm3+  Sm51  1  0.74128040  0.36253891  0.55791151  1
  Sm3+  Sm52  1  0.09269877  0.24848950  0.94597003  1
  Sm3+  Sm53  1  0.09419833  0.50109081  0.94631394  1
  Sm3+  Sm54  1  0.21330022  0.86150524  0.07115467  1
  Sm3+  Sm55  1  0.37028323  -0.01532105  0.44010085  1
  Sm3+  Sm56  1  0.59829247  0.74265095  0.93071005  1
  Sm3+  Sm57  1  0.74756234  0.85867020  0.56334225  1
  Sm3+  Sm58  1  0.61962348  0.73328700  0.43641947  1
  Sm3+  Sm59  1  0.49383357  0.85950636  0.55695849  1
  Sm3+  Sm60  1  0.86792063  -0.01608227  0.43879175  1
  Sm3+  Sm61  1  0.49148518  0.61415908  0.56712997  1
  Sm3+  Sm62  1  -0.00712608  0.36114116  0.55251139  1
  Sm3+  Sm63  1  0.61681623  0.23371303  0.44939650  1
  Bi2+  Bi64  1  -0.00962382  0.17765994  0.30188223  1
  Bi2+  Bi65  1  -0.03477313  0.14352874  0.78603100  1
  Bi2+  Bi66  1  0.00061339  0.37228405  0.27893159  1
  Bi2+  Bi67  1  0.08663534  0.43710847  0.80307530  1
  Bi2+  Bi68  1  0.02819007  0.62842376  0.29901032  1
  Bi2+  Bi69  1  -0.00334104  0.61903430  0.79385251  1
  Bi2+  Bi70  1  0.09039551  0.90886963  0.30706470  1
  Bi2+  Bi71  1  -0.05626610  0.87004391  0.78075329  1
  Bi2+  Bi72  1  0.26271307  0.10854250  0.28935804  1
  Bi2+  Bi73  1  0.29954464  0.14697296  0.79218503  1
  Bi2+  Bi74  1  0.25185287  0.37511272  0.28988718  1
  Bi2+  Bi75  1  0.28348454  0.40643214  0.80073543  1
  Bi2+  Bi76  1  0.28569286  0.70069221  0.28670163  1
  Bi2+  Bi77  1  0.26287843  0.62759835  0.79537698  1
  Bi2+  Bi78  1  0.27224476  0.86445311  0.34851910  1
  Bi2+  Bi79  1  0.26437013  0.88828563  0.79485210  1
  Bi2+  Bi80  1  0.51253396  0.12732313  0.29680190  1
  Bi2+  Bi81  1  0.56792996  0.22005752  0.78186920  1
  Bi2+  Bi82  1  0.50326197  0.39349390  0.30144500  1
  Bi2+  Bi83  1  0.64444144  0.48005251  0.77127079  1
  Bi2+  Bi84  1  0.50056340  0.67023502  0.26534928  1
  Bi2+  Bi85  1  0.55072671  0.71539993  0.76800533  1
  Bi2+  Bi86  1  0.46804315  0.85994945  0.30017672  1
  Bi2+  Bi87  1  0.49183725  0.91136518  0.78546266  1
  Bi2+  Bi88  1  0.76262691  0.09889743  0.24290801  1
  Bi2+  Bi89  1  0.77509289  0.10678596  0.81491087  1
  Bi2+  Bi90  1  0.74333285  0.31744252  0.29411747  1
  Bi2+  Bi91  1  0.83860135  0.29995728  0.80553388  1
  Bi2+  Bi92  1  0.75424761  0.62408379  0.28783942  1
  Bi2+  Bi93  1  0.76094517  0.64306226  0.78597674  1
  Bi2+  Bi94  1  0.69979564  0.88497527  0.29685509  1
  Bi2+  Bi95  1  0.75834340  0.83563360  0.81101420  1
  Bi2+  Bi96  1  0.18803856  -0.02697851  0.20530563  1
  Bi2+  Bi97  1  0.12883138  0.06487094  0.68346335  1
  Bi2+  Bi98  1  0.11997314  0.16084297  0.21424886  1
  Bi2+  Bi99  1  0.16078104  0.29985885  0.72662872  1
  Bi2+  Bi100  1  0.21642858  0.53671762  0.23701423  1
  Bi2+  Bi101  1  0.19527832  0.50835736  0.71421152  1
  Bi2+  Bi102  1  0.13001331  0.77916252  0.22178729  1
  Bi2+  Bi103  1  0.10980412  0.76669284  0.70760980  1
  Bi2+  Bi104  1  0.38292128  -0.03097111  0.21805332  1
  Bi2+  Bi105  1  0.40525649  0.02933943  0.71306906  1
  Bi2+  Bi106  1  0.36115857  0.25331601  0.20426332  1
  Bi2+  Bi107  1  0.43071492  0.29763227  0.71265891  1
  Bi2+  Bi108  1  0.40174266  0.51085983  0.19297477  1
  Bi2+  Bi109  1  0.48191122  0.50593209  0.71401088  1
  Bi2+  Bi110  1  0.38672427  0.77561244  0.19346514  1
  Bi2+  Bi111  1  0.40846923  0.76270673  0.70018862  1
  Bi2+  Bi112  1  0.59650813  0.03045075  0.19163023  1
  Bi2+  Bi113  1  0.67008107  -0.02828541  0.74196959  1
  Bi2+  Bi114  1  0.59964083  0.25773054  0.22395058  1
  Bi2+  Bi115  1  0.74568171  0.23017535  0.71754042  1
  Bi2+  Bi116  1  0.65875139  0.47432735  0.24426127  1
  Bi2+  Bi117  1  0.64005250  0.60917547  0.67736872  1
  Bi2+  Bi118  1  0.65117481  0.76561461  0.21386661  1
  Bi2+  Bi119  1  0.67155961  0.80172870  0.68572898  1
  Bi2+  Bi120  1  0.92952180  -0.00137248  0.26745236  1
  Bi2+  Bi121  1  0.86642028  -0.00179564  0.70420755  1
  Bi2+  Bi122  1  0.88599325  0.25107237  0.19834819  1
  Bi2+  Bi123  1  0.97143988  0.27084630  0.69841678  1
  Bi2+  Bi124  1  0.89156423  0.48842172  0.19576223  1
  Bi2+  Bi125  1  0.87703767  0.46592969  0.70517235  1
  Bi2+  Bi126  1  0.89521290  0.72575854  0.20016456  1
  Bi2+  Bi127  1  0.91568523  0.72821678  0.70250391  1
  S2-  S128  1  -0.02606329  0.12535625  0.15864608  1
  S2-  S129  1  -0.03268388  0.10969827  0.64783280  1
  S2-  S130  1  0.01684427  0.37492595  0.17140116  1
  S2-  S131  1  -0.00148755  0.42281533  0.64590430  1
  S2-  S132  1  0.01003432  0.59870912  0.16932366  1
  S2-  S133  1  0.10544231  0.62415906  0.64978904  1
  S2-  S134  1  0.00558416  0.83465188  0.16071904  1
  S2-  S135  1  0.08950855  0.90081594  0.64624163  1
  S2-  S136  1  0.36771775  0.11740592  0.15204593  1
  S2-  S137  1  0.18502988  0.22400211  0.63569860  1
  S2-  S138  1  0.21703033  0.26419946  0.14983899  1
  S2-  S139  1  0.34752061  0.36875778  0.64235827  1
  S2-  S140  1  0.24073839  0.49994371  0.14066684  1
  S2-  S141  1  0.26062042  0.76887106  0.65655636  1
  S2-  S142  1  0.23619095  0.74038895  0.14240044  1
  S2-  S143  1  0.27276776  1.01810740  0.64229881  1
  S2-  S144  1  0.59739028  0.17542323  0.13320950  1
  S2-  S145  1  0.49866270  0.14581777  0.66901681  1
  S2-  S146  1  0.44389331  0.36924111  0.14251112  1
  S2-  S147  1  0.56296788  0.37475605  0.66390789  1
  S2-  S148  1  0.51177281  0.60941612  0.14629574  1
  S2-  S149  1  0.39224408  0.61172794  0.64902278  1
  S2-  S150  1  0.57323575  0.87173601  0.14442073  1
  S2-  S151  1  0.47458246  0.90454239  0.65022296  1
  S2-  S152  1  0.74494041  0.02616118  0.14553570  1
  S2-  S153  1  0.73281669  0.08498382  0.65750373  1
  S2-  S154  1  0.80277556  0.36931487  0.13501879  1
  S2-  S155  1  0.78139059  0.36869895  0.65288197  1
  S2-  S156  1  0.80601413  0.60758192  0.14080586  1
  S2-  S157  1  0.86176274  0.60308258  0.63962348  1
  S2-  S158  1  0.79145330  0.82602245  0.16141270  1
  S2-  S159  1  0.86187221  0.86098568  0.63794074  1
  S2-  S160  1  0.12373360  0.09948373  0.35347038  1
  S2-  S161  1  0.15369135  0.03777726  0.77533249  1
  S2-  S162  1  0.11134466  0.38176900  0.35483670  1
  S2-  S163  1  0.19197255  0.20128246  0.86734312  1
  S2-  S164  1  0.13984721  0.60356969  0.36430935  1
  S2-  S165  1  0.12543017  0.59998396  0.86272582  1
  S2-  S166  1  0.00874812  0.76509988  0.35427250  1
  S2-  S167  1  0.14867796  0.85811189  0.85727089  1
  S2-  S168  1  0.39115932  0.08082361  0.35797631  1
  S2-  S169  1  0.31130274  0.01728231  0.86154089  1
  S2-  S170  1  0.27403858  0.25138766  0.35031828  1
  S2-  S171  1  0.42575168  0.22288377  0.84008810  1
  S2-  S172  1  0.37359583  0.47279069  0.34244390  1
  S2-  S173  1  0.38389726  0.53699516  0.83567183  1
  S2-  S174  1  0.49639812  0.72480545  0.36386125  1
  S2-  S175  1  0.35552612  0.77233297  0.83680292  1
  S2-  S176  1  0.60838280  -0.00179436  0.34685390  1
  S2-  S177  1  0.60472192  0.10506837  0.85336366  1
  S2-  S178  1  0.52710136  0.25141566  0.36657694  1
  S2-  S179  1  0.60141900  0.37149358  0.84345683  1
  S2-  S180  1  0.62374002  0.49519646  0.34989231  1
  S2-  S181  1  0.60835694  0.62257113  0.85188585  1
  S2-  S182  1  0.72696353  0.74344016  0.35702121  1
  S2-  S183  1  0.59790992  0.86659559  0.86063347  1
  S2-  S184  1  0.84747430  -0.06673310  0.34597938  1
  S2-  S185  1  0.96082247  0.00042580  0.85062103  1
  S2-  S186  1  0.77982679  0.17019043  0.33732767  1
  S2-  S187  1  0.98385673  0.25484809  0.86290685  1
  S2-  S188  1  0.87253537  0.37430761  0.35199217  1
  S2-  S189  1  0.85786776  0.52615297  0.83358938  1
  S2-  S190  1  0.88119328  0.59290757  0.35201252  1
  S2-  S191  1  0.96077413  0.74274605  0.85643645  1
  S2-  S192  1  -0.01275398  0.11043276  0.44395968  1
  S2-  S193  1  -0.01768237  0.11386987  0.95400567  1
  S2-  S194  1  -0.00674931  0.35978130  0.45215153  1
  S2-  S195  1  -0.02849637  0.37528382  0.96114708  1
  S2-  S196  1  -0.00617741  0.60809217  0.46058336  1
  S2-  S197  1  -0.03176546  0.61916747  0.96066541  1
  S2-  S198  1  -0.00766861  0.86677252  0.45715308  1
  S2-  S199  1  -0.02965455  0.86767329  0.95940524  1
  S2-  S200  1  0.24819497  0.10848455  0.45453057  1
  S2-  S201  1  0.20924749  0.11192367  0.97216912  1
  S2-  S202  1  0.25049181  0.35848783  0.45805131  1
  S2-  S203  1  0.21570631  0.37613108  0.95455944  1
  S2-  S204  1  0.24970422  0.61524786  0.46353530  1
  S2-  S205  1  0.22036141  0.62312626  0.96182474  1
  S2-  S206  1  0.24419082  0.86111214  0.46075472  1
  S2-  S207  1  0.21692900  0.86529562  0.96917488  1
  S2-  S208  1  0.49827091  0.10583958  0.46457913  1
  S2-  S209  1  0.46548313  0.11708651  0.95620994  1
  S2-  S210  1  0.49423294  0.36106285  0.46640726  1
  S2-  S211  1  0.46063473  0.37058344  0.93973567  1
  S2-  S212  1  0.49575683  0.61083653  0.46334455  1
  S2-  S213  1  0.46835863  0.62244803  0.94663686  1
  S2-  S214  1  0.49723886  0.86386867  0.45481070  1
  S2-  S215  1  0.46865251  0.86802348  0.95897587  1
  S2-  S216  1  0.74516970  0.11235130  0.45591331  1
  S2-  S217  1  0.72548667  0.11730468  0.95314309  1
  S2-  S218  1  0.74030798  0.35705669  0.45372834  1
  S2-  S219  1  0.72505488  0.36586783  0.94377467  1
  S2-  S220  1  0.74194435  0.60936435  0.45718614  1
  S2-  S221  1  0.72158089  0.61891071  0.95146083  1
  S2-  S222  1  0.74434894  0.85908166  0.46026317  1
  S2-  S223  1  0.72241979  0.87114520  0.95828294  1
  S2-  S224  1  0.09763606  -0.00837823  0.06997694  1
  S2-  S225  1  0.11440409  -0.00934067  0.53593924  1
  S2-  S226  1  0.09201847  0.25186235  0.04995448  1
  S2-  S227  1  0.11454892  0.23896555  0.52836663  1
  S2-  S228  1  0.08787212  0.49476023  0.04894428  1
  S2-  S229  1  0.12356669  0.48267711  0.54554643  1
  S2-  S230  1  0.08987498  0.74023531  0.04738916  1
  S2-  S231  1  0.11716774  0.73972778  0.54439709  1
  S2-  S232  1  0.34107357  -0.01403385  0.06217738  1
  S2-  S233  1  0.37150939  -0.01688182  0.54101701  1
  S2-  S234  1  0.34000907  0.24699358  0.04001237  1
  S2-  S235  1  0.37114796  0.23107135  0.54395189  1
  S2-  S236  1  0.34407798  0.49610319  0.03608038  1
  S2-  S237  1  0.36715358  0.49230382  0.54808944  1
  S2-  S238  1  0.34773743  0.74322682  0.04286589  1
  S2-  S239  1  0.37190109  0.73985817  0.54418271  1
  S2-  S240  1  0.58798604  -0.00375905  0.03955406  1
  S2-  S241  1  0.62195036  -0.01690850  0.55190991  1
  S2-  S242  1  0.59243374  0.24985606  0.02442459  1
  S2-  S243  1  0.61699981  0.23626493  0.55332866  1
  S2-  S244  1  0.59519118  0.49253241  0.03280445  1
  S2-  S245  1  0.61601478  0.48749658  0.55230167  1
  S2-  S246  1  0.59445690  0.74394312  0.03783903  1
  S2-  S247  1  0.61883094  0.73768959  0.54489200  1
  S2-  S248  1  0.84715992  -0.00403507  0.04162957  1
  S2-  S249  1  0.86563736  -0.01159042  0.54179535  1
  S2-  S250  1  0.84514426  0.24124716  0.03815316  1
  S2-  S251  1  0.86538482  0.24116537  0.54149295  1
  S2-  S252  1  0.84082586  0.49461130  0.03738406  1
  S2-  S253  1  0.86626421  0.48022806  0.53807952  1
  S2-  S254  1  0.83903005  0.74604731  0.04248726  1
  S2-  S255  1  0.86890769  0.73640649  0.53679896  1
