# generated using pymatgen
data_La6Ce6Pr19Nd20Sm13(BiS2)64
_symmetry_space_group_name_H-M   'P 1'
_cell_length_a   16.01773927
_cell_length_b   16.04062125
_cell_length_c   27.38019338
_cell_angle_alpha   89.65414373
_cell_angle_beta   89.36252938
_cell_angle_gamma   89.98935587
_symmetry_Int_Tables_number   1
_chemical_formula_structural   La6Ce6Pr19Nd20Sm13(BiS2)64
_chemical_formula_sum   'La6 Ce6 Pr19 Nd20 Sm13 Bi64 S128'
_cell_volume   7034.35237611
_cell_formula_units_Z   1
loop_
 _symmetry_equiv_pos_site_id
 _symmetry_equiv_pos_as_xyz
  1  'x, y, z'
loop_
 _atom_type_symbol
 _atom_type_oxidation_number
  La3+  3.0
  Ce3+  3.0
  Pr3+  3.0
  Nd3+  3.0
  Sm3+  3.0
  Bi2+  2.0
  S2-  -2.0
loop_
 _atom_site_type_symbol
 _atom_site_label
 _atom_site_symmetry_multiplicity
 _atom_site_fract_x
 _atom_site_fract_y
 _atom_site_fract_z
 _atom_site_occupancy
  La3+  La0  1  0.00524629  0.85243475  0.09603374  1
  La3+  La1  1  0.23200384  0.36094379  0.58375926  1
  La3+  La2  1  -0.02399373  0.11626846  0.57610656  1
  La3+  La3  1  0.75509615  0.35874631  0.10460937  1
  La3+  La4  1  0.51009062  0.59658407  0.06590029  1
  La3+  La5  1  0.37670993  0.74281537  0.38378431  1
  Ce3+  Ce6  1  0.48300497  0.36880745  0.55611068  1
  Ce3+  Ce7  1  0.38465449  0.23997987  0.94085676  1
  Ce3+  Ce8  1  0.24098696  0.62304294  0.55352150  1
  Ce3+  Ce9  1  0.63555361  0.48669313  0.93621951  1
  Ce3+  Ce10  1  -0.01253494  0.36539067  0.57521201  1
  Ce3+  Ce11  1  0.36166413  0.24855903  0.43124770  1
  Pr3+  Pr12  1  -0.01310003  0.62128190  0.55668431  1
  Pr3+  Pr13  1  0.47548775  0.87394057  0.56903791  1
  Pr3+  Pr14  1  0.50691696  0.35965411  0.04996217  1
  Pr3+  Pr15  1  0.35928127  0.49345169  0.43663052  1
  Pr3+  Pr16  1  0.72608849  0.37211553  0.57463287  1
  Pr3+  Pr17  1  0.61532384  -0.00878191  0.43836649  1
  Pr3+  Pr18  1  0.50631984  0.11032184  0.06508277  1
  Pr3+  Pr19  1  0.11476586  0.49557691  0.44250368  1
  Pr3+  Pr20  1  0.63396726  0.73008780  0.91499644  1
  Pr3+  Pr21  1  0.14229911  -0.01465008  0.92925806  1
  Pr3+  Pr22  1  0.63626385  -0.01243068  0.93140251  1
  Pr3+  Pr23  1  0.86398462  0.24905024  0.44204343  1
  Pr3+  Pr24  1  0.76015284  0.10531164  0.06457447  1
  Pr3+  Pr25  1  0.75279246  0.85486622  0.06262164  1
  Pr3+  Pr26  1  0.37569840  0.49898247  0.91832838  1
  Pr3+  Pr27  1  0.39183315  -0.01476407  0.93228611  1
  Pr3+  Pr28  1  0.74194160  0.86731867  0.59734371  1
  Pr3+  Pr29  1  0.86020259  0.49620242  0.44516943  1
  Pr3+  Pr30  1  0.25406349  0.60644017  0.06868513  1
  Nd3+  Nd31  1  0.00698153  0.35825489  0.06900934  1
  Nd3+  Nd32  1  0.10631920  0.24529600  0.43861607  1
  Nd3+  Nd33  1  0.13141424  0.47667975  0.93081969  1
  Nd3+  Nd34  1  0.47716876  0.62147538  0.57107234  1
  Nd3+  Nd35  1  -0.01377157  0.86738151  0.56039874  1
  Nd3+  Nd36  1  0.60864555  0.50068590  0.44042977  1
  Nd3+  Nd37  1  0.85918617  -0.00567737  0.43804343  1
  Nd3+  Nd38  1  0.11520092  0.75190822  0.41230401  1
  Nd3+  Nd39  1  0.73288464  0.11911752  0.56256918  1
  Nd3+  Nd40  1  0.76050345  0.60955364  0.05125764  1
  Nd3+  Nd41  1  0.88341765  0.73988983  0.92851039  1
  Nd3+  Nd42  1  0.00890624  0.10554598  0.06214679  1
  Nd3+  Nd43  1  0.63905081  0.23915780  0.94430824  1
  Nd3+  Nd44  1  0.38487448  0.73743804  0.94794327  1
  Nd3+  Nd45  1  0.48602440  0.12026873  0.54722677  1
  Nd3+  Nd46  1  0.13478900  0.74020676  0.94393846  1
  Nd3+  Nd47  1  0.73161851  0.61945218  0.57220783  1
  Nd3+  Nd48  1  0.86360309  0.74701862  0.43566642  1
  Nd3+  Nd49  1  0.26023689  0.85473977  0.07959382  1
  Nd3+  Nd50  1  0.10489072  -0.00311622  0.42849446  1
  Sm3+  Sm51  1  0.25544235  0.36357488  0.05953434  1
  Sm3+  Sm52  1  0.00625682  0.60936829  0.04984799  1
  Sm3+  Sm53  1  0.23221475  0.11924822  0.55152340  1
  Sm3+  Sm54  1  0.50750527  0.85934347  0.06160701  1
  Sm3+  Sm55  1  0.36247660  -0.00711984  0.43228538  1
  Sm3+  Sm56  1  0.13319884  0.23274629  0.93329222  1
  Sm3+  Sm57  1  0.60592847  0.74630230  0.45465330  1
  Sm3+  Sm58  1  0.88582356  0.23647299  0.94637901  1
  Sm3+  Sm59  1  0.25470580  0.10534110  0.05412319  1
  Sm3+  Sm60  1  0.62032072  0.24980261  0.42923372  1
  Sm3+  Sm61  1  0.88072008  -0.01364845  0.93639487  1
  Sm3+  Sm62  1  0.88636014  0.48349707  0.93990338  1
  Sm3+  Sm63  1  0.23577327  0.87080847  0.54946081  1
  Bi2+  Bi64  1  -0.00163101  0.14035942  0.28579655  1
  Bi2+  Bi65  1  -0.00474856  0.12435997  0.80579810  1
  Bi2+  Bi66  1  -0.01258666  0.39200233  0.29778204  1
  Bi2+  Bi67  1  -0.00421350  0.33336811  0.79838215  1
  Bi2+  Bi68  1  0.05925491  0.57806111  0.22588021  1
  Bi2+  Bi69  1  0.00061649  0.71474141  0.80773358  1
  Bi2+  Bi70  1  -0.00933029  0.88311528  0.29609162  1
  Bi2+  Bi71  1  -0.03101716  0.92513566  0.80509641  1
  Bi2+  Bi72  1  0.18753293  0.16998032  0.31868701  1
  Bi2+  Bi73  1  0.20534215  0.08944965  0.73010928  1
  Bi2+  Bi74  1  0.21095604  0.36187426  0.28939545  1
  Bi2+  Bi75  1  0.28874121  0.38086060  0.79764475  1
  Bi2+  Bi76  1  0.25566584  0.56204933  0.29306595  1
  Bi2+  Bi77  1  0.25536319  0.64115858  0.78593507  1
  Bi2+  Bi78  1  0.25340747  0.98687866  0.29046861  1
  Bi2+  Bi79  1  0.16694021  0.90840543  0.77701152  1
  Bi2+  Bi80  1  0.38950007  0.14055392  0.31400965  1
  Bi2+  Bi81  1  0.36975252  0.09205380  0.80015725  1
  Bi2+  Bi82  1  0.43685835  0.36013153  0.27218241  1
  Bi2+  Bi83  1  0.54263195  0.30684650  0.73700422  1
  Bi2+  Bi84  1  0.53693179  0.63584452  0.29603758  1
  Bi2+  Bi85  1  0.50024307  0.61749838  0.79646349  1
  Bi2+  Bi86  1  0.53304997  0.97667071  0.30092365  1
  Bi2+  Bi87  1  0.40021904  0.85180682  0.79678630  1
  Bi2+  Bi88  1  0.77534254  0.11339478  0.28808531  1
  Bi2+  Bi89  1  0.74348309  0.14418729  0.79335850  1
  Bi2+  Bi90  1  0.72015072  0.38248423  0.30512663  1
  Bi2+  Bi91  1  0.69125931  0.37696447  0.79981700  1
  Bi2+  Bi92  1  0.77250571  0.67171647  0.27449307  1
  Bi2+  Bi93  1  0.82981690  0.61429083  0.79761179  1
  Bi2+  Bi94  1  0.79455037  0.84383984  0.32260669  1
  Bi2+  Bi95  1  0.77964645  0.89700866  0.77951416  1
  Bi2+  Bi96  1  0.12807600  0.03287145  0.20431307  1
  Bi2+  Bi97  1  0.10384777  -0.02393317  0.65481888  1
  Bi2+  Bi98  1  0.06016716  0.21522813  0.17427856  1
  Bi2+  Bi99  1  0.11024591  0.27000168  0.70866972  1
  Bi2+  Bi100  1  0.11766070  0.40050105  0.18716436  1
  Bi2+  Bi101  1  0.09398482  0.58460148  0.73382268  1
  Bi2+  Bi102  1  0.20563516  0.77056838  0.22888321  1
  Bi2+  Bi103  1  0.11737205  0.78421949  0.69409471  1
  Bi2+  Bi104  1  0.41939340  0.04071878  0.20343855  1
  Bi2+  Bi105  1  0.42554226  -0.03283176  0.70411905  1
  Bi2+  Bi106  1  0.31629103  0.23735396  0.21824719  1
  Bi2+  Bi107  1  0.37586995  0.22643422  0.70013218  1
  Bi2+  Bi108  1  0.38044633  0.51180044  0.20647214  1
  Bi2+  Bi109  1  0.41982255  0.50325780  0.69556165  1
  Bi2+  Bi110  1  0.48217610  0.80007440  0.20138569  1
  Bi2+  Bi111  1  0.31859228  0.75960410  0.70604261  1
  Bi2+  Bi112  1  0.67374828  0.05579928  0.18743823  1
  Bi2+  Bi113  1  0.56370594  0.07279226  0.76643261  1
  Bi2+  Bi114  1  0.58404688  0.16236951  0.28291100  1
  Bi2+  Bi115  1  0.67690315  0.18238853  0.68577433  1
  Bi2+  Bi116  1  0.60967136  0.50603366  0.19999674  1
  Bi2+  Bi117  1  0.65856792  0.52562321  0.72637392  1
  Bi2+  Bi118  1  0.66477114  0.86482888  0.23763546  1
  Bi2+  Bi119  1  0.62793617  0.78106261  0.72488458  1
  Bi2+  Bi120  1  0.84946994  -0.02445990  0.21220955  1
  Bi2+  Bi121  1  0.94601402  0.04936992  0.70821155  1
  Bi2+  Bi122  1  0.88198942  0.25858904  0.21805596  1
  Bi2+  Bi123  1  0.79429138  0.34109165  0.70282479  1
  Bi2+  Bi124  1  0.86732667  0.53123292  0.21663231  1
  Bi2+  Bi125  1  0.92465451  0.47892512  0.73415915  1
  Bi2+  Bi126  1  0.93208372  0.74304222  0.22120760  1
  Bi2+  Bi127  1  0.88439823  0.74835405  0.71079559  1
  S2-  S128  1  -0.01781456  0.01368131  0.14708983  1
  S2-  S129  1  -0.01403666  0.23924817  0.64981939  1
  S2-  S130  1  -0.09358721  0.39598815  0.15077419  1
  S2-  S131  1  0.09817534  0.40375562  0.64980426  1
  S2-  S132  1  0.01519329  0.66901502  0.14114107  1
  S2-  S133  1  0.00387695  0.65103020  0.65482092  1
  S2-  S134  1  0.14651544  0.87008652  0.16092386  1
  S2-  S135  1  -0.10190380  0.87341714  0.64776189  1
  S2-  S136  1  0.27243883  0.10054861  0.15277313  1
  S2-  S137  1  0.23662781  0.19639671  0.63972603  1
  S2-  S138  1  0.26186916  0.47041684  0.13838220  1
  S2-  S139  1  0.30906024  0.39258628  0.67870935  1
  S2-  S140  1  0.26811235  0.70739074  0.15348228  1
  S2-  S141  1  0.33188310  0.61501841  0.64043661  1
  S2-  S142  1  0.39426297  0.89725477  0.14039497  1
  S2-  S143  1  0.31987371  0.88952598  0.63630160  1
  S2-  S144  1  0.52642026  0.15196416  0.16220082  1
  S2-  S145  1  0.46373816  0.11524549  0.64574274  1
  S2-  S146  1  0.49237484  0.42562178  0.14172293  1
  S2-  S147  1  0.54210763  0.37663771  0.64719057  1
  S2-  S148  1  0.49962009  0.63711799  0.16395298  1
  S2-  S149  1  0.55483560  0.60767544  0.66391576  1
  S2-  S150  1  0.62271960  0.84537246  0.13631941  1
  S2-  S151  1  0.51664596  0.82692244  0.66488331  1
  S2-  S152  1  0.77310564  0.19356586  0.15071411  1
  S2-  S153  1  0.82603831  0.09851641  0.64616495  1
  S2-  S154  1  0.68640125  0.36543071  0.20251050  1
  S2-  S155  1  0.74901789  0.49554268  0.64694715  1
  S2-  S156  1  0.74647692  0.57329720  0.14904497  1
  S2-  S157  1  0.74472197  0.71868004  0.65470977  1
  S2-  S158  1  0.85175275  0.83704463  0.14719918  1
  S2-  S159  1  0.69350901  0.92365810  0.69448240  1
  S2-  S160  1  0.13611652  -0.10297929  0.34639484  1
  S2-  S161  1  0.13224540  0.11534321  0.85850100  1
  S2-  S162  1  -0.01256732  0.26028659  0.36394357  1
  S2-  S163  1  0.13565301  0.34278090  0.85444045  1
  S2-  S164  1  0.10356435  0.50119914  0.34187155  1
  S2-  S165  1  0.23118147  0.51355797  0.85203615  1
  S2-  S166  1  0.21949134  0.71211763  0.33122101  1
  S2-  S167  1  0.15838924  0.75341779  0.84474742  1
  S2-  S168  1  0.38398100  -0.08767655  0.34685168  1
  S2-  S169  1  0.28270532  -0.05306395  0.85581448  1
  S2-  S170  1  0.34752535  0.36775574  0.35917705  1
  S2-  S171  1  0.36180717  0.24574312  0.84337721  1
  S2-  S172  1  0.40335451  0.57509780  0.34965868  1
  S2-  S173  1  0.42780477  0.45276764  0.82000622  1
  S2-  S174  1  0.39918303  0.74130812  0.27410343  1
  S2-  S175  1  0.37791535  0.65904811  0.85927016  1
  S2-  S176  1  0.73691642  -0.00283985  0.36161921  1
  S2-  S177  1  0.51696799  0.00596642  0.85543367  1
  S2-  S178  1  0.56590016  0.30987419  0.33859852  1
  S2-  S179  1  0.62008301  0.23361721  0.84537712  1
  S2-  S180  1  0.64346918  0.51585337  0.34240955  1
  S2-  S181  1  0.62473595  0.57975932  0.85373066  1
  S2-  S182  1  0.55810121  0.75249059  0.35980258  1
  S2-  S183  1  0.54960593  0.78270989  0.82389131  1
  S2-  S184  1  0.97097589  0.02146235  0.35944379  1
  S2-  S185  1  0.76581431  0.00210196  0.85955140  1
  S2-  S186  1  0.75736276  0.24592372  0.36120230  1
  S2-  S187  1  0.86617072  0.23301379  0.84792894  1
  S2-  S188  1  0.86078248  0.46424775  0.34560142  1
  S2-  S189  1  0.93091468  0.48216153  0.84447158  1
  S2-  S190  1  0.97048469  0.73978747  0.35299046  1
  S2-  S191  1  0.77537634  0.75554814  0.84937094  1
  S2-  S192  1  -0.01700068  0.12038700  0.46563455  1
  S2-  S193  1  0.00493081  0.10798657  0.95697238  1
  S2-  S194  1  -0.01237901  0.37504719  0.46585629  1
  S2-  S195  1  0.00742597  0.35675774  0.95901222  1
  S2-  S196  1  -0.01065710  0.62086014  0.45186259  1
  S2-  S197  1  0.00961797  0.61084397  0.94602231  1
  S2-  S198  1  -0.01194415  0.86841519  0.45534190  1
  S2-  S199  1  0.00761561  0.86602700  0.94078173  1
  S2-  S200  1  0.23615967  0.11903974  0.44748047  1
  S2-  S201  1  0.26429315  0.11267808  0.95279616  1
  S2-  S202  1  0.23137094  0.36477858  0.45890719  1
  S2-  S203  1  0.25875424  0.36021103  0.95607583  1
  S2-  S204  1  0.23748867  0.62570071  0.44842116  1
  S2-  S205  1  0.25136950  0.61325880  0.96123876  1
  S2-  S206  1  0.23990714  0.87093947  0.44797066  1
  S2-  S207  1  0.26117644  0.85882030  0.96444980  1
  S2-  S208  1  0.49226261  0.12169314  0.44172016  1
  S2-  S209  1  0.51164702  0.11840300  0.95805392  1
  S2-  S210  1  0.49139183  0.36872404  0.45255878  1
  S2-  S211  1  0.50905625  0.36496350  0.94387950  1
  S2-  S212  1  0.48428691  0.62150892  0.46239351  1
  S2-  S213  1  0.50935132  0.60843500  0.95619842  1
  S2-  S214  1  0.48657696  0.87495587  0.45909220  1
  S2-  S215  1  0.51397773  0.85631175  0.95461702  1
  S2-  S216  1  0.73472936  0.12185765  0.46004454  1
  S2-  S217  1  0.76139909  0.11511971  0.95890559  1
  S2-  S218  1  0.73186171  0.37582993  0.46261459  1
  S2-  S219  1  0.76407374  0.36231653  0.94479627  1
  S2-  S220  1  0.73527742  0.62447248  0.45684456  1
  S2-  S221  1  0.76501039  0.60835108  0.94753754  1
  S2-  S222  1  0.73459781  0.86359800  0.45848319  1
  S2-  S223  1  0.75769629  0.85957982  0.95516957  1
  S2-  S224  1  0.13303991  -0.01734811  0.04317371  1
  S2-  S225  1  0.11062995  -0.00457380  0.53689986  1
  S2-  S226  1  0.13515571  0.23541431  0.04131387  1
  S2-  S227  1  0.10833179  0.24109542  0.54339719  1
  S2-  S228  1  0.12663987  0.48249812  0.04005253  1
  S2-  S229  1  0.11571469  0.49850381  0.54752129  1
  S2-  S230  1  0.12971041  0.73782778  0.04749838  1
  S2-  S231  1  0.11482970  0.74710270  0.54433093  1
  S2-  S232  1  0.38367563  -0.01100912  0.03924299  1
  S2-  S233  1  0.35713699  0.00127825  0.53605203  1
  S2-  S234  1  0.37725109  0.23629555  0.04998926  1
  S2-  S235  1  0.35952398  0.24278297  0.53857215  1
  S2-  S236  1  0.37916877  0.48299125  0.03377390  1
  S2-  S237  1  0.35618949  0.48719516  0.54426788  1
  S2-  S238  1  0.38835504  0.73049419  0.05066114  1
  S2-  S239  1  0.35972907  0.74853538  0.54409075  1
  S2-  S240  1  0.63078102  -0.01248099  0.04066176  1
  S2-  S241  1  0.61218039  -0.00784164  0.55132126  1
  S2-  S242  1  0.63775801  0.23966536  0.05085093  1
  S2-  S243  1  0.61031514  0.24506336  0.54101701  1
  S2-  S244  1  0.64409256  0.47532388  0.04334277  1
  S2-  S245  1  0.60610568  0.49972571  0.54626225  1
  S2-  S246  1  0.63110862  0.72640023  0.03690694  1
  S2-  S247  1  0.60897867  0.74827130  0.55585625  1
  S2-  S248  1  0.88312696  -0.02004432  0.04004081  1
  S2-  S249  1  0.85535968  -0.01196010  0.54398861  1
  S2-  S250  1  0.88398197  0.23716534  0.04977448  1
  S2-  S251  1  0.85238814  0.25110041  0.54921610  1
  S2-  S252  1  0.88452967  0.48367920  0.04314170  1
  S2-  S253  1  0.86309750  0.49498452  0.55062976  1
  S2-  S254  1  0.88637694  0.73445376  0.03627130  1
  S2-  S255  1  0.85899200  0.74364085  0.54345475  1
