# generated using pymatgen
data_La6Ce6Pr19Nd20Sm13(BiS2)64
_symmetry_space_group_name_H-M   'P 1'
_cell_length_a   16.09933291
_cell_length_b   16.11530603
_cell_length_c   27.32490860
_cell_angle_alpha   90.40709744
_cell_angle_beta   90.28535520
_cell_angle_gamma   90.00460077
_symmetry_Int_Tables_number   1
_chemical_formula_structural   La6Ce6Pr19Nd20Sm13(BiS2)64
_chemical_formula_sum   'La6 Ce6 Pr19 Nd20 Sm13 Bi64 S128'
_cell_volume   7089.06248963
_cell_formula_units_Z   1
loop_
 _symmetry_equiv_pos_site_id
 _symmetry_equiv_pos_as_xyz
  1  'x, y, z'
loop_
 _atom_type_symbol
 _atom_type_oxidation_number
  La3+  3.0
  Ce3+  3.0
  Pr3+  3.0
  Nd3+  3.0
  Sm3+  3.0
  Bi2+  2.0
  S2-  -2.0
loop_
 _atom_site_type_symbol
 _atom_site_label
 _atom_site_symmetry_multiplicity
 _atom_site_fract_x
 _atom_site_fract_y
 _atom_site_fract_z
 _atom_site_occupancy
  La3+  La0  1  0.51257482  0.13317744  0.09059823  1
  La3+  La1  1  0.13838998  0.24885444  0.39531049  1
  La3+  La2  1  0.62444455  0.50249919  0.90384596  1
  La3+  La3  1  0.39327827  0.75719350  0.43181858  1
  La3+  La4  1  0.01056700  0.63044672  0.09143806  1
  La3+  La5  1  0.14419720  0.51349711  0.41051988  1
  Ce3+  Ce6  1  0.13618763  0.76057754  0.43714458  1
  Ce3+  Ce7  1  0.75157551  0.37835514  0.05558954  1
  Ce3+  Ce8  1  0.25677798  0.87742201  0.05853338  1
  Ce3+  Ce9  1  0.89322162  0.01357444  0.44218113  1
  Ce3+  Ce10  1  0.12795396  -0.00493472  0.93610539  1
  Ce3+  Ce11  1  0.75155895  0.62533049  0.06252358  1
  Pr3+  Pr12  1  0.51969119  0.14366828  0.57413474  1
  Pr3+  Pr13  1  0.38057479  0.74536047  0.93805805  1
  Pr3+  Pr14  1  0.52069785  0.39308932  0.57424858  1
  Pr3+  Pr15  1  0.12644016  0.74920149  0.93792968  1
  Pr3+  Pr16  1  0.63817935  0.01136409  0.43659250  1
  Pr3+  Pr17  1  0.25438707  0.37544269  0.05909887  1
  Pr3+  Pr18  1  0.38826116  0.01584580  0.43819433  1
  Pr3+  Pr19  1  0.87808399  -0.00357061  0.94164464  1
  Pr3+  Pr20  1  0.26991894  0.13832045  0.56709483  1
  Pr3+  Pr21  1  0.62968900  0.00148719  0.93748457  1
  Pr3+  Pr22  1  0.01537256  0.89152259  0.56904369  1
  Pr3+  Pr23  1  0.12807755  0.50275118  0.93678264  1
  Pr3+  Pr24  1  0.00513808  0.87851206  0.07054023  1
  Pr3+  Pr25  1  0.00674293  0.37648675  0.05931087  1
  Pr3+  Pr26  1  0.51572707  0.64124144  0.58406580  1
  Pr3+  Pr27  1  0.50217506  0.62740050  0.07201033  1
  Pr3+  Pr28  1  0.50548252  0.87965711  0.06281049  1
  Pr3+  Pr29  1  0.25544294  0.12785838  0.06230469  1
  Pr3+  Pr30  1  0.26408890  0.38599389  0.55673476  1
  Nd3+  Nd31  1  0.26428581  0.63545689  0.55725260  1
  Nd3+  Nd32  1  0.01801262  0.64225152  0.56941068  1
  Nd3+  Nd33  1  0.88083380  0.50154668  0.95022627  1
  Nd3+  Nd34  1  0.62518080  0.74565376  0.94081371  1
  Nd3+  Nd35  1  0.89003483  0.26310638  0.43703531  1
  Nd3+  Nd36  1  0.63604945  0.51105309  0.43907175  1
  Nd3+  Nd37  1  0.76464174  0.88839861  0.55254259  1
  Nd3+  Nd38  1  0.76406917  0.63642126  0.56977944  1
  Nd3+  Nd39  1  0.62721239  0.25141407  0.93771689  1
  Nd3+  Nd40  1  0.26603505  0.88619630  0.55423606  1
  Nd3+  Nd41  1  0.39337239  0.50708486  0.43498338  1
  Nd3+  Nd42  1  0.38889474  0.26165977  0.43839905  1
  Nd3+  Nd43  1  0.12905199  0.24296811  0.92750928  1
  Nd3+  Nd44  1  0.64105086  0.75816362  0.44340360  1
  Nd3+  Nd45  1  0.00408967  0.12764489  0.05704671  1
  Nd3+  Nd46  1  0.89340044  0.51199452  0.44177733  1
  Nd3+  Nd47  1  0.63374924  0.26137977  0.43452413  1
  Nd3+  Nd48  1  0.38237196  0.00232205  0.94014120  1
  Nd3+  Nd49  1  0.38135134  0.25053870  0.93999634  1
  Nd3+  Nd50  1  0.87837436  0.74433588  0.95051106  1
  Sm3+  Sm51  1  0.13761490  0.01151664  0.44299467  1
  Sm3+  Sm52  1  0.89229652  0.75867513  0.44751783  1
  Sm3+  Sm53  1  0.38064695  0.49919755  0.94444611  1
  Sm3+  Sm54  1  0.76228420  0.14024878  0.55579300  1
  Sm3+  Sm55  1  0.75220147  0.87742732  0.05661156  1
  Sm3+  Sm56  1  0.75256676  0.12822567  0.05679813  1
  Sm3+  Sm57  1  0.25738233  0.62817261  0.06559506  1
  Sm3+  Sm58  1  0.76525164  0.38824112  0.55684174  1
  Sm3+  Sm59  1  0.01808286  0.38615401  0.54996664  1
  Sm3+  Sm60  1  0.51388284  0.88672249  0.55717312  1
  Sm3+  Sm61  1  0.01526119  0.13951697  0.56553345  1
  Sm3+  Sm62  1  0.50661952  0.37563191  0.06278535  1
  Sm3+  Sm63  1  0.87686371  0.25319848  0.94275266  1
  Bi2+  Bi64  1  0.00003530  0.10154152  0.28576351  1
  Bi2+  Bi65  1  -0.00064561  0.19679700  0.77141995  1
  Bi2+  Bi66  1  -0.03169322  0.36520399  0.28744933  1
  Bi2+  Bi67  1  -0.04522776  0.39110229  0.79348233  1
  Bi2+  Bi68  1  -0.02052580  0.61037307  0.29841275  1
  Bi2+  Bi69  1  -0.01792684  0.61361229  0.79897501  1
  Bi2+  Bi70  1  -0.05456160  0.86592751  0.30757983  1
  Bi2+  Bi71  1  -0.01639941  0.86947663  0.80184419  1
  Bi2+  Bi72  1  0.25696594  0.11166339  0.28207319  1
  Bi2+  Bi73  1  0.24900761  0.16197588  0.80801229  1
  Bi2+  Bi74  1  0.30166216  0.36034762  0.28158371  1
  Bi2+  Bi75  1  0.20439386  0.48066773  0.81146004  1
  Bi2+  Bi76  1  0.25248153  0.63004294  0.28779789  1
  Bi2+  Bi77  1  0.30112958  0.66908851  0.81932064  1
  Bi2+  Bi78  1  0.14235394  0.87204048  0.31377415  1
  Bi2+  Bi79  1  0.23445699  0.82450688  0.75580621  1
  Bi2+  Bi80  1  0.49768134  0.11543313  0.29519165  1
  Bi2+  Bi81  1  0.48676632  0.10540668  0.80626784  1
  Bi2+  Bi82  1  0.52603494  0.37667900  0.29182934  1
  Bi2+  Bi83  1  0.52294749  0.35068492  0.79782486  1
  Bi2+  Bi84  1  0.48809543  0.63917165  0.29605686  1
  Bi2+  Bi85  1  0.49861333  0.66699464  0.77854693  1
  Bi2+  Bi86  1  0.56425844  0.89379199  0.29378268  1
  Bi2+  Bi87  1  0.50972960  0.88793380  0.72746301  1
  Bi2+  Bi88  1  0.79475505  0.13586765  0.27224694  1
  Bi2+  Bi89  1  0.76882099  0.16438589  0.77633913  1
  Bi2+  Bi90  1  0.71624911  0.30425318  0.31615358  1
  Bi2+  Bi91  1  0.82611725  0.39465018  0.70645834  1
  Bi2+  Bi92  1  0.73290659  0.63776133  0.26852623  1
  Bi2+  Bi93  1  0.77045805  0.63819832  0.79840756  1
  Bi2+  Bi94  1  0.74891541  0.85705693  0.26190618  1
  Bi2+  Bi95  1  0.72537023  0.90848060  0.80560539  1
  Bi2+  Bi96  1  0.05206416  -0.04792949  0.21564293  1
  Bi2+  Bi97  1  0.04941094  0.01515381  0.73933509  1
  Bi2+  Bi98  1  0.13515545  0.25329378  0.18916617  1
  Bi2+  Bi99  1  0.14006780  0.26035383  0.69787865  1
  Bi2+  Bi100  1  0.11658040  0.49389652  0.20449836  1
  Bi2+  Bi101  1  0.09392231  0.44822917  0.71896623  1
  Bi2+  Bi102  1  0.14975494  0.75650618  0.21709330  1
  Bi2+  Bi103  1  0.11548953  0.68623722  0.71057015  1
  Bi2+  Bi104  1  0.30512368  -0.07151853  0.25638580  1
  Bi2+  Bi105  1  0.32893386  -0.01698165  0.71239770  1
  Bi2+  Bi106  1  0.38620377  0.20688294  0.21640036  1
  Bi2+  Bi107  1  0.36597509  0.22307981  0.69732065  1
  Bi2+  Bi108  1  0.37235334  0.51498089  0.22152017  1
  Bi2+  Bi109  1  0.37670451  0.50798736  0.76518757  1
  Bi2+  Bi110  1  0.39136782  0.77177344  0.20722620  1
  Bi2+  Bi111  1  0.36650586  0.71775343  0.69708204  1
  Bi2+  Bi112  1  0.60794041  -0.01265284  0.19893071  1
  Bi2+  Bi113  1  0.65782219  0.02130279  0.71980385  1
  Bi2+  Bi114  1  0.63858711  0.25332770  0.21025644  1
  Bi2+  Bi115  1  0.63763756  0.25023015  0.70868353  1
  Bi2+  Bi116  1  0.55497865  0.46950768  0.18939737  1
  Bi2+  Bi117  1  0.61690141  0.51230465  0.71048746  1
  Bi2+  Bi118  1  0.58565109  0.66893724  0.19654833  1
  Bi2+  Bi119  1  0.67300601  0.77300348  0.72884945  1
  Bi2+  Bi120  1  0.86050569  -0.01119644  0.20276762  1
  Bi2+  Bi121  1  0.86381266  0.00099626  0.69952158  1
  Bi2+  Bi122  1  0.89011220  0.25340737  0.20133781  1
  Bi2+  Bi123  1  0.87202021  0.20369418  0.68023940  1
  Bi2+  Bi124  1  0.73842052  0.44966049  0.24015589  1
  Bi2+  Bi125  1  0.85098752  0.59174873  0.69689226  1
  Bi2+  Bi126  1  0.88290387  0.72474204  0.21328726  1
  Bi2+  Bi127  1  0.88426849  0.79399053  0.70911075  1
  S2-  S128  1  0.00438688  0.15275567  0.15508628  1
  S2-  S129  1  0.01629414  0.02233733  0.64064571  1
  S2-  S130  1  0.01130734  0.37342614  0.15962690  1
  S2-  S131  1  0.01335395  0.34429785  0.64525288  1
  S2-  S132  1  -0.02994185  0.57289731  0.18973154  1
  S2-  S133  1  0.01609940  0.56696347  0.65938186  1
  S2-  S134  1  0.01290650  0.78075928  0.15286464  1
  S2-  S135  1  0.02209398  0.77638051  0.64530503  1
  S2-  S136  1  0.24204797  0.13414117  0.16278197  1
  S2-  S137  1  0.22667251  0.12419573  0.66557995  1
  S2-  S138  1  0.23792941  0.38512922  0.15857794  1
  S2-  S139  1  0.27793226  0.34814367  0.65649126  1
  S2-  S140  1  0.16089799  0.62105887  0.14826812  1
  S2-  S141  1  0.24881448  0.61742603  0.65696432  1
  S2-  S142  1  0.26318267  0.86706204  0.15642391  1
  S2-  S143  1  0.24217233  0.88041969  0.65264071  1
  S2-  S144  1  0.46271927  0.05360527  0.17660798  1
  S2-  S145  1  0.42949049  0.07590186  0.65470298  1
  S2-  S146  1  0.49731677  0.28421885  0.14733321  1
  S2-  S147  1  0.49893494  0.27563525  0.65011238  1
  S2-  S148  1  0.37411367  0.63215951  0.14296973  1
  S2-  S149  1  0.48942322  0.51004068  0.65196853  1
  S2-  S150  1  0.51946618  0.83568094  0.15958782  1
  S2-  S151  1  0.49715333  0.79985854  0.64055287  1
  S2-  S152  1  0.67068974  0.12358396  0.14372136  1
  S2-  S153  1  0.66402899  0.13166005  0.63673020  1
  S2-  S154  1  0.76091124  0.34990458  0.15206976  1
  S2-  S155  1  0.68243307  0.39014477  0.64318315  1
  S2-  S156  1  0.75183996  0.63932398  0.15955586  1
  S2-  S157  1  0.65816367  0.64022456  0.64949827  1
  S2-  S158  1  0.74478217  0.88734367  0.15395390  1
  S2-  S159  1  0.75798389  0.87258013  0.65055922  1
  S2-  S160  1  0.13600261  0.08452211  0.35347452  1
  S2-  S161  1  0.12579335  0.10401802  0.85953189  1
  S2-  S162  1  0.13652288  0.29815484  0.28794050  1
  S2-  S163  1  0.17752808  0.30923283  0.83905896  1
  S2-  S164  1  0.08273526  0.48165051  0.31259032  1
  S2-  S165  1  0.10242592  0.62467541  0.86375986  1
  S2-  S166  1  0.11818428  0.66750256  0.35520757  1
  S2-  S167  1  0.11529210  0.87190473  0.86367883  1
  S2-  S168  1  0.40560337  -0.01461529  0.33936106  1
  S2-  S169  1  0.35191065  0.02849100  0.84194554  1
  S2-  S170  1  0.29903098  0.23501262  0.35143166  1
  S2-  S171  1  0.39170949  0.25069383  0.83984571  1
  S2-  S172  1  0.29340018  0.49601870  0.35054803  1
  S2-  S173  1  0.46141048  0.48294015  0.85793255  1
  S2-  S174  1  0.35768976  0.73888120  0.33354535  1
  S2-  S175  1  0.43174626  0.77946490  0.84415364  1
  S2-  S176  1  0.63025431  0.04166457  0.33806610  1
  S2-  S177  1  0.57196955  -0.01596887  0.84349005  1
  S2-  S178  1  0.51033258  0.24970158  0.36230106  1
  S2-  S179  1  0.61593853  0.21884912  0.83989948  1
  S2-  S180  1  0.52630122  0.50771177  0.36073311  1
  S2-  S181  1  0.65610795  0.44055464  0.80743530  1
  S2-  S182  1  0.59098870  0.75503851  0.34900075  1
  S2-  S183  1  0.63075892  0.65728966  0.85490327  1
  S2-  S184  1  0.87906664  0.02400639  0.34555438  1
  S2-  S185  1  0.86404543  -0.01227260  0.84171144  1
  S2-  S186  1  0.97285566  0.23829850  0.35218869  1
  S2-  S187  1  0.87782296  0.24983911  0.84582633  1
  S2-  S188  1  0.88209246  0.48912254  0.34296356  1
  S2-  S189  1  0.86431961  0.50949214  0.85180176  1
  S2-  S190  1  0.87957240  0.72439532  0.35230274  1
  S2-  S191  1  0.88861591  0.74182002  0.85123906  1
  S2-  S192  1  0.01659508  0.13730246  0.46062012  1
  S2-  S193  1  -0.00308920  0.12669037  0.95255847  1
  S2-  S194  1  0.02009529  0.38622666  0.44551029  1
  S2-  S195  1  0.00532172  0.37301685  0.95114633  1
  S2-  S196  1  0.01431854  0.63430510  0.46065943  1
  S2-  S197  1  0.00193979  0.62497987  0.96981191  1
  S2-  S198  1  0.01360122  0.88627173  0.45748565  1
  S2-  S199  1  -0.00144877  0.87291102  0.96456726  1
  S2-  S200  1  0.26067674  0.13462380  0.45825434  1
  S2-  S201  1  0.25767286  0.12599165  0.95639918  1
  S2-  S202  1  0.25790784  0.38130154  0.45002196  1
  S2-  S203  1  0.25622385  0.37659506  0.95267314  1
  S2-  S204  1  0.26539917  0.63498557  0.45194592  1
  S2-  S205  1  0.25743336  0.62183800  0.95987189  1
  S2-  S206  1  0.26409163  0.88715737  0.44743998  1
  S2-  S207  1  0.26067588  0.87509032  0.95324061  1
  S2-  S208  1  0.51580509  0.13387358  0.46164526  1
  S2-  S209  1  0.50515467  0.12684629  0.95334203  1
  S2-  S210  1  0.51626888  0.38624957  0.46277235  1
  S2-  S211  1  0.50783049  0.37680463  0.95823079  1
  S2-  S212  1  0.51628951  0.63693154  0.46045184  1
  S2-  S213  1  0.50506624  0.62013934  0.96112543  1
  S2-  S214  1  0.51497492  0.88580334  0.45271594  1
  S2-  S215  1  0.50570656  0.87524869  0.95583758  1
  S2-  S216  1  0.76371455  0.13884254  0.45040007  1
  S2-  S217  1  0.75516444  0.12740640  0.95119734  1
  S2-  S218  1  0.76410894  0.38772617  0.45210050  1
  S2-  S219  1  0.75080068  0.37870421  0.94757995  1
  S2-  S220  1  0.76550540  0.63463145  0.45764228  1
  S2-  S221  1  0.75029169  0.61982066  0.95723726  1
  S2-  S222  1  0.76676538  0.88408708  0.44597231  1
  S2-  S223  1  0.75149872  0.87026510  0.95203941  1
  S2-  S224  1  0.12877160  0.00235900  0.04883067  1
  S2-  S225  1  0.14280197  0.01364313  0.54562083  1
  S2-  S226  1  0.12882519  0.24986895  0.03999789  1
  S2-  S227  1  0.13739156  0.25863430  0.55081489  1
  S2-  S228  1  0.13104060  0.50177609  0.04484862  1
  S2-  S229  1  0.13722432  0.51088617  0.54775113  1
  S2-  S230  1  0.13419735  0.75343891  0.04619160  1
  S2-  S231  1  0.14170837  0.76329715  0.54299338  1
  S2-  S232  1  0.38392934  0.00636464  0.04943786  1
  S2-  S233  1  0.39140683  0.00796545  0.54411355  1
  S2-  S234  1  0.38224911  0.25083970  0.04651092  1
  S2-  S235  1  0.39057140  0.26228408  0.54420828  1
  S2-  S236  1  0.38206247  0.49644684  0.04852405  1
  S2-  S237  1  0.38858804  0.51329153  0.54311320  1
  S2-  S238  1  0.38097021  0.75399699  0.04486233  1
  S2-  S239  1  0.38842152  0.76090116  0.54046738  1
  S2-  S240  1  0.63043966  0.00282973  0.04429081  1
  S2-  S241  1  0.63820649  0.00796341  0.54286573  1
  S2-  S242  1  0.63014141  0.25207697  0.04328600  1
  S2-  S243  1  0.64426314  0.26560201  0.53905203  1
  S2-  S244  1  0.62670056  0.50093579  0.05706104  1
  S2-  S245  1  0.64375568  0.51518965  0.54321637  1
  S2-  S246  1  0.62924277  0.75214324  0.04760303  1
  S2-  S247  1  0.64069054  0.76326103  0.54690026  1
  S2-  S248  1  0.87585522  0.00256358  0.04980611  1
  S2-  S249  1  0.88475003  0.01656980  0.54613524  1
  S2-  S250  1  0.87715440  0.25112140  0.04718234  1
  S2-  S251  1  0.88845837  0.26256958  0.54268480  1
  S2-  S252  1  0.88088624  0.50233186  0.05725673  1
  S2-  S253  1  0.88951602  0.51008134  0.54875479  1
  S2-  S254  1  0.87524077  0.75342933  0.05551833  1
  S2-  S255  1  0.88623726  0.76135209  0.55026733  1
