# generated using pymatgen
data_La6Ce6Pr19Nd20Sm13(BiS2)64
_symmetry_space_group_name_H-M   'P 1'
_cell_length_a   16.05668793
_cell_length_b   16.08407268
_cell_length_c   27.28553403
_cell_angle_alpha   89.79313029
_cell_angle_beta   89.58884593
_cell_angle_gamma   90.07042899
_symmetry_Int_Tables_number   1
_chemical_formula_structural   La6Ce6Pr19Nd20Sm13(BiS2)64
_chemical_formula_sum   'La6 Ce6 Pr19 Nd20 Sm13 Bi64 S128'
_cell_volume   7046.44549512
_cell_formula_units_Z   1
loop_
 _symmetry_equiv_pos_site_id
 _symmetry_equiv_pos_as_xyz
  1  'x, y, z'
loop_
 _atom_type_symbol
 _atom_type_oxidation_number
  La3+  3.0
  Ce3+  3.0
  Pr3+  3.0
  Nd3+  3.0
  Sm3+  3.0
  Bi2+  2.0
  S2-  -2.0
loop_
 _atom_site_type_symbol
 _atom_site_label
 _atom_site_symmetry_multiplicity
 _atom_site_fract_x
 _atom_site_fract_y
 _atom_site_fract_z
 _atom_site_occupancy
  La3+  La0  1  0.85323043  0.02361122  0.41476430  1
  La3+  La1  1  0.22440294  0.64819247  0.58196742  1
  La3+  La2  1  0.35360787  0.27107828  0.44171547  1
  La3+  La3  1  0.64459485  0.25863707  0.91033775  1
  La3+  La4  1  0.75872356  0.87881523  0.08414686  1
  La3+  La5  1  0.22703534  0.39790085  0.57517418  1
  Ce3+  Ce6  1  0.48483160  0.89165576  0.55185651  1
  Ce3+  Ce7  1  0.51603786  0.63199881  0.05464945  1
  Ce3+  Ce8  1  0.01439722  0.13216576  0.05553346  1
  Ce3+  Ce9  1  0.01623869  0.87957244  0.05649595  1
  Ce3+  Ce10  1  0.88358589  0.75493417  0.93860363  1
  Ce3+  Ce11  1  0.38037992  0.25969759  0.92040401  1
  Pr3+  Pr12  1  0.10861796  0.01337643  0.43951556  1
  Pr3+  Pr13  1  0.47843948  0.14595547  0.58333918  1
  Pr3+  Pr14  1  0.14497106  0.50720203  0.93998216  1
  Pr3+  Pr15  1  0.27222644  0.37539392  0.07503589  1
  Pr3+  Pr16  1  0.60670147  0.02741712  0.43169721  1
  Pr3+  Pr17  1  0.38887757  0.00864460  0.93356120  1
  Pr3+  Pr18  1  0.13893315  0.00738650  0.93212742  1
  Pr3+  Pr19  1  0.47281386  0.39567118  0.57919774  1
  Pr3+  Pr20  1  0.35836701  0.76391670  0.43725987  1
  Pr3+  Pr21  1  0.88786363  0.00687805  0.94616530  1
  Pr3+  Pr22  1  -0.03026807  0.90177477  0.57414145  1
  Pr3+  Pr23  1  0.35777950  0.02401710  0.43685764  1
  Pr3+  Pr24  1  0.63918300  0.50485556  0.92760995  1
  Pr3+  Pr25  1  -0.01985896  0.39659307  0.57146225  1
  Pr3+  Pr26  1  0.64211726  0.00720232  0.93880866  1
  Pr3+  Pr27  1  0.60322553  0.27095049  0.44632776  1
  Pr3+  Pr28  1  0.22942404  0.14003935  0.57080258  1
  Pr3+  Pr29  1  0.22899114  0.88952482  0.57029531  1
  Pr3+  Pr30  1  0.61005594  0.76380940  0.42214933  1
  Nd3+  Nd31  1  0.51681828  0.37592097  0.05857047  1
  Nd3+  Nd32  1  0.10687398  0.51971686  0.43743912  1
  Nd3+  Nd33  1  0.14718471  0.75593475  0.93444288  1
  Nd3+  Nd34  1  0.48970139  0.64061592  0.56975842  1
  Nd3+  Nd35  1  0.75694859  0.37851979  0.06454451  1
  Nd3+  Nd36  1  0.39262688  0.75778309  0.93621483  1
  Nd3+  Nd37  1  0.72950222  0.13879724  0.56527830  1
  Nd3+  Nd38  1  0.88753356  0.50591104  0.94712235  1
  Nd3+  Nd39  1  0.01326158  0.63208614  0.05829380  1
  Nd3+  Nd40  1  0.10779053  0.26886921  0.44242703  1
  Nd3+  Nd41  1  0.75453878  0.63284828  0.07057876  1
  Nd3+  Nd42  1  0.60443099  0.51100779  0.43635660  1
  Nd3+  Nd43  1  0.73108801  0.39453240  0.56530843  1
  Nd3+  Nd44  1  0.26769689  0.88582547  0.07069311  1
  Nd3+  Nd45  1  0.76089299  0.13017137  0.06435773  1
  Nd3+  Nd46  1  0.11388519  0.76850459  0.43513951  1
  Nd3+  Nd47  1  0.26524554  0.62820269  0.07193924  1
  Nd3+  Nd48  1  0.63915413  0.75770948  0.93313792  1
  Nd3+  Nd49  1  0.35172608  0.51549222  0.43836436  1
  Nd3+  Nd50  1  0.86217460  0.51786230  0.43328365  1
  Sm3+  Sm51  1  0.51213691  0.13462228  0.04569813  1
  Sm3+  Sm52  1  0.01446443  0.38092778  0.06077527  1
  Sm3+  Sm53  1  0.38851602  0.50470320  0.94266847  1
  Sm3+  Sm54  1  0.72411754  0.89254089  0.55451667  1
  Sm3+  Sm55  1  0.13980899  0.25947598  0.93652190  1
  Sm3+  Sm56  1  0.88856033  0.26406530  0.93767311  1
  Sm3+  Sm57  1  -0.02206384  0.13900374  0.55457150  1
  Sm3+  Sm58  1  0.86070216  0.77260888  0.43565382  1
  Sm3+  Sm59  1  -0.02001534  0.64817616  0.55537954  1
  Sm3+  Sm60  1  0.73011421  0.64377970  0.55252674  1
  Sm3+  Sm61  1  0.26293321  0.13206854  0.05881456  1
  Sm3+  Sm62  1  0.85698503  0.26660718  0.44787133  1
  Sm3+  Sm63  1  0.51212186  0.88248078  0.06492807  1
  Bi2+  Bi64  1  -0.01575502  0.23643177  0.29760044  1
  Bi2+  Bi65  1  -0.03378181  0.10333462  0.78707758  1
  Bi2+  Bi66  1  0.01456803  0.42343442  0.27139551  1
  Bi2+  Bi67  1  0.01823381  0.28615999  0.82157642  1
  Bi2+  Bi68  1  0.03510445  0.64143476  0.29769439  1
  Bi2+  Bi69  1  -0.10153199  0.56940134  0.78871316  1
  Bi2+  Bi70  1  0.07118593  0.78287153  0.21851419  1
  Bi2+  Bi71  1  -0.03097996  0.77483370  0.76956328  1
  Bi2+  Bi72  1  0.25901200  0.12498341  0.30674854  1
  Bi2+  Bi73  1  0.16259689  0.13953416  0.80693027  1
  Bi2+  Bi74  1  0.25976509  0.39043216  0.29746781  1
  Bi2+  Bi75  1  0.17599378  0.37691400  0.77955608  1
  Bi2+  Bi76  1  0.24959096  0.64280915  0.28648419  1
  Bi2+  Bi77  1  0.20444097  0.62772149  0.80586592  1
  Bi2+  Bi78  1  0.16746953  0.89363497  0.31018610  1
  Bi2+  Bi79  1  0.25195696  0.88283067  0.79148772  1
  Bi2+  Bi80  1  0.48790436  0.07032093  0.24638020  1
  Bi2+  Bi81  1  0.49225249  0.06883014  0.78570599  1
  Bi2+  Bi82  1  0.49116410  0.27621788  0.31562267  1
  Bi2+  Bi83  1  0.48343276  0.45049716  0.81264198  1
  Bi2+  Bi84  1  0.49176668  0.61961382  0.34294283  1
  Bi2+  Bi85  1  0.50665518  0.63914586  0.78694699  1
  Bi2+  Bi86  1  0.47386948  0.77957783  0.27338971  1
  Bi2+  Bi87  1  0.55223689  0.83021525  0.76590725  1
  Bi2+  Bi88  1  0.72304669  0.14346370  0.29137141  1
  Bi2+  Bi89  1  0.74152228  0.09718986  0.79989020  1
  Bi2+  Bi90  1  0.74433700  0.37422868  0.29955135  1
  Bi2+  Bi91  1  0.79340472  0.35825465  0.78561710  1
  Bi2+  Bi92  1  0.77661950  0.57113308  0.31148100  1
  Bi2+  Bi93  1  0.70389209  0.60354017  0.80682265  1
  Bi2+  Bi94  1  0.77194368  0.87553890  0.29030907  1
  Bi2+  Bi95  1  0.77505571  0.86912820  0.79025857  1
  Bi2+  Bi96  1  0.12774434  0.02992714  0.20503587  1
  Bi2+  Bi97  1  0.11327319  0.04047399  0.69599024  1
  Bi2+  Bi98  1  0.10941000  0.26356963  0.21007589  1
  Bi2+  Bi99  1  0.13283200  0.23765508  0.70143197  1
  Bi2+  Bi100  1  0.13675470  0.53092824  0.20573736  1
  Bi2+  Bi101  1  0.04425587  0.51467753  0.71367866  1
  Bi2+  Bi102  1  0.25758666  0.75579062  0.18460911  1
  Bi2+  Bi103  1  0.13819685  0.76788978  0.70963192  1
  Bi2+  Bi104  1  0.35461924  -0.07432505  0.23503120  1
  Bi2+  Bi105  1  0.30653136  -0.00547327  0.70547695  1
  Bi2+  Bi106  1  0.36772973  0.21809250  0.20705048  1
  Bi2+  Bi107  1  0.36856215  0.24948719  0.72441994  1
  Bi2+  Bi108  1  0.40337113  0.51887101  0.25256912  1
  Bi2+  Bi109  1  0.36319819  0.49703288  0.72384064  1
  Bi2+  Bi110  1  0.43518239  0.66788061  0.17943402  1
  Bi2+  Bi111  1  0.42790662  0.85006077  0.68307755  1
  Bi2+  Bi112  1  0.65722618  0.02203400  0.19899429  1
  Bi2+  Bi113  1  0.67525786  -0.01025294  0.68773893  1
  Bi2+  Bi114  1  0.57196301  0.26605332  0.18802880  1
  Bi2+  Bi115  1  0.62718305  0.23511507  0.70779461  1
  Bi2+  Bi116  1  0.60427064  0.52598513  0.26342532  1
  Bi2+  Bi117  1  0.62125955  0.52874855  0.70959724  1
  Bi2+  Bi118  1  0.64225975  0.73290552  0.20564416  1
  Bi2+  Bi119  1  0.71212201  0.73398779  0.71480132  1
  Bi2+  Bi120  1  0.93894430  0.02399761  0.22777440  1
  Bi2+  Bi121  1  0.90966919  -0.05453527  0.71568900  1
  Bi2+  Bi122  1  0.83671077  0.26402187  0.22104159  1
  Bi2+  Bi123  1  0.93189324  0.26665667  0.71589294  1
  Bi2+  Bi124  1  0.78256554  0.47126747  0.19986106  1
  Bi2+  Bi125  1  0.86237832  0.44950590  0.68243330  1
  Bi2+  Bi126  1  0.87433780  0.64336076  0.22111460  1
  Bi2+  Bi127  1  0.88946035  0.65772876  0.68113089  1
  S2-  S128  1  0.01143773  0.14072489  0.15385412  1
  S2-  S129  1  -0.03348185  0.05771292  0.64025138  1
  S2-  S130  1  0.03405342  0.38511306  0.15850183  1
  S2-  S131  1  0.09665920  0.39685079  0.64778046  1
  S2-  S132  1  0.01927260  0.64407943  0.15759993  1
  S2-  S133  1  0.06325074  0.64933828  0.64249442  1
  S2-  S134  1  0.02402677  0.90382542  0.15504849  1
  S2-  S135  1  0.09866410  0.88626968  0.64553508  1
  S2-  S136  1  0.24271348  0.02085026  0.13831367  1
  S2-  S137  1  0.33570939  0.14218402  0.65267812  1
  S2-  S138  1  0.24400920  0.23991930  0.13995469  1
  S2-  S139  1  0.32537736  0.37293581  0.66003797  1
  S2-  S140  1  0.26042525  0.50584105  0.14561280  1
  S2-  S141  1  0.25037875  0.57929650  0.68130065  1
  S2-  S142  1  0.39537785  0.87604549  0.14153548  1
  S2-  S143  1  0.27709372  0.78022165  0.64834842  1
  S2-  S144  1  0.49201913  0.11794480  0.14418597  1
  S2-  S145  1  0.54415134  0.08248723  0.67780024  1
  S2-  S146  1  0.42793070  0.34311964  0.14588268  1
  S2-  S147  1  0.49866572  0.27852176  0.65725833  1
  S2-  S148  1  0.61049790  0.62148988  0.13708503  1
  S2-  S149  1  0.48014406  0.52622548  0.64985080  1
  S2-  S150  1  0.61354334  0.87938131  0.14698588  1
  S2-  S151  1  0.59400824  0.88096013  0.62861238  1
  S2-  S152  1  0.72608104  0.18711453  0.15689167  1
  S2-  S153  1  0.75177796  0.14067406  0.66547852  1
  S2-  S154  1  0.63600068  0.39019160  0.13724148  1
  S2-  S155  1  0.69078736  0.38137821  0.66312643  1
  S2-  S156  1  0.78841414  0.74074507  0.15000801  1
  S2-  S157  1  0.63563970  0.65503514  0.63593888  1
  S2-  S158  1  0.80547178  0.97730437  0.16882369  1
  S2-  S159  1  0.82439372  0.89101784  0.63766700  1
  S2-  S160  1  0.11309819  0.04743016  0.33962712  1
  S2-  S161  1  0.12630226  -0.02717305  0.83377513  1
  S2-  S162  1  0.20095904  0.27132724  0.35668761  1
  S2-  S163  1  0.24127965  0.29364372  0.85868130  1
  S2-  S164  1  0.22662680  0.52140610  0.36151315  1
  S2-  S165  1  0.11267433  0.51036441  0.84022261  1
  S2-  S166  1  0.03353217  0.78874507  0.34552797  1
  S2-  S167  1  0.07533586  0.72864237  0.84199668  1
  S2-  S168  1  0.31950138  -0.03240867  0.33993417  1
  S2-  S169  1  0.38186557  -0.03320294  0.83597361  1
  S2-  S170  1  0.38448293  0.15730321  0.36334973  1
  S2-  S171  1  0.40522153  0.18764608  0.82354207  1
  S2-  S172  1  0.38763461  0.38812296  0.36409572  1
  S2-  S173  1  0.33334698  0.52513158  0.84920152  1
  S2-  S174  1  0.24612116  0.76119225  0.35965296  1
  S2-  S175  1  0.27819915  0.75334049  0.86107940  1
  S2-  S176  1  0.71271744  0.00357189  0.34843957  1
  S2-  S177  1  0.62511020  -0.01327096  0.83888449  1
  S2-  S178  1  0.59639686  0.16672896  0.36120742  1
  S2-  S179  1  0.60992478  0.19412089  0.81142870  1
  S2-  S180  1  0.60306500  0.38483220  0.36470626  1
  S2-  S181  1  0.64750556  0.40068628  0.84525673  1
  S2-  S182  1  0.61386923  0.81912317  0.32471672  1
  S2-  S183  1  0.51488276  0.76699082  0.86016594  1
  S2-  S184  1  0.90642779  -0.03234518  0.31680766  1
  S2-  S185  1  0.86722177  -0.00637148  0.84719452  1
  S2-  S186  1  0.85232236  0.18528502  0.35993238  1
  S2-  S187  1  0.79883322  0.23188803  0.85591142  1
  S2-  S188  1  0.98558591  0.50066103  0.36131109  1
  S2-  S189  1  0.89023706  0.43231449  0.85635792  1
  S2-  S190  1  0.81254384  0.74606557  0.34204591  1
  S2-  S191  1  0.77055844  0.75121857  0.86270740  1
  S2-  S192  1  -0.01572569  0.14304149  0.45195105  1
  S2-  S193  1  0.01252454  0.13715545  0.94747319  1
  S2-  S194  1  -0.01943967  0.38824637  0.46327221  1
  S2-  S195  1  0.01613914  0.38256867  0.95653809  1
  S2-  S196  1  -0.02005108  0.64845441  0.45217272  1
  S2-  S197  1  0.01316886  0.63069489  0.95302896  1
  S2-  S198  1  -0.02359694  0.89721080  0.45216287  1
  S2-  S199  1  0.01434005  0.87802242  0.94898728  1
  S2-  S200  1  0.22772867  0.14107828  0.46329205  1
  S2-  S201  1  0.26152903  0.13242077  0.95093266  1
  S2-  S202  1  0.22517722  0.39505256  0.46636236  1
  S2-  S203  1  0.26520008  0.38408151  0.96337915  1
  S2-  S204  1  0.23129843  0.64285764  0.46507020  1
  S2-  S205  1  0.26669856  0.62925345  0.96428737  1
  S2-  S206  1  0.23714886  0.89427674  0.46149276  1
  S2-  S207  1  0.26377080  0.88515555  0.95931885  1
  S2-  S208  1  0.48055250  0.14402533  0.47029514  1
  S2-  S209  1  0.51511360  0.13495790  0.94076068  1
  S2-  S210  1  0.47931456  0.39785120  0.47103598  1
  S2-  S211  1  0.51047222  0.37812999  0.94841616  1
  S2-  S212  1  0.48338585  0.63814999  0.45835189  1
  S2-  S213  1  0.51397334  0.62599569  0.94951590  1
  S2-  S214  1  0.48425009  0.89314129  0.44258322  1
  S2-  S215  1  0.51395979  0.88676851  0.95924709  1
  S2-  S216  1  0.73261058  0.14757669  0.45989245  1
  S2-  S217  1  0.76535641  0.13351391  0.95750325  1
  S2-  S218  1  0.74054345  0.39374574  0.45820747  1
  S2-  S219  1  0.76369654  0.38082369  0.95851334  1
  S2-  S220  1  0.73284055  0.63835823  0.44861904  1
  S2-  S221  1  0.76252677  0.62684913  0.96112301  1
  S2-  S222  1  0.73074573  0.88959226  0.44984387  1
  S2-  S223  1  0.76376338  0.88267082  0.96114717  1
  S2-  S224  1  0.13499372  0.00688291  0.03834261  1
  S2-  S225  1  0.10518643  0.01826203  0.54534778  1
  S2-  S226  1  0.13482531  0.25856983  0.04038493  1
  S2-  S227  1  0.10143714  0.26223889  0.54955336  1
  S2-  S228  1  0.13515604  0.50478473  0.04726662  1
  S2-  S229  1  0.10028805  0.52273112  0.54415644  1
  S2-  S230  1  0.14199501  0.75531796  0.04847930  1
  S2-  S231  1  0.09900233  0.77322739  0.54111472  1
  S2-  S232  1  0.38944489  0.01058402  0.03997614  1
  S2-  S233  1  0.35708869  0.01307426  0.54958488  1
  S2-  S234  1  0.38795289  0.25150278  0.03288414  1
  S2-  S235  1  0.35089519  0.26775960  0.55004774  1
  S2-  S236  1  0.39391695  0.50582081  0.04677374  1
  S2-  S237  1  0.35134314  0.52654958  0.55043402  1
  S2-  S238  1  0.38872494  0.75330177  0.04242264  1
  S2-  S239  1  0.36526518  0.76404417  0.54306820  1
  S2-  S240  1  0.63612527  0.00960328  0.04581238  1
  S2-  S241  1  0.60557117  0.02167040  0.54029848  1
  S2-  S242  1  0.63915970  0.25216650  0.03576505  1
  S2-  S243  1  0.60994496  0.26833796  0.55280319  1
  S2-  S244  1  0.63806497  0.50448400  0.03450857  1
  S2-  S245  1  0.61096733  0.51526050  0.54200106  1
  S2-  S246  1  0.63600687  0.75926830  0.03960113  1
  S2-  S247  1  0.60783442  0.76425559  0.52962739  1
  S2-  S248  1  0.88869578  0.00620890  0.05149047  1
  S2-  S249  1  0.85034538  0.02022240  0.53410202  1
  S2-  S250  1  0.88716864  0.25919221  0.04770074  1
  S2-  S251  1  0.85714024  0.26646146  0.55355256  1
  S2-  S252  1  0.88636735  0.50503815  0.05421493  1
  S2-  S253  1  0.85630684  0.52195117  0.54281069  1
  S2-  S254  1  0.88910971  0.75601878  0.04454000  1
  S2-  S255  1  0.85216818  0.76665971  0.54034750  1
