# generated using pymatgen
data_La6Ce6Pr19Nd20Sm13(BiS2)64
_symmetry_space_group_name_H-M   'P 1'
_cell_length_a   16.08792155
_cell_length_b   16.08498860
_cell_length_c   27.16027782
_cell_angle_alpha   90.05962047
_cell_angle_beta   90.12911976
_cell_angle_gamma   89.99595304
_symmetry_Int_Tables_number   1
_chemical_formula_structural   La6Ce6Pr19Nd20Sm13(BiS2)64
_chemical_formula_sum   'La6 Ce6 Pr19 Nd20 Sm13 Bi64 S128'
_cell_volume   7028.35300499
_cell_formula_units_Z   1
loop_
 _symmetry_equiv_pos_site_id
 _symmetry_equiv_pos_as_xyz
  1  'x, y, z'
loop_
 _atom_type_symbol
 _atom_type_oxidation_number
  La3+  3.0
  Ce3+  3.0
  Pr3+  3.0
  Nd3+  3.0
  Sm3+  3.0
  Bi2+  2.0
  S2-  -2.0
loop_
 _atom_site_type_symbol
 _atom_site_label
 _atom_site_symmetry_multiplicity
 _atom_site_fract_x
 _atom_site_fract_y
 _atom_site_fract_z
 _atom_site_occupancy
  La3+  La0  1  0.14617477  0.74689543  0.92674937  1
  La3+  La1  1  0.10344563  -0.00470517  0.88252371  1
  La3+  La2  1  0.27216898  0.86802776  0.06961440  1
  La3+  La3  1  0.25934479  0.37308089  0.07767370  1
  La3+  La4  1  0.88790976  0.49258521  0.91407849  1
  La3+  La5  1  0.11117503  -0.01585318  0.40439559  1
  Ce3+  Ce6  1  0.86842931  0.49586810  0.44306677  1
  Ce3+  Ce7  1  0.74518900  0.11794768  0.55460083  1
  Ce3+  Ce8  1  0.51890142  0.37533423  0.05831017  1
  Ce3+  Ce9  1  0.36677255  0.74203335  0.43985317  1
  Ce3+  Ce10  1  0.24323395  0.86732535  0.55796094  1
  Ce3+  Ce11  1  0.38827461  0.49379764  0.93958142  1
  Pr3+  Pr12  1  0.86597776  -0.01607143  0.42750553  1
  Pr3+  Pr13  1  0.62174813  0.48974561  0.43677290  1
  Pr3+  Pr14  1  0.89452263  0.24040615  0.93460227  1
  Pr3+  Pr15  1  0.36836081  0.48738423  0.43184514  1
  Pr3+  Pr16  1  0.76330242  0.11793138  0.05924198  1
  Pr3+  Pr17  1  0.63322320  -0.00663870  0.92449736  1
  Pr3+  Pr18  1  0.24300559  0.61789149  0.56010366  1
  Pr3+  Pr19  1  0.77397203  0.62296561  0.06067738  1
  Pr3+  Pr20  1  0.37995048  -0.00340495  0.93596586  1
  Pr3+  Pr21  1  0.27214852  0.11950245  0.07561461  1
  Pr3+  Pr22  1  -0.00038193  0.36234934  0.57379635  1
  Pr3+  Pr23  1  0.35666989  0.23763017  0.42425120  1
  Pr3+  Pr24  1  0.24234507  0.11657845  0.55798352  1
  Pr3+  Pr25  1  0.63793415  0.74391722  0.93246826  1
  Pr3+  Pr26  1  0.02226163  0.86758855  0.06981467  1
  Pr3+  Pr27  1  0.26535170  0.61951255  0.06894654  1
  Pr3+  Pr28  1  -0.00891960  0.86667383  0.56899312  1
  Pr3+  Pr29  1  0.52077301  0.61117771  0.08171999  1
  Pr3+  Pr30  1  0.62191254  0.73939055  0.43661719  1
  Nd3+  Nd31  1  0.36362826  -0.00928851  0.43579281  1
  Nd3+  Nd32  1  0.11502189  0.74119256  0.44266696  1
  Nd3+  Nd33  1  0.11459209  0.49220727  0.44658411  1
  Nd3+  Nd34  1  0.24810300  0.36621556  0.56583613  1
  Nd3+  Nd35  1  0.38985370  0.74223078  0.94209351  1
  Nd3+  Nd36  1  0.01640879  0.62072845  0.05923014  1
  Nd3+  Nd37  1  0.63936140  0.49684326  0.93446096  1
  Nd3+  Nd38  1  0.51912908  0.86904171  0.06272944  1
  Nd3+  Nd39  1  0.51787713  0.11986791  0.07014937  1
  Nd3+  Nd40  1  0.38994572  0.24265035  0.94969039  1
  Nd3+  Nd41  1  0.01850159  0.11797214  0.06704990  1
  Nd3+  Nd42  1  0.61821099  -0.00754274  0.43905065  1
  Nd3+  Nd43  1  0.87073251  0.24344115  0.43303659  1
  Nd3+  Nd44  1  -0.01481489  0.61273564  0.58807992  1
  Nd3+  Nd45  1  0.11246775  0.24894629  0.42796281  1
  Nd3+  Nd46  1  0.89058227  -0.00661371  0.94997482  1
  Nd3+  Nd47  1  0.86956612  0.73778410  0.44612239  1
  Nd3+  Nd48  1  0.01224221  0.37178367  0.06107419  1
  Nd3+  Nd49  1  0.77248284  0.37307999  0.06210899  1
  Nd3+  Nd50  1  0.14512910  0.49386602  0.93193980  1
  Sm3+  Sm51  1  0.49870459  0.61602638  0.55530934  1
  Sm3+  Sm52  1  0.64091397  0.24457888  0.94701663  1
  Sm3+  Sm53  1  0.49164898  0.11582158  0.54861039  1
  Sm3+  Sm54  1  0.48853395  0.36351468  0.55939333  1
  Sm3+  Sm55  1  0.74374781  0.36723735  0.56218139  1
  Sm3+  Sm56  1  0.73830112  0.60923324  0.57933011  1
  Sm3+  Sm57  1  0.49444165  0.86712671  0.55427296  1
  Sm3+  Sm58  1  0.76405652  0.86918062  0.05469468  1
  Sm3+  Sm59  1  0.89690735  0.74835962  0.93376081  1
  Sm3+  Sm60  1  0.74219026  0.87054696  0.56465133  1
  Sm3+  Sm61  1  -0.00681036  0.11549802  0.55118871  1
  Sm3+  Sm62  1  0.61844877  0.24186218  0.44233959  1
  Sm3+  Sm63  1  0.14545891  0.23774941  0.94678769  1
  Bi2+  Bi64  1  -0.04334637  0.14887406  0.27543568  1
  Bi2+  Bi65  1  -0.07985808  0.19856527  0.79898234  1
  Bi2+  Bi66  1  0.02237305  0.43171228  0.28040843  1
  Bi2+  Bi67  1  0.03294705  0.40294467  0.80074515  1
  Bi2+  Bi68  1  0.01535856  0.63453367  0.29219130  1
  Bi2+  Bi69  1  0.02124033  0.67709788  0.78702909  1
  Bi2+  Bi70  1  -0.03862645  0.86667944  0.28911396  1
  Bi2+  Bi71  1  -0.03187281  0.89824164  0.77752731  1
  Bi2+  Bi72  1  0.31584686  0.10706898  0.29301533  1
  Bi2+  Bi73  1  0.23859570  0.12314725  0.79259133  1
  Bi2+  Bi74  1  0.27748928  0.36279202  0.30296305  1
  Bi2+  Bi75  1  0.21944535  0.37465764  0.77497406  1
  Bi2+  Bi76  1  0.22004339  0.61403769  0.29183124  1
  Bi2+  Bi77  1  0.26406924  0.60221559  0.80113253  1
  Bi2+  Bi78  1  0.23652595  0.87063990  0.29492803  1
  Bi2+  Bi79  1  0.31802821  0.86203105  0.78166904  1
  Bi2+  Bi80  1  0.56678220  0.10235607  0.28656777  1
  Bi2+  Bi81  1  0.48069068  0.15320848  0.79819997  1
  Bi2+  Bi82  1  0.65239277  0.36959973  0.27465024  1
  Bi2+  Bi83  1  0.48197601  0.43725772  0.81312985  1
  Bi2+  Bi84  1  0.56009959  0.62096274  0.27424224  1
  Bi2+  Bi85  1  0.50306833  0.62295541  0.85289577  1
  Bi2+  Bi86  1  0.47690463  0.87592405  0.23840970  1
  Bi2+  Bi87  1  0.51207005  0.87961888  0.79202366  1
  Bi2+  Bi88  1  0.76685169  0.11752142  0.30197630  1
  Bi2+  Bi89  1  0.74090470  0.10408490  0.79760245  1
  Bi2+  Bi90  1  0.84317284  0.38639064  0.32423547  1
  Bi2+  Bi91  1  0.66684080  0.36387710  0.79575666  1
  Bi2+  Bi92  1  0.74426527  0.55938005  0.32086575  1
  Bi2+  Bi93  1  0.67099341  0.63493774  0.79782527  1
  Bi2+  Bi94  1  0.71144548  0.82572904  0.29709863  1
  Bi2+  Bi95  1  0.71091000  0.91882732  0.76251349  1
  Bi2+  Bi96  1  0.10475110  -0.00394462  0.19485906  1
  Bi2+  Bi97  1  0.11178603  0.00944421  0.67618083  1
  Bi2+  Bi98  1  0.09728561  0.24445487  0.21876750  1
  Bi2+  Bi99  1  0.07746195  0.26329058  0.72533822  1
  Bi2+  Bi100  1  0.18594855  0.49159739  0.20471862  1
  Bi2+  Bi101  1  0.12426376  0.49930858  0.69910945  1
  Bi2+  Bi102  1  0.07065711  0.74458048  0.19874033  1
  Bi2+  Bi103  1  0.21803680  0.72690874  0.70394156  1
  Bi2+  Bi104  1  0.33372447  -0.00612575  0.19916897  1
  Bi2+  Bi105  1  0.36683200  0.01338563  0.68986374  1
  Bi2+  Bi106  1  0.43931092  0.22612034  0.23540240  1
  Bi2+  Bi107  1  0.40850052  0.30258790  0.73400401  1
  Bi2+  Bi108  1  0.43056913  0.49547359  0.21698062  1
  Bi2+  Bi109  1  0.40846525  0.49471361  0.70684020  1
  Bi2+  Bi110  1  0.36602546  0.70613964  0.23984573  1
  Bi2+  Bi111  1  0.41633942  0.69768057  0.74536999  1
  Bi2+  Bi112  1  0.59011457  0.01082664  0.18103252  1
  Bi2+  Bi113  1  0.60185860  0.09569778  0.71252138  1
  Bi2+  Bi114  1  0.61943854  0.21132974  0.18863788  1
  Bi2+  Bi115  1  0.60904587  0.29601993  0.69015677  1
  Bi2+  Bi116  1  0.71923288  0.46792099  0.18421112  1
  Bi2+  Bi117  1  0.60719999  0.50317529  0.71228917  1
  Bi2+  Bi118  1  0.62087670  0.75914972  0.19835594  1
  Bi2+  Bi119  1  0.58157801  0.77727691  0.69776047  1
  Bi2+  Bi120  1  0.77551700  -0.01363174  0.21651927  1
  Bi2+  Bi121  1  0.87243230  0.09447192  0.70370543  1
  Bi2+  Bi122  1  0.82083626  0.28704826  0.22025437  1
  Bi2+  Bi123  1  0.80349347  0.28085600  0.71407642  1
  Bi2+  Bi124  1  0.90666924  0.52168240  0.19932293  1
  Bi2+  Bi125  1  0.85487680  0.50580647  0.71871408  1
  Bi2+  Bi126  1  0.83239836  0.69141531  0.24861219  1
  Bi2+  Bi127  1  0.79841571  0.73854193  0.73711901  1
  S2-  S128  1  -0.00305677  0.12776314  0.16781977  1
  S2-  S129  1  0.01600494  0.15295943  0.64744264  1
  S2-  S130  1  0.11577063  0.37259911  0.14542317  1
  S2-  S131  1  -0.02809441  0.47167697  0.65437491  1
  S2-  S132  1  -0.09853151  0.64920685  0.13652336  1
  S2-  S133  1  0.06544790  0.66883362  0.67852879  1
  S2-  S134  1  -0.01688400  0.89410616  0.17147518  1
  S2-  S135  1  -0.01879188  0.90363495  0.66891469  1
  S2-  S136  1  0.19835268  0.14726886  0.17159834  1
  S2-  S137  1  0.25235428  0.12171764  0.66089670  1
  S2-  S138  1  0.32326628  0.38834626  0.17663862  1
  S2-  S139  1  0.14004990  0.35010899  0.64429801  1
  S2-  S140  1  0.13293643  0.61721971  0.14034476  1
  S2-  S141  1  0.27040486  0.57717126  0.65654041  1
  S2-  S142  1  0.18026565  0.84778884  0.16166422  1
  S2-  S143  1  0.24049528  0.88693918  0.65603285  1
  S2-  S144  1  0.40574223  0.12310528  0.14896806  1
  S2-  S145  1  0.46490924  0.12115256  0.64583737  1
  S2-  S146  1  0.53333380  0.45356226  0.14520988  1
  S2-  S147  1  0.37733898  0.35847293  0.63548511  1
  S2-  S148  1  0.38255467  0.62570238  0.15095572  1
  S2-  S149  1  0.59435035  0.62861475  0.63743034  1
  S2-  S150  1  0.40717383  0.86798630  0.14174685  1
  S2-  S151  1  0.48166177  0.88911687  0.65187534  1
  S2-  S152  1  0.77796832  0.14237209  0.15855917  1
  S2-  S153  1  0.73689093  0.06052604  0.64572569  1
  S2-  S154  1  0.89093468  0.36813877  0.13767941  1
  S2-  S155  1  0.74287898  0.46617912  0.64354466  1
  S2-  S156  1  0.66777823  0.61930366  0.14312415  1
  S2-  S157  1  0.84907255  0.64353052  0.65710247  1
  S2-  S158  1  0.75185443  0.85548334  0.15263172  1
  S2-  S159  1  0.73731037  0.84578661  0.66224441  1
  S2-  S160  1  0.16728487  0.01854399  0.30443915  1
  S2-  S161  1  0.10540255  0.01036030  0.77151794  1
  S2-  S162  1  0.22422359  0.22346039  0.35147354  1
  S2-  S163  1  0.12429360  0.16994204  0.85533245  1
  S2-  S164  1  0.13190563  0.41736566  0.35668691  1
  S2-  S165  1  0.12289727  0.61242350  0.85389580  1
  S2-  S166  1  0.10318868  0.82382362  0.35259965  1
  S2-  S167  1  0.08284059  0.83015811  0.83722064  1
  S2-  S168  1  0.37353321  -0.03728022  0.33735795  1
  S2-  S169  1  0.27328184  -0.00662419  0.85161759  1
  S2-  S170  1  0.41822968  0.29745351  0.33398931  1
  S2-  S171  1  0.35069804  0.21686351  0.85287840  1
  S2-  S172  1  0.34573145  0.51166174  0.33191265  1
  S2-  S173  1  0.27782571  0.46404665  0.86277390  1
  S2-  S174  1  0.32389838  0.73834205  0.34500568  1
  S2-  S175  1  0.29084604  0.75009492  0.85710888  1
  S2-  S176  1  0.65733481  -0.02188766  0.34287665  1
  S2-  S177  1  0.49811379  0.01598647  0.85815341  1
  S2-  S178  1  0.65786949  0.23561928  0.34703449  1
  S2-  S179  1  0.62824032  0.21415091  0.85007881  1
  S2-  S180  1  0.57284944  0.47978534  0.34008569  1
  S2-  S181  1  0.73665965  0.49910827  0.85147487  1
  S2-  S182  1  0.56963069  0.75063995  0.34052235  1
  S2-  S183  1  0.65232791  0.85898977  0.85355146  1
  S2-  S184  1  0.96565677  0.00499029  0.34192197  1
  S2-  S185  1  0.92944119  -0.00423893  0.85228888  1
  S2-  S186  1  0.98421221  0.24215750  0.35595639  1
  S2-  S187  1  0.89091898  0.34325773  0.85302301  1
  S2-  S188  1  0.88992779  0.61543013  0.37168763  1
  S2-  S189  1  0.93148743  0.54799539  0.81305347  1
  S2-  S190  1  0.85470517  0.83900033  0.36131761  1
  S2-  S191  1  0.88321828  0.75822156  0.83326676  1
  S2-  S192  1  -0.00705869  0.11050817  0.44977673  1
  S2-  S193  1  0.01805880  0.11447877  0.95914216  1
  S2-  S194  1  -0.01066103  0.36968699  0.46205266  1
  S2-  S195  1  0.02224671  0.36559381  0.95260747  1
  S2-  S196  1  -0.00227956  0.61804415  0.47228533  1
  S2-  S197  1  0.01017115  0.61984322  0.95108051  1
  S2-  S198  1  -0.00603360  0.86699703  0.46045643  1
  S2-  S199  1  0.01760169  0.87385132  0.95727190  1
  S2-  S200  1  0.23247011  0.10543998  0.44969365  1
  S2-  S201  1  0.26673169  0.12262725  0.96768291  1
  S2-  S202  1  0.24367855  0.36795143  0.45870188  1
  S2-  S203  1  0.26366756  0.36299049  0.96576903  1
  S2-  S204  1  0.24187238  0.61557160  0.45227787  1
  S2-  S205  1  0.26752339  0.61602200  0.96091884  1
  S2-  S206  1  0.23986274  0.86751222  0.45194113  1
  S2-  S207  1  0.26894196  0.86620670  0.96200624  1
  S2-  S208  1  0.49221230  0.11753821  0.44253362  1
  S2-  S209  1  0.51847299  0.12256046  0.96326044  1
  S2-  S210  1  0.49374199  0.36314631  0.45375677  1
  S2-  S211  1  0.51757291  0.36842272  0.95116905  1
  S2-  S212  1  0.49321113  0.61528616  0.45000694  1
  S2-  S213  1  0.51740498  0.61661000  0.96571694  1
  S2-  S214  1  0.49328326  0.86721165  0.44872963  1
  S2-  S215  1  0.51240438  0.86868421  0.95648767  1
  S2-  S216  1  0.74520346  0.11721616  0.44962369  1
  S2-  S217  1  0.76302663  0.11765860  0.95090215  1
  S2-  S218  1  0.74377922  0.36334344  0.45664976  1
  S2-  S219  1  0.76472732  0.36467034  0.95554280  1
  S2-  S220  1  0.73998708  0.61506222  0.46689216  1
  S2-  S221  1  0.76974033  0.62732200  0.94911165  1
  S2-  S222  1  0.73963121  0.86728260  0.45955741  1
  S2-  S223  1  0.76841077  0.86979217  0.95078177  1
  S2-  S224  1  0.14279821  -0.00346922  0.06357751  1
  S2-  S225  1  0.11580633  -0.00816633  0.55116942  1
  S2-  S226  1  0.13900729  0.24110700  0.05059179  1
  S2-  S227  1  0.11809245  0.23901075  0.53705444  1
  S2-  S228  1  0.13890176  0.49413401  0.03901509  1
  S2-  S229  1  0.11916006  0.49355979  0.55188115  1
  S2-  S230  1  0.14197432  0.74590325  0.04144520  1
  S2-  S231  1  0.11705342  0.74231816  0.55158750  1
  S2-  S232  1  0.39711169  -0.00265088  0.04406081  1
  S2-  S233  1  0.36996566  -0.00901780  0.54215353  1
  S2-  S234  1  0.39498448  0.25178169  0.05583715  1
  S2-  S235  1  0.36888959  0.23700509  0.53379944  1
  S2-  S236  1  0.38919998  0.49245094  0.04682703  1
  S2-  S237  1  0.37313872  0.49565723  0.54016766  1
  S2-  S238  1  0.39862500  0.73860573  0.04644055  1
  S2-  S239  1  0.37351693  0.74070899  0.54902080  1
  S2-  S240  1  0.64105622  -0.00701415  0.04041668  1
  S2-  S241  1  0.61575515  -0.00767355  0.54545841  1
  S2-  S242  1  0.64301986  0.24871332  0.05183137  1
  S2-  S243  1  0.61610174  0.24181686  0.54775562  1
  S2-  S244  1  0.64835293  0.49408730  0.03949483  1
  S2-  S245  1  0.61279538  0.48316035  0.54397509  1
  S2-  S246  1  0.64233395  0.74692997  0.04100745  1
  S2-  S247  1  0.61925140  0.74760882  0.54345745  1
  S2-  S248  1  0.88966563  -0.00792063  0.05592581  1
  S2-  S249  1  0.86771801  -0.00899511  0.54315145  1
  S2-  S250  1  0.89156403  0.23900946  0.04171564  1
  S2-  S251  1  0.86900542  0.24330687  0.54650260  1
  S2-  S252  1  0.89163393  0.49614636  0.03322446  1
  S2-  S253  1  0.86710962  0.48985890  0.54738725  1
  S2-  S254  1  0.89173097  0.75454311  0.03828790  1
  S2-  S255  1  0.86234439  0.74431638  0.55270287  1
