# generated using pymatgen
data_La6Ce6Pr19Nd20Sm13(BiS2)64
_symmetry_space_group_name_H-M   'P 1'
_cell_length_a   16.07929964
_cell_length_b   16.12344863
_cell_length_c   27.15862032
_cell_angle_alpha   89.91729918
_cell_angle_beta   90.87716410
_cell_angle_gamma   90.05050339
_symmetry_Int_Tables_number   1
_chemical_formula_structural   La6Ce6Pr19Nd20Sm13(BiS2)64
_chemical_formula_sum   'La6 Ce6 Pr19 Nd20 Sm13 Bi64 S128'
_cell_volume   7040.13943850
_cell_formula_units_Z   1
loop_
 _symmetry_equiv_pos_site_id
 _symmetry_equiv_pos_as_xyz
  1  'x, y, z'
loop_
 _atom_type_symbol
 _atom_type_oxidation_number
  La3+  3.0
  Ce3+  3.0
  Pr3+  3.0
  Nd3+  3.0
  Sm3+  3.0
  Bi2+  2.0
  S2-  -2.0
loop_
 _atom_site_type_symbol
 _atom_site_label
 _atom_site_symmetry_multiplicity
 _atom_site_fract_x
 _atom_site_fract_y
 _atom_site_fract_z
 _atom_site_occupancy
  La3+  La0  1  0.86088607  0.51099658  0.40907341  1
  La3+  La1  1  0.85890971  0.24867975  0.41291261  1
  La3+  La2  1  0.60852337  0.00389614  0.43487855  1
  La3+  La3  1  0.02420360  0.61560348  0.07245125  1
  La3+  La4  1  0.64531896  0.00379666  0.90602231  1
  La3+  La5  1  0.60680105  0.75493392  0.43434036  1
  Ce3+  Ce6  1  0.61356567  0.25555945  0.43587214  1
  Ce3+  Ce7  1  0.14322696  0.74300459  0.94760362  1
  Ce3+  Ce8  1  0.74647230  0.87574279  0.55920929  1
  Ce3+  Ce9  1  0.24312564  0.37556964  0.56468149  1
  Ce3+  Ce10  1  0.51816168  0.10756801  0.05871044  1
  Ce3+  Ce11  1  0.02422446  0.86855839  0.06860411  1
  Pr3+  Pr12  1  0.61355334  0.50395568  0.43446550  1
  Pr3+  Pr13  1  0.11456201  0.24723789  0.42040876  1
  Pr3+  Pr14  1  0.64434925  0.74050949  0.93315173  1
  Pr3+  Pr15  1  0.02189220  0.11156123  0.07015450  1
  Pr3+  Pr16  1  0.26939122  0.37253985  0.10455798  1
  Pr3+  Pr17  1  0.36513167  0.25419016  0.44673658  1
  Pr3+  Pr18  1  0.50346741  0.37894267  0.57003608  1
  Pr3+  Pr19  1  0.24253635  0.62888059  0.55821516  1
  Pr3+  Pr20  1  0.64412184  0.23944951  0.94656258  1
  Pr3+  Pr21  1  0.50041352  0.87850338  0.57662519  1
  Pr3+  Pr22  1  0.38981353  0.73981770  0.92392468  1
  Pr3+  Pr23  1  0.23702072  0.88951221  0.58236200  1
  Pr3+  Pr24  1  0.14120154  0.24342054  0.95282421  1
  Pr3+  Pr25  1  0.50258235  0.12722599  0.57791772  1
  Pr3+  Pr26  1  0.76769179  0.36438073  0.07777717  1
  Pr3+  Pr27  1  0.36680150  0.50347098  0.43662399  1
  Pr3+  Pr28  1  0.74893150  0.62785347  0.55761662  1
  Pr3+  Pr29  1  0.01726536  0.35757189  0.09238722  1
  Pr3+  Pr30  1  0.52166937  0.36587864  0.07056590  1
  Nd3+  Nd31  1  0.24097454  0.13517382  0.56665914  1
  Nd3+  Nd32  1  0.36633122  0.01151182  0.44134495  1
  Nd3+  Nd33  1  0.37999299  0.00235306  0.91384299  1
  Nd3+  Nd34  1  0.27222016  0.11531885  0.07040882  1
  Nd3+  Nd35  1  -0.00691422  0.12993021  0.54670101  1
  Nd3+  Nd36  1  0.28006821  0.87024445  0.06549285  1
  Nd3+  Nd37  1  0.13904538  -0.00883353  0.93728480  1
  Nd3+  Nd38  1  0.11283808  0.00158749  0.43123028  1
  Nd3+  Nd39  1  0.74687776  0.12912931  0.55633348  1
  Nd3+  Nd40  1  0.13729086  0.48744560  0.94331466  1
  Nd3+  Nd41  1  0.36336155  0.75811799  0.44570554  1
  Nd3+  Nd42  1  -0.00793737  0.87832427  0.55610904  1
  Nd3+  Nd43  1  0.89326202  0.74172422  0.94831100  1
  Nd3+  Nd44  1  0.75099749  0.38109466  0.55771427  1
  Nd3+  Nd45  1  0.49402388  0.62760603  0.57008406  1
  Nd3+  Nd46  1  0.89277498  0.23969809  0.95227878  1
  Nd3+  Nd47  1  0.64888614  0.48866316  0.93409238  1
  Nd3+  Nd48  1  0.51885174  0.61657603  0.05187381  1
  Nd3+  Nd49  1  0.39116605  0.24032532  0.94525238  1
  Nd3+  Nd50  1  0.89398823  0.48917489  0.94484943  1
  Sm3+  Sm51  1  0.76599798  0.10725855  0.06824666  1
  Sm3+  Sm52  1  -0.01206815  0.37800567  0.54268036  1
  Sm3+  Sm53  1  0.11533391  0.50259990  0.43488595  1
  Sm3+  Sm54  1  0.51795341  0.86777508  0.03747504  1
  Sm3+  Sm55  1  0.27394650  0.61267875  0.05479817  1
  Sm3+  Sm56  1  0.89191211  -0.00841581  0.94223886  1
  Sm3+  Sm57  1  0.85666419  0.75619522  0.42404419  1
  Sm3+  Sm58  1  0.76619238  0.86620522  0.05453131  1
  Sm3+  Sm59  1  -0.00677574  0.62721173  0.54637155  1
  Sm3+  Sm60  1  0.76708460  0.61538464  0.06436520  1
  Sm3+  Sm61  1  0.39286067  0.48949705  0.93828739  1
  Sm3+  Sm62  1  0.85443955  0.00083455  0.42112824  1
  Sm3+  Sm63  1  0.11508859  0.75699160  0.43865550  1
  Bi2+  Bi64  1  0.00243422  0.04940297  0.28024818  1
  Bi2+  Bi65  1  -0.02050667  0.15886911  0.79983643  1
  Bi2+  Bi66  1  0.04540044  0.40215914  0.28312137  1
  Bi2+  Bi67  1  -0.01471771  0.41751702  0.77552224  1
  Bi2+  Bi68  1  0.03245708  0.68334148  0.28951075  1
  Bi2+  Bi69  1  -0.04900162  0.63024304  0.77680707  1
  Bi2+  Bi70  1  -0.02915646  0.87694967  0.32800450  1
  Bi2+  Bi71  1  -0.00724831  0.96299850  0.82663037  1
  Bi2+  Bi72  1  0.26350919  0.07066324  0.29408920  1
  Bi2+  Bi73  1  0.18160609  0.12019311  0.78392627  1
  Bi2+  Bi74  1  0.32415835  0.44913740  0.30894529  1
  Bi2+  Bi75  1  0.18131159  0.39380616  0.81683048  1
  Bi2+  Bi76  1  0.30165006  0.65278661  0.28944869  1
  Bi2+  Bi77  1  0.14319542  0.58994185  0.79237958  1
  Bi2+  Bi78  1  0.25293762  0.87722081  0.29712616  1
  Bi2+  Bi79  1  0.14716083  0.86909650  0.78851942  1
  Bi2+  Bi80  1  0.50995068  0.15037797  0.31250337  1
  Bi2+  Bi81  1  0.50673609  0.10531801  0.78957636  1
  Bi2+  Bi82  1  0.50922717  0.35272983  0.31214259  1
  Bi2+  Bi83  1  0.49761698  0.34040288  0.74927970  1
  Bi2+  Bi84  1  0.50623199  0.64973835  0.29184296  1
  Bi2+  Bi85  1  0.48585443  0.61654095  0.80307249  1
  Bi2+  Bi86  1  0.45967967  0.88553169  0.28424637  1
  Bi2+  Bi87  1  0.50682331  0.84085688  0.77992918  1
  Bi2+  Bi88  1  0.72470374  0.11593893  0.28731055  1
  Bi2+  Bi89  1  0.76907038  0.13259033  0.79359595  1
  Bi2+  Bi90  1  0.77329261  0.37254409  0.28961306  1
  Bi2+  Bi91  1  0.78123106  0.40188926  0.76353707  1
  Bi2+  Bi92  1  0.74426309  0.64147809  0.28752578  1
  Bi2+  Bi93  1  0.71862140  0.58843873  0.80591194  1
  Bi2+  Bi94  1  0.78247247  0.87622460  0.28276200  1
  Bi2+  Bi95  1  0.85589255  0.82971119  0.78467229  1
  Bi2+  Bi96  1  0.14626223  -0.03237884  0.21074362  1
  Bi2+  Bi97  1  0.07010559  0.01487712  0.70820429  1
  Bi2+  Bi98  1  0.15722228  0.23851909  0.22672484  1
  Bi2+  Bi99  1  0.08593799  0.28159667  0.69151136  1
  Bi2+  Bi100  1  0.19206021  0.52453386  0.22584658  1
  Bi2+  Bi101  1  0.13671883  0.46884001  0.69907131  1
  Bi2+  Bi102  1  0.10856633  0.77253304  0.18346570  1
  Bi2+  Bi103  1  0.05762713  0.74999956  0.70984905  1
  Bi2+  Bi104  1  0.40513284  0.03912894  0.21381415  1
  Bi2+  Bi105  1  0.34054642  -0.01892228  0.71266811  1
  Bi2+  Bi106  1  0.36352132  0.29422174  0.23757796  1
  Bi2+  Bi107  1  0.31877908  0.26259765  0.78045806  1
  Bi2+  Bi108  1  0.42619294  0.52474352  0.21251251  1
  Bi2+  Bi109  1  0.33426594  0.45435988  0.74930322  1
  Bi2+  Bi110  1  0.30099587  0.77654117  0.19855775  1
  Bi2+  Bi111  1  0.32418539  0.69422639  0.72097649  1
  Bi2+  Bi112  1  0.59022068  -0.02392816  0.19702500  1
  Bi2+  Bi113  1  0.59989457  0.00539440  0.69779335  1
  Bi2+  Bi114  1  0.59050016  0.25489925  0.22603939  1
  Bi2+  Bi115  1  0.67056224  0.26161012  0.71562038  1
  Bi2+  Bi116  1  0.64666295  0.52185989  0.20565135  1
  Bi2+  Bi117  1  0.56121924  0.50423207  0.69369089  1
  Bi2+  Bi118  1  0.56354535  0.77610412  0.21096337  1
  Bi2+  Bi119  1  0.72210952  0.74703494  0.71242687  1
  Bi2+  Bi120  1  0.85814878  -0.00002987  0.19895943  1
  Bi2+  Bi121  1  0.86996972  -0.00276351  0.71836068  1
  Bi2+  Bi122  1  0.90144379  0.23557674  0.21842793  1
  Bi2+  Bi123  1  0.88556720  0.26535199  0.69813938  1
  Bi2+  Bi124  1  0.87774921  0.53189658  0.20353439  1
  Bi2+  Bi125  1  0.86173967  0.53293926  0.68778485  1
  Bi2+  Bi126  1  0.92375647  0.79544543  0.21800727  1
  Bi2+  Bi127  1  0.88045309  0.82321121  0.66596676  1
  S2-  S128  1  0.02603545  0.20654550  0.15851733  1
  S2-  S129  1  -0.00794190  0.14583197  0.64684065  1
  S2-  S130  1  -0.11967351  0.37492288  0.15871827  1
  S2-  S131  1  -0.11084708  0.38926431  0.62541596  1
  S2-  S132  1  0.02247871  0.56688906  0.16941996  1
  S2-  S133  1  -0.01415925  0.62333624  0.64482357  1
  S2-  S134  1  0.01318688  0.98354861  0.14194498  1
  S2-  S135  1  0.08432709  0.87876590  0.64169777  1
  S2-  S136  1  0.27379724  0.21511232  0.15768347  1
  S2-  S137  1  0.23339850  0.03227941  0.64713822  1
  S2-  S138  1  0.13548385  0.38256170  0.17120905  1
  S2-  S139  1  0.22522853  0.26315239  0.63876177  1
  S2-  S140  1  0.28061143  0.54658616  0.14590084  1
  S2-  S141  1  0.23534048  0.60145374  0.65765725  1
  S2-  S142  1  0.28360878  0.98795193  0.14125768  1
  S2-  S143  1  0.28080767  0.82557797  0.67621443  1
  S2-  S144  1  0.52774297  0.13261377  0.15736736  1
  S2-  S145  1  0.45167993  0.10238998  0.67943363  1
  S2-  S146  1  0.42285911  0.37718010  0.15404749  1
  S2-  S147  1  0.42157309  0.40786285  0.65887237  1
  S2-  S148  1  0.53045448  0.62421607  0.15113585  1
  S2-  S149  1  0.47494784  0.64335183  0.67082552  1
  S2-  S150  1  0.49098510  0.87212939  0.13487361  1
  S2-  S151  1  0.47298252  0.88668430  0.67901046  1
  S2-  S152  1  0.77960452  0.14923503  0.16506206  1
  S2-  S153  1  0.65222680  0.13304614  0.64081149  1
  S2-  S154  1  0.64407605  0.37879830  0.15067553  1
  S2-  S155  1  0.64479383  0.37834905  0.63868122  1
  S2-  S156  1  0.75437366  0.63987052  0.16237690  1
  S2-  S157  1  0.70324669  0.60625015  0.65528915  1
  S2-  S158  1  0.73882484  0.91317836  0.14754479  1
  S2-  S159  1  0.65940078  0.87270197  0.64442002  1
  S2-  S160  1  0.11880409  0.10702378  0.35150927  1
  S2-  S161  1  0.22693749  -0.00663288  0.85191456  1
  S2-  S162  1  0.15680279  0.31148104  0.32731802  1
  S2-  S163  1  0.11504597  0.23499820  0.85205372  1
  S2-  S164  1  0.09748254  0.53540125  0.33811584  1
  S2-  S165  1  0.01357515  0.47325336  0.87040783  1
  S2-  S166  1  0.16862921  0.74841276  0.34515334  1
  S2-  S167  1  0.12179439  0.73161079  0.85025820  1
  S2-  S168  1  0.47842862  -0.00178546  0.36329825  1
  S2-  S169  1  0.41648496  -0.03514577  0.81389215  1
  S2-  S170  1  0.35478223  0.17165095  0.35781931  1
  S2-  S171  1  0.38901358  0.15850147  0.85682572  1
  S2-  S172  1  0.48596325  0.51505250  0.36125061  1
  S2-  S173  1  0.36328483  0.53708879  0.84400789  1
  S2-  S174  1  0.46818750  0.76536412  0.36540335  1
  S2-  S175  1  0.37270611  0.75188148  0.82221794  1
  S2-  S176  1  0.70948830  -0.01262327  0.35009445  1
  S2-  S177  1  0.61400742  -0.03578436  0.80306825  1
  S2-  S178  1  0.70766680  0.25239645  0.35266403  1
  S2-  S179  1  0.63073548  0.16749297  0.85414845  1
  S2-  S180  1  0.70917599  0.50215081  0.34731879  1
  S2-  S181  1  0.57994619  0.49687654  0.83875913  1
  S2-  S182  1  0.71076913  0.76167635  0.35029752  1
  S2-  S183  1  0.61869058  0.73307849  0.83305468  1
  S2-  S184  1  0.86789162  0.10450064  0.34047961  1
  S2-  S185  1  0.80157277  0.00906325  0.85720773  1
  S2-  S186  1  0.92749536  0.29074937  0.31907437  1
  S2-  S187  1  0.86329212  0.24440290  0.85274379  1
  S2-  S188  1  0.89363548  0.47889208  0.30457384  1
  S2-  S189  1  0.78160847  0.47203669  0.86533158  1
  S2-  S190  1  0.88555696  0.65904890  0.34391532  1
  S2-  S191  1  0.85056495  0.69655604  0.85457617  1
  S2-  S192  1  -0.01610045  0.12284467  0.44345732  1
  S2-  S193  1  0.01665480  0.11385718  0.95999470  1
  S2-  S194  1  -0.00884990  0.38020557  0.43820419  1
  S2-  S195  1  0.01438624  0.36273476  0.97463180  1
  S2-  S196  1  -0.00355654  0.63183588  0.44394826  1
  S2-  S197  1  0.01789659  0.61936398  0.96383295  1
  S2-  S198  1  -0.01322859  0.87837455  0.44926423  1
  S2-  S199  1  0.01640946  0.86638335  0.95986449  1
  S2-  S200  1  0.23789895  0.12808396  0.45975030  1
  S2-  S201  1  0.26395475  0.11766755  0.96031026  1
  S2-  S202  1  0.23880151  0.37940614  0.45312116  1
  S2-  S203  1  0.26922228  0.36794910  0.94693175  1
  S2-  S204  1  0.23884907  0.62870531  0.45025507  1
  S2-  S205  1  0.26584961  0.61262296  0.95032680  1
  S2-  S206  1  0.24011805  0.88233979  0.45305452  1
  S2-  S207  1  0.27043075  0.86503804  0.95262524  1
  S2-  S208  1  0.49156437  0.13283174  0.46642944  1
  S2-  S209  1  0.51708721  0.11198783  0.95336972  1
  S2-  S210  1  0.49036458  0.37737106  0.46039743  1
  S2-  S211  1  0.51731843  0.36560441  0.95194898  1
  S2-  S212  1  0.48545834  0.63021938  0.46369432  1
  S2-  S213  1  0.51642136  0.61570759  0.94632253  1
  S2-  S214  1  0.48557307  0.88066228  0.46851201  1
  S2-  S215  1  0.51649037  0.86969277  0.93323543  1
  S2-  S216  1  0.73928269  0.12472569  0.45219789  1
  S2-  S217  1  0.76855007  0.11474490  0.96246724  1
  S2-  S218  1  0.74124783  0.37958361  0.45084686  1
  S2-  S219  1  0.76838306  0.36182319  0.96837416  1
  S2-  S220  1  0.73928728  0.63200506  0.45059196  1
  S2-  S221  1  0.76741853  0.61772548  0.96111584  1
  S2-  S222  1  0.74096841  0.87819062  0.45508272  1
  S2-  S223  1  0.76670789  0.86650402  0.94915930  1
  S2-  S224  1  0.14844808  -0.01225064  0.04327288  1
  S2-  S225  1  0.11480858  0.00526776  0.53763029  1
  S2-  S226  1  0.14781534  0.24343742  0.05707106  1
  S2-  S227  1  0.11172951  0.25717464  0.53138035  1
  S2-  S228  1  0.14818882  0.48930559  0.04961058  1
  S2-  S229  1  0.11486015  0.50036724  0.54181754  1
  S2-  S230  1  0.15402475  0.74163715  0.05300748  1
  S2-  S231  1  0.11780079  0.75233928  0.54307856  1
  S2-  S232  1  0.39510415  -0.00999683  0.03202794  1
  S2-  S233  1  0.37160399  0.00564920  0.55145202  1
  S2-  S234  1  0.39624457  0.23929591  0.04967309  1
  S2-  S235  1  0.37605435  0.25257916  0.55323046  1
  S2-  S236  1  0.39579821  0.49019853  0.04213184  1
  S2-  S237  1  0.36726286  0.50304474  0.54575352  1
  S2-  S238  1  0.39368071  0.74030258  0.03631101  1
  S2-  S239  1  0.36687209  0.75584578  0.55334217  1
  S2-  S240  1  0.64313193  -0.01245291  0.03851704  1
  S2-  S241  1  0.62211333  0.00176811  0.54374530  1
  S2-  S242  1  0.64381049  0.23444515  0.05258678  1
  S2-  S243  1  0.62368913  0.25409126  0.54024887  1
  S2-  S244  1  0.64338808  0.49411776  0.04314555  1
  S2-  S245  1  0.61916881  0.50857063  0.54178118  1
  S2-  S246  1  0.64280373  0.74275754  0.04267400  1
  S2-  S247  1  0.61760684  0.74841782  0.54591142  1
  S2-  S248  1  0.88922564  -0.01197601  0.04524135  1
  S2-  S249  1  0.86850510  0.00343774  0.54169538  1
  S2-  S250  1  0.88900920  0.23178639  0.05697800  1
  S2-  S251  1  0.86770662  0.25133654  0.52991024  1
  S2-  S252  1  0.89118475  0.49553401  0.05357232  1
  S2-  S253  1  0.87109475  0.50814060  0.52540620  1
  S2-  S254  1  0.89269527  0.74240170  0.05664427  1
  S2-  S255  1  0.87116750  0.75123561  0.53344091  1
