# generated using pymatgen
data_La6Ce6Pr19Nd20Sm13(BiS2)64
_symmetry_space_group_name_H-M   'P 1'
_cell_length_a   16.08459493
_cell_length_b   16.12077142
_cell_length_c   27.32263873
_cell_angle_alpha   89.85541781
_cell_angle_beta   90.07887064
_cell_angle_gamma   89.95940286
_symmetry_Int_Tables_number   1
_chemical_formula_structural   La6Ce6Pr19Nd20Sm13(BiS2)64
_chemical_formula_sum   'La6 Ce6 Pr19 Nd20 Sm13 Bi64 S128'
_cell_volume   7084.62200730
_cell_formula_units_Z   1
loop_
 _symmetry_equiv_pos_site_id
 _symmetry_equiv_pos_as_xyz
  1  'x, y, z'
loop_
 _atom_type_symbol
 _atom_type_oxidation_number
  La3+  3.0
  Ce3+  3.0
  Pr3+  3.0
  Nd3+  3.0
  Sm3+  3.0
  Bi2+  2.0
  S2-  -2.0
loop_
 _atom_site_type_symbol
 _atom_site_label
 _atom_site_symmetry_multiplicity
 _atom_site_fract_x
 _atom_site_fract_y
 _atom_site_fract_z
 _atom_site_occupancy
  La3+  La0  1  0.86914907  -0.00102159  0.89625411  1
  La3+  La1  1  0.87224791  0.76661557  0.42110142  1
  La3+  La2  1  0.13501649  0.00793003  0.41644588  1
  La3+  La3  1  0.50607626  0.87486097  0.06974917  1
  La3+  La4  1  0.36988631  0.50558022  0.89014238  1
  La3+  La5  1  0.61245589  0.50320817  0.41741080  1
  Ce3+  Ce6  1  0.24825214  0.38177139  0.04904532  1
  Ce3+  Ce7  1  0.87761670  0.50686190  0.42595487  1
  Ce3+  Ce8  1  0.24628136  0.62943568  0.57637482  1
  Ce3+  Ce9  1  -0.00220860  0.87402387  0.06957222  1
  Ce3+  Ce10  1  0.25180633  0.88039633  0.56240090  1
  Ce3+  Ce11  1  0.25773805  0.38076644  0.56617800  1
  Pr3+  Pr12  1  0.37003836  -0.00249476  0.93816022  1
  Pr3+  Pr13  1  0.10824087  0.75229243  0.93702803  1
  Pr3+  Pr14  1  0.12095274  0.25154675  0.94167244  1
  Pr3+  Pr15  1  0.62056382  0.50107280  0.93855226  1
  Pr3+  Pr16  1  0.13021976  0.75637578  0.43746794  1
  Pr3+  Pr17  1  0.86823399  0.24980236  0.93765943  1
  Pr3+  Pr18  1  0.24625727  0.12635334  0.06376053  1
  Pr3+  Pr19  1  0.11398361  0.50514375  0.92900791  1
  Pr3+  Pr20  1  0.62000318  0.75549172  0.43244631  1
  Pr3+  Pr21  1  0.13231117  0.50599606  0.43723818  1
  Pr3+  Pr22  1  0.01105753  0.61656392  0.09295059  1
  Pr3+  Pr23  1  0.75238291  0.87400998  0.06325903  1
  Pr3+  Pr24  1  0.00389019  0.88695569  0.57635667  1
  Pr3+  Pr25  1  0.51970052  0.63519407  0.58210551  1
  Pr3+  Pr26  1  0.73692922  0.62072363  0.09592890  1
  Pr3+  Pr27  1  0.51735737  0.37969868  0.57195235  1
  Pr3+  Pr28  1  0.63090691  0.25224878  0.42910572  1
  Pr3+  Pr29  1  0.13495584  0.25517587  0.43555556  1
  Pr3+  Pr30  1  0.75310689  0.12913345  0.56423876  1
  Nd3+  Nd31  1  0.00161215  0.63059694  0.55106772  1
  Nd3+  Nd32  1  0.74830403  0.13079293  0.06642129  1
  Nd3+  Nd33  1  0.62519662  0.00027004  0.94051547  1
  Nd3+  Nd34  1  0.75746444  0.87888811  0.55651427  1
  Nd3+  Nd35  1  0.75582021  0.62860699  0.54759705  1
  Nd3+  Nd36  1  0.00574591  0.37895693  0.54831462  1
  Nd3+  Nd37  1  0.49768860  0.38122135  0.05919755  1
  Nd3+  Nd38  1  0.49807707  0.88078111  0.57093314  1
  Nd3+  Nd39  1  0.62179431  0.74983221  0.94031459  1
  Nd3+  Nd40  1  0.62067394  0.25182383  0.93948741  1
  Nd3+  Nd41  1  0.75532635  0.38011264  0.54975871  1
  Nd3+  Nd42  1  -0.00367069  0.12721819  0.06237311  1
  Nd3+  Nd43  1  0.87406416  0.74946818  0.95400750  1
  Nd3+  Nd44  1  0.49769615  0.12662250  0.05679789  1
  Nd3+  Nd45  1  0.36801237  0.75228211  0.92925837  1
  Nd3+  Nd46  1  0.25401297  0.12624949  0.55980124  1
  Nd3+  Nd47  1  0.00645387  0.12923729  0.56148284  1
  Nd3+  Nd48  1  0.38423178  0.00368466  0.43138706  1
  Nd3+  Nd49  1  0.74598483  0.37666411  0.07218265  1
  Nd3+  Nd50  1  0.38153545  0.25811168  0.44832761  1
  Sm3+  Sm51  1  0.50415399  0.12891729  0.55528645  1
  Sm3+  Sm52  1  0.38226120  0.75275154  0.45062496  1
  Sm3+  Sm53  1  0.11628416  0.00318124  0.94538853  1
  Sm3+  Sm54  1  -0.00203481  0.38048930  0.06238887  1
  Sm3+  Sm55  1  0.24783709  0.62789200  0.05146753  1
  Sm3+  Sm56  1  0.49658709  0.62773332  0.05684559  1
  Sm3+  Sm57  1  0.87367974  0.50381768  0.95127698  1
  Sm3+  Sm58  1  0.24709681  0.87368841  0.05798672  1
  Sm3+  Sm59  1  0.88075250  0.24833746  0.43527373  1
  Sm3+  Sm60  1  0.88307344  0.01065523  0.43320563  1
  Sm3+  Sm61  1  0.37236649  0.25089333  0.94510290  1
  Sm3+  Sm62  1  0.62561840  0.00576987  0.44236218  1
  Sm3+  Sm63  1  0.38285768  0.50796397  0.46024651  1
  Bi2+  Bi64  1  0.00333496  0.11892833  0.28817603  1
  Bi2+  Bi65  1  0.01311161  0.11137970  0.78559857  1
  Bi2+  Bi66  1  0.02382636  0.32428867  0.27894524  1
  Bi2+  Bi67  1  -0.04728271  0.36755297  0.79313628  1
  Bi2+  Bi68  1  0.01783670  0.59809777  0.28719607  1
  Bi2+  Bi69  1  -0.00072451  0.61173333  0.79448563  1
  Bi2+  Bi70  1  -0.01928812  0.84745518  0.28727126  1
  Bi2+  Bi71  1  0.03343940  0.84686464  0.79983701  1
  Bi2+  Bi72  1  0.27267944  0.12397351  0.29187751  1
  Bi2+  Bi73  1  0.24050027  0.06326637  0.81127942  1
  Bi2+  Bi74  1  0.20198590  0.37605950  0.31259696  1
  Bi2+  Bi75  1  0.14592582  0.32938976  0.77944143  1
  Bi2+  Bi76  1  0.26147629  0.68518739  0.30603363  1
  Bi2+  Bi77  1  0.23241400  0.64992874  0.78169798  1
  Bi2+  Bi78  1  0.31306043  0.86814581  0.27686171  1
  Bi2+  Bi79  1  0.28389950  0.89179830  0.76756292  1
  Bi2+  Bi80  1  0.51878760  0.13820812  0.30102710  1
  Bi2+  Bi81  1  0.46366877  0.09890797  0.80134945  1
  Bi2+  Bi82  1  0.45566047  0.37575778  0.30437673  1
  Bi2+  Bi83  1  0.51696804  0.35321265  0.80803347  1
  Bi2+  Bi84  1  0.48567363  0.62960015  0.29484456  1
  Bi2+  Bi85  1  0.50385304  0.63378020  0.78143188  1
  Bi2+  Bi86  1  0.50781410  0.87326262  0.28860290  1
  Bi2+  Bi87  1  0.50106012  0.88474139  0.79207863  1
  Bi2+  Bi88  1  0.70940821  0.11728422  0.32497499  1
  Bi2+  Bi89  1  0.73629137  0.15611371  0.79257893  1
  Bi2+  Bi90  1  0.73770190  0.30209394  0.28975471  1
  Bi2+  Bi91  1  0.77370696  0.42984321  0.75255420  1
  Bi2+  Bi92  1  0.75924868  0.66157013  0.28157106  1
  Bi2+  Bi93  1  0.80006117  0.61975517  0.78399152  1
  Bi2+  Bi94  1  0.73072985  0.92121674  0.29097638  1
  Bi2+  Bi95  1  0.69988663  0.88592733  0.78030944  1
  Bi2+  Bi96  1  0.13397346  -0.01389610  0.20009065  1
  Bi2+  Bi97  1  0.14451722  0.00274923  0.70807409  1
  Bi2+  Bi98  1  0.14102217  0.22927971  0.19624010  1
  Bi2+  Bi99  1  0.04252207  0.23202698  0.69758883  1
  Bi2+  Bi100  1  0.13808994  0.47714925  0.20829339  1
  Bi2+  Bi101  1  0.06053221  0.47469303  0.71305712  1
  Bi2+  Bi102  1  0.14500251  0.73237789  0.20709771  1
  Bi2+  Bi103  1  0.06983142  0.74437878  0.70677345  1
  Bi2+  Bi104  1  0.41266120  0.02249070  0.23020025  1
  Bi2+  Bi105  1  0.38812711  0.05304916  0.69352183  1
  Bi2+  Bi106  1  0.32560941  0.30486510  0.22949366  1
  Bi2+  Bi107  1  0.30922272  0.21088722  0.74830157  1
  Bi2+  Bi108  1  0.36280414  0.50323340  0.23167321  1
  Bi2+  Bi109  1  0.33552827  0.48033800  0.70128818  1
  Bi2+  Bi110  1  0.36560647  0.69421645  0.20636031  1
  Bi2+  Bi111  1  0.40727984  0.78019927  0.70431723  1
  Bi2+  Bi112  1  0.62486117  0.04450157  0.20636935  1
  Bi2+  Bi113  1  0.58607135  0.00267582  0.71284249  1
  Bi2+  Bi114  1  0.60179299  0.24967154  0.20924418  1
  Bi2+  Bi115  1  0.58287293  0.21893590  0.73648006  1
  Bi2+  Bi116  1  0.61795138  0.49611864  0.21308221  1
  Bi2+  Bi117  1  0.59044739  0.46564665  0.69181906  1
  Bi2+  Bi118  1  0.59405502  0.77056303  0.20086457  1
  Bi2+  Bi119  1  0.67479483  0.72219003  0.71343581  1
  Bi2+  Bi120  1  0.82211537  0.05921542  0.21679617  1
  Bi2+  Bi121  1  0.88102192  0.00279613  0.71238900  1
  Bi2+  Bi122  1  0.87300274  0.25339665  0.21025603  1
  Bi2+  Bi123  1  0.85030135  0.26222341  0.70730273  1
  Bi2+  Bi124  1  0.87511448  0.44634884  0.23088850  1
  Bi2+  Bi125  1  0.85341976  0.55216089  0.67534902  1
  Bi2+  Bi126  1  0.83028422  0.86739930  0.19604708  1
  Bi2+  Bi127  1  0.87334260  0.74046238  0.69767438  1
  S2-  S128  1  0.03315496  0.12122101  0.16018647  1
  S2-  S129  1  0.00468260  0.03151064  0.64457932  1
  S2-  S130  1  -0.00124189  0.46264587  0.14936642  1
  S2-  S131  1  -0.03712677  0.36002965  0.64368186  1
  S2-  S132  1  -0.00385832  0.67304985  0.19318298  1
  S2-  S133  1  0.05972955  0.60969364  0.64407557  1
  S2-  S134  1  0.00614893  0.89878417  0.16784618  1
  S2-  S135  1  0.14147593  0.87195668  0.64311754  1
  S2-  S136  1  0.24911027  0.10557556  0.16275441  1
  S2-  S137  1  0.23772409  0.13631041  0.65951248  1
  S2-  S138  1  0.22536361  0.36846993  0.14575160  1
  S2-  S139  1  0.20339993  0.40021699  0.65729241  1
  S2-  S140  1  0.17509412  0.60845415  0.14044789  1
  S2-  S141  1  0.26545942  0.64381545  0.67520071  1
  S2-  S142  1  0.22112926  0.87226994  0.15517582  1
  S2-  S143  1  0.36330996  0.90292499  0.63959753  1
  S2-  S144  1  0.49244356  0.12850277  0.15514014  1
  S2-  S145  1  0.54895749  0.14056363  0.64913927  1
  S2-  S146  1  0.53733792  0.38369814  0.15678518  1
  S2-  S147  1  0.44504074  0.37301532  0.66591304  1
  S2-  S148  1  0.57541381  0.61750595  0.14575486  1
  S2-  S149  1  0.46912621  0.59233735  0.67941298  1
  S2-  S150  1  0.44669088  0.82097117  0.15816385  1
  S2-  S151  1  0.55003760  0.78530995  0.64890905  1
  S2-  S152  1  0.73858178  0.24716776  0.14158915  1
  S2-  S153  1  0.79226131  0.11295873  0.66239852  1
  S2-  S154  1  0.74966558  0.47700195  0.15619694  1
  S2-  S155  1  0.66432491  0.36101556  0.63421041  1
  S2-  S156  1  0.77218457  0.71178978  0.18037403  1
  S2-  S157  1  0.67763220  0.60327478  0.63660344  1
  S2-  S158  1  0.64269282  0.89198139  0.14224061  1
  S2-  S159  1  0.85545683  0.88401700  0.63912318  1
  S2-  S160  1  0.06612548  -0.02814478  0.31962331  1
  S2-  S161  1  0.03630364  -0.01458393  0.85905842  1
  S2-  S162  1  0.13658711  0.15766362  0.35199821  1
  S2-  S163  1  0.13067238  0.19581935  0.84749691  1
  S2-  S164  1  0.16273478  0.53829871  0.34057962  1
  S2-  S165  1  0.20479781  0.52742677  0.84239321  1
  S2-  S166  1  0.11526190  0.76277035  0.33590861  1
  S2-  S167  1  0.17569775  0.77096604  0.84251116  1
  S2-  S168  1  0.27873865  -0.01213463  0.35120061  1
  S2-  S169  1  0.37334371  -0.11426795  0.86157517  1
  S2-  S170  1  0.38526874  0.22309268  0.35086247  1
  S2-  S171  1  0.39266976  0.24470213  0.84813827  1
  S2-  S172  1  0.44055107  0.51127940  0.36773590  1
  S2-  S173  1  0.37945846  0.43770075  0.79383032  1
  S2-  S174  1  0.47901404  0.75019294  0.36722598  1
  S2-  S175  1  0.37672743  0.66078636  0.84061923  1
  S2-  S176  1  0.51748629  -0.00868229  0.36379918  1
  S2-  S177  1  0.70260026  0.01651868  0.85248815  1
  S2-  S178  1  0.60511162  0.36097408  0.35206976  1
  S2-  S179  1  0.67709693  0.28904250  0.84904172  1
  S2-  S180  1  0.65102739  0.56046615  0.31850476  1
  S2-  S181  1  0.54836816  0.50965672  0.84770220  1
  S2-  S182  1  0.71091351  0.77144255  0.34509256  1
  S2-  S183  1  0.59048749  0.74817488  0.84300764  1
  S2-  S184  1  0.87437026  -0.09324502  0.35303998  1
  S2-  S185  1  0.86563790  -0.09126117  0.80287647  1
  S2-  S186  1  0.88718142  0.13484912  0.36074559  1
  S2-  S187  1  0.87848812  0.15816495  0.85092893  1
  S2-  S188  1  0.90276311  0.48964582  0.32881228  1
  S2-  S189  1  0.96572573  0.49759724  0.86654582  1
  S2-  S190  1  0.91000658  0.69486566  0.32970534  1
  S2-  S191  1  0.96319319  0.73849840  0.86839217  1
  S2-  S192  1  0.01003900  0.13140961  0.45668373  1
  S2-  S193  1  -0.00585630  0.12604544  0.95768543  1
  S2-  S194  1  0.00383635  0.37592701  0.44109048  1
  S2-  S195  1  -0.00521096  0.37302227  0.95887499  1
  S2-  S196  1  0.00386442  0.62993890  0.44487654  1
  S2-  S197  1  -0.00401173  0.62355227  0.97026300  1
  S2-  S198  1  0.00847867  0.88542455  0.45049640  1
  S2-  S199  1  -0.01090301  0.88363916  0.96381930  1
  S2-  S200  1  0.25974114  0.13052602  0.45501224  1
  S2-  S201  1  0.24802806  0.12538898  0.95680106  1
  S2-  S202  1  0.25843345  0.38314802  0.45773143  1
  S2-  S203  1  0.25072257  0.37752710  0.94251509  1
  S2-  S204  1  0.25759347  0.62977320  0.46033829  1
  S2-  S205  1  0.24523434  0.62992855  0.94993248  1
  S2-  S206  1  0.25965236  0.87574943  0.45435254  1
  S2-  S207  1  0.23788531  0.87858443  0.95533710  1
  S2-  S208  1  0.50516028  0.13290767  0.45380468  1
  S2-  S209  1  0.49709134  0.12468828  0.95085515  1
  S2-  S210  1  0.50339923  0.37829807  0.46393389  1
  S2-  S211  1  0.49256947  0.37711879  0.95278317  1
  S2-  S212  1  0.50447729  0.62970521  0.46900613  1
  S2-  S213  1  0.49341636  0.62746215  0.95357797  1
  S2-  S214  1  0.50278510  0.88025070  0.46620651  1
  S2-  S215  1  0.50210373  0.87653773  0.95999935  1
  S2-  S216  1  0.75182612  0.12762218  0.45762189  1
  S2-  S217  1  0.74646609  0.12763672  0.96024162  1
  S2-  S218  1  0.75998491  0.37558818  0.44373816  1
  S2-  S219  1  0.74956052  0.37969483  0.96005364  1
  S2-  S220  1  0.75049514  0.62730174  0.44212639  1
  S2-  S221  1  0.74993696  0.62467301  0.94233827  1
  S2-  S222  1  0.74854082  0.88862362  0.45283658  1
  S2-  S223  1  0.75113326  0.87642898  0.95342742  1
  S2-  S224  1  0.12240236  0.00029481  0.04979929  1
  S2-  S225  1  0.13019884  0.00629011  0.53958207  1
  S2-  S226  1  0.12024463  0.25410080  0.04834734  1
  S2-  S227  1  0.13129145  0.25521926  0.54440167  1
  S2-  S228  1  0.12245792  0.49969353  0.03844121  1
  S2-  S229  1  0.12942581  0.50310305  0.54310366  1
  S2-  S230  1  0.12166379  0.75139523  0.04823463  1
  S2-  S231  1  0.12713155  0.75199507  0.54349678  1
  S2-  S232  1  0.37299701  -0.00190331  0.04847102  1
  S2-  S233  1  0.38037992  0.00966982  0.53937683  1
  S2-  S234  1  0.37330447  0.25285219  0.05049330  1
  S2-  S235  1  0.38162636  0.25239696  0.55460618  1
  S2-  S236  1  0.37279325  0.50683106  0.06015280  1
  S2-  S237  1  0.38266684  0.50882605  0.56200702  1
  S2-  S238  1  0.37121311  0.75126353  0.04220041  1
  S2-  S239  1  0.37819539  0.74730234  0.55360459  1
  S2-  S240  1  0.62682519  0.00786565  0.04488364  1
  S2-  S241  1  0.62837503  0.00287846  0.54841214  1
  S2-  S242  1  0.61802255  0.25365709  0.04427260  1
  S2-  S243  1  0.63026159  0.24890546  0.53651786  1
  S2-  S244  1  0.62300423  0.50358544  0.04398307  1
  S2-  S245  1  0.63377892  0.50274248  0.53217967  1
  S2-  S246  1  0.62968558  0.74373048  0.04541821  1
  S2-  S247  1  0.63565635  0.75748497  0.53987669  1
  S2-  S248  1  0.87116154  0.00486048  0.06403082  1
  S2-  S249  1  0.87976993  0.00890624  0.53825643  1
  S2-  S250  1  0.87634254  0.25604274  0.04634755  1
  S2-  S251  1  0.87969132  0.25178826  0.53964751  1
  S2-  S252  1  0.87032851  0.50420201  0.05294568  1
  S2-  S253  1  0.88051781  0.50244836  0.53390224  1
  S2-  S254  1  0.87368952  0.74251843  0.05984623  1
  S2-  S255  1  0.88014450  0.75571918  0.53562742  1
