# generated using pymatgen
data_La6Ce6Pr19Nd20Sm13(BiS2)64
_symmetry_space_group_name_H-M   'P 1'
_cell_length_a   16.16562886
_cell_length_b   16.18136966
_cell_length_c   27.19298425
_cell_angle_alpha   90.02458263
_cell_angle_beta   89.90977025
_cell_angle_gamma   89.98566882
_symmetry_Int_Tables_number   1
_chemical_formula_structural   La6Ce6Pr19Nd20Sm13(BiS2)64
_chemical_formula_sum   'La6 Ce6 Pr19 Nd20 Sm13 Bi64 S128'
_cell_volume   7113.18595163
_cell_formula_units_Z   1
loop_
 _symmetry_equiv_pos_site_id
 _symmetry_equiv_pos_as_xyz
  1  'x, y, z'
loop_
 _atom_type_symbol
 _atom_type_oxidation_number
  La3+  3.0
  Ce3+  3.0
  Pr3+  3.0
  Nd3+  3.0
  Sm3+  3.0
  Bi2+  2.0
  S2-  -2.0
loop_
 _atom_site_type_symbol
 _atom_site_label
 _atom_site_symmetry_multiplicity
 _atom_site_fract_x
 _atom_site_fract_y
 _atom_site_fract_z
 _atom_site_occupancy
  La3+  La0  1  0.76671388  0.12183299  0.07517183  1
  La3+  La1  1  0.76119869  0.37969463  0.11148891  1
  La3+  La2  1  0.87347339  0.24027122  0.42041692  1
  La3+  La3  1  0.49984258  0.13638559  0.58900803  1
  La3+  La4  1  0.37125147  0.50454133  0.38972509  1
  La3+  La5  1  0.37285244  0.24681028  0.43021991  1
  Ce3+  Ce6  1  0.25110526  0.62493048  0.55627711  1
  Ce3+  Ce7  1  0.01080039  0.37729749  0.07027452  1
  Ce3+  Ce8  1  0.24999352  0.87754180  0.56193940  1
  Ce3+  Ce9  1  0.61819559  0.74965366  0.44852980  1
  Ce3+  Ce10  1  0.62071115  0.50058322  0.43920565  1
  Ce3+  Ce11  1  0.74569591  0.62417373  0.55997113  1
  Pr3+  Pr12  1  0.37526433  0.00268457  0.43785348  1
  Pr3+  Pr13  1  -0.00559377  0.12507918  0.56593049  1
  Pr3+  Pr14  1  -0.00424435  0.37577646  0.55694577  1
  Pr3+  Pr15  1  0.65076373  0.75279929  0.92365215  1
  Pr3+  Pr16  1  0.49485382  0.62292683  0.56422801  1
  Pr3+  Pr17  1  0.74987624  0.12770050  0.57010551  1
  Pr3+  Pr18  1  0.89171955  0.49891489  0.94371667  1
  Pr3+  Pr19  1  0.26704920  0.87744200  0.05284154  1
  Pr3+  Pr20  1  0.64143313  0.50015325  0.94348699  1
  Pr3+  Pr21  1  0.52074427  0.62928219  0.05969236  1
  Pr3+  Pr22  1  0.39181716  0.50435066  0.93360740  1
  Pr3+  Pr23  1  0.26842621  0.37714988  0.06243726  1
  Pr3+  Pr24  1  0.74588493  0.87332645  0.56741174  1
  Pr3+  Pr25  1  0.76675849  0.62876174  0.06260610  1
  Pr3+  Pr26  1  0.76898336  0.87894730  0.06391168  1
  Pr3+  Pr27  1  0.25059248  0.37426600  0.56209179  1
  Pr3+  Pr28  1  0.64298082  0.24900871  0.94189033  1
  Pr3+  Pr29  1  0.64874723  0.01024770  0.91599598  1
  Pr3+  Pr30  1  0.12544818  0.74835445  0.44311345  1
  Nd3+  Nd31  1  0.37379638  0.75179631  0.43870339  1
  Nd3+  Nd32  1  0.87124645  0.74944663  0.44202359  1
  Nd3+  Nd33  1  0.01295944  0.12680537  0.06461819  1
  Nd3+  Nd34  1  0.87242458  0.50161799  0.43599893  1
  Nd3+  Nd35  1  0.51474388  0.37580442  0.05927675  1
  Nd3+  Nd36  1  0.89778395  0.75328064  0.92934148  1
  Nd3+  Nd37  1  0.52198795  0.87934966  0.05067768  1
  Nd3+  Nd38  1  0.12298655  0.25040376  0.44747319  1
  Nd3+  Nd39  1  0.62171507  0.24815745  0.43689746  1
  Nd3+  Nd40  1  0.01355126  0.62690014  0.06083690  1
  Nd3+  Nd41  1  -0.00185547  0.62453610  0.55644732  1
  Nd3+  Nd42  1  0.26719675  0.12574498  0.05721800  1
  Nd3+  Nd43  1  0.87007600  -0.00185955  0.44203983  1
  Nd3+  Nd44  1  0.13910391  0.25237181  0.94687050  1
  Nd3+  Nd45  1  0.38905788  0.25130966  0.93672579  1
  Nd3+  Nd46  1  0.39466934  0.75332896  0.93530763  1
  Nd3+  Nd47  1  0.62081669  0.00124961  0.45163810  1
  Nd3+  Nd48  1  0.13878499  0.00244765  0.94305486  1
  Nd3+  Nd49  1  0.48893621  0.88212711  0.58998977  1
  Nd3+  Nd50  1  0.26770163  0.62878161  0.05851408  1
  Sm3+  Sm51  1  0.89100066  0.00367736  0.93895533  1
  Sm3+  Sm52  1  0.13832456  0.75154088  0.94131649  1
  Sm3+  Sm53  1  0.89041388  0.25286830  0.94978856  1
  Sm3+  Sm54  1  0.39135165  0.00089805  0.93510933  1
  Sm3+  Sm55  1  0.12306801  0.00016894  0.44520534  1
  Sm3+  Sm56  1  0.25123568  0.12331852  0.56067766  1
  Sm3+  Sm57  1  0.51795573  0.12565920  0.05414288  1
  Sm3+  Sm58  1  0.74784146  0.37334014  0.54953265  1
  Sm3+  Sm59  1  0.01466984  0.87607876  0.06477673  1
  Sm3+  Sm60  1  0.14160847  0.50057669  0.94965322  1
  Sm3+  Sm61  1  0.49664537  0.37351108  0.55279512  1
  Sm3+  Sm62  1  -0.00121884  0.87472175  0.55402637  1
  Sm3+  Sm63  1  0.12653339  0.49696099  0.44091617  1
  Bi2+  Bi64  1  0.00229903  0.06572633  0.28404884  1
  Bi2+  Bi65  1  0.01147286  0.10771763  0.80422014  1
  Bi2+  Bi66  1  0.01230965  0.39174721  0.29234354  1
  Bi2+  Bi67  1  0.00587699  0.34949157  0.81667032  1
  Bi2+  Bi68  1  0.04287277  0.66017038  0.29036788  1
  Bi2+  Bi69  1  -0.01659942  0.62058826  0.79484406  1
  Bi2+  Bi70  1  -0.02665433  0.86760010  0.27927881  1
  Bi2+  Bi71  1  0.00291445  0.90985380  0.81738834  1
  Bi2+  Bi72  1  0.26189651  0.11568810  0.28630661  1
  Bi2+  Bi73  1  0.20130151  0.11388542  0.70292136  1
  Bi2+  Bi74  1  0.22102546  0.36773433  0.28871921  1
  Bi2+  Bi75  1  0.18535822  0.38207780  0.77952734  1
  Bi2+  Bi76  1  0.24487519  0.64439725  0.28901213  1
  Bi2+  Bi77  1  0.23386031  0.61374764  0.78982496  1
  Bi2+  Bi78  1  0.22984731  0.92119277  0.28134284  1
  Bi2+  Bi79  1  0.19965275  0.88075785  0.78633428  1
  Bi2+  Bi80  1  0.49500928  0.03755392  0.28606521  1
  Bi2+  Bi81  1  0.51016559  0.12224268  0.80492963  1
  Bi2+  Bi82  1  0.50215636  0.37101418  0.28855749  1
  Bi2+  Bi83  1  0.49488371  0.38012021  0.78589410  1
  Bi2+  Bi84  1  0.50537967  0.75094473  0.27558616  1
  Bi2+  Bi85  1  0.48690301  0.61882751  0.80401858  1
  Bi2+  Bi86  1  0.39950393  0.88533669  0.32835530  1
  Bi2+  Bi87  1  0.45618538  0.86959813  0.79938626  1
  Bi2+  Bi88  1  0.72689212  0.12800722  0.30856798  1
  Bi2+  Bi89  1  0.79760601  0.12050450  0.78692712  1
  Bi2+  Bi90  1  0.73411337  0.39780294  0.30169641  1
  Bi2+  Bi91  1  0.73370080  0.38239167  0.78303811  1
  Bi2+  Bi92  1  0.75718496  0.66503358  0.29661174  1
  Bi2+  Bi93  1  0.76169007  0.57504961  0.75474095  1
  Bi2+  Bi94  1  0.77209203  0.86830352  0.28939453  1
  Bi2+  Bi95  1  0.82173308  0.85840018  0.78701046  1
  Bi2+  Bi96  1  0.08194047  -0.03354372  0.19590073  1
  Bi2+  Bi97  1  0.12161810  -0.05825239  0.68473794  1
  Bi2+  Bi98  1  0.09138178  0.23042075  0.24311778  1
  Bi2+  Bi99  1  0.05864128  0.24238778  0.71933470  1
  Bi2+  Bi100  1  0.10263052  0.51169600  0.22153487  1
  Bi2+  Bi101  1  0.09530177  0.52103288  0.71561575  1
  Bi2+  Bi102  1  0.11552705  0.77990880  0.20606817  1
  Bi2+  Bi103  1  0.12878653  0.74189524  0.71488867  1
  Bi2+  Bi104  1  0.39249911  0.00576949  0.18703422  1
  Bi2+  Bi105  1  0.35366300  -0.01179653  0.72375497  1
  Bi2+  Bi106  1  0.34655255  0.23677897  0.20984726  1
  Bi2+  Bi107  1  0.38366124  0.27488416  0.71388001  1
  Bi2+  Bi108  1  0.36986696  0.48676446  0.18803694  1
  Bi2+  Bi109  1  0.37056128  0.51212118  0.70402711  1
  Bi2+  Bi110  1  0.32322879  0.75578912  0.21003980  1
  Bi2+  Bi111  1  0.32912301  0.74986886  0.72165756  1
  Bi2+  Bi112  1  0.60881854  -0.09869980  0.22406735  1
  Bi2+  Bi113  1  0.62746510  -0.02470924  0.71232919  1
  Bi2+  Bi114  1  0.59095854  0.24641642  0.20748860  1
  Bi2+  Bi115  1  0.63389344  0.25697722  0.71231629  1
  Bi2+  Bi116  1  0.61417088  0.61050718  0.22571477  1
  Bi2+  Bi117  1  0.61352717  0.47298376  0.70691384  1
  Bi2+  Bi118  1  0.66105154  0.75230286  0.15316111  1
  Bi2+  Bi119  1  0.66974428  0.74603457  0.72514573  1
  Bi2+  Bi120  1  0.84164011  -0.00825121  0.20493721  1
  Bi2+  Bi121  1  0.92454278  0.02065128  0.71565153  1
  Bi2+  Bi122  1  0.87917533  0.23642852  0.21662846  1
  Bi2+  Bi123  1  0.84954323  0.27230807  0.71360198  1
  Bi2+  Bi124  1  0.88812831  0.51211507  0.21710218  1
  Bi2+  Bi125  1  0.90070727  0.46416281  0.70344589  1
  Bi2+  Bi126  1  0.83901912  0.75065372  0.20255846  1
  Bi2+  Bi127  1  0.92748371  0.74543392  0.71545734  1
  S2-  S128  1  -0.08122634  0.12099616  0.14829334  1
  S2-  S129  1  -0.11913760  0.13836461  0.64156085  1
  S2-  S130  1  -0.07805656  0.36990977  0.15671113  1
  S2-  S131  1  0.03544282  0.38162755  0.65451310  1
  S2-  S132  1  -0.00030812  0.60404252  0.15934307  1
  S2-  S133  1  -0.02517482  0.60880120  0.65386987  1
  S2-  S134  1  -0.10016715  0.86653723  0.13790955  1
  S2-  S135  1  -0.03565112  0.88228603  0.64961273  1
  S2-  S136  1  0.26444199  0.12362568  0.15644277  1
  S2-  S137  1  0.33949645  0.15197365  0.64293033  1
  S2-  S138  1  0.25578803  0.35861755  0.16262569  1
  S2-  S139  1  0.28302161  0.37606687  0.66238698  1
  S2-  S140  1  0.26423463  0.61201200  0.15676667  1
  S2-  S141  1  0.28171016  0.62079321  0.65287443  1
  S2-  S142  1  0.26422869  0.88314057  0.15253860  1
  S2-  S143  1  0.33690655  0.87051653  0.64689055  1
  S2-  S144  1  0.50609007  0.12396817  0.15230056  1
  S2-  S145  1  0.48683390  0.01319857  0.66139825  1
  S2-  S146  1  0.48758834  0.36158180  0.15773058  1
  S2-  S147  1  0.50042266  0.29529553  0.64183399  1
  S2-  S148  1  0.49121130  0.59488574  0.15680372  1
  S2-  S149  1  0.50395280  0.58608848  0.66490168  1
  S2-  S150  1  0.48580467  0.88720417  0.14914339  1
  S2-  S151  1  0.55125484  0.82288506  0.68109584  1
  S2-  S152  1  0.73594147  0.21985401  0.15947484  1
  S2-  S153  1  0.65320545  0.12302556  0.65619510  1
  S2-  S154  1  0.68557017  0.38548784  0.21111075  1
  S2-  S155  1  0.73372205  0.36665783  0.64718948  1
  S2-  S156  1  0.77191008  0.54377449  0.15225046  1
  S2-  S157  1  0.74274268  0.64982903  0.65585135  1
  S2-  S158  1  0.71852473  0.99078335  0.14020420  1
  S2-  S159  1  0.74522819  0.89761647  0.66775902  1
  S2-  S160  1  0.14057817  0.02510837  0.34883744  1
  S2-  S161  1  0.14670761  0.01906377  0.84453981  1
  S2-  S162  1  0.10986313  0.26782796  0.34896124  1
  S2-  S163  1  0.15905181  0.26505588  0.84857503  1
  S2-  S164  1  0.20415695  0.50058084  0.35251411  1
  S2-  S165  1  0.15311511  0.51734909  0.85213109  1
  S2-  S166  1  0.15432817  0.76081994  0.34470184  1
  S2-  S167  1  0.03468439  0.75082948  0.86257327  1
  S2-  S168  1  0.38483952  0.11572542  0.35680669  1
  S2-  S169  1  0.37929528  0.01702445  0.83725754  1
  S2-  S170  1  0.36490385  0.34182380  0.34537562  1
  S2-  S171  1  0.41170069  0.24633312  0.83812392  1
  S2-  S172  1  0.40867105  0.50276150  0.28145766  1
  S2-  S173  1  0.38148263  0.48253994  0.83338159  1
  S2-  S174  1  0.37657952  0.66901731  0.35153090  1
  S2-  S175  1  0.35274318  0.72273388  0.84022289  1
  S2-  S176  1  0.63650361  0.01647934  0.35133438  1
  S2-  S177  1  0.58456872  -0.03612613  0.81952162  1
  S2-  S178  1  0.60726706  0.24619435  0.33608222  1
  S2-  S179  1  0.64470238  0.16239290  0.85400013  1
  S2-  S180  1  0.59890344  0.48714336  0.34210221  1
  S2-  S181  1  0.59896835  0.53254872  0.84775207  1
  S2-  S182  1  0.62705922  0.74569450  0.35073715  1
  S2-  S183  1  0.56726039  0.75227137  0.83296084  1
  S2-  S184  1  0.87061375  0.08559613  0.35756715  1
  S2-  S185  1  0.79568240  0.00130987  0.85561721  1
  S2-  S186  1  0.83525294  0.26770510  0.32070808  1
  S2-  S187  1  0.89328533  0.22500811  0.85174717  1
  S2-  S188  1  0.87936867  0.47631203  0.33734556  1
  S2-  S189  1  0.91788329  0.48811015  0.84419498  1
  S2-  S190  1  0.90016962  0.70139114  0.34884674  1
  S2-  S191  1  0.78643703  0.74160818  0.85280288  1
  S2-  S192  1  0.00045900  0.12296204  0.45743504  1
  S2-  S193  1  0.01493791  0.12780150  0.95796344  1
  S2-  S194  1  -0.00261492  0.37600411  0.44943773  1
  S2-  S195  1  0.01802101  0.37619937  0.96193434  1
  S2-  S196  1  0.00147564  0.62139741  0.45094473  1
  S2-  S197  1  0.01978742  0.62247748  0.95651823  1
  S2-  S198  1  -0.00225853  0.87537472  0.44808101  1
  S2-  S199  1  0.01724303  0.87992061  0.96075654  1
  S2-  S200  1  0.24328714  0.12383697  0.45657202  1
  S2-  S201  1  0.26609448  0.12517791  0.95048170  1
  S2-  S202  1  0.24621554  0.37490050  0.45510218  1
  S2-  S203  1  0.26605736  0.37791035  0.95421815  1
  S2-  S204  1  0.24910048  0.62202644  0.45298887  1
  S2-  S205  1  0.26325845  0.62892741  0.95217836  1
  S2-  S206  1  0.24664690  0.87776209  0.45460842  1
  S2-  S207  1  0.26401024  0.87618993  0.94542662  1
  S2-  S208  1  0.50204824  0.12606406  0.45938883  1
  S2-  S209  1  0.51021841  0.12523320  0.94926117  1
  S2-  S210  1  0.49787967  0.37648397  0.44874614  1
  S2-  S211  1  0.51391698  0.37483223  0.95110975  1
  S2-  S212  1  0.49525704  0.62203566  0.45491854  1
  S2-  S213  1  0.51589716  0.62952760  0.95232076  1
  S2-  S214  1  0.49776547  0.87585469  0.45771024  1
  S2-  S215  1  0.51689723  0.87976180  0.94383155  1
  S2-  S216  1  0.74686194  0.12471218  0.46074414  1
  S2-  S217  1  0.77210761  0.12900210  0.96107200  1
  S2-  S218  1  0.74970730  0.37310394  0.44456743  1
  S2-  S219  1  0.76621906  0.37420492  0.94367532  1
  S2-  S220  1  0.74764544  0.62489023  0.45246503  1
  S2-  S221  1  0.76744196  0.62264689  0.95453663  1
  S2-  S222  1  0.74728046  0.87367302  0.45671911  1
  S2-  S223  1  0.77165394  0.87834741  0.95451882  1
  S2-  S224  1  0.13752218  0.00234647  0.04997614  1
  S2-  S225  1  0.12150946  0.00161408  0.55004346  1
  S2-  S226  1  0.13979898  0.25116523  0.05459196  1
  S2-  S227  1  0.12377053  0.24698121  0.55401236  1
  S2-  S228  1  0.14085633  0.50244676  0.05478466  1
  S2-  S229  1  0.12383486  0.50066304  0.54691750  1
  S2-  S230  1  0.13888904  0.75215003  0.04727446  1
  S2-  S231  1  0.12230017  0.75101977  0.55133650  1
  S2-  S232  1  0.39240170  0.00271596  0.04055404  1
  S2-  S233  1  0.37270681  0.00248919  0.54529657  1
  S2-  S234  1  0.39094506  0.24894552  0.04458106  1
  S2-  S235  1  0.37244133  0.25174617  0.53870271  1
  S2-  S236  1  0.39127866  0.50369375  0.04237697  1
  S2-  S237  1  0.37542715  0.49579918  0.55186517  1
  S2-  S238  1  0.39283840  0.75277534  0.04355922  1
  S2-  S239  1  0.37513615  0.75079961  0.54641788  1
  S2-  S240  1  0.63642647  0.00461146  0.03150989  1
  S2-  S241  1  0.62047500  -0.00343357  0.55575072  1
  S2-  S242  1  0.63783069  0.25319830  0.04857784  1
  S2-  S243  1  0.62612691  0.25212531  0.54309427  1
  S2-  S244  1  0.64209585  0.49647856  0.05110861  1
  S2-  S245  1  0.62226174  0.49660851  0.54704853  1
  S2-  S246  1  0.64284623  0.75327278  0.03274079  1
  S2-  S247  1  0.61813779  0.75130437  0.55512650  1
  S2-  S248  1  0.89611333  0.00109859  0.04199905  1
  S2-  S249  1  0.87295612  -0.00399425  0.54701158  1
  S2-  S250  1  0.88605123  0.25678987  0.05181030  1
  S2-  S251  1  0.87308449  0.25357898  0.53547326  1
  S2-  S252  1  0.89009605  0.50023082  0.04945260  1
  S2-  S253  1  0.87044672  0.50023964  0.54410185  1
  S2-  S254  1  0.89346722  0.74908843  0.03869772  1
  S2-  S255  1  0.87441443  0.75016979  0.54892572  1
