# generated using pymatgen
data_La6Ce6Pr19Nd20Sm13(BiS2)64
_symmetry_space_group_name_H-M   'P 1'
_cell_length_a   16.09329149
_cell_length_b   16.02892029
_cell_length_c   27.46687703
_cell_angle_alpha   90.60191911
_cell_angle_beta   90.20664949
_cell_angle_gamma   90.18589579
_symmetry_Int_Tables_number   1
_chemical_formula_structural   La6Ce6Pr19Nd20Sm13(BiS2)64
_chemical_formula_sum   'La6 Ce6 Pr19 Nd20 Sm13 Bi64 S128'
_cell_volume   7084.82780535
_cell_formula_units_Z   1
loop_
 _symmetry_equiv_pos_site_id
 _symmetry_equiv_pos_as_xyz
  1  'x, y, z'
loop_
 _atom_type_symbol
 _atom_type_oxidation_number
  La3+  3.0
  Ce3+  3.0
  Pr3+  3.0
  Nd3+  3.0
  Sm3+  3.0
  Bi2+  2.0
  S2-  -2.0
loop_
 _atom_site_type_symbol
 _atom_site_label
 _atom_site_symmetry_multiplicity
 _atom_site_fract_x
 _atom_site_fract_y
 _atom_site_fract_z
 _atom_site_occupancy
  La3+  La0  1  0.48389349  0.13696925  0.56086373  1
  La3+  La1  1  -0.02562514  0.61075345  0.11634356  1
  La3+  La2  1  0.74172084  0.88557586  0.09960011  1
  La3+  La3  1  0.73743735  0.39049744  0.58040306  1
  La3+  La4  1  0.00461237  0.88134159  0.08873305  1
  La3+  La5  1  -0.01300193  0.39178650  0.58162194  1
  Ce3+  Ce6  1  -0.01460865  0.63699367  0.55979413  1
  Ce3+  Ce7  1  0.86618408  0.00760971  0.44227397  1
  Ce3+  Ce8  1  0.49493371  0.63244467  0.06700540  1
  Ce3+  Ce9  1  0.11252427  0.75017083  0.42885858  1
  Ce3+  Ce10  1  0.85789640  0.74854641  0.41958366  1
  Ce3+  Ce11  1  0.11718761  0.49873558  0.93292352  1
  Pr3+  Pr12  1  0.36137440  0.26805854  0.42776546  1
  Pr3+  Pr13  1  0.86224847  0.50124098  0.43391086  1
  Pr3+  Pr14  1  0.50526948  0.38510911  0.07693103  1
  Pr3+  Pr15  1  0.73818312  0.63775350  0.55947285  1
  Pr3+  Pr16  1  0.11338227  0.50595700  0.43941282  1
  Pr3+  Pr17  1  0.60550572  0.50815473  0.92379077  1
  Pr3+  Pr18  1  0.11497572  0.75020772  0.94394256  1
  Pr3+  Pr19  1  0.74484531  0.13202348  0.06522210  1
  Pr3+  Pr20  1  0.86620064  0.00204437  0.94471966  1
  Pr3+  Pr21  1  0.36794009  0.50008197  0.94491276  1
  Pr3+  Pr22  1  0.11657369  0.24625365  0.92639420  1
  Pr3+  Pr23  1  0.49002797  0.88432385  0.55109538  1
  Pr3+  Pr24  1  0.61150130  0.76534135  0.41961384  1
  Pr3+  Pr25  1  0.86851583  0.75056027  0.95383806  1
  Pr3+  Pr26  1  0.23861560  0.88236049  0.55237757  1
  Pr3+  Pr27  1  0.86041693  0.23884661  0.89990130  1
  Pr3+  Pr28  1  0.24161266  0.37930696  0.05707310  1
  Pr3+  Pr29  1  0.61870529  0.75436881  0.94313119  1
  Pr3+  Pr30  1  0.23246061  0.38226479  0.57570525  1
  Nd3+  Nd31  1  0.37058466  0.24689122  0.93615145  1
  Nd3+  Nd32  1  0.11488461  0.00406919  0.93394656  1
  Nd3+  Nd33  1  0.36666108  0.75714665  0.42923565  1
  Nd3+  Nd34  1  0.73803392  0.88007284  0.55659525  1
  Nd3+  Nd35  1  0.36803725  0.75206733  0.93937732  1
  Nd3+  Nd36  1  -0.01417700  0.13731166  0.56023500  1
  Nd3+  Nd37  1  0.74910446  0.38289932  0.04898653  1
  Nd3+  Nd38  1  0.61739730  0.25822554  0.43763390  1
  Nd3+  Nd39  1  0.86494810  0.50225433  0.92939658  1
  Nd3+  Nd40  1  0.36029408  0.01382405  0.43803820  1
  Nd3+  Nd41  1  0.23449096  0.13700158  0.56245639  1
  Nd3+  Nd42  1  0.73201320  0.13376545  0.56878211  1
  Nd3+  Nd43  1  0.23937894  0.63029974  0.06383227  1
  Nd3+  Nd44  1  -0.01236336  0.87901020  0.55568551  1
  Nd3+  Nd45  1  0.37428597  -0.00471427  0.93429397  1
  Nd3+  Nd46  1  -0.00718268  0.12830310  0.06300010  1
  Nd3+  Nd47  1  0.23903166  0.63554352  0.55922610  1
  Nd3+  Nd48  1  0.24241007  0.13000554  0.05726022  1
  Nd3+  Nd49  1  0.74281381  0.62955571  0.05983801  1
  Nd3+  Nd50  1  0.61795213  0.01627715  0.43019233  1
  Sm3+  Sm51  1  0.61955033  0.00199151  0.94963599  1
  Sm3+  Sm52  1  0.48983938  0.63589446  0.55419534  1
  Sm3+  Sm53  1  0.62047473  0.25208410  0.93887115  1
  Sm3+  Sm54  1  0.36366558  0.50163501  0.45073632  1
  Sm3+  Sm55  1  0.49324578  0.13395694  0.06439905  1
  Sm3+  Sm56  1  0.11817010  0.26242032  0.43328832  1
  Sm3+  Sm57  1  0.48827918  0.38280721  0.56347819  1
  Sm3+  Sm58  1  0.61548753  0.50608046  0.44351725  1
  Sm3+  Sm59  1  -0.00664897  0.38140250  0.04449982  1
  Sm3+  Sm60  1  0.49305206  0.88497431  0.07332738  1
  Sm3+  Sm61  1  0.24342175  0.88061451  0.05414677  1
  Sm3+  Sm62  1  0.86656856  0.26262978  0.44695064  1
  Sm3+  Sm63  1  0.11385945  0.00414350  0.43802745  1
  Bi2+  Bi64  1  0.00435435  0.17536830  0.29076927  1
  Bi2+  Bi65  1  -0.00324862  0.06143804  0.77979866  1
  Bi2+  Bi66  1  -0.00368288  0.37213247  0.29075682  1
  Bi2+  Bi67  1  0.06135323  0.39182105  0.76891289  1
  Bi2+  Bi68  1  0.01506283  0.68447077  0.30392059  1
  Bi2+  Bi69  1  0.01784542  0.66767094  0.76381221  1
  Bi2+  Bi70  1  0.02956456  0.93293086  0.28803747  1
  Bi2+  Bi71  1  -0.00422630  0.87015312  0.80880282  1
  Bi2+  Bi72  1  0.28289526  0.12570209  0.27812557  1
  Bi2+  Bi73  1  0.25971021  0.17646194  0.80392906  1
  Bi2+  Bi74  1  0.26172127  0.36810489  0.29418817  1
  Bi2+  Bi75  1  0.30532555  0.42466889  0.81525647  1
  Bi2+  Bi76  1  0.28665569  0.66036430  0.27090444  1
  Bi2+  Bi77  1  0.33330973  0.62239233  0.83139337  1
  Bi2+  Bi78  1  0.28977198  0.85529369  0.29641523  1
  Bi2+  Bi79  1  0.26602994  0.80165347  0.80361363  1
  Bi2+  Bi80  1  0.47070707  0.11238874  0.25291920  1
  Bi2+  Bi81  1  0.51077033  0.09512744  0.78524678  1
  Bi2+  Bi82  1  0.49995031  0.26685154  0.31864391  1
  Bi2+  Bi83  1  0.51943078  0.34917966  0.73774663  1
  Bi2+  Bi84  1  0.47063704  0.58878474  0.28859258  1
  Bi2+  Bi85  1  0.46312344  0.62849605  0.74477007  1
  Bi2+  Bi86  1  0.50194648  0.84851098  0.27748992  1
  Bi2+  Bi87  1  0.55419845  0.82656845  0.81210565  1
  Bi2+  Bi88  1  0.73987855  0.15271984  0.28823764  1
  Bi2+  Bi89  1  0.72943463  0.08727193  0.79240988  1
  Bi2+  Bi90  1  0.75641945  0.34897316  0.28852415  1
  Bi2+  Bi91  1  0.77226271  0.36507759  0.79085333  1
  Bi2+  Bi92  1  0.73535155  0.59746905  0.29395832  1
  Bi2+  Bi93  1  0.73400210  0.61379462  0.80656239  1
  Bi2+  Bi94  1  0.75982806  0.89824169  0.29941690  1
  Bi2+  Bi95  1  0.78317452  0.85436238  0.79297937  1
  Bi2+  Bi96  1  0.14227766  0.03281927  0.21064214  1
  Bi2+  Bi97  1  0.16153760  -0.04487727  0.76695560  1
  Bi2+  Bi98  1  0.13061288  0.23683066  0.20437677  1
  Bi2+  Bi99  1  0.17045999  0.22090482  0.69351194  1
  Bi2+  Bi100  1  0.11326842  0.48283536  0.20803392  1
  Bi2+  Bi101  1  0.18897183  0.56081871  0.74440849  1
  Bi2+  Bi102  1  0.16002600  0.76733182  0.20552681  1
  Bi2+  Bi103  1  0.11497005  0.79649926  0.70042466  1
  Bi2+  Bi104  1  0.37388152  -0.07320617  0.20194136  1
  Bi2+  Bi105  1  0.43891076  -0.07023104  0.74314526  1
  Bi2+  Bi106  1  0.38672052  0.34504875  0.20670716  1
  Bi2+  Bi107  1  0.42145582  0.18822328  0.69714394  1
  Bi2+  Bi108  1  0.37340483  0.54086482  0.18890886  1
  Bi2+  Bi109  1  0.36090391  0.46375657  0.70722805  1
  Bi2+  Bi110  1  0.36569292  0.73723332  0.16129232  1
  Bi2+  Bi111  1  0.34560415  0.76888545  0.69435174  1
  Bi2+  Bi112  1  0.60601286  -0.00692720  0.20938012  1
  Bi2+  Bi113  1  0.70932921  -0.04353293  0.70341917  1
  Bi2+  Bi114  1  0.63606026  0.24722669  0.20648698  1
  Bi2+  Bi115  1  0.65692418  0.21012691  0.71535420  1
  Bi2+  Bi116  1  0.55750894  0.41444517  0.25522892  1
  Bi2+  Bi117  1  0.62046635  0.51438386  0.70864181  1
  Bi2+  Bi118  1  0.54848854  0.69869114  0.20621100  1
  Bi2+  Bi119  1  0.61134669  0.78069038  0.70407936  1
  Bi2+  Bi120  1  0.87899388  0.07880950  0.21762129  1
  Bi2+  Bi121  1  0.90382021  -0.06731564  0.70517848  1
  Bi2+  Bi122  1  0.92671525  0.26918009  0.19625211  1
  Bi2+  Bi123  1  0.91800625  0.22528119  0.70823533  1
  Bi2+  Bi124  1  0.81988905  0.44803911  0.19855023  1
  Bi2+  Bi125  1  0.88042405  0.50583909  0.70889874  1
  Bi2+  Bi126  1  0.86433649  0.72403087  0.22523659  1
  Bi2+  Bi127  1  0.86164726  0.73340235  0.70597288  1
  S2-  S128  1  -0.00461378  0.03252064  0.14746370  1
  S2-  S129  1  0.04215074  0.13325646  0.65485264  1
  S2-  S130  1  -0.01559947  0.43438315  0.13814043  1
  S2-  S131  1  0.10653533  0.36078166  0.65996254  1
  S2-  S132  1  -0.01830039  0.58460670  0.22571843  1
  S2-  S133  1  -0.01178016  0.54394575  0.64354882  1
  S2-  S134  1  -0.00677939  0.77033382  0.16681896  1
  S2-  S135  1  -0.01694087  0.76712422  0.63141997  1
  S2-  S136  1  0.24914304  0.13494485  0.15641927  1
  S2-  S137  1  0.29322432  0.10473955  0.65474790  1
  S2-  S138  1  0.21685726  0.37343158  0.15623611  1
  S2-  S139  1  0.31274880  0.31963453  0.65957685  1
  S2-  S140  1  0.14802562  0.61037915  0.14828519  1
  S2-  S141  1  0.24413419  0.63416914  0.65824276  1
  S2-  S142  1  0.16972889  0.89315467  0.14303704  1
  S2-  S143  1  0.23353318  0.88001889  0.65145864  1
  S2-  S144  1  0.47443204  0.02234707  0.13987100  1
  S2-  S145  1  0.57408241  0.12325079  0.64569439  1
  S2-  S146  1  0.49366385  0.25042595  0.14138741  1
  S2-  S147  1  0.59058801  0.37866110  0.64315434  1
  S2-  S148  1  0.52852102  0.52695152  0.14074266  1
  S2-  S149  1  0.53430538  0.63716299  0.64805154  1
  S2-  S150  1  0.59624040  0.84644517  0.15332753  1
  S2-  S151  1  0.48656817  0.87553437  0.65085627  1
  S2-  S152  1  0.73598952  0.04952304  0.15319275  1
  S2-  S153  1  0.80709677  0.14882159  0.65903999  1
  S2-  S154  1  0.69970395  0.37859739  0.14357707  1
  S2-  S155  1  0.86203759  0.36135592  0.65746355  1
  S2-  S156  1  0.79969084  0.60508329  0.15280348  1
  S2-  S157  1  0.74788327  0.53799047  0.64561109  1
  S2-  S158  1  0.80162133  0.86201206  0.19735183  1
  S2-  S159  1  0.73785689  0.76647308  0.63288836  1
  S2-  S160  1  0.09601086  0.05451983  0.34552347  1
  S2-  S161  1  0.11450233  0.11070708  0.85543808  1
  S2-  S162  1  0.11267765  0.38832289  0.36149250  1
  S2-  S163  1  0.15435604  0.31238758  0.83224920  1
  S2-  S164  1  0.12758094  0.61897684  0.35871379  1
  S2-  S165  1  0.10119161  0.51249886  0.83517302  1
  S2-  S166  1  0.12977732  0.84447403  0.34518563  1
  S2-  S167  1  0.10348635  0.74850349  0.84321251  1
  S2-  S168  1  0.35548568  0.00732880  0.33958061  1
  S2-  S169  1  0.36465275  0.07979036  0.84811295  1
  S2-  S170  1  0.24101979  0.23123141  0.35547128  1
  S2-  S171  1  0.38483895  0.28187559  0.83916599  1
  S2-  S172  1  0.36105352  0.42122951  0.36393491  1
  S2-  S173  1  0.45276310  0.49538467  0.85819607  1
  S2-  S174  1  0.47687325  0.73411991  0.35322712  1
  S2-  S175  1  0.39885708  0.85949823  0.86344973  1
  S2-  S176  1  0.61442348  -0.08317422  0.34743580  1
  S2-  S177  1  0.60707467  -0.00469009  0.85113738  1
  S2-  S178  1  0.61382445  0.14518869  0.36011812  1
  S2-  S179  1  0.70185179  0.23960795  0.85163365  1
  S2-  S180  1  0.66337053  0.48691317  0.35014961  1
  S2-  S181  1  0.66010755  0.45872181  0.83115815  1
  S2-  S182  1  0.72147947  0.74088843  0.34170527  1
  S2-  S183  1  0.60362993  0.66790376  0.85532206  1
  S2-  S184  1  0.82367145  0.03445902  0.34939943  1
  S2-  S185  1  0.86700689  0.07781483  0.85367319  1
  S2-  S186  1  0.87094476  0.36176664  0.36592813  1
  S2-  S187  1  0.92883347  0.28869132  0.80937779  1
  S2-  S188  1  0.88068382  0.60208053  0.35019135  1
  S2-  S189  1  0.86309720  0.49897997  0.82865644  1
  S2-  S190  1  0.91082186  0.83247798  0.33546571  1
  S2-  S191  1  0.83193705  0.72855640  0.85452463  1
  S2-  S192  1  -0.00840326  0.13756825  0.45322355  1
  S2-  S193  1  -0.01287097  0.13239863  0.95719683  1
  S2-  S194  1  -0.00745761  0.37904795  0.46686485  1
  S2-  S195  1  -0.01214990  0.37134283  0.93980963  1
  S2-  S196  1  -0.01297736  0.63159591  0.45533923  1
  S2-  S197  1  -0.00854393  0.62437948  0.94230801  1
  S2-  S198  1  -0.00901204  0.88383416  0.45162794  1
  S2-  S199  1  -0.00726197  0.87924420  0.95380291  1
  S2-  S200  1  0.23359190  0.13259174  0.45710825  1
  S2-  S201  1  0.24538976  0.12486229  0.95340617  1
  S2-  S202  1  0.23813653  0.38195931  0.46711502  1
  S2-  S203  1  0.24249429  0.37205970  0.95084645  1
  S2-  S204  1  0.24983766  0.63034584  0.45408882  1
  S2-  S205  1  0.24257396  0.62721094  0.95656563  1
  S2-  S206  1  0.24169408  0.88232719  0.44778192  1
  S2-  S207  1  0.23921060  0.87948895  0.95054082  1
  S2-  S208  1  0.48216198  0.13833425  0.45397068  1
  S2-  S209  1  0.49758794  0.12705833  0.95686281  1
  S2-  S210  1  0.49370384  0.38216122  0.46010222  1
  S2-  S211  1  0.49707152  0.37143171  0.95792945  1
  S2-  S212  1  0.48704152  0.62407023  0.45137942  1
  S2-  S213  1  0.48912381  0.63175401  0.96184363  1
  S2-  S214  1  0.48487136  0.89035546  0.44672072  1
  S2-  S215  1  0.49736896  0.87854737  0.96796899  1
  S2-  S216  1  0.74450541  0.13704509  0.46141185  1
  S2-  S217  1  0.74186170  0.12876752  0.95901353  1
  S2-  S218  1  0.73618942  0.38073879  0.46329468  1
  S2-  S219  1  0.74697664  0.37297091  0.94561479  1
  S2-  S220  1  0.73230649  0.63025162  0.45249132  1
  S2-  S221  1  0.74097857  0.62311506  0.95470724  1
  S2-  S222  1  0.73922372  0.88684036  0.45179301  1
  S2-  S223  1  0.74211975  0.87882159  0.95247466  1
  S2-  S224  1  0.11877091  0.00554173  0.03907430  1
  S2-  S225  1  0.11197035  0.00816869  0.54483946  1
  S2-  S226  1  0.11485823  0.25350930  0.04132759  1
  S2-  S227  1  0.11185141  0.25801548  0.54454448  1
  S2-  S228  1  0.11732403  0.50319016  0.03842485  1
  S2-  S229  1  0.11798973  0.51144646  0.54743977  1
  S2-  S230  1  0.11955019  0.75567446  0.04767958  1
  S2-  S231  1  0.11700767  0.75711185  0.53643449  1
  S2-  S232  1  0.36492579  0.00517219  0.04096430  1
  S2-  S233  1  0.36184988  0.00890752  0.54375500  1
  S2-  S234  1  0.36777811  0.25437731  0.04350838  1
  S2-  S235  1  0.36197005  0.26288360  0.54222713  1
  S2-  S236  1  0.36840457  0.50377620  0.05029066  1
  S2-  S237  1  0.36618629  0.50824344  0.55453037  1
  S2-  S238  1  0.36755462  0.75842087  0.04460237  1
  S2-  S239  1  0.36608230  0.75766198  0.53803385  1
  S2-  S240  1  0.61941261  0.00471832  0.05055871  1
  S2-  S241  1  0.61548078  0.00783449  0.53926001  1
  S2-  S242  1  0.62230141  0.25505348  0.04191694  1
  S2-  S243  1  0.61386810  0.25901610  0.54297380  1
  S2-  S244  1  0.62271298  0.50462156  0.03446843  1
  S2-  S245  1  0.60826735  0.51004437  0.54495822  1
  S2-  S246  1  0.62194128  0.75613381  0.04959673  1
  S2-  S247  1  0.60874153  0.75846322  0.53195505  1
  S2-  S248  1  0.86651649  -0.00072203  0.05064398  1
  S2-  S249  1  0.86304261  0.00664374  0.55031013  1
  S2-  S250  1  0.87154343  0.25634560  0.05436688  1
  S2-  S251  1  0.86094525  0.25808297  0.54882299  1
  S2-  S252  1  0.87241560  0.50915795  0.03772764  1
  S2-  S253  1  0.86194904  0.50941797  0.54088411  1
  S2-  S254  1  0.86669786  0.75804307  0.05942259  1
  S2-  S255  1  0.86121084  0.76074665  0.52941385  1
