# generated using pymatgen
data_La6Ce6Pr19Nd20Sm13(BiS2)64
_symmetry_space_group_name_H-M   'P 1'
_cell_length_a   16.05926937
_cell_length_b   16.06930849
_cell_length_c   27.60489838
_cell_angle_alpha   90.28795825
_cell_angle_beta   90.54794476
_cell_angle_gamma   89.95864287
_symmetry_Int_Tables_number   1
_chemical_formula_structural   La6Ce6Pr19Nd20Sm13(BiS2)64
_chemical_formula_sum   'La6 Ce6 Pr19 Nd20 Sm13 Bi64 S128'
_cell_volume   7123.34009653
_cell_formula_units_Z   1
loop_
 _symmetry_equiv_pos_site_id
 _symmetry_equiv_pos_as_xyz
  1  'x, y, z'
loop_
 _atom_type_symbol
 _atom_type_oxidation_number
  La3+  3.0
  Ce3+  3.0
  Pr3+  3.0
  Nd3+  3.0
  Sm3+  3.0
  Bi2+  2.0
  S2-  -2.0
loop_
 _atom_site_type_symbol
 _atom_site_label
 _atom_site_symmetry_multiplicity
 _atom_site_fract_x
 _atom_site_fract_y
 _atom_site_fract_z
 _atom_site_occupancy
  La3+  La0  1  0.48385614  0.38650710  0.61398682  1
  La3+  La1  1  0.75279794  0.85751489  0.10915638  1
  La3+  La2  1  0.62914014  0.50106688  0.90917606  1
  La3+  La3  1  0.87569276  -0.01164045  0.89753879  1
  La3+  La4  1  -0.03217721  0.62805748  0.56533417  1
  La3+  La5  1  0.34733392  0.00557528  0.41964174  1
  Ce3+  Ce6  1  0.59344956  0.75414865  0.44348226  1
  Ce3+  Ce7  1  0.46842365  0.13447531  0.55544189  1
  Ce3+  Ce8  1  0.71939411  0.12840138  0.56007856  1
  Ce3+  Ce9  1  0.50272635  0.11376249  0.05840723  1
  Ce3+  Ce10  1  0.75356381  0.37502801  0.05307053  1
  Ce3+  Ce11  1  0.22305382  0.12726545  0.54996835  1
  Pr3+  Pr12  1  -0.00324027  0.86699104  0.06366018  1
  Pr3+  Pr13  1  -0.03021996  0.37538650  0.56205207  1
  Pr3+  Pr14  1  0.37128176  0.49022295  0.91189995  1
  Pr3+  Pr15  1  0.00957970  0.37919971  0.08131967  1
  Pr3+  Pr16  1  0.37841582  0.74499554  0.93406923  1
  Pr3+  Pr17  1  0.34393233  0.49740433  0.43446592  1
  Pr3+  Pr18  1  0.87645850  0.24133284  0.94584404  1
  Pr3+  Pr19  1  0.59696464  -0.00311676  0.42911959  1
  Pr3+  Pr20  1  0.26111754  0.36162695  0.06658472  1
  Pr3+  Pr21  1  0.22725924  0.37459022  0.56257216  1
  Pr3+  Pr22  1  -0.02873422  0.12375440  0.55839218  1
  Pr3+  Pr23  1  0.37789687  -0.00620603  0.93212646  1
  Pr3+  Pr24  1  0.63280888  0.74431612  0.94115995  1
  Pr3+  Pr25  1  0.37667347  0.23804531  0.92949113  1
  Pr3+  Pr26  1  0.08589914  0.25353788  0.43204505  1
  Pr3+  Pr27  1  0.87682607  0.73700380  0.93408765  1
  Pr3+  Pr28  1  0.13057677  0.48952434  0.93716638  1
  Pr3+  Pr29  1  0.88151885  0.49274017  0.92964552  1
  Pr3+  Pr30  1  0.83890243  0.25146295  0.42944283  1
  Nd3+  Nd31  1  0.46937411  0.88243413  0.56325300  1
  Nd3+  Nd32  1  0.83594980  0.50504173  0.43289892  1
  Nd3+  Nd33  1  0.25754774  0.61528082  0.05598077  1
  Nd3+  Nd34  1  0.34228152  0.75209837  0.43962704  1
  Nd3+  Nd35  1  0.63033775  0.24148547  0.94588307  1
  Nd3+  Nd36  1  0.22310727  0.62721663  0.55671036  1
  Nd3+  Nd37  1  0.59320612  0.49894869  0.44198169  1
  Nd3+  Nd38  1  -0.00362504  0.11547155  0.05832914  1
  Nd3+  Nd39  1  0.22257057  0.88316465  0.56401966  1
  Nd3+  Nd40  1  0.09289281  -0.00317937  0.43054439  1
  Nd3+  Nd41  1  0.12622619  0.74614562  0.94767563  1
  Nd3+  Nd42  1  0.72713350  0.37778631  0.56757769  1
  Nd3+  Nd43  1  0.75234372  0.11626964  0.06405345  1
  Nd3+  Nd44  1  0.00173244  0.61849306  0.06125618  1
  Nd3+  Nd45  1  0.46902889  0.62339611  0.55821891  1
  Nd3+  Nd46  1  0.12188425  0.23954706  0.93904503  1
  Nd3+  Nd47  1  0.71617748  0.88230032  0.56964165  1
  Nd3+  Nd48  1  0.33672475  0.25774338  0.42546764  1
  Nd3+  Nd49  1  0.25798228  0.86888014  0.06623597  1
  Nd3+  Nd50  1  0.08826608  0.50287112  0.44485419  1
  Sm3+  Sm51  1  0.50326018  0.61445167  0.04901521  1
  Sm3+  Sm52  1  0.49896930  0.37099452  0.05044183  1
  Sm3+  Sm53  1  0.25163079  0.11819713  0.05544519  1
  Sm3+  Sm54  1  0.71636382  0.62461830  0.55908108  1
  Sm3+  Sm55  1  0.75264945  0.60964067  0.06526312  1
  Sm3+  Sm56  1  0.84223937  0.75486358  0.44743665  1
  Sm3+  Sm57  1  0.09229387  0.75299286  0.45039976  1
  Sm3+  Sm58  1  0.84377501  -0.00127205  0.43625792  1
  Sm3+  Sm59  1  0.50577297  0.86258642  0.06315535  1
  Sm3+  Sm60  1  -0.03632678  0.87930081  0.56935874  1
  Sm3+  Sm61  1  0.63695629  -0.01104267  0.94771647  1
  Sm3+  Sm62  1  0.59760670  0.25182449  0.44405576  1
  Sm3+  Sm63  1  0.12262401  -0.01123657  0.94808912  1
  Bi2+  Bi64  1  0.05642712  0.04760190  0.25406611  1
  Bi2+  Bi65  1  0.03668567  0.13560905  0.79985403  1
  Bi2+  Bi66  1  0.05488636  0.32339289  0.29273073  1
  Bi2+  Bi67  1  0.04059630  0.42075753  0.82201527  1
  Bi2+  Bi68  1  0.02647259  0.59253395  0.30740375  1
  Bi2+  Bi69  1  0.02105403  0.61040052  0.80103638  1
  Bi2+  Bi70  1  -0.00362360  0.86918673  0.29959575  1
  Bi2+  Bi71  1  0.01970761  0.85693379  0.79531242  1
  Bi2+  Bi72  1  0.22982321  0.11466510  0.28821641  1
  Bi2+  Bi73  1  0.33955772  0.07209717  0.76465245  1
  Bi2+  Bi74  1  0.22797776  0.41670578  0.23519460  1
  Bi2+  Bi75  1  0.23182054  0.36275308  0.79182682  1
  Bi2+  Bi76  1  0.28755331  0.55080027  0.30991677  1
  Bi2+  Bi77  1  0.19558216  0.60812322  0.74260253  1
  Bi2+  Bi78  1  0.21845897  0.83734903  0.29503617  1
  Bi2+  Bi79  1  0.27969475  0.81993843  0.82060148  1
  Bi2+  Bi80  1  0.50514369  0.14752914  0.29341811  1
  Bi2+  Bi81  1  0.53304470  0.14866104  0.73479479  1
  Bi2+  Bi82  1  0.52973067  0.46240766  0.30238231  1
  Bi2+  Bi83  1  0.52975790  0.35315849  0.80980256  1
  Bi2+  Bi84  1  0.45191883  0.64799127  0.29188325  1
  Bi2+  Bi85  1  0.51372288  0.67194549  0.79582330  1
  Bi2+  Bi86  1  0.45430944  0.93908156  0.25992259  1
  Bi2+  Bi87  1  0.45188388  0.91315442  0.81767902  1
  Bi2+  Bi88  1  0.78019736  0.13489635  0.30305879  1
  Bi2+  Bi89  1  0.76553507  0.15070843  0.80528807  1
  Bi2+  Bi90  1  0.75576138  0.40280891  0.30847992  1
  Bi2+  Bi91  1  0.85249735  0.41892546  0.79138472  1
  Bi2+  Bi92  1  0.73105134  0.62567039  0.23873609  1
  Bi2+  Bi93  1  0.79416509  0.68572372  0.73504100  1
  Bi2+  Bi94  1  0.73511084  0.85716191  0.30458854  1
  Bi2+  Bi95  1  0.70786134  0.80944015  0.80640859  1
  Bi2+  Bi96  1  0.19022504  -0.07152205  0.19048292  1
  Bi2+  Bi97  1  0.18082511  -0.04115176  0.75760302  1
  Bi2+  Bi98  1  0.12322309  0.22876845  0.18510283  1
  Bi2+  Bi99  1  0.10765727  0.24665512  0.70741400  1
  Bi2+  Bi100  1  0.16301396  0.62593564  0.22906658  1
  Bi2+  Bi101  1  0.09787347  0.44079370  0.70744393  1
  Bi2+  Bi102  1  0.05941650  0.78355558  0.19008063  1
  Bi2+  Bi103  1  0.21630117  0.78999489  0.70208334  1
  Bi2+  Bi104  1  0.34529867  0.05735861  0.19705115  1
  Bi2+  Bi105  1  0.45855415  0.00163359  0.67795771  1
  Bi2+  Bi106  1  0.40325273  0.31717804  0.26508461  1
  Bi2+  Bi107  1  0.30410690  0.23262755  0.69132507  1
  Bi2+  Bi108  1  0.38484935  0.51196502  0.18628437  1
  Bi2+  Bi109  1  0.36859915  0.52812781  0.71238483  1
  Bi2+  Bi110  1  0.36004439  0.77860261  0.21253533  1
  Bi2+  Bi111  1  0.41417441  0.79422587  0.72443892  1
  Bi2+  Bi112  1  0.64117050  0.07971508  0.21955034  1
  Bi2+  Bi113  1  0.61610838  -0.02558173  0.76759752  1
  Bi2+  Bi114  1  0.58594671  0.28657668  0.22680141  1
  Bi2+  Bi115  1  0.70660561  0.22802034  0.70791143  1
  Bi2+  Bi116  1  0.62126514  0.47337548  0.20092989  1
  Bi2+  Bi117  1  0.63242408  0.50196586  0.71799063  1
  Bi2+  Bi118  1  0.57229416  0.73081910  0.21446184  1
  Bi2+  Bi119  1  0.61164115  0.76621415  0.70874451  1
  Bi2+  Bi120  1  0.87787921  0.01657211  0.20471968  1
  Bi2+  Bi121  1  0.90259120  0.01096669  0.69317102  1
  Bi2+  Bi122  1  0.84827345  0.27450682  0.24274710  1
  Bi2+  Bi123  1  0.89930157  0.27506145  0.71658133  1
  Bi2+  Bi124  1  0.89407324  0.45910061  0.20520871  1
  Bi2+  Bi125  1  0.90249200  0.52539948  0.69750212  1
  Bi2+  Bi126  1  0.90394827  0.71204618  0.25190138  1
  Bi2+  Bi127  1  0.96097775  0.78118856  0.69950528  1
  S2-  S128  1  0.01895641  0.09242659  0.15520761  1
  S2-  S129  1  -0.01415850  0.15160401  0.65719960  1
  S2-  S130  1  -0.04339133  0.30552571  0.16767216  1
  S2-  S131  1  -0.13820895  0.37849428  0.63944720  1
  S2-  S132  1  -0.00679212  0.52895321  0.14528103  1
  S2-  S133  1  0.02298044  0.63466843  0.65947799  1
  S2-  S134  1  -0.08113711  0.86919138  0.15331492  1
  S2-  S135  1  0.04134306  0.92350121  0.65370839  1
  S2-  S136  1  0.26482605  0.19081834  0.14392255  1
  S2-  S137  1  0.23435979  0.10521034  0.64570707  1
  S2-  S138  1  0.15640866  0.38382663  0.14589776  1
  S2-  S139  1  0.31509316  0.39818004  0.64836578  1
  S2-  S140  1  0.27629680  0.64775228  0.15320208  1
  S2-  S141  1  0.27559555  0.63814663  0.65001868  1
  S2-  S142  1  0.38259346  0.87233198  0.13509744  1
  S2-  S143  1  0.34394418  0.88871278  0.63669247  1
  S2-  S144  1  0.49869341  0.10169773  0.15423114  1
  S2-  S145  1  0.46446566  0.21624834  0.64386971  1
  S2-  S146  1  0.40166574  0.37823540  0.13171029  1
  S2-  S147  1  0.48590311  0.40297288  0.72326811  1
  S2-  S148  1  0.51986947  0.59628314  0.14699049  1
  S2-  S149  1  0.49615598  0.56184440  0.64955413  1
  S2-  S150  1  0.58950111  0.84542728  0.14805957  1
  S2-  S151  1  0.59011117  0.89474336  0.63937833  1
  S2-  S152  1  0.76980588  0.13745588  0.16137275  1
  S2-  S153  1  0.75872114  0.09100887  0.65277111  1
  S2-  S154  1  0.75922168  0.46914882  0.13494225  1
  S2-  S155  1  0.64748597  0.37747141  0.65641076  1
  S2-  S156  1  0.76229206  0.69440294  0.15179133  1
  S2-  S157  1  0.73935235  0.58748026  0.65335895  1
  S2-  S158  1  0.73982401  0.93064348  0.20831661  1
  S2-  S159  1  0.83646247  0.87623965  0.64382634  1
  S2-  S160  1  0.20932668  -0.02288007  0.35426029  1
  S2-  S161  1  0.08703860  -0.00843006  0.85313577  1
  S2-  S162  1  0.17726681  0.24755690  0.34497497  1
  S2-  S163  1  0.15850507  0.22067410  0.84289532  1
  S2-  S164  1  0.10808666  0.46439282  0.34999240  1
  S2-  S165  1  0.22390690  0.49360872  0.85239019  1
  S2-  S166  1  0.09879210  0.74598670  0.35282540  1
  S2-  S167  1  0.11738038  0.73869116  0.84955806  1
  S2-  S168  1  0.48209008  -0.01698248  0.34885816  1
  S2-  S169  1  0.38086761  0.10975424  0.85757283  1
  S2-  S170  1  0.36002548  0.14520900  0.35086781  1
  S2-  S171  1  0.37334903  0.33883449  0.84796420  1
  S2-  S172  1  0.34217467  0.39052095  0.35360827  1
  S2-  S173  1  0.49437461  0.50485732  0.84081913  1
  S2-  S174  1  0.35574531  0.77480814  0.34272868  1
  S2-  S175  1  0.36253697  0.67004057  0.84415314  1
  S2-  S176  1  0.72839658  0.00148011  0.35884906  1
  S2-  S177  1  0.70702690  0.00902219  0.85765424  1
  S2-  S178  1  0.69879060  0.25577155  0.36202307  1
  S2-  S179  1  0.63590091  0.22142766  0.84829019  1
  S2-  S180  1  0.67594444  0.52568725  0.35666651  1
  S2-  S181  1  0.68859282  0.44423383  0.81321879  1
  S2-  S182  1  0.61186540  0.79960163  0.35195698  1
  S2-  S183  1  0.65379261  0.65931146  0.85391115  1
  S2-  S184  1  0.96184115  -0.01061248  0.36141265  1
  S2-  S185  1  0.89529555  0.02659467  0.79209421  1
  S2-  S186  1  0.96139687  0.24992222  0.35493931  1
  S2-  S187  1  0.90992837  0.21892782  0.84949634  1
  S2-  S188  1  0.89035910  0.49068800  0.33963533  1
  S2-  S189  1  0.88613691  0.61228900  0.85630788  1
  S2-  S190  1  0.84118510  0.74953899  0.35017755  1
  S2-  S191  1  0.88180081  0.83398153  0.84874414  1
  S2-  S192  1  -0.03336017  0.12408019  0.45488985  1
  S2-  S193  1  -0.00479315  0.10784266  0.95358697  1
  S2-  S194  1  -0.03718785  0.38175805  0.45716909  1
  S2-  S195  1  0.00234041  0.36646417  0.95433405  1
  S2-  S196  1  -0.03409945  0.62999245  0.45729972  1
  S2-  S197  1  0.00845742  0.61685043  0.95756476  1
  S2-  S198  1  -0.03198274  0.87167723  0.46354123  1
  S2-  S199  1  -0.00183751  0.86928723  0.95791818  1
  S2-  S200  1  0.21301118  0.12733330  0.44821576  1
  S2-  S201  1  0.24468818  0.11304045  0.95354154  1
  S2-  S202  1  0.21252385  0.37926032  0.45724844  1
  S2-  S203  1  0.24948718  0.35917031  0.95650487  1
  S2-  S204  1  0.21673576  0.62648774  0.45164621  1
  S2-  S205  1  0.25148403  0.62218697  0.95283915  1
  S2-  S206  1  0.21799371  0.87224752  0.45929861  1
  S2-  S207  1  0.25224203  0.87053292  0.95894634  1
  S2-  S208  1  0.47696162  0.13053215  0.45162597  1
  S2-  S209  1  0.51133344  0.11269727  0.95411710  1
  S2-  S210  1  0.47541034  0.37226336  0.44520745  1
  S2-  S211  1  0.50724270  0.36794904  0.94816188  1
  S2-  S212  1  0.46868883  0.62549334  0.45000162  1
  S2-  S213  1  0.50184964  0.61831536  0.94816561  1
  S2-  S214  1  0.46728959  0.87477892  0.45685687  1
  S2-  S215  1  0.50655384  0.86949786  0.95483841  1
  S2-  S216  1  0.72080433  0.12409749  0.45763961  1
  S2-  S217  1  0.75648197  0.11478249  0.95954746  1
  S2-  S218  1  0.72030719  0.37963300  0.46054945  1
  S2-  S219  1  0.75246832  0.37053236  0.94675577  1
  S2-  S220  1  0.71872688  0.63153731  0.45725942  1
  S2-  S221  1  0.75342204  0.61152896  0.95920960  1
  S2-  S222  1  0.72056403  0.87518303  0.46329541  1
  S2-  S223  1  0.75789518  0.86871765  0.94987788  1
  S2-  S224  1  0.12824641  -0.00786769  0.05121533  1
  S2-  S225  1  0.09612966  -0.00025228  0.54001516  1
  S2-  S226  1  0.12229238  0.24027878  0.04459539  1
  S2-  S227  1  0.09514633  0.25293458  0.54513406  1
  S2-  S228  1  0.13207264  0.49543162  0.04269894  1
  S2-  S229  1  0.09717009  0.50149906  0.55130908  1
  S2-  S230  1  0.13089172  0.74326631  0.05269305  1
  S2-  S231  1  0.09787544  0.75585581  0.55401911  1
  S2-  S232  1  0.37651541  -0.00433666  0.03875157  1
  S2-  S233  1  0.34676616  0.00634212  0.53328273  1
  S2-  S234  1  0.38048687  0.23597330  0.03610657  1
  S2-  S235  1  0.34322784  0.25186505  0.53383219  1
  S2-  S236  1  0.37797831  0.49447468  0.03118556  1
  S2-  S237  1  0.34692835  0.50243106  0.54005768  1
  S2-  S238  1  0.38116881  0.74069241  0.04027083  1
  S2-  S239  1  0.34660579  0.75085060  0.54375526  1
  S2-  S240  1  0.63176625  -0.01171036  0.05152478  1
  S2-  S241  1  0.59370440  0.00904649  0.53881695  1
  S2-  S242  1  0.62620161  0.24697931  0.05222721  1
  S2-  S243  1  0.59744478  0.25755765  0.54649521  1
  S2-  S244  1  0.62309842  0.49138809  0.03777723  1
  S2-  S245  1  0.59543100  0.49892895  0.54586504  1
  S2-  S246  1  0.62987261  0.73636931  0.04512380  1
  S2-  S247  1  0.59408063  0.74821598  0.54878800  1
  S2-  S248  1  0.87067502  -0.00890595  0.05845039  1
  S2-  S249  1  0.84447481  0.00188679  0.54130405  1
  S2-  S250  1  0.87694953  0.24650462  0.05097351  1
  S2-  S251  1  0.84631536  0.24865675  0.54038141  1
  S2-  S252  1  0.88264351  0.49189207  0.03650982  1
  S2-  S253  1  0.84425426  0.50640384  0.54045284  1
  S2-  S254  1  0.87506441  0.73807709  0.04609339  1
  S2-  S255  1  0.83995274  0.74926574  0.55077815  1
