# generated using pymatgen
data_La6Ce6Pr19Nd20Sm13(BiS2)64
_symmetry_space_group_name_H-M   'P 1'
_cell_length_a   16.07109028
_cell_length_b   16.07634440
_cell_length_c   27.17800286
_cell_angle_alpha   90.03687816
_cell_angle_beta   90.21480088
_cell_angle_gamma   90.05299779
_symmetry_Int_Tables_number   1
_chemical_formula_structural   La6Ce6Pr19Nd20Sm13(BiS2)64
_chemical_formula_sum   'La6 Ce6 Pr19 Nd20 Sm13 Bi64 S128'
_cell_volume   7021.77410147
_cell_formula_units_Z   1
loop_
 _symmetry_equiv_pos_site_id
 _symmetry_equiv_pos_as_xyz
  1  'x, y, z'
loop_
 _atom_type_symbol
 _atom_type_oxidation_number
  La3+  3.0
  Ce3+  3.0
  Pr3+  3.0
  Nd3+  3.0
  Sm3+  3.0
  Bi2+  2.0
  S2-  -2.0
loop_
 _atom_site_type_symbol
 _atom_site_label
 _atom_site_symmetry_multiplicity
 _atom_site_fract_x
 _atom_site_fract_y
 _atom_site_fract_z
 _atom_site_occupancy
  La3+  La0  1  0.75572726  0.13241506  0.56444026  1
  La3+  La1  1  0.63136368  0.50353311  0.39955959  1
  La3+  La2  1  0.76779315  0.63049572  0.09050973  1
  La3+  La3  1  0.37581350  0.50825688  0.43396677  1
  La3+  La4  1  0.62193173  0.74097254  0.88869699  1
  La3+  La5  1  0.00747929  0.36912209  0.08670352  1
  Ce3+  Ce6  1  0.24681708  0.63344442  0.56277560  1
  Ce3+  Ce7  1  0.87711329  0.50336948  0.42484024  1
  Ce3+  Ce8  1  0.62784783  0.25728867  0.44205278  1
  Ce3+  Ce9  1  0.87938883  0.25074404  0.94110356  1
  Ce3+  Ce10  1  0.63207289  0.50803022  0.95163585  1
  Ce3+  Ce11  1  0.75180446  0.88949269  0.57256762  1
  Pr3+  Pr12  1  0.25422320  0.13802404  0.56391800  1
  Pr3+  Pr13  1  0.75176423  0.87136326  0.06230726  1
  Pr3+  Pr14  1  0.50630209  0.38436410  0.55841395  1
  Pr3+  Pr15  1  0.12626006  0.00216468  0.93620541  1
  Pr3+  Pr16  1  0.61978901  -0.00242216  0.43442237  1
  Pr3+  Pr17  1  0.37469069  0.01546176  0.91199754  1
  Pr3+  Pr18  1  0.13053461  0.24991017  0.94751382  1
  Pr3+  Pr19  1  0.75652607  0.38409614  0.55499224  1
  Pr3+  Pr20  1  0.75749373  0.37387552  0.06771430  1
  Pr3+  Pr21  1  0.63554786  0.25121601  0.92460248  1
  Pr3+  Pr22  1  0.51021724  0.37426323  0.07046013  1
  Pr3+  Pr23  1  0.87404991  0.00577344  0.42900578  1
  Pr3+  Pr24  1  0.00811303  0.87587099  0.07189184  1
  Pr3+  Pr25  1  0.13074032  0.00121461  0.43269363  1
  Pr3+  Pr26  1  0.74638930  0.12535073  0.06445970  1
  Pr3+  Pr27  1  0.24986219  0.38100538  0.55854971  1
  Pr3+  Pr28  1  0.50326368  0.62527195  0.06771754  1
  Pr3+  Pr29  1  0.51199347  0.62749381  0.56725784  1
  Pr3+  Pr30  1  0.37465146  0.00358026  0.43824680  1
  Nd3+  Nd31  1  0.13305259  0.24710453  0.41922063  1
  Nd3+  Nd32  1  0.00403469  0.62538905  0.56701863  1
  Nd3+  Nd33  1  0.87905070  0.50353767  0.94554914  1
  Nd3+  Nd34  1  0.87921618  0.74813646  0.93692196  1
  Nd3+  Nd35  1  0.49349884  0.87362517  0.57988052  1
  Nd3+  Nd36  1  0.24570552  0.88942034  0.57692805  1
  Nd3+  Nd37  1  0.63894534  -0.00101883  0.92152195  1
  Nd3+  Nd38  1  0.26206709  0.36820023  0.10075198  1
  Nd3+  Nd39  1  0.25569316  0.62364829  0.05668632  1
  Nd3+  Nd40  1  0.87590879  0.25483645  0.42648457  1
  Nd3+  Nd41  1  0.01226453  0.62486015  0.06416066  1
  Nd3+  Nd42  1  0.37714343  0.75343628  0.43935158  1
  Nd3+  Nd43  1  0.76083214  0.62997877  0.56720262  1
  Nd3+  Nd44  1  0.12396024  0.51332343  0.42465168  1
  Nd3+  Nd45  1  0.38128632  0.75220649  0.93745679  1
  Nd3+  Nd46  1  -0.00011753  0.12310252  0.07142213  1
  Nd3+  Nd47  1  0.50968532  0.87309608  0.04595045  1
  Nd3+  Nd48  1  0.12615878  0.75017940  0.93254813  1
  Nd3+  Nd49  1  0.25821073  0.11898104  0.07067073  1
  Nd3+  Nd50  1  0.00500268  0.88247447  0.55612940  1
  Sm3+  Sm51  1  0.50788636  0.12116089  0.05184653  1
  Sm3+  Sm52  1  0.87294002  0.75309760  0.44401715  1
  Sm3+  Sm53  1  0.50093042  0.12856615  0.55565900  1
  Sm3+  Sm54  1  0.25754494  0.88119144  0.05212272  1
  Sm3+  Sm55  1  0.38159567  0.50054184  0.94679140  1
  Sm3+  Sm56  1  0.00382847  0.37929643  0.54353487  1
  Sm3+  Sm57  1  0.37922103  0.26370358  0.43256945  1
  Sm3+  Sm58  1  0.12609486  0.75488212  0.43629001  1
  Sm3+  Sm59  1  0.38140652  0.25292182  0.94917407  1
  Sm3+  Sm60  1  0.87766742  -0.00397159  0.94523115  1
  Sm3+  Sm61  1  0.62786153  0.75401931  0.44452641  1
  Sm3+  Sm62  1  0.13123846  0.49618001  0.94844599  1
  Sm3+  Sm63  1  0.00607765  0.13309205  0.54880513  1
  Bi2+  Bi64  1  0.00249401  0.05027243  0.28979341  1
  Bi2+  Bi65  1  -0.00625242  0.10447558  0.79655666  1
  Bi2+  Bi66  1  0.02025241  0.44316618  0.29696477  1
  Bi2+  Bi67  1  -0.02872994  0.30299268  0.77205996  1
  Bi2+  Bi68  1  0.00795829  0.66036080  0.26267613  1
  Bi2+  Bi69  1  0.01220890  0.59871648  0.79564901  1
  Bi2+  Bi70  1  0.05737682  0.86595387  0.29810317  1
  Bi2+  Bi71  1  0.01483672  0.91224088  0.83120919  1
  Bi2+  Bi72  1  0.26925502  0.05425572  0.29310780  1
  Bi2+  Bi73  1  0.22037467  0.16482804  0.79718448  1
  Bi2+  Bi74  1  0.26453807  0.32687029  0.29771286  1
  Bi2+  Bi75  1  0.24722426  0.41389882  0.79958940  1
  Bi2+  Bi76  1  0.24078989  0.67952650  0.30689163  1
  Bi2+  Bi77  1  0.22379308  0.69839417  0.80208550  1
  Bi2+  Bi78  1  0.25147668  0.87374511  0.34792008  1
  Bi2+  Bi79  1  0.19445397  0.88798388  0.78504218  1
  Bi2+  Bi80  1  0.54429237  0.08611311  0.27924376  1
  Bi2+  Bi81  1  0.47847229  0.14595343  0.78563774  1
  Bi2+  Bi82  1  0.49720785  0.33158361  0.28383953  1
  Bi2+  Bi83  1  0.51619053  0.33898910  0.80091256  1
  Bi2+  Bi84  1  0.49391990  0.66076720  0.28470494  1
  Bi2+  Bi85  1  0.47990556  0.59261719  0.79163893  1
  Bi2+  Bi86  1  0.49724119  0.85967364  0.29898487  1
  Bi2+  Bi87  1  0.50588033  0.85462965  0.77059600  1
  Bi2+  Bi88  1  0.73511113  0.11475900  0.30168509  1
  Bi2+  Bi89  1  0.74772098  0.13643600  0.78944363  1
  Bi2+  Bi90  1  0.76152952  0.33741124  0.27992871  1
  Bi2+  Bi91  1  0.70921382  0.36778718  0.78334789  1
  Bi2+  Bi92  1  0.74816856  0.66804768  0.28870078  1
  Bi2+  Bi93  1  0.76195861  0.60329409  0.79414525  1
  Bi2+  Bi94  1  0.77473109  0.91903946  0.31076251  1
  Bi2+  Bi95  1  0.77122207  0.88857276  0.78727161  1
  Bi2+  Bi96  1  0.14187387  -0.00134296  0.20870689  1
  Bi2+  Bi97  1  0.09338077  0.02709700  0.70578610  1
  Bi2+  Bi98  1  0.14040742  0.25429532  0.22408715  1
  Bi2+  Bi99  1  0.11920972  0.27722852  0.69858969  1
  Bi2+  Bi100  1  0.15417277  0.52782698  0.22923290  1
  Bi2+  Bi101  1  0.11902078  0.48417099  0.71679485  1
  Bi2+  Bi102  1  0.11724405  0.79782697  0.19202866  1
  Bi2+  Bi103  1  0.10867672  0.75021987  0.71059964  1
  Bi2+  Bi104  1  0.40521292  -0.02416743  0.20397593  1
  Bi2+  Bi105  1  0.36002216  0.01808610  0.71116041  1
  Bi2+  Bi106  1  0.39304235  0.17289481  0.22210423  1
  Bi2+  Bi107  1  0.33206082  0.27920927  0.73382314  1
  Bi2+  Bi108  1  0.36747728  0.52282876  0.21156345  1
  Bi2+  Bi109  1  0.30613060  0.54143206  0.71781208  1
  Bi2+  Bi110  1  0.31515128  0.80465543  0.23608496  1
  Bi2+  Bi111  1  0.33430082  0.73252492  0.70607504  1
  Bi2+  Bi112  1  0.66233783  -0.01056641  0.18536805  1
  Bi2+  Bi113  1  0.62591937  0.05467240  0.69814701  1
  Bi2+  Bi114  1  0.63304752  0.23535503  0.21679310  1
  Bi2+  Bi115  1  0.60669711  0.26095436  0.70485259  1
  Bi2+  Bi116  1  0.59290510  0.48835908  0.20380231  1
  Bi2+  Bi117  1  0.58165501  0.47537092  0.71911839  1
  Bi2+  Bi118  1  0.63944712  0.81425473  0.22189414  1
  Bi2+  Bi119  1  0.64675043  0.73647024  0.68276568  1
  Bi2+  Bi120  1  0.85708511  -0.00187623  0.21304754  1
  Bi2+  Bi121  1  0.92825799  -0.08085709  0.72721204  1
  Bi2+  Bi122  1  0.89368335  0.24739920  0.21912325  1
  Bi2+  Bi123  1  0.86467879  0.18459511  0.70418622  1
  Bi2+  Bi124  1  0.88365180  0.50423108  0.22117426  1
  Bi2+  Bi125  1  0.87807382  0.43955780  0.69886134  1
  Bi2+  Bi126  1  0.91972645  0.80904370  0.20387551  1
  Bi2+  Bi127  1  0.90757841  0.71185001  0.71759310  1
  S2-  S128  1  0.02471518  0.22442281  0.15381384  1
  S2-  S129  1  0.00704881  0.15203130  0.64776895  1
  S2-  S130  1  -0.13294959  0.37762518  0.15173760  1
  S2-  S131  1  0.02165219  0.40167753  0.64183180  1
  S2-  S132  1  -0.06630677  0.60977091  0.15262506  1
  S2-  S133  1  -0.11443587  0.59233722  0.64315631  1
  S2-  S134  1  0.01032423  0.99906356  0.14442417  1
  S2-  S135  1  0.10368080  0.87810801  0.63971323  1
  S2-  S136  1  0.26680385  0.21687367  0.15644128  1
  S2-  S137  1  0.23683532  0.04434170  0.64952467  1
  S2-  S138  1  0.12916391  0.40210514  0.16454238  1
  S2-  S139  1  0.25319730  0.27043798  0.63790534  1
  S2-  S140  1  0.25368564  0.61203514  0.15556824  1
  S2-  S141  1  0.13345156  0.62380351  0.63811571  1
  S2-  S142  1  0.27134507  0.97876993  0.13409922  1
  S2-  S143  1  0.36283606  0.88625486  0.65324457  1
  S2-  S144  1  0.60593445  0.12642111  0.13370974  1
  S2-  S145  1  0.47276885  0.11456018  0.65298861  1
  S2-  S146  1  0.40735972  0.39483063  0.15771249  1
  S2-  S147  1  0.49057753  0.36814436  0.65908774  1
  S2-  S148  1  0.49271706  0.62442770  0.16981523  1
  S2-  S149  1  0.48079870  0.71626290  0.65294070  1
  S2-  S150  1  0.52751871  0.88752133  0.14673526  1
  S2-  S151  1  0.58551457  0.90477173  0.66708114  1
  S2-  S152  1  0.83481117  0.14253201  0.15303126  1
  S2-  S153  1  0.76439994  0.02403180  0.64256160  1
  S2-  S154  1  0.63742537  0.36170882  0.14337895  1
  S2-  S155  1  0.79374267  0.32595565  0.64939879  1
  S2-  S156  1  0.72690734  0.57399804  0.18793782  1
  S2-  S157  1  0.65204860  0.58519403  0.64420742  1
  S2-  S158  1  0.77126308  0.78317094  0.15185614  1
  S2-  S159  1  0.79815478  0.79829233  0.65318495  1
  S2-  S160  1  0.13176553  0.10324017  0.35082893  1
  S2-  S161  1  0.22349650  0.02007577  0.85235583  1
  S2-  S162  1  0.08878683  0.29156167  0.32150969  1
  S2-  S163  1  0.08298040  0.23873561  0.84900695  1
  S2-  S164  1  0.19842538  0.47764577  0.33400918  1
  S2-  S165  1  0.11598382  0.49856717  0.85010280  1
  S2-  S166  1  0.09148709  0.65435880  0.35664923  1
  S2-  S167  1  0.00462746  0.74230747  0.86059222  1
  S2-  S168  1  0.48491312  0.00082536  0.35972976  1
  S2-  S169  1  0.42183846  -0.02712397  0.81125421  1
  S2-  S170  1  0.33462053  0.18831118  0.34583449  1
  S2-  S171  1  0.36150161  0.17876940  0.86069304  1
  S2-  S172  1  0.39003980  0.38779384  0.35629041  1
  S2-  S173  1  0.38513039  0.50064277  0.84765704  1
  S2-  S174  1  0.38132328  0.63590788  0.35984432  1
  S2-  S175  1  0.45040269  0.74216528  0.84613405  1
  S2-  S176  1  0.63850303  -0.13110830  0.36423441  1
  S2-  S177  1  0.62028131  -0.10246676  0.83676316  1
  S2-  S178  1  0.63054538  0.32602212  0.35190460  1
  S2-  S179  1  0.61113042  0.12679180  0.85051621  1
  S2-  S180  1  0.54558285  0.49896516  0.30341425  1
  S2-  S181  1  0.62971733  0.56466448  0.85927483  1
  S2-  S182  1  0.61827272  0.66635033  0.35591811  1
  S2-  S183  1  0.61889121  0.71283999  0.77788703  1
  S2-  S184  1  0.88087919  0.13028354  0.35314396  1
  S2-  S185  1  0.79737679  0.00472404  0.85590319  1
  S2-  S186  1  0.88498358  0.36833957  0.34883891  1
  S2-  S187  1  0.78192846  0.26557053  0.85876547  1
  S2-  S188  1  0.78056077  0.54147431  0.34390293  1
  S2-  S189  1  0.87427177  0.52055024  0.84358934  1
  S2-  S190  1  0.84868896  0.76819266  0.34481297  1
  S2-  S191  1  0.78788846  0.74671669  0.84903140  1
  S2-  S192  1  0.00381788  0.13009459  0.44753326  1
  S2-  S193  1  0.00037059  0.12289531  0.95830178  1
  S2-  S194  1  0.00992139  0.37774788  0.44204649  1
  S2-  S195  1  0.00474552  0.37684695  0.95691508  1
  S2-  S196  1  -0.00373098  0.63192048  0.45778703  1
  S2-  S197  1  0.01037243  0.62117982  0.95946791  1
  S2-  S198  1  0.00029710  0.87865756  0.44761948  1
  S2-  S199  1  0.00491433  0.87567457  0.96327802  1
  S2-  S200  1  0.25500936  0.13087608  0.45617876  1
  S2-  S201  1  0.25534876  0.12758743  0.96304196  1
  S2-  S202  1  0.24681903  0.37899895  0.45155581  1
  S2-  S203  1  0.25835318  0.37541704  0.94947670  1
  S2-  S204  1  0.24665395  0.63214636  0.45683058  1
  S2-  S205  1  0.25419669  0.62484337  0.95001910  1
  S2-  S206  1  0.25092649  0.87665704  0.46378674  1
  S2-  S207  1  0.25376255  0.87424975  0.94731607  1
  S2-  S208  1  0.50089437  0.13579798  0.45131738  1
  S2-  S209  1  0.50496550  0.12732294  0.95058840  1
  S2-  S210  1  0.50791189  0.38555860  0.45281702  1
  S2-  S211  1  0.50549977  0.37745556  0.95594197  1
  S2-  S212  1  0.50511170  0.63016813  0.46012230  1
  S2-  S213  1  0.50163771  0.62810876  0.95959723  1
  S2-  S214  1  0.49771879  0.87405625  0.46488128  1
  S2-  S215  1  0.50192748  0.87932267  0.94165663  1
  S2-  S216  1  0.74762076  0.12827792  0.45453707  1
  S2-  S217  1  0.75796879  0.12470173  0.95726728  1
  S2-  S218  1  0.75228749  0.38180014  0.44971414  1
  S2-  S219  1  0.75414756  0.38056578  0.95917451  1
  S2-  S220  1  0.75299433  0.63142942  0.45851138  1
  S2-  S221  1  0.75764037  0.62688430  0.96249525  1
  S2-  S222  1  0.75709920  0.88104493  0.46366074  1
  S2-  S223  1  0.75517242  0.87075944  0.95562171  1
  S2-  S224  1  0.12985015  0.00092817  0.04198422  1
  S2-  S225  1  0.12658584  0.01077975  0.53898830  1
  S2-  S226  1  0.13860564  0.25220461  0.05233132  1
  S2-  S227  1  0.12558530  0.25657407  0.53296891  1
  S2-  S228  1  0.13447824  0.49589281  0.05281682  1
  S2-  S229  1  0.12645318  0.50321386  0.53457341  1
  S2-  S230  1  0.13496994  0.75334495  0.04389020  1
  S2-  S231  1  0.12537248  0.75617821  0.53915326  1
  S2-  S232  1  0.38584769  -0.00056428  0.03332577  1
  S2-  S233  1  0.37760815  0.00702890  0.54484366  1
  S2-  S234  1  0.38580567  0.24742846  0.05220009  1
  S2-  S235  1  0.38272989  0.25919815  0.53922887  1
  S2-  S236  1  0.37637900  0.49601548  0.05043398  1
  S2-  S237  1  0.37565959  0.50727747  0.54956458  1
  S2-  S238  1  0.37703681  0.75323330  0.04704400  1
  S2-  S239  1  0.37083355  0.75371427  0.54597829  1
  S2-  S240  1  0.63037406  -0.00330605  0.03306633  1
  S2-  S241  1  0.62154075  0.00719050  0.54363313  1
  S2-  S242  1  0.62728460  0.25098029  0.03399739  1
  S2-  S243  1  0.62747513  0.25467545  0.54951616  1
  S2-  S244  1  0.63462884  0.50819749  0.05624568  1
  S2-  S245  1  0.63281197  0.50297932  0.54097464  1
  S2-  S246  1  0.62884483  0.74484245  0.05748925  1
  S2-  S247  1  0.63167730  0.75937996  0.55083325  1
  S2-  S248  1  0.87548680  -0.00279429  0.04835583  1
  S2-  S249  1  0.88436659  0.00837198  0.53847968  1
  S2-  S250  1  0.88115743  0.24914092  0.04502493  1
  S2-  S251  1  0.88126441  0.25463125  0.53533145  1
  S2-  S252  1  0.88535172  0.50122856  0.05013115  1
  S2-  S253  1  0.88199871  0.50171249  0.53413806  1
  S2-  S254  1  0.88796266  0.74971940  0.04663210  1
  S2-  S255  1  0.88462760  0.75717915  0.54685879  1
