# generated using pymatgen
data_La6Ce6Pr19Nd20Sm13(BiS2)64
_symmetry_space_group_name_H-M   'P 1'
_cell_length_a   16.04075266
_cell_length_b   16.03088172
_cell_length_c   27.48959872
_cell_angle_alpha   90.33717634
_cell_angle_beta   89.77205797
_cell_angle_gamma   89.85135568
_symmetry_Int_Tables_number   1
_chemical_formula_structural   La6Ce6Pr19Nd20Sm13(BiS2)64
_chemical_formula_sum   'La6 Ce6 Pr19 Nd20 Sm13 Bi64 S128'
_cell_volume   7068.67651115
_cell_formula_units_Z   1
loop_
 _symmetry_equiv_pos_site_id
 _symmetry_equiv_pos_as_xyz
  1  'x, y, z'
loop_
 _atom_type_symbol
 _atom_type_oxidation_number
  La3+  3.0
  Ce3+  3.0
  Pr3+  3.0
  Nd3+  3.0
  Sm3+  3.0
  Bi2+  2.0
  S2-  -2.0
loop_
 _atom_site_type_symbol
 _atom_site_label
 _atom_site_symmetry_multiplicity
 _atom_site_fract_x
 _atom_site_fract_y
 _atom_site_fract_z
 _atom_site_occupancy
  La3+  La0  1  0.26863025  0.37394465  0.61792823  1
  La3+  La1  1  0.37939540  0.75658593  0.41846949  1
  La3+  La2  1  0.11085578  0.72570533  0.90549012  1
  La3+  La3  1  0.88939522  0.24958979  0.38343341  1
  La3+  La4  1  0.87544007  0.49531150  0.44419263  1
  La3+  La5  1  0.60163013  0.72840375  0.92140802  1
  Ce3+  Ce6  1  0.73100508  0.61515910  0.05711186  1
  Ce3+  Ce7  1  0.75211142  0.63252356  0.55773119  1
  Ce3+  Ce8  1  0.62843497  -0.00243461  0.44127297  1
  Ce3+  Ce9  1  0.35225979  0.47869824  0.94547222  1
  Ce3+  Ce10  1  0.37446943  -0.00236127  0.44717327  1
  Ce3+  Ce11  1  0.13060417  0.74810877  0.43357760  1
  Pr3+  Pr12  1  0.74657903  0.88699696  0.57986701  1
  Pr3+  Pr13  1  0.75210376  0.37390229  0.56591778  1
  Pr3+  Pr14  1  0.72964868  0.35096834  0.07699809  1
  Pr3+  Pr15  1  0.49775270  0.12924616  0.56077300  1
  Pr3+  Pr16  1  0.62783782  0.25140191  0.43023285  1
  Pr3+  Pr17  1  0.60509440  0.47814519  0.93774969  1
  Pr3+  Pr18  1  0.00533878  0.37463314  0.56521219  1
  Pr3+  Pr19  1  0.22095332  0.85099979  0.08833294  1
  Pr3+  Pr20  1  0.48382342  0.35813958  0.07130154  1
  Pr3+  Pr21  1  0.37735543  0.49847584  0.45081521  1
  Pr3+  Pr22  1  0.86046213  -0.02247255  0.92571595  1
  Pr3+  Pr23  1  -0.02675109  0.36279331  0.06729658  1
  Pr3+  Pr24  1  0.00226662  0.12603598  0.56091075  1
  Pr3+  Pr25  1  0.24512245  0.12674970  0.57534499  1
  Pr3+  Pr26  1  0.87529185  -0.00094896  0.43273012  1
  Pr3+  Pr27  1  0.48004031  0.10310504  0.05811383  1
  Pr3+  Pr28  1  0.38037585  0.25195195  0.44375754  1
  Pr3+  Pr29  1  0.00291511  0.62649216  0.56363111  1
  Pr3+  Pr30  1  0.88059496  0.75240597  0.43068105  1
  Nd3+  Nd31  1  0.22755349  0.10695671  0.06329847  1
  Nd3+  Nd32  1  0.50839126  0.37545525  0.57479205  1
  Nd3+  Nd33  1  0.73156844  0.10048422  0.06357522  1
  Nd3+  Nd34  1  -0.01704701  0.85604366  0.04936824  1
  Nd3+  Nd35  1  0.10865269  0.23637875  0.93585997  1
  Nd3+  Nd36  1  0.62608428  0.75336842  0.43932145  1
  Nd3+  Nd37  1  0.12911061  0.49759118  0.44282547  1
  Nd3+  Nd38  1  0.12782751  0.24913122  0.44211574  1
  Nd3+  Nd39  1  0.47839800  0.61055708  0.05833545  1
  Nd3+  Nd40  1  0.49717561  0.87735816  0.56675049  1
  Nd3+  Nd41  1  0.85384951  0.47468792  0.93639459  1
  Nd3+  Nd42  1  0.25209812  0.62705493  0.56610725  1
  Nd3+  Nd43  1  0.35369269  0.23339195  0.94594231  1
  Nd3+  Nd44  1  0.47658430  0.85797005  0.06100386  1
  Nd3+  Nd45  1  0.10518833  0.47863540  0.93828454  1
  Nd3+  Nd46  1  0.60971831  -0.01992753  0.92933633  1
  Nd3+  Nd47  1  0.12845111  0.00039982  0.43980552  1
  Nd3+  Nd48  1  0.24299654  0.87084444  0.57274986  1
  Nd3+  Nd49  1  0.85341113  0.72501589  0.92021665  1
  Nd3+  Nd50  1  0.60641568  0.23468770  0.93767320  1
  Sm3+  Sm51  1  -0.01729585  0.10437274  0.04840200  1
  Sm3+  Sm52  1  0.50010440  0.62915950  0.56141885  1
  Sm3+  Sm53  1  0.11278257  -0.01768564  0.92793975  1
  Sm3+  Sm54  1  0.35490064  0.73116033  0.94203105  1
  Sm3+  Sm55  1  0.62560424  0.49976538  0.44751642  1
  Sm3+  Sm56  1  0.22025768  0.35149528  0.07685361  1
  Sm3+  Sm57  1  0.35693394  -0.02010860  0.93214072  1
  Sm3+  Sm58  1  0.22682472  0.60339944  0.06716742  1
  Sm3+  Sm59  1  0.85452556  0.23496815  0.94018231  1
  Sm3+  Sm60  1  -0.01862747  0.61130316  0.05035759  1
  Sm3+  Sm61  1  0.75201429  0.12603957  0.55307263  1
  Sm3+  Sm62  1  0.72616789  0.85370519  0.06397315  1
  Sm3+  Sm63  1  0.00203269  0.87497391  0.55707949  1
  Bi2+  Bi64  1  0.03173035  0.06083395  0.27794714  1
  Bi2+  Bi65  1  0.02401890  0.14188193  0.79939451  1
  Bi2+  Bi66  1  0.02572386  0.39126246  0.29573304  1
  Bi2+  Bi67  1  -0.03300661  0.33088634  0.78740021  1
  Bi2+  Bi68  1  0.00668487  0.64862850  0.27037721  1
  Bi2+  Bi69  1  -0.00722845  0.59264464  0.79534036  1
  Bi2+  Bi70  1  -0.02222334  0.87259167  0.29653181  1
  Bi2+  Bi71  1  -0.02858629  0.94285650  0.75819210  1
  Bi2+  Bi72  1  0.32368695  0.20421795  0.32004458  1
  Bi2+  Bi73  1  0.22023646  0.17356901  0.81398611  1
  Bi2+  Bi74  1  0.27111878  0.39223035  0.29979223  1
  Bi2+  Bi75  1  0.23852842  0.42823826  0.82409134  1
  Bi2+  Bi76  1  0.23397418  0.64505695  0.24425548  1
  Bi2+  Bi77  1  0.32590653  0.67062300  0.79874527  1
  Bi2+  Bi78  1  0.23797321  0.88518972  0.30417196  1
  Bi2+  Bi79  1  0.29521731  0.90844194  0.78141301  1
  Bi2+  Bi80  1  0.45544843  0.13506109  0.24197590  1
  Bi2+  Bi81  1  0.54622081  0.13365524  0.80846738  1
  Bi2+  Bi82  1  0.51380858  0.38906290  0.30151189  1
  Bi2+  Bi83  1  0.50652522  0.29727969  0.75167683  1
  Bi2+  Bi84  1  0.41641207  0.64203479  0.29364315  1
  Bi2+  Bi85  1  0.55121596  0.57668822  0.76214307  1
  Bi2+  Bi86  1  0.52635795  0.88847624  0.30213297  1
  Bi2+  Bi87  1  0.51764022  0.85338289  0.78882934  1
  Bi2+  Bi88  1  0.75353758  0.04518287  0.28263694  1
  Bi2+  Bi89  1  0.74841902  0.13546599  0.78854436  1
  Bi2+  Bi90  1  0.75604664  0.37945936  0.28859436  1
  Bi2+  Bi91  1  0.70734124  0.32783318  0.79377359  1
  Bi2+  Bi92  1  0.81564937  0.64404484  0.30504517  1
  Bi2+  Bi93  1  0.74037933  0.63435646  0.79010004  1
  Bi2+  Bi94  1  0.71353071  0.81759761  0.29292508  1
  Bi2+  Bi95  1  0.76589215  0.88607952  0.77570508  1
  Bi2+  Bi96  1  0.15603138  0.06750651  0.18786725  1
  Bi2+  Bi97  1  0.16123014  -0.00815856  0.70977655  1
  Bi2+  Bi98  1  0.19448228  0.24254512  0.23979770  1
  Bi2+  Bi99  1  0.13704871  0.23365592  0.71512793  1
  Bi2+  Bi100  1  0.09912871  0.48537526  0.19953097  1
  Bi2+  Bi101  1  0.11940452  0.50535679  0.71224772  1
  Bi2+  Bi102  1  0.12888480  0.80828235  0.21790736  1
  Bi2+  Bi103  1  0.13907914  0.75631676  0.71118923  1
  Bi2+  Bi104  1  0.32612297  -0.00815147  0.22058571  1
  Bi2+  Bi105  1  0.35424151  -0.03118470  0.67468713  1
  Bi2+  Bi106  1  0.44289387  0.32419397  0.19964852  1
  Bi2+  Bi107  1  0.38511734  0.14895907  0.73766340  1
  Bi2+  Bi108  1  0.37513929  0.51039979  0.20991449  1
  Bi2+  Bi109  1  0.39072785  0.52326422  0.71550753  1
  Bi2+  Bi110  1  0.41602484  0.79317067  0.22386544  1
  Bi2+  Bi111  1  0.39736321  0.77804441  0.70947820  1
  Bi2+  Bi112  1  0.63854807  -0.03089568  0.20365426  1
  Bi2+  Bi113  1  0.55189998  0.00054385  0.71788050  1
  Bi2+  Bi114  1  0.62751030  0.22748655  0.20731620  1
  Bi2+  Bi115  1  0.69937882  0.19927200  0.68135274  1
  Bi2+  Bi116  1  0.66791912  0.54693119  0.24892956  1
  Bi2+  Bi117  1  0.70415569  0.47137174  0.71294131  1
  Bi2+  Bi118  1  0.61155914  0.71263527  0.19678967  1
  Bi2+  Bi119  1  0.65839343  0.73733200  0.68906384  1
  Bi2+  Bi120  1  0.88978496  -0.01921882  0.20813514  1
  Bi2+  Bi121  1  0.89049250  0.09602524  0.70289151  1
  Bi2+  Bi122  1  0.91621031  0.24821389  0.18247186  1
  Bi2+  Bi123  1  0.88326866  0.28820858  0.67323543  1
  Bi2+  Bi124  1  0.86154784  0.53935626  0.20652716  1
  Bi2+  Bi125  1  0.90602541  0.47078128  0.71338817  1
  Bi2+  Bi126  1  0.85593421  0.78050538  0.21384650  1
  Bi2+  Bi127  1  0.90613563  0.75653257  0.74358962  1
  S2-  S128  1  -0.00914863  0.10048486  0.14649304  1
  S2-  S129  1  0.10269542  0.11222949  0.64531436  1
  S2-  S130  1  0.06569871  0.34319343  0.15268532  1
  S2-  S131  1  0.09748248  0.37274502  0.65031809  1
  S2-  S132  1  -0.01082377  0.60229223  0.14967009  1
  S2-  S133  1  0.04097333  0.64535639  0.66125814  1
  S2-  S134  1  0.06522558  0.87512368  0.13763521  1
  S2-  S135  1  0.09203207  0.87559011  0.64182975  1
  S2-  S136  1  0.23800068  0.21586235  0.14378525  1
  S2-  S137  1  0.28615996  0.21212916  0.66049849  1
  S2-  S138  1  0.23425435  0.48068573  0.14319170  1
  S2-  S139  1  0.24247848  0.38576929  0.73311594  1
  S2-  S140  1  0.22502964  0.70509686  0.14913189  1
  S2-  S141  1  0.25746878  0.54152476  0.65449958  1
  S2-  S142  1  0.36861679  0.88349099  0.14282463  1
  S2-  S143  1  0.25910878  0.74680573  0.64571411  1
  S2-  S144  1  0.54608951  0.09661232  0.15069730  1
  S2-  S145  1  0.53536934  0.14454467  0.65794063  1
  S2-  S146  1  0.59988923  0.36553752  0.14884690  1
  S2-  S147  1  0.43139279  0.38175355  0.66682622  1
  S2-  S148  1  0.46951703  0.62918271  0.15706614  1
  S2-  S149  1  0.51068518  0.63260904  0.66006353  1
  S2-  S150  1  0.59197478  0.85409416  0.13733575  1
  S2-  S151  1  0.60158768  0.88027497  0.64598889  1
  S2-  S152  1  0.75444940  0.20512768  0.14665213  1
  S2-  S153  1  0.76058436  0.04434927  0.64001754  1
  S2-  S154  1  0.85236033  0.39445739  0.14667310  1
  S2-  S155  1  0.64145228  0.36271266  0.64374421  1
  S2-  S156  1  0.75470816  0.72118671  0.13549891  1
  S2-  S157  1  0.75795228  0.61513485  0.65398977  1
  S2-  S158  1  0.76383263  0.97662407  0.13434925  1
  S2-  S159  1  0.80670320  0.82740809  0.67128833  1
  S2-  S160  1  0.15600550  0.02927509  0.34307178  1
  S2-  S161  1  -0.00648467  -0.01289602  0.85283585  1
  S2-  S162  1  0.06091299  0.26064856  0.35028142  1
  S2-  S163  1  0.09277284  0.35458003  0.86204675  1
  S2-  S164  1  0.14133235  0.48794588  0.34218423  1
  S2-  S165  1  0.13131681  0.56947341  0.85120583  1
  S2-  S166  1  0.01440443  0.73347633  0.35813672  1
  S2-  S167  1  0.18666192  0.77590119  0.81235007  1
  S2-  S168  1  0.38226278  -0.08171237  0.36060994  1
  S2-  S169  1  0.24071564  0.01238196  0.85745985  1
  S2-  S170  1  0.49146760  0.26361401  0.36174215  1
  S2-  S171  1  0.33587157  0.29236336  0.85388778  1
  S2-  S172  1  0.39363337  0.49317801  0.35039510  1
  S2-  S173  1  0.37240539  0.52087761  0.84985664  1
  S2-  S174  1  0.23976208  0.73999221  0.35620637  1
  S2-  S175  1  0.44805135  0.74249601  0.85708685  1
  S2-  S176  1  0.61750778  0.02439529  0.34412978  1
  S2-  S177  1  0.48327485  -0.01902408  0.85730977  1
  S2-  S178  1  0.72334224  0.25275069  0.34527042  1
  S2-  S179  1  0.59155540  0.35195292  0.86329704  1
  S2-  S180  1  0.63905766  0.48636500  0.34968941  1
  S2-  S181  1  0.60871750  0.58396324  0.85455531  1
  S2-  S182  1  0.52689730  0.73472108  0.35685118  1
  S2-  S183  1  0.72831424  0.77282316  0.84908033  1
  S2-  S184  1  0.89138425  0.08544260  0.34457726  1
  S2-  S185  1  0.73551850  -0.00829519  0.85221736  1
  S2-  S186  1  0.89280730  0.27202260  0.27341797  1
  S2-  S187  1  0.84833203  0.34359081  0.86288846  1
  S2-  S188  1  0.88373397  0.42715705  0.35252738  1
  S2-  S189  1  0.84847799  0.57212462  0.85328527  1
  S2-  S190  1  0.83774895  0.87348560  0.36042232  1
  S2-  S191  1  0.97034765  0.74359913  0.84284257  1
  S2-  S192  1  0.00219328  0.12504403  0.45440053  1
  S2-  S193  1  -0.01773024  0.11335924  0.94645061  1
  S2-  S194  1  0.00337802  0.37323650  0.45877290  1
  S2-  S195  1  -0.02091332  0.35468708  0.96216382  1
  S2-  S196  1  0.00108198  0.62139066  0.45728780  1
  S2-  S197  1  -0.01717184  0.60527950  0.94905539  1
  S2-  S198  1  0.00492193  0.87670647  0.45481530  1
  S2-  S199  1  -0.00915245  0.85346888  0.94698517  1
  S2-  S200  1  0.25363872  0.12533981  0.46053642  1
  S2-  S201  1  0.23007129  0.11121707  0.95897414  1
  S2-  S202  1  0.25263233  0.37337582  0.44755400  1
  S2-  S203  1  0.22962208  0.35593917  0.96875987  1
  S2-  S204  1  0.25424727  0.62383212  0.45845515  1
  S2-  S205  1  0.23222746  0.60814477  0.95862471  1
  S2-  S206  1  0.25050997  0.87482603  0.46233606  1
  S2-  S207  1  0.23303684  0.85356755  0.93934568  1
  S2-  S208  1  0.50120229  0.12047804  0.45500471  1
  S2-  S209  1  0.48027887  0.11052627  0.95300739  1
  S2-  S210  1  0.50654562  0.37819709  0.46623875  1
  S2-  S211  1  0.47770326  0.35612662  0.96503840  1
  S2-  S212  1  0.50251260  0.62534895  0.45814342  1
  S2-  S213  1  0.47631146  0.60362354  0.95560922  1
  S2-  S214  1  0.50281992  0.87609425  0.46173558  1
  S2-  S215  1  0.47898345  0.85755736  0.95668915  1
  S2-  S216  1  0.75249416  0.12448961  0.45113484  1
  S2-  S217  1  0.73200815  0.11205103  0.95328803  1
  S2-  S218  1  0.74719894  0.37657711  0.45975316  1
  S2-  S219  1  0.72970399  0.35399799  0.96654222  1
  S2-  S220  1  0.75054554  0.62727240  0.45078442  1
  S2-  S221  1  0.73012947  0.60588375  0.95496645  1
  S2-  S222  1  0.74860128  0.87349212  0.46556836  1
  S2-  S223  1  0.73240643  0.85679998  0.95646379  1
  S2-  S224  1  0.11055985  -0.01729304  0.03433206  1
  S2-  S225  1  0.12711744  -0.00167320  0.54345174  1
  S2-  S226  1  0.10245338  0.23045460  0.04179772  1
  S2-  S227  1  0.12931310  0.25115172  0.54655316  1
  S2-  S228  1  0.10235852  0.48344581  0.04435127  1
  S2-  S229  1  0.12867793  0.50190368  0.54764939  1
  S2-  S230  1  0.10755098  0.72940516  0.04177788  1
  S2-  S231  1  0.12407676  0.74940872  0.54042599  1
  S2-  S232  1  0.34907750  -0.01639320  0.03832373  1
  S2-  S233  1  0.37128306  0.00082910  0.55144375  1
  S2-  S234  1  0.35805000  0.23372291  0.05044131  1
  S2-  S235  1  0.37490309  0.25860220  0.55081737  1
  S2-  S236  1  0.35719745  0.48071942  0.05008223  1
  S2-  S237  1  0.38142829  0.50018220  0.55550031  1
  S2-  S238  1  0.35006419  0.73282179  0.04475406  1
  S2-  S239  1  0.37909163  0.75243878  0.54594447  1
  S2-  S240  1  0.60579174  -0.01808534  0.03576960  1
  S2-  S241  1  0.62217929  0.00507466  0.54530971  1
  S2-  S242  1  0.60450046  0.22796949  0.04343523  1
  S2-  S243  1  0.62764406  0.24653470  0.54066572  1
  S2-  S244  1  0.60653466  0.48783247  0.04777135  1
  S2-  S245  1  0.62704313  0.50759163  0.55101987  1
  S2-  S246  1  0.60163732  0.73109721  0.03544660  1
  S2-  S247  1  0.62444655  0.75214049  0.54554064  1
  S2-  S248  1  0.86234634  -0.01757907  0.03235613  1
  S2-  S249  1  0.88074866  -0.00179880  0.54319341  1
  S2-  S250  1  0.85873520  0.22717909  0.04215924  1
  S2-  S251  1  0.87588073  0.24832645  0.55240421  1
  S2-  S252  1  0.85331652  0.49090422  0.04181289  1
  S2-  S253  1  0.87619294  0.50100364  0.55243366  1
  S2-  S254  1  0.85977965  0.73445634  0.03325835  1
  S2-  S255  1  0.87882221  0.75467408  0.54616331  1
