# generated using pymatgen
data_La6Ce6Pr19Nd20Sm13(BiS2)64
_symmetry_space_group_name_H-M   'P 1'
_cell_length_a   16.12201400
_cell_length_b   16.06608413
_cell_length_c   27.32082305
_cell_angle_alpha   90.00164854
_cell_angle_beta   89.99392440
_cell_angle_gamma   89.95275718
_symmetry_Int_Tables_number   1
_chemical_formula_structural   La6Ce6Pr19Nd20Sm13(BiS2)64
_chemical_formula_sum   'La6 Ce6 Pr19 Nd20 Sm13 Bi64 S128'
_cell_volume   7076.57247537
_cell_formula_units_Z   1
loop_
 _symmetry_equiv_pos_site_id
 _symmetry_equiv_pos_as_xyz
  1  'x, y, z'
loop_
 _atom_type_symbol
 _atom_type_oxidation_number
  La3+  3.0
  Ce3+  3.0
  Pr3+  3.0
  Nd3+  3.0
  Sm3+  3.0
  Bi2+  2.0
  S2-  -2.0
loop_
 _atom_site_type_symbol
 _atom_site_label
 _atom_site_symmetry_multiplicity
 _atom_site_fract_x
 _atom_site_fract_y
 _atom_site_fract_z
 _atom_site_occupancy
  La3+  La0  1  0.86820827  0.51505129  0.88865105  1
  La3+  La1  1  0.63782619  0.25867670  0.92291382  1
  La3+  La2  1  0.37952396  0.26734698  0.92975683  1
  La3+  La3  1  0.37078026  0.01252766  0.91698055  1
  La3+  La4  1  0.12354742  -0.00877030  0.38440082  1
  La3+  La5  1  0.86331573  0.25232309  0.43537792  1
  Ce3+  Ce6  1  0.36577014  0.75276481  0.44344796  1
  Ce3+  Ce7  1  0.37034998  0.49944166  0.43993551  1
  Ce3+  Ce8  1  0.25709603  0.89005518  0.06792870  1
  Ce3+  Ce9  1  0.74367124  0.87929333  0.55513401  1
  Ce3+  Ce10  1  -0.00457515  0.87812144  0.55456485  1
  Ce3+  Ce11  1  0.62625924  0.76198573  0.93648524  1
  Pr3+  Pr12  1  0.25437040  0.13772728  0.06692707  1
  Pr3+  Pr13  1  0.37343180  0.76073808  0.93681992  1
  Pr3+  Pr14  1  -0.00346856  0.14574209  0.08259565  1
  Pr3+  Pr15  1  0.00189469  0.63562814  0.06609645  1
  Pr3+  Pr16  1  0.86886636  0.74969728  0.43868530  1
  Pr3+  Pr17  1  0.12664765  0.01437965  0.94444651  1
  Pr3+  Pr18  1  0.12214335  0.26541941  0.94003392  1
  Pr3+  Pr19  1  0.88015796  0.76086209  0.93986155  1
  Pr3+  Pr20  1  0.50243076  0.38519361  0.06641800  1
  Pr3+  Pr21  1  0.50174514  0.63934475  0.06836907  1
  Pr3+  Pr22  1  0.87047767  0.00234701  0.43352068  1
  Pr3+  Pr23  1  0.74157274  0.12695170  0.56389805  1
  Pr3+  Pr24  1  0.62715954  0.51106646  0.93815874  1
  Pr3+  Pr25  1  0.49205517  0.87025281  0.57041171  1
  Pr3+  Pr26  1  0.75326870  0.63667360  0.05826466  1
  Pr3+  Pr27  1  0.10958061  0.49751091  0.42288726  1
  Pr3+  Pr28  1  0.00240713  0.61458947  0.57661597  1
  Pr3+  Pr29  1  0.75124585  0.62481080  0.56944342  1
  Pr3+  Pr30  1  0.25020732  0.38772414  0.06893498  1
  Nd3+  Nd31  1  0.11579770  0.74976375  0.43616723  1
  Nd3+  Nd32  1  0.87926946  0.01438946  0.94363303  1
  Nd3+  Nd33  1  0.37174074  0.00008136  0.43366037  1
  Nd3+  Nd34  1  0.12357074  0.51486962  0.93629745  1
  Nd3+  Nd35  1  0.86078471  0.49934652  0.43872665  1
  Nd3+  Nd36  1  0.24257557  0.87860997  0.55712678  1
  Nd3+  Nd37  1  0.50093293  0.13748277  0.05635711  1
  Nd3+  Nd38  1  0.61256028  0.49951729  0.43431943  1
  Nd3+  Nd39  1  0.74980969  0.88899998  0.05747655  1
  Nd3+  Nd40  1  0.73818610  0.38305078  0.57357882  1
  Nd3+  Nd41  1  0.75036003  0.13893898  0.06152165  1
  Nd3+  Nd42  1  0.62390736  0.00326161  0.91996012  1
  Nd3+  Nd43  1  0.00070805  0.88853713  0.06661762  1
  Nd3+  Nd44  1  0.61681942  0.75129460  0.44560859  1
  Nd3+  Nd45  1  0.50113419  0.89157806  0.06077844  1
  Nd3+  Nd46  1  0.12198031  0.24976108  0.42663017  1
  Nd3+  Nd47  1  0.25231732  0.63862274  0.07040584  1
  Nd3+  Nd48  1  0.75247281  0.38803891  0.05458743  1
  Nd3+  Nd49  1  0.61444302  0.00268409  0.43880502  1
  Nd3+  Nd50  1  0.48139108  0.11609490  0.59466686  1
  Sm3+  Sm51  1  0.49199878  0.37690547  0.56247136  1
  Sm3+  Sm52  1  0.12626308  0.76102381  0.95040886  1
  Sm3+  Sm53  1  0.23753221  0.62191714  0.55179941  1
  Sm3+  Sm54  1  0.49298705  0.62549776  0.56542407  1
  Sm3+  Sm55  1  0.36951817  0.24659894  0.44554975  1
  Sm3+  Sm56  1  0.37399954  0.51168826  0.94152819  1
  Sm3+  Sm57  1  0.24451199  0.12533192  0.55574661  1
  Sm3+  Sm58  1  0.61549541  0.24928317  0.45402639  1
  Sm3+  Sm59  1  0.24233974  0.37508284  0.55557088  1
  Sm3+  Sm60  1  0.88287139  0.26158896  0.93590134  1
  Sm3+  Sm61  1  0.00084465  0.38883780  0.05523256  1
  Sm3+  Sm62  1  -0.00309262  0.12580747  0.54959939  1
  Sm3+  Sm63  1  -0.00696015  0.37051474  0.55800780  1
  Bi2+  Bi64  1  0.00959346  0.12697946  0.28140354  1
  Bi2+  Bi65  1  -0.01156704  0.07132988  0.82842521  1
  Bi2+  Bi66  1  -0.00209462  0.38658600  0.28853626  1
  Bi2+  Bi67  1  0.04513755  0.33342731  0.77666832  1
  Bi2+  Bi68  1  0.06548217  0.60114707  0.29335750  1
  Bi2+  Bi69  1  0.02030736  0.64084751  0.78453344  1
  Bi2+  Bi70  1  -0.01141459  0.85391625  0.28866025  1
  Bi2+  Bi71  1  0.00939400  0.88079405  0.79805731  1
  Bi2+  Bi72  1  0.29951852  0.15236555  0.28154748  1
  Bi2+  Bi73  1  0.16822961  0.10930566  0.77869286  1
  Bi2+  Bi74  1  0.28229943  0.42606556  0.30293481  1
  Bi2+  Bi75  1  0.20432234  0.42691760  0.81499883  1
  Bi2+  Bi76  1  0.26126975  0.62327206  0.29100217  1
  Bi2+  Bi77  1  0.29833144  0.60717047  0.82261909  1
  Bi2+  Bi78  1  0.28282802  0.85741642  0.28973179  1
  Bi2+  Bi79  1  0.22391748  0.86533900  0.79998523  1
  Bi2+  Bi80  1  0.54332149  0.13264258  0.29540887  1
  Bi2+  Bi81  1  0.50903368  0.15357242  0.79453420  1
  Bi2+  Bi82  1  0.50260359  0.40074493  0.28592500  1
  Bi2+  Bi83  1  0.44976787  0.39019907  0.77044861  1
  Bi2+  Bi84  1  0.52293750  0.62299047  0.25836144  1
  Bi2+  Bi85  1  0.48675444  0.64506994  0.79871356  1
  Bi2+  Bi86  1  0.53335346  0.86779226  0.29951229  1
  Bi2+  Bi87  1  0.50986723  0.86313998  0.79206833  1
  Bi2+  Bi88  1  0.72714309  0.05052333  0.31841695  1
  Bi2+  Bi89  1  0.77989253  0.13959604  0.79179732  1
  Bi2+  Bi90  1  0.75820409  0.33019422  0.31099443  1
  Bi2+  Bi91  1  0.70921717  0.38618712  0.78796632  1
  Bi2+  Bi92  1  0.71322767  0.59973619  0.29138599  1
  Bi2+  Bi93  1  0.75536184  0.65628097  0.78116296  1
  Bi2+  Bi94  1  0.73053801  0.86255580  0.29154964  1
  Bi2+  Bi95  1  0.74561584  0.87308580  0.75753815  1
  Bi2+  Bi96  1  0.13018481  -0.02976930  0.18190706  1
  Bi2+  Bi97  1  0.12525389  -0.04233460  0.70643046  1
  Bi2+  Bi98  1  0.13368406  0.29293768  0.20574353  1
  Bi2+  Bi99  1  0.14604468  0.23957351  0.69189488  1
  Bi2+  Bi100  1  0.08412101  0.48259797  0.19793086  1
  Bi2+  Bi101  1  0.15081468  0.48376339  0.70131699  1
  Bi2+  Bi102  1  0.14056347  0.71388488  0.21057026  1
  Bi2+  Bi103  1  0.18799537  0.68815012  0.73345743  1
  Bi2+  Bi104  1  0.40488726  0.03127907  0.21755667  1
  Bi2+  Bi105  1  0.34963287  0.00708569  0.70878615  1
  Bi2+  Bi106  1  0.38770604  0.29360588  0.21586092  1
  Bi2+  Bi107  1  0.29561984  0.26317907  0.76955916  1
  Bi2+  Bi108  1  0.36209028  0.51183113  0.21050255  1
  Bi2+  Bi109  1  0.36769612  0.54495072  0.71189005  1
  Bi2+  Bi110  1  0.39081492  0.75555123  0.21580227  1
  Bi2+  Bi111  1  0.37553062  0.74528263  0.71591204  1
  Bi2+  Bi112  1  0.61602092  0.01350611  0.21256596  1
  Bi2+  Bi113  1  0.64155312  0.01368757  0.70294952  1
  Bi2+  Bi114  1  0.61632444  0.25077898  0.21093482  1
  Bi2+  Bi115  1  0.65906553  0.27211908  0.69553535  1
  Bi2+  Bi116  1  0.62933845  0.47412443  0.20520398  1
  Bi2+  Bi117  1  0.56543616  0.52702588  0.70243106  1
  Bi2+  Bi118  1  0.64146869  0.75865346  0.20381498  1
  Bi2+  Bi119  1  0.61935132  0.72604345  0.71616899  1
  Bi2+  Bi120  1  0.84276769  -0.00689570  0.20864216  1
  Bi2+  Bi121  1  0.92825653  -0.02356813  0.70880951  1
  Bi2+  Bi122  1  0.79636695  0.18321999  0.23713843  1
  Bi2+  Bi123  1  0.93486182  0.18868976  0.73272436  1
  Bi2+  Bi124  1  0.83462630  0.45104329  0.22842094  1
  Bi2+  Bi125  1  0.86445025  0.48736786  0.69422554  1
  Bi2+  Bi126  1  0.87490612  0.64425909  0.23145023  1
  Bi2+  Bi127  1  0.90088576  0.75805460  0.72030598  1
  S2-  S128  1  0.07690128  0.12954949  0.17409663  1
  S2-  S129  1  0.01233945  0.15912454  0.64572122  1
  S2-  S130  1  0.00225798  0.33644292  0.14941542  1
  S2-  S131  1  0.00915135  0.46159262  0.64108856  1
  S2-  S132  1  -0.00806575  0.69038052  0.16212140  1
  S2-  S133  1  -0.12477137  0.64345415  0.64499841  1
  S2-  S134  1  -0.03230131  0.90955321  0.16501130  1
  S2-  S135  1  0.00914438  0.85127107  0.65082646  1
  S2-  S136  1  0.28094869  0.01200411  0.14167677  1
  S2-  S137  1  0.32484075  0.12300750  0.64471208  1
  S2-  S138  1  0.26192846  0.26295396  0.14329800  1
  S2-  S139  1  0.25026591  0.37328023  0.65365459  1
  S2-  S140  1  0.23244520  0.51471415  0.14262657  1
  S2-  S141  1  0.14966652  0.62662803  0.63620853  1
  S2-  S142  1  0.26131107  0.76664227  0.14363473  1
  S2-  S143  1  0.26770292  0.88428440  0.65660284  1
  S2-  S144  1  0.50369578  0.01731835  0.13498573  1
  S2-  S145  1  0.53391395  0.16875290  0.68906020  1
  S2-  S146  1  0.50129744  0.25404799  0.13809809  1
  S2-  S147  1  0.52576123  0.37356161  0.65890374  1
  S2-  S148  1  0.50016963  0.51117055  0.14051312  1
  S2-  S149  1  0.49181542  0.73762023  0.64176099  1
  S2-  S150  1  0.50393125  0.77297581  0.13936100  1
  S2-  S151  1  0.48869215  0.96995195  0.65381722  1
  S2-  S152  1  0.85143651  0.13936371  0.14399828  1
  S2-  S153  1  0.74529649  0.12241582  0.66465958  1
  S2-  S154  1  0.74024127  0.36213844  0.15329981  1
  S2-  S155  1  0.81778930  0.33727003  0.65943168  1
  S2-  S156  1  0.74607958  0.65316743  0.15840312  1
  S2-  S157  1  0.71147946  0.51236774  0.64532111  1
  S2-  S158  1  0.72669915  0.90029729  0.15580865  1
  S2-  S159  1  0.72186448  0.88471822  0.65122022  1
  S2-  S160  1  0.11014134  -0.01297949  0.27417389  1
  S2-  S161  1  0.21847811  0.00539833  0.85834948  1
  S2-  S162  1  0.12975116  0.15510590  0.34165837  1
  S2-  S163  1  0.00810907  0.25008208  0.86237946  1
  S2-  S164  1  0.14090367  0.37289618  0.35061130  1
  S2-  S165  1  0.03631969  0.52102948  0.84957792  1
  S2-  S166  1  0.12892351  0.82078513  0.34515333  1
  S2-  S167  1  0.10443039  0.75936008  0.85248563  1
  S2-  S168  1  0.28906484  -0.00185888  0.34423653  1
  S2-  S169  1  0.49618854  0.00516395  0.84341331  1
  S2-  S170  1  0.36821062  0.24858939  0.34654236  1
  S2-  S171  1  0.36645510  0.16577881  0.84714363  1
  S2-  S172  1  0.48234995  0.50448479  0.36368227  1
  S2-  S173  1  0.37021042  0.40964620  0.86139019  1
  S2-  S174  1  0.39999063  0.78446012  0.34960648  1
  S2-  S175  1  0.36330728  0.85052538  0.85055731  1
  S2-  S176  1  0.50406328  -0.00165082  0.36143227  1
  S2-  S177  1  0.64595442  0.12532182  0.84864869  1
  S2-  S178  1  0.62466835  0.25899131  0.35601119  1
  S2-  S179  1  0.55851528  0.31498417  0.83226492  1
  S2-  S180  1  0.73630709  0.48381703  0.36407764  1
  S2-  S181  1  0.69675730  0.52645507  0.84597535  1
  S2-  S182  1  0.64381492  0.74293646  0.34744240  1
  S2-  S183  1  0.64178221  0.85136580  0.85261705  1
  S2-  S184  1  0.95211293  -0.00205272  0.34393780  1
  S2-  S185  1  0.82861143  0.00362948  0.84806231  1
  S2-  S186  1  0.91843433  0.24749756  0.33936951  1
  S2-  S187  1  0.78321003  0.27603865  0.85480602  1
  S2-  S188  1  0.96627989  0.50956392  0.35891620  1
  S2-  S189  1  0.86329705  0.44316580  0.78993600  1
  S2-  S190  1  0.90142002  0.75422179  0.33900113  1
  S2-  S191  1  0.87428220  0.68143622  0.84997198  1
  S2-  S192  1  -0.00473312  0.12739394  0.44808652  1
  S2-  S193  1  0.00136480  0.13712242  0.96773426  1
  S2-  S194  1  -0.00796482  0.37101400  0.45445593  1
  S2-  S195  1  -0.00504981  0.39610890  0.95234342  1
  S2-  S196  1  -0.00675818  0.62687014  0.45916980  1
  S2-  S197  1  0.00137474  0.63743010  0.95945258  1
  S2-  S198  1  -0.00421735  0.87793151  0.44946498  1
  S2-  S199  1  0.00335504  0.88629164  0.95798438  1
  S2-  S200  1  0.24605119  0.12583825  0.45288812  1
  S2-  S201  1  0.24686384  0.14400063  0.95695689  1
  S2-  S202  1  0.24941178  0.37406460  0.45266168  1
  S2-  S203  1  0.24530580  0.39071566  0.96000095  1
  S2-  S204  1  0.24138245  0.62314354  0.44637243  1
  S2-  S205  1  0.24939543  0.63619121  0.95969068  1
  S2-  S206  1  0.24080297  0.87745475  0.45185122  1
  S2-  S207  1  0.24690011  0.88278739  0.96096356  1
  S2-  S208  1  0.49335554  0.12860629  0.45925141  1
  S2-  S209  1  0.50621054  0.13805980  0.95019727  1
  S2-  S210  1  0.49139571  0.37025385  0.45904514  1
  S2-  S211  1  0.50400852  0.39145934  0.95786785  1
  S2-  S212  1  0.49124271  0.63058452  0.46172025  1
  S2-  S213  1  0.49961770  0.63518634  0.95226704  1
  S2-  S214  1  0.49353362  0.87298502  0.46302860  1
  S2-  S215  1  0.50151073  0.88262232  0.95438737  1
  S2-  S216  1  0.74093659  0.12498293  0.45624315  1
  S2-  S217  1  0.75943824  0.13689920  0.95698414  1
  S2-  S218  1  0.73724563  0.37264106  0.46630361  1
  S2-  S219  1  0.76303563  0.39751285  0.95021352  1
  S2-  S220  1  0.74177254  0.62774496  0.45900621  1
  S2-  S221  1  0.75402775  0.63690700  0.95275316  1
  S2-  S222  1  0.74245407  0.87796638  0.44892848  1
  S2-  S223  1  0.75547618  0.88644668  0.95331614  1
  S2-  S224  1  0.12199063  0.01451538  0.05131989  1
  S2-  S225  1  0.12071438  0.00526739  0.55356463  1
  S2-  S226  1  0.12238761  0.26323267  0.04581475  1
  S2-  S227  1  0.12174073  0.25102655  0.53955000  1
  S2-  S228  1  0.12286356  0.51238411  0.04283831  1
  S2-  S229  1  0.12094839  0.49322810  0.53315016  1
  S2-  S230  1  0.12456133  0.76366698  0.05248532  1
  S2-  S231  1  0.11964477  0.75226279  0.54119063  1
  S2-  S232  1  0.37694594  0.01349853  0.03208018  1
  S2-  S233  1  0.36833372  0.00071392  0.54248817  1
  S2-  S234  1  0.37625061  0.26410365  0.03810627  1
  S2-  S235  1  0.37051814  0.25285892  0.55053399  1
  S2-  S236  1  0.37505622  0.51428582  0.04333267  1
  S2-  S237  1  0.36742978  0.50191101  0.54999777  1
  S2-  S238  1  0.37714847  0.76090940  0.04149401  1
  S2-  S239  1  0.36018452  0.74531071  0.54830791  1
  S2-  S240  1  0.63145137  0.01364497  0.03689235  1
  S2-  S241  1  0.61492021  0.00342803  0.54685894  1
  S2-  S242  1  0.63140480  0.26273129  0.03726838  1
  S2-  S243  1  0.61237644  0.24939888  0.55804617  1
  S2-  S244  1  0.62865670  0.51376239  0.04416709  1
  S2-  S245  1  0.60975586  0.50318939  0.54140305  1
  S2-  S246  1  0.62870143  0.76222396  0.04145176  1
  S2-  S247  1  0.62386579  0.74714934  0.54995612  1
  S2-  S248  1  0.87685985  0.01067656  0.04890468  1
  S2-  S249  1  0.87033822  0.00462869  0.54401026  1
  S2-  S250  1  0.87693435  0.26570197  0.04178792  1
  S2-  S251  1  0.86988274  0.24867894  0.54443781  1
  S2-  S252  1  0.87788685  0.51073182  0.06341382  1
  S2-  S253  1  0.87071396  0.49489980  0.54375099  1
  S2-  S254  1  0.87695074  0.76465047  0.04837451  1
  S2-  S255  1  0.86980908  0.75655173  0.54412345  1
