# generated using pymatgen
data_La6Ce6Pr19Nd20Sm13(BiS2)64
_symmetry_space_group_name_H-M   'P 1'
_cell_length_a   16.19424938
_cell_length_b   16.17256226
_cell_length_c   27.10312459
_cell_angle_alpha   89.87300046
_cell_angle_beta   89.97048872
_cell_angle_gamma   90.02115501
_symmetry_Int_Tables_number   1
_chemical_formula_structural   La6Ce6Pr19Nd20Sm13(BiS2)64
_chemical_formula_sum   'La6 Ce6 Pr19 Nd20 Sm13 Bi64 S128'
_cell_volume   7098.35739505
_cell_formula_units_Z   1
loop_
 _symmetry_equiv_pos_site_id
 _symmetry_equiv_pos_as_xyz
  1  'x, y, z'
loop_
 _atom_type_symbol
 _atom_type_oxidation_number
  La3+  3.0
  Ce3+  3.0
  Pr3+  3.0
  Nd3+  3.0
  Sm3+  3.0
  Bi2+  2.0
  S2-  -2.0
loop_
 _atom_site_type_symbol
 _atom_site_label
 _atom_site_symmetry_multiplicity
 _atom_site_fract_x
 _atom_site_fract_y
 _atom_site_fract_z
 _atom_site_occupancy
  La3+  La0  1  0.50596215  0.85937538  0.08169268  1
  La3+  La1  1  0.48587204  0.62585838  0.59319346  1
  La3+  La2  1  0.12265917  0.74051638  0.39882822  1
  La3+  La3  1  0.88423673  0.50283918  0.91100424  1
  La3+  La4  1  0.25236604  0.11740732  0.06824160  1
  La3+  La5  1  0.86279103  0.49548595  0.43834486  1
  Ce3+  Ce6  1  0.62741708  0.74917210  0.93778275  1
  Ce3+  Ce7  1  0.63144142  0.24466211  0.93995596  1
  Ce3+  Ce8  1  0.62058510  -0.00520283  0.43645654  1
  Ce3+  Ce9  1  0.74717668  0.63276971  0.57316219  1
  Ce3+  Ce10  1  0.37853090  0.24270323  0.93277081  1
  Ce3+  Ce11  1  0.37349968  0.74397784  0.43322612  1
  Pr3+  Pr12  1  0.88225011  0.74896655  0.93527270  1
  Pr3+  Pr13  1  0.12933474  0.50811788  0.92708461  1
  Pr3+  Pr14  1  0.25524949  0.61892714  0.05144279  1
  Pr3+  Pr15  1  0.00628811  0.85800718  0.07640274  1
  Pr3+  Pr16  1  -0.00591371  0.62298365  0.56640369  1
  Pr3+  Pr17  1  0.61946478  0.24932681  0.44571856  1
  Pr3+  Pr18  1  0.12154998  0.00682997  0.42467441  1
  Pr3+  Pr19  1  0.50262703  0.61756850  0.05131754  1
  Pr3+  Pr20  1  0.49119399  0.87309827  0.56731622  1
  Pr3+  Pr21  1  0.00424321  0.11733683  0.05975781  1
  Pr3+  Pr22  1  0.38153810  0.76023370  0.92441263  1
  Pr3+  Pr23  1  -0.00554939  0.36250015  0.57775377  1
  Pr3+  Pr24  1  0.13184707  0.24504448  0.93809365  1
  Pr3+  Pr25  1  0.11694182  0.49876919  0.44629887  1
  Pr3+  Pr26  1  0.24754552  0.37259038  0.55982546  1
  Pr3+  Pr27  1  0.25564720  0.37229893  0.05567030  1
  Pr3+  Pr28  1  0.87369909  0.74272948  0.42546939  1
  Pr3+  Pr29  1  0.61917680  0.74420589  0.44388519  1
  Pr3+  Pr30  1  0.87305831  -0.00217854  0.43553292  1
  Nd3+  Nd31  1  0.24491633  0.87188913  0.55019838  1
  Nd3+  Nd32  1  0.37023124  0.50249349  0.43513562  1
  Nd3+  Nd33  1  0.74271769  0.37739836  0.57618036  1
  Nd3+  Nd34  1  0.37254111  0.24871499  0.44119267  1
  Nd3+  Nd35  1  0.13087170  -0.00796796  0.94006538  1
  Nd3+  Nd36  1  0.37877646  0.49074460  0.91750931  1
  Nd3+  Nd37  1  0.75390089  0.86717308  0.05940776  1
  Nd3+  Nd38  1  0.75379597  0.12200292  0.06118950  1
  Nd3+  Nd39  1  0.74773616  0.87226089  0.55634723  1
  Nd3+  Nd40  1  0.75519688  0.37165263  0.04770030  1
  Nd3+  Nd41  1  -0.00056453  0.87062484  0.54792569  1
  Nd3+  Nd42  1  0.75503936  0.61621800  0.05034843  1
  Nd3+  Nd43  1  0.37351667  -0.01290447  0.42374004  1
  Nd3+  Nd44  1  -0.00558239  0.61188862  0.06965027  1
  Nd3+  Nd45  1  0.62964043  0.49823802  0.92419122  1
  Nd3+  Nd46  1  0.88034810  -0.00446505  0.95121179  1
  Nd3+  Nd47  1  0.12923384  0.75160842  0.93585186  1
  Nd3+  Nd48  1  0.74494244  0.12208210  0.55331148  1
  Nd3+  Nd49  1  0.25372892  0.85734340  0.07298732  1
  Nd3+  Nd50  1  0.50300865  0.12043846  0.06067117  1
  Sm3+  Sm51  1  0.38123150  -0.00488416  0.95302706  1
  Sm3+  Sm52  1  0.62090340  0.49922764  0.45589045  1
  Sm3+  Sm53  1  0.86941105  0.25250867  0.44206124  1
  Sm3+  Sm54  1  0.12075845  0.24751817  0.44346977  1
  Sm3+  Sm55  1  0.24657623  0.62470583  0.55963426  1
  Sm3+  Sm56  1  0.00423387  0.37403146  0.05376987  1
  Sm3+  Sm57  1  -0.00338792  0.11988329  0.56097648  1
  Sm3+  Sm58  1  0.50304799  0.36941652  0.04562119  1
  Sm3+  Sm59  1  0.49351005  0.37305575  0.56100038  1
  Sm3+  Sm60  1  0.49587211  0.12028139  0.55318863  1
  Sm3+  Sm61  1  0.88242642  0.24714552  0.93951460  1
  Sm3+  Sm62  1  0.62956947  -0.00365460  0.94972319  1
  Sm3+  Sm63  1  0.24768339  0.12072952  0.55331565  1
  Bi2+  Bi64  1  -0.01480030  0.17737335  0.29296025  1
  Bi2+  Bi65  1  0.00720994  0.06184219  0.78184698  1
  Bi2+  Bi66  1  0.00317973  0.38964800  0.29296629  1
  Bi2+  Bi67  1  -0.03125337  0.34953058  0.78935419  1
  Bi2+  Bi68  1  -0.00931533  0.62916045  0.28277907  1
  Bi2+  Bi69  1  0.01944974  0.61691214  0.78628098  1
  Bi2+  Bi70  1  -0.00730314  0.90226052  0.27671775  1
  Bi2+  Bi71  1  -0.00672905  0.85749866  0.79911095  1
  Bi2+  Bi72  1  0.24719942  0.15317334  0.28821204  1
  Bi2+  Bi73  1  0.21817480  0.12843025  0.82490072  1
  Bi2+  Bi74  1  0.26958979  0.39822718  0.30214805  1
  Bi2+  Bi75  1  0.21980890  0.32168777  0.79024699  1
  Bi2+  Bi76  1  0.23999076  0.58539779  0.28208340  1
  Bi2+  Bi77  1  0.22792452  0.62604845  0.76421780  1
  Bi2+  Bi78  1  0.27201451  0.90296099  0.28636991  1
  Bi2+  Bi79  1  0.24698052  0.93632191  0.79408658  1
  Bi2+  Bi80  1  0.53273191  0.17463442  0.27409283  1
  Bi2+  Bi81  1  0.41851643  0.12780182  0.81587192  1
  Bi2+  Bi82  1  0.46331503  0.42981202  0.29623264  1
  Bi2+  Bi83  1  0.48066650  0.30843334  0.78488646  1
  Bi2+  Bi84  1  0.50490255  0.61765551  0.30010682  1
  Bi2+  Bi85  1  0.50948817  0.61153117  0.79969517  1
  Bi2+  Bi86  1  0.52088511  0.86775005  0.28294434  1
  Bi2+  Bi87  1  0.51385391  0.89185520  0.80014142  1
  Bi2+  Bi88  1  0.79470706  0.16875413  0.30974462  1
  Bi2+  Bi89  1  0.71936629  0.07063222  0.77708303  1
  Bi2+  Bi90  1  0.72764805  0.35281586  0.31001095  1
  Bi2+  Bi91  1  0.73190019  0.33566947  0.79703924  1
  Bi2+  Bi92  1  0.73027824  0.62947259  0.30477451  1
  Bi2+  Bi93  1  0.76301695  0.69028677  0.77500895  1
  Bi2+  Bi94  1  0.76201085  0.88121736  0.27446490  1
  Bi2+  Bi95  1  0.78501722  0.88224594  0.79355630  1
  Bi2+  Bi96  1  0.12855027  0.03447442  0.19533143  1
  Bi2+  Bi97  1  0.12126983  -0.00683721  0.69730256  1
  Bi2+  Bi98  1  0.14170731  0.30782237  0.23031634  1
  Bi2+  Bi99  1  0.11224621  0.19130045  0.71381652  1
  Bi2+  Bi100  1  0.09426153  0.51411214  0.21234800  1
  Bi2+  Bi101  1  0.14844322  0.46447244  0.72302544  1
  Bi2+  Bi102  1  0.14663692  0.76984995  0.20234844  1
  Bi2+  Bi103  1  0.16536359  0.80271240  0.72113204  1
  Bi2+  Bi104  1  0.39005721  0.03147144  0.20041945  1
  Bi2+  Bi105  1  0.39940741  -0.00742403  0.72708178  1
  Bi2+  Bi106  1  0.41910642  0.29298707  0.21174193  1
  Bi2+  Bi107  1  0.32997065  0.20034497  0.72043333  1
  Bi2+  Bi108  1  0.35677687  0.47820638  0.18736050  1
  Bi2+  Bi109  1  0.37676333  0.47875249  0.70552347  1
  Bi2+  Bi110  1  0.38381305  0.66485977  0.21241901  1
  Bi2+  Bi111  1  0.37074535  0.75582650  0.71300105  1
  Bi2+  Bi112  1  0.67193423  0.04781240  0.24977865  1
  Bi2+  Bi113  1  0.58024093  -0.00172626  0.68547347  1
  Bi2+  Bi114  1  0.62299326  0.32215108  0.21185387  1
  Bi2+  Bi115  1  0.59288714  0.18582313  0.72492041  1
  Bi2+  Bi116  1  0.62653230  0.52260690  0.22713380  1
  Bi2+  Bi117  1  0.62461066  0.45335302  0.71115992  1
  Bi2+  Bi118  1  0.63915566  0.73140226  0.20477261  1
  Bi2+  Bi119  1  0.64055851  0.82036006  0.71617443  1
  Bi2+  Bi120  1  0.87856283  0.09465990  0.20520312  1
  Bi2+  Bi121  1  0.86460173  -0.02474339  0.69755874  1
  Bi2+  Bi122  1  0.88261082  0.29356673  0.21515343  1
  Bi2+  Bi123  1  0.86946195  0.16686546  0.72006189  1
  Bi2+  Bi124  1  0.85192668  0.48829265  0.20206858  1
  Bi2+  Bi125  1  0.86446785  0.49758681  0.70313361  1
  Bi2+  Bi126  1  0.83257032  0.73550403  0.21594193  1
  Bi2+  Bi127  1  0.90087135  0.76463908  0.70143337  1
  S2-  S128  1  0.03479640  0.14909409  0.15693274  1
  S2-  S129  1  -0.01223042  0.21244450  0.64334970  1
  S2-  S130  1  -0.01080862  0.47097388  0.13477929  1
  S2-  S131  1  0.00920126  0.41372710  0.67546886  1
  S2-  S132  1  0.02859142  0.72216030  0.14570755  1
  S2-  S133  1  -0.02233964  0.62763523  0.66881058  1
  S2-  S134  1  0.00410963  0.92968654  0.17081005  1
  S2-  S135  1  -0.00307535  0.89156466  0.64724714  1
  S2-  S136  1  0.25916065  0.14127446  0.16822775  1
  S2-  S137  1  0.23715321  0.11186057  0.65165659  1
  S2-  S138  1  0.21069369  0.39439465  0.15243058  1
  S2-  S139  1  0.27116682  0.38242326  0.65932771  1
  S2-  S140  1  0.25820223  0.70891897  0.13939431  1
  S2-  S141  1  0.32954913  0.61603758  0.64626967  1
  S2-  S142  1  0.25261851  0.91331320  0.17059798  1
  S2-  S143  1  0.28340159  0.85745437  0.64818659  1
  S2-  S144  1  0.48498459  0.14258202  0.15880916  1
  S2-  S145  1  0.48506527  0.13995878  0.65049080  1
  S2-  S146  1  0.50198023  0.40186896  0.14173475  1
  S2-  S147  1  0.49560457  0.38020219  0.65932332  1
  S2-  S148  1  0.50206466  0.70777236  0.13864552  1
  S2-  S149  1  0.52651486  0.57877846  0.69467810  1
  S2-  S150  1  0.49952989  0.92060434  0.17995996  1
  S2-  S151  1  0.49510594  0.77551591  0.65220546  1
  S2-  S152  1  0.73243032  0.11938592  0.15982343  1
  S2-  S153  1  0.76261752  0.09848781  0.65049433  1
  S2-  S154  1  0.76003024  0.36593287  0.14721992  1
  S2-  S155  1  0.76790635  0.35935280  0.67527721  1
  S2-  S156  1  0.83509024  0.61120573  0.13892428  1
  S2-  S157  1  0.73548687  0.56524369  0.66436225  1
  S2-  S158  1  0.73087001  0.85433766  0.15801809  1
  S2-  S159  1  0.75580339  0.77912901  0.64007559  1
  S2-  S160  1  0.12226035  -0.05468818  0.32817315  1
  S2-  S161  1  0.12319429  -0.12267351  0.86342842  1
  S2-  S162  1  0.11490953  0.15553346  0.36020917  1
  S2-  S163  1  0.07482671  0.26579713  0.84287671  1
  S2-  S164  1  0.10676623  0.57814592  0.35544044  1
  S2-  S165  1  0.02528934  0.47691213  0.84725124  1
  S2-  S166  1  0.20129779  0.75987983  0.30472695  1
  S2-  S167  1  0.13646035  0.64668439  0.85408613  1
  S2-  S168  1  0.34616900  0.04581235  0.32870628  1
  S2-  S169  1  0.37552083  -0.08409382  0.86672850  1
  S2-  S170  1  0.33711288  0.25413740  0.34361002  1
  S2-  S171  1  0.36396656  0.34632178  0.85334532  1
  S2-  S172  1  0.36449108  0.62236359  0.36208269  1
  S2-  S173  1  0.36504753  0.54108532  0.81866635  1
  S2-  S174  1  0.39524240  0.84895363  0.35140450  1
  S2-  S175  1  0.41692998  0.73855972  0.82199250  1
  S2-  S176  1  0.58168492  -0.01420790  0.34127689  1
  S2-  S177  1  0.61910258  -0.00987794  0.85114939  1
  S2-  S178  1  0.58100274  0.27580844  0.34859488  1
  S2-  S179  1  0.61483119  0.23633158  0.84340072  1
  S2-  S180  1  0.69439884  0.49453063  0.36685705  1
  S2-  S181  1  0.61216512  0.46936850  0.82483692  1
  S2-  S182  1  0.61145580  0.75251340  0.34211175  1
  S2-  S183  1  0.63920883  0.70560765  0.84315842  1
  S2-  S184  1  0.86739010  -0.03499022  0.33593155  1
  S2-  S185  1  0.90084109  -0.01943450  0.85340978  1
  S2-  S186  1  0.87838943  0.36649501  0.36766573  1
  S2-  S187  1  0.85724061  0.24687971  0.84162611  1
  S2-  S188  1  0.87310416  0.60585638  0.35749926  1
  S2-  S189  1  0.83220929  0.45885126  0.81041523  1
  S2-  S190  1  0.98095039  0.76999760  0.34015941  1
  S2-  S191  1  0.89240885  0.65727199  0.84880523  1
  S2-  S192  1  -0.00938361  0.12794650  0.45646067  1
  S2-  S193  1  0.00498925  0.11990803  0.95145284  1
  S2-  S194  1  0.00018395  0.36797066  0.46649083  1
  S2-  S195  1  0.00350146  0.36864713  0.95168842  1
  S2-  S196  1  -0.00238805  0.62576928  0.45971189  1
  S2-  S197  1  0.00442316  0.62534167  0.95835062  1
  S2-  S198  1  0.00086030  0.87378674  0.44408777  1
  S2-  S199  1  0.00174375  0.87219313  0.96515076  1
  S2-  S200  1  0.25145702  0.12269558  0.45064790  1
  S2-  S201  1  0.25553949  0.11620038  0.95920124  1
  S2-  S202  1  0.24474104  0.37262949  0.45243105  1
  S2-  S203  1  0.24877648  0.37521189  0.94885882  1
  S2-  S204  1  0.23899092  0.62557850  0.45686396  1
  S2-  S205  1  0.26557141  0.62358212  0.94555840  1
  S2-  S206  1  0.23995393  0.87004836  0.44369244  1
  S2-  S207  1  0.25503421  0.87301970  0.96455504  1
  S2-  S208  1  0.49305384  0.12012726  0.44769300  1
  S2-  S209  1  0.50516648  0.11821199  0.95421507  1
  S2-  S210  1  0.49399689  0.37757444  0.45548504  1
  S2-  S211  1  0.50778696  0.37082321  0.94289189  1
  S2-  S212  1  0.49838796  0.61812346  0.45978991  1
  S2-  S213  1  0.50225480  0.62040362  0.94342487  1
  S2-  S214  1  0.49792442  0.87293835  0.45894808  1
  S2-  S215  1  0.50857652  0.87383699  0.96390794  1
  S2-  S216  1  0.74643098  0.12423032  0.44767810  1
  S2-  S217  1  0.75614629  0.12029856  0.95346309  1
  S2-  S218  1  0.74084417  0.36947776  0.46893452  1
  S2-  S219  1  0.75639978  0.37161652  0.94110595  1
  S2-  S220  1  0.74377430  0.62486780  0.46528826  1
  S2-  S221  1  0.75246676  0.62182458  0.94536735  1
  S2-  S222  1  0.74826041  0.87025415  0.44887691  1
  S2-  S223  1  0.75366360  0.87278461  0.95212219  1
  S2-  S224  1  0.12887210  -0.00979620  0.05026912  1
  S2-  S225  1  0.12136165  0.00164452  0.53838341  1
  S2-  S226  1  0.12755816  0.24823408  0.04691979  1
  S2-  S227  1  0.12477318  0.24342963  0.54806631  1
  S2-  S228  1  0.12958523  0.49617290  0.03722733  1
  S2-  S229  1  0.12246076  0.49833192  0.55488325  1
  S2-  S230  1  0.12953677  0.74214064  0.04074069  1
  S2-  S231  1  0.12347627  0.74649338  0.55822493  1
  S2-  S232  1  0.38059808  -0.00964557  0.05778868  1
  S2-  S233  1  0.37068104  -0.00071731  0.54200890  1
  S2-  S234  1  0.37913810  0.24567661  0.04356555  1
  S2-  S235  1  0.37257781  0.24527135  0.54797692  1
  S2-  S236  1  0.38068787  0.49320379  0.03220866  1
  S2-  S237  1  0.37158502  0.49714777  0.54338504  1
  S2-  S238  1  0.38080037  0.74543035  0.03650808  1
  S2-  S239  1  0.36890696  0.74710885  0.54147646  1
  S2-  S240  1  0.62883926  -0.00502759  0.05541352  1
  S2-  S241  1  0.62077935  -0.00364984  0.54434367  1
  S2-  S242  1  0.62773993  0.24664277  0.04798537  1
  S2-  S243  1  0.61811475  0.24773539  0.55446648  1
  S2-  S244  1  0.62848935  0.49326413  0.03541821  1
  S2-  S245  1  0.61462588  0.49964393  0.55985035  1
  S2-  S246  1  0.63296381  0.74196172  0.04326462  1
  S2-  S247  1  0.61678542  0.74860352  0.54979143  1
  S2-  S248  1  0.87630834  -0.00617214  0.05734550  1
  S2-  S249  1  0.87283070  -0.00178870  0.54327514  1
  S2-  S250  1  0.88097153  0.24704491  0.04651385  1
  S2-  S251  1  0.86576766  0.24665135  0.54733095  1
  S2-  S252  1  0.87612603  0.49188879  0.02838194  1
  S2-  S253  1  0.87132581  0.49416915  0.55391696  1
  S2-  S254  1  0.87626076  0.74555706  0.04299698  1
  S2-  S255  1  0.87510530  0.74992394  0.53845081  1
