# generated using pymatgen
data_La6Ce6Pr19Nd20Sm13(BiS2)64
_symmetry_space_group_name_H-M   'P 1'
_cell_length_a   16.11520719
_cell_length_b   16.06153120
_cell_length_c   27.43442047
_cell_angle_alpha   89.93057697
_cell_angle_beta   90.12608055
_cell_angle_gamma   89.93364309
_symmetry_Int_Tables_number   1
_chemical_formula_structural   La6Ce6Pr19Nd20Sm13(BiS2)64
_chemical_formula_sum   'La6 Ce6 Pr19 Nd20 Sm13 Bi64 S128'
_cell_volume   7100.95837416
_cell_formula_units_Z   1
loop_
 _symmetry_equiv_pos_site_id
 _symmetry_equiv_pos_as_xyz
  1  'x, y, z'
loop_
 _atom_type_symbol
 _atom_type_oxidation_number
  La3+  3.0
  Ce3+  3.0
  Pr3+  3.0
  Nd3+  3.0
  Sm3+  3.0
  Bi2+  2.0
  S2-  -2.0
loop_
 _atom_site_type_symbol
 _atom_site_label
 _atom_site_symmetry_multiplicity
 _atom_site_fract_x
 _atom_site_fract_y
 _atom_site_fract_z
 _atom_site_occupancy
  La3+  La0  1  0.10152490  0.77382852  0.41747391  1
  La3+  La1  1  0.11723477  0.72928850  0.90851900  1
  La3+  La2  1  0.86016918  0.23174508  0.92443710  1
  La3+  La3  1  0.24781874  0.59755030  0.11172043  1
  La3+  La4  1  0.36294134  0.22965994  0.92745378  1
  La3+  La5  1  0.75068878  0.60390206  0.07470353  1
  Ce3+  Ce6  1  0.61977364  -0.01654674  0.94590899  1
  Ce3+  Ce7  1  0.85323690  0.52383824  0.44037390  1
  Ce3+  Ce8  1  0.23181225  0.39515691  0.55715773  1
  Ce3+  Ce9  1  0.12238331  0.22925911  0.94149992  1
  Ce3+  Ce10  1  0.47689814  0.39219815  0.55573781  1
  Ce3+  Ce11  1  0.24534807  0.35633834  0.06127806  1
  Pr3+  Pr12  1  0.48200888  0.13545556  0.56920383  1
  Pr3+  Pr13  1  0.35283934  0.76716163  0.42886708  1
  Pr3+  Pr14  1  0.73309505  0.64716988  0.56861229  1
  Pr3+  Pr15  1  0.85639003  0.27325381  0.43411834  1
  Pr3+  Pr16  1  0.23237785  0.14486024  0.56310469  1
  Pr3+  Pr17  1  0.85372298  0.01985414  0.43394728  1
  Pr3+  Pr18  1  0.36594572  0.73321100  0.94431929  1
  Pr3+  Pr19  1  0.85526942  0.77396712  0.42574170  1
  Pr3+  Pr20  1  0.49105365  0.85724150  0.05854105  1
  Pr3+  Pr21  1  0.35426028  0.52029099  0.43269706  1
  Pr3+  Pr22  1  0.23754041  0.85276478  0.07425470  1
  Pr3+  Pr23  1  0.11886927  0.48635240  0.94230747  1
  Pr3+  Pr24  1  0.60242866  0.26500398  0.42965328  1
  Pr3+  Pr25  1  0.72626836  0.39384965  0.55653975  1
  Pr3+  Pr26  1  0.24470127  0.10552585  0.07183525  1
  Pr3+  Pr27  1  0.35657812  -0.02163640  0.93170286  1
  Pr3+  Pr28  1  -0.01736292  0.89265811  0.56421802  1
  Pr3+  Pr29  1  0.74672595  0.85121290  0.06993272  1
  Pr3+  Pr30  1  0.36660120  0.48710274  0.94145217  1
  Nd3+  Nd31  1  0.48988321  0.10621567  0.05690890  1
  Nd3+  Nd32  1  0.74316077  0.35713051  0.06893004  1
  Nd3+  Nd33  1  0.35575477  0.01971530  0.43577270  1
  Nd3+  Nd34  1  0.86882027  0.72741984  0.93367685  1
  Nd3+  Nd35  1  -0.02746781  0.39345466  0.56649990  1
  Nd3+  Nd36  1  0.60955173  0.77402807  0.43331753  1
  Nd3+  Nd37  1  -0.00838407  0.85188422  0.06873256  1
  Nd3+  Nd38  1  -0.00829798  0.10800016  0.05361121  1
  Nd3+  Nd39  1  0.22168506  0.64648279  0.56383149  1
  Nd3+  Nd40  1  -0.02182918  0.64707173  0.55979472  1
  Nd3+  Nd41  1  0.73333929  0.89514983  0.56367400  1
  Nd3+  Nd42  1  0.74493220  0.11107675  0.06824329  1
  Nd3+  Nd43  1  0.47342091  0.88673870  0.57024253  1
  Nd3+  Nd44  1  -0.00530101  0.35647941  0.05711144  1
  Nd3+  Nd45  1  0.62091270  0.73177954  0.94440920  1
  Nd3+  Nd46  1  0.86645433  0.48072879  0.93622061  1
  Nd3+  Nd47  1  0.86840794  -0.01994730  0.93632717  1
  Nd3+  Nd48  1  0.22664816  0.89018714  0.56394425  1
  Nd3+  Nd49  1  0.10436818  0.27112953  0.44766631  1
  Nd3+  Nd50  1  0.60029825  0.01834958  0.43718244  1
  Sm3+  Sm51  1  0.48865260  0.60658090  0.06275275  1
  Sm3+  Sm52  1  0.61980335  0.48207568  0.94430530  1
  Sm3+  Sm53  1  0.60522106  0.52119812  0.44464839  1
  Sm3+  Sm54  1  0.10598398  0.01813594  0.44096231  1
  Sm3+  Sm55  1  0.73075939  0.14448822  0.55511279  1
  Sm3+  Sm56  1  0.10371224  0.52180166  0.44190390  1
  Sm3+  Sm57  1  0.35307666  0.26786995  0.42944352  1
  Sm3+  Sm58  1  0.61577295  0.23117796  0.94404380  1
  Sm3+  Sm59  1  0.11796095  -0.02299642  0.94726280  1
  Sm3+  Sm60  1  -0.02143660  0.14384306  0.55378778  1
  Sm3+  Sm61  1  -0.00243711  0.60599268  0.05944575  1
  Sm3+  Sm62  1  0.47736514  0.64863519  0.55582401  1
  Sm3+  Sm63  1  0.49085931  0.35794865  0.05389468  1
  Bi2+  Bi64  1  0.02797036  0.11624311  0.30450690  1
  Bi2+  Bi65  1  -0.02198536  0.19458650  0.79843329  1
  Bi2+  Bi66  1  -0.01373421  0.31142827  0.28928172  1
  Bi2+  Bi67  1  0.04637629  0.37009062  0.76804760  1
  Bi2+  Bi68  1  -0.02054796  0.58946804  0.29932677  1
  Bi2+  Bi69  1  -0.01835600  0.62442635  0.79118892  1
  Bi2+  Bi70  1  -0.00731928  0.91942550  0.28757892  1
  Bi2+  Bi71  1  -0.06899557  0.91087481  0.80054826  1
  Bi2+  Bi72  1  0.22899389  0.09409680  0.28870391  1
  Bi2+  Bi73  1  0.30362770  0.13696518  0.80004406  1
  Bi2+  Bi74  1  0.26538234  0.30739859  0.28913548  1
  Bi2+  Bi75  1  0.24336605  0.39194104  0.75799687  1
  Bi2+  Bi76  1  0.24930658  0.57411547  0.30087062  1
  Bi2+  Bi77  1  0.27159110  0.62425050  0.80958599  1
  Bi2+  Bi78  1  0.28279814  0.85067854  0.27844814  1
  Bi2+  Bi79  1  0.30051631  0.88085359  0.79949992  1
  Bi2+  Bi80  1  0.47954609  0.20604185  0.29158960  1
  Bi2+  Bi81  1  0.54306710  0.12391815  0.81164483  1
  Bi2+  Bi82  1  0.58633416  0.36896181  0.30994018  1
  Bi2+  Bi83  1  0.55776286  0.41768208  0.75130182  1
  Bi2+  Bi84  1  0.57096217  0.65759801  0.23954503  1
  Bi2+  Bi85  1  0.53365297  0.65801871  0.76321148  1
  Bi2+  Bi86  1  0.48768736  0.91674499  0.28488193  1
  Bi2+  Bi87  1  0.56930667  0.88784407  0.73906047  1
  Bi2+  Bi88  1  0.73137212  0.08176211  0.30958123  1
  Bi2+  Bi89  1  0.75237487  0.08460318  0.78673722  1
  Bi2+  Bi90  1  0.78702335  0.35058245  0.27174737  1
  Bi2+  Bi91  1  0.77336557  0.39935727  0.78548800  1
  Bi2+  Bi92  1  0.73052191  0.60328624  0.29294303  1
  Bi2+  Bi93  1  0.71787246  0.60106033  0.80131922  1
  Bi2+  Bi94  1  0.72971499  0.86810188  0.29148034  1
  Bi2+  Bi95  1  0.74935935  0.83027847  0.79405131  1
  Bi2+  Bi96  1  0.12461607  -0.00402070  0.20749864  1
  Bi2+  Bi97  1  0.09337089  0.03214432  0.78355574  1
  Bi2+  Bi98  1  0.18027018  0.20173610  0.18987689  1
  Bi2+  Bi99  1  0.13616101  0.20246891  0.72412200  1
  Bi2+  Bi100  1  0.12762673  0.38805734  0.21898750  1
  Bi2+  Bi101  1  0.10862430  0.53504632  0.71773519  1
  Bi2+  Bi102  1  0.12863770  0.74042217  0.22705692  1
  Bi2+  Bi103  1  0.14719195  0.75990688  0.70344311  1
  Bi2+  Bi104  1  0.37863375  0.01706645  0.21633063  1
  Bi2+  Bi105  1  0.39663980  0.03595072  0.69664205  1
  Bi2+  Bi106  1  0.37375391  0.20547057  0.17399991  1
  Bi2+  Bi107  1  0.37660487  0.28861573  0.69265927  1
  Bi2+  Bi108  1  0.39505561  0.38775346  0.21615242  1
  Bi2+  Bi109  1  0.39047743  0.52718287  0.73744784  1
  Bi2+  Bi110  1  0.39220309  0.72249764  0.21824725  1
  Bi2+  Bi111  1  0.38878897  0.77475712  0.70734207  1
  Bi2+  Bi112  1  0.66218989  0.03825193  0.20524097  1
  Bi2+  Bi113  1  0.72725041  -0.03196752  0.69516688  1
  Bi2+  Bi114  1  0.64068696  0.23491715  0.22523211  1
  Bi2+  Bi115  1  0.66494320  0.25078722  0.74730097  1
  Bi2+  Bi116  1  0.62371500  0.47540853  0.21264789  1
  Bi2+  Bi117  1  0.65867155  0.55799351  0.68925149  1
  Bi2+  Bi118  1  0.61891674  0.84325093  0.19607118  1
  Bi2+  Bi119  1  0.67371201  0.75655535  0.68099016  1
  Bi2+  Bi120  1  0.87334358  0.06821790  0.23273927  1
  Bi2+  Bi121  1  0.96443772  -0.01136821  0.70013799  1
  Bi2+  Bi122  1  0.90797085  0.25447069  0.18741302  1
  Bi2+  Bi123  1  0.86545848  0.22217865  0.70105312  1
  Bi2+  Bi124  1  0.88838202  0.51159401  0.21034836  1
  Bi2+  Bi125  1  0.86080000  0.49282397  0.69765356  1
  Bi2+  Bi126  1  0.86328624  0.76571586  0.20559332  1
  Bi2+  Bi127  1  0.87437897  0.73883474  0.72361744  1
  S2-  S128  1  -0.02425215  0.10653659  0.15169172  1
  S2-  S129  1  -0.00842153  0.14651375  0.65118204  1
  S2-  S130  1  -0.00477253  0.40555125  0.15280956  1
  S2-  S131  1  0.00964468  0.42090666  0.66258003  1
  S2-  S132  1  -0.06217550  0.63674089  0.15114853  1
  S2-  S133  1  0.08868733  0.65366488  0.63893800  1
  S2-  S134  1  0.07586367  0.85842478  0.15822827  1
  S2-  S135  1  0.10717920  0.88274859  0.64222209  1
  S2-  S136  1  0.26049295  -0.01692705  0.14403346  1
  S2-  S137  1  0.25683283  0.13282203  0.66290966  1
  S2-  S138  1  0.25921124  0.42531525  0.15051258  1
  S2-  S139  1  0.25036756  0.39254866  0.65200544  1
  S2-  S140  1  0.16231502  0.58646337  0.20677316  1
  S2-  S141  1  0.28450159  0.67670874  0.65878693  1
  S2-  S142  1  0.25573013  0.75439556  0.15931879  1
  S2-  S143  1  0.33542495  0.90370629  0.64337884  1
  S2-  S144  1  0.51001252  0.09512503  0.15494811  1
  S2-  S145  1  0.48749229  0.17805517  0.66867917  1
  S2-  S146  1  0.52006553  0.36999083  0.15025693  1
  S2-  S147  1  0.49159814  0.39586927  0.65206390  1
  S2-  S148  1  0.41403972  0.59693079  0.15067841  1
  S2-  S149  1  0.49788399  0.74683030  0.63513811  1
  S2-  S150  1  0.46022258  0.85388071  0.15660575  1
  S2-  S151  1  0.52705660  0.98676101  0.64829777  1
  S2-  S152  1  0.74883815  0.23311745  0.14078431  1
  S2-  S153  1  0.74773692  0.13041929  0.65184204  1
  S2-  S154  1  0.75437396  0.47452084  0.14577317  1
  S2-  S155  1  0.80351714  0.36491120  0.64459844  1
  S2-  S156  1  0.73447200  0.72398885  0.14870494  1
  S2-  S157  1  0.86584909  0.64527131  0.63997394  1
  S2-  S158  1  0.86817270  0.88223730  0.14250016  1
  S2-  S159  1  0.85879858  0.89623452  0.63769296  1
  S2-  S160  1  0.10570769  -0.07302619  0.35693286  1
  S2-  S161  1  0.20907453  -0.01403882  0.86385915  1
  S2-  S162  1  0.11580413  0.26052774  0.34974343  1
  S2-  S163  1  0.22050381  0.22775788  0.86106779  1
  S2-  S164  1  0.10725164  0.50492833  0.34365242  1
  S2-  S165  1  0.11603933  0.57158929  0.85292525  1
  S2-  S166  1  0.19117952  0.72343828  0.32882445  1
  S2-  S167  1  0.17297398  0.77914532  0.80872150  1
  S2-  S168  1  0.36244071  -0.09998277  0.35963467  1
  S2-  S169  1  0.41530950  0.00696201  0.83565956  1
  S2-  S170  1  0.35497938  0.14179059  0.35894035  1
  S2-  S171  1  0.43326860  0.23944609  0.83289389  1
  S2-  S172  1  0.34529320  0.39532629  0.35747134  1
  S2-  S173  1  0.36274869  0.49516168  0.84147482  1
  S2-  S174  1  0.36778553  0.63492476  0.35450246  1
  S2-  S175  1  0.37921597  0.75480476  0.84398329  1
  S2-  S176  1  0.59566398  -0.09808987  0.36009206  1
  S2-  S177  1  0.64842751  -0.00993884  0.85096500  1
  S2-  S178  1  0.58649995  0.13517690  0.35945178  1
  S2-  S179  1  0.67674667  0.22672681  0.85367387  1
  S2-  S180  1  0.59705418  0.53361537  0.34761947  1
  S2-  S181  1  0.62648635  0.46837363  0.84685789  1
  S2-  S182  1  0.72638058  0.73533759  0.35723732  1
  S2-  S183  1  0.62381527  0.73462434  0.84552032  1
  S2-  S184  1  0.85627234  -0.08555922  0.35416673  1
  S2-  S185  1  0.86297862  0.09316526  0.85892870  1
  S2-  S186  1  0.80418169  0.23106343  0.34252146  1
  S2-  S187  1  0.87375572  0.36663137  0.85886563  1
  S2-  S188  1  0.84696985  0.49638365  0.34452297  1
  S2-  S189  1  0.85431926  0.59773936  0.86135776  1
  S2-  S190  1  0.96979059  0.72925170  0.34810138  1
  S2-  S191  1  0.97271879  0.76626670  0.85382153  1
  S2-  S192  1  -0.01911358  0.14426607  0.44925033  1
  S2-  S193  1  -0.00141190  0.10510717  0.94935457  1
  S2-  S194  1  -0.02030910  0.39653129  0.45506350  1
  S2-  S195  1  -0.00045400  0.35479070  0.95227034  1
  S2-  S196  1  -0.01991082  0.64160474  0.45448989  1
  S2-  S197  1  -0.00429553  0.60970935  0.95732217  1
  S2-  S198  1  -0.01956156  0.89946546  0.45761329  1
  S2-  S199  1  -0.00566179  0.85784801  0.95970856  1
  S2-  S200  1  0.22658554  0.14554816  0.45625141  1
  S2-  S201  1  0.24055451  0.10394425  0.96497831  1
  S2-  S202  1  0.22651794  0.39475764  0.45411485  1
  S2-  S203  1  0.24376863  0.36153836  0.95514431  1
  S2-  S204  1  0.22508320  0.64253119  0.45479696  1
  S2-  S205  1  0.24196250  0.61197242  0.94995862  1
  S2-  S206  1  0.22904077  0.89636542  0.45723881  1
  S2-  S207  1  0.23407461  0.84845241  0.95905112  1
  S2-  S208  1  0.47657487  0.14776994  0.46182497  1
  S2-  S209  1  0.49133695  0.10631251  0.95147551  1
  S2-  S210  1  0.48316083  0.39343449  0.45166102  1
  S2-  S211  1  0.49378292  0.35809715  0.94932465  1
  S2-  S212  1  0.48614892  0.64705478  0.45422373  1
  S2-  S213  1  0.49607913  0.60744818  0.95464366  1
  S2-  S214  1  0.47874793  0.89258390  0.46305283  1
  S2-  S215  1  0.49396227  0.85885480  0.95132571  1
  S2-  S216  1  0.73104252  0.14587810  0.45324026  1
  S2-  S217  1  0.74010219  0.10802686  0.96260691  1
  S2-  S218  1  0.72585017  0.39290107  0.44987946  1
  S2-  S219  1  0.73689574  0.35697408  0.96105916  1
  S2-  S220  1  0.72816552  0.64077063  0.46131984  1
  S2-  S221  1  0.73952459  0.60478353  0.96305462  1
  S2-  S222  1  0.73085072  0.89895309  0.45903940  1
  S2-  S223  1  0.74596866  0.85602635  0.95622728  1
  S2-  S224  1  0.11445350  -0.01750701  0.04903885  1
  S2-  S225  1  0.10448745  0.02435001  0.54493272  1
  S2-  S226  1  0.11930570  0.23137757  0.04838862  1
  S2-  S227  1  0.10246761  0.27010065  0.55301855  1
  S2-  S228  1  0.12146079  0.48415783  0.04959680  1
  S2-  S229  1  0.10138179  0.51323603  0.54566460  1
  S2-  S230  1  0.11817922  0.72246973  0.05982934  1
  S2-  S231  1  0.10329340  0.76876086  0.53320299  1
  S2-  S232  1  0.36758144  -0.01914227  0.04017404  1
  S2-  S233  1  0.35347504  0.01988303  0.54284963  1
  S2-  S234  1  0.36893289  0.23287324  0.04064131  1
  S2-  S235  1  0.35579129  0.26787332  0.54188461  1
  S2-  S236  1  0.36838238  0.48306280  0.04608679  1
  S2-  S237  1  0.35563021  0.52393878  0.54557605  1
  S2-  S238  1  0.36757455  0.72954891  0.04897819  1
  S2-  S239  1  0.34937814  0.76368216  0.53772477  1
  S2-  S240  1  0.62172950  -0.01746485  0.05282177  1
  S2-  S241  1  0.61187741  0.02000809  0.54266634  1
  S2-  S242  1  0.61272605  0.23250453  0.04737105  1
  S2-  S243  1  0.60465618  0.26581050  0.54493154  1
  S2-  S244  1  0.61301196  0.48312473  0.04842738  1
  S2-  S245  1  0.60200456  0.52271176  0.54931037  1
  S2-  S246  1  0.61402126  0.72871618  0.04927587  1
  S2-  S247  1  0.61107366  0.77077282  0.53972594  1
  S2-  S248  1  0.86557682  -0.01249506  0.04074873  1
  S2-  S249  1  0.85599211  0.02482467  0.54076164  1
  S2-  S250  1  0.86975235  0.23382898  0.03764428  1
  S2-  S251  1  0.85529447  0.26658083  0.53995458  1
  S2-  S252  1  0.87267091  0.47967183  0.04202976  1
  S2-  S253  1  0.85266568  0.51628071  0.54404351  1
  S2-  S254  1  0.87059666  0.72925546  0.04060803  1
  S2-  S255  1  0.85460526  0.77036354  0.53640346  1
