# generated using pymatgen
data_La6Ce6Pr19Nd20Sm13(BiS2)64
_symmetry_space_group_name_H-M   'P 1'
_cell_length_a   16.13262028
_cell_length_b   16.15457318
_cell_length_c   27.25539301
_cell_angle_alpha   90.13470949
_cell_angle_beta   90.05147223
_cell_angle_gamma   89.97743105
_symmetry_Int_Tables_number   1
_chemical_formula_structural   La6Ce6Pr19Nd20Sm13(BiS2)64
_chemical_formula_sum   'La6 Ce6 Pr19 Nd20 Sm13 Bi64 S128'
_cell_volume   7103.15741697
_cell_formula_units_Z   1
loop_
 _symmetry_equiv_pos_site_id
 _symmetry_equiv_pos_as_xyz
  1  'x, y, z'
loop_
 _atom_type_symbol
 _atom_type_oxidation_number
  La3+  3.0
  Ce3+  3.0
  Pr3+  3.0
  Nd3+  3.0
  Sm3+  3.0
  Bi2+  2.0
  S2-  -2.0
loop_
 _atom_site_type_symbol
 _atom_site_label
 _atom_site_symmetry_multiplicity
 _atom_site_fract_x
 _atom_site_fract_y
 _atom_site_fract_z
 _atom_site_occupancy
  La3+  La0  1  0.62643577  0.74665620  0.92742154  1
  La3+  La1  1  -0.00125977  0.62668019  0.57307986  1
  La3+  La2  1  0.60196106  -0.00019888  0.89113343  1
  La3+  La3  1  0.62063429  0.49890542  0.37845340  1
  La3+  La4  1  0.13499142  0.74599568  0.91275519  1
  La3+  La5  1  0.00256576  0.87912524  0.58466230  1
  Ce3+  Ce6  1  0.36942612  0.50200422  0.43157934  1
  Ce3+  Ce7  1  0.50559077  0.37656445  0.05881780  1
  Ce3+  Ce8  1  0.24858541  0.62625784  0.06820058  1
  Ce3+  Ce9  1  0.49906483  0.12682051  0.55579444  1
  Ce3+  Ce10  1  0.62577126  0.50354926  0.93153698  1
  Ce3+  Ce11  1  0.00381662  0.62975418  0.05938438  1
  Pr3+  Pr12  1  0.24472877  0.87102500  0.07372603  1
  Pr3+  Pr13  1  0.10438552  -0.00203349  0.43214636  1
  Pr3+  Pr14  1  0.11484750  0.75174566  0.44305882  1
  Pr3+  Pr15  1  0.73479469  0.13748057  0.58875750  1
  Pr3+  Pr16  1  0.62248217  0.25244433  0.43410740  1
  Pr3+  Pr17  1  0.24665452  0.38122666  0.07485557  1
  Pr3+  Pr18  1  0.25193607  0.13174338  0.06274217  1
  Pr3+  Pr19  1  0.00029979  0.12841329  0.05942139  1
  Pr3+  Pr20  1  0.24561057  0.37553816  0.55472012  1
  Pr3+  Pr21  1  0.50401208  0.62923453  0.05814913  1
  Pr3+  Pr22  1  0.11990846  0.50303617  0.44213776  1
  Pr3+  Pr23  1  0.87639603  -0.00124024  0.92842759  1
  Pr3+  Pr24  1  0.25346247  0.62855375  0.56319140  1
  Pr3+  Pr25  1  0.37544956  0.25193994  0.94355844  1
  Pr3+  Pr26  1  0.86643912  0.50374570  0.44282182  1
  Pr3+  Pr27  1  0.87955506  0.25083658  0.93350068  1
  Pr3+  Pr28  1  0.62094722  0.75613773  0.43075990  1
  Pr3+  Pr29  1  -0.00603849  0.37655334  0.55715758  1
  Pr3+  Pr30  1  0.75113033  0.87956786  0.05239591  1
  Nd3+  Nd31  1  0.63261320  0.25239829  0.92678965  1
  Nd3+  Nd32  1  0.73300828  0.86912030  0.58404539  1
  Nd3+  Nd33  1  0.10931884  0.24116194  0.40440769  1
  Nd3+  Nd34  1  0.74275933  0.37970418  0.56148724  1
  Nd3+  Nd35  1  0.86874026  0.00254294  0.46422926  1
  Nd3+  Nd36  1  0.87904029  0.50410849  0.94746065  1
  Nd3+  Nd37  1  0.24305471  0.12896563  0.55535946  1
  Nd3+  Nd38  1  -0.00238885  0.12913999  0.57247471  1
  Nd3+  Nd39  1  0.12490053  0.25193197  0.93420292  1
  Nd3+  Nd40  1  0.87785689  0.75161889  0.94205261  1
  Nd3+  Nd41  1  0.50385231  0.87883602  0.05794472  1
  Nd3+  Nd42  1  0.36937122  0.25189683  0.43923002  1
  Nd3+  Nd43  1  0.75007123  0.12468052  0.04859984  1
  Nd3+  Nd44  1  0.00405607  0.87612111  0.05838719  1
  Nd3+  Nd45  1  0.86770811  0.25021648  0.44472020  1
  Nd3+  Nd46  1  0.62578803  0.00032072  0.43879073  1
  Nd3+  Nd47  1  0.49625172  0.62932000  0.55250564  1
  Nd3+  Nd48  1  0.36515422  0.00518483  0.44274444  1
  Nd3+  Nd49  1  0.37131163  0.00038689  0.94387122  1
  Nd3+  Nd50  1  0.49719420  0.38006708  0.55328250  1
  Sm3+  Sm51  1  0.50223495  0.12642550  0.05614595  1
  Sm3+  Sm52  1  0.24352516  0.87998806  0.55630242  1
  Sm3+  Sm53  1  0.74240257  0.62965533  0.55761702  1
  Sm3+  Sm54  1  0.86926109  0.75502552  0.45216747  1
  Sm3+  Sm55  1  0.13232729  0.50055440  0.93930322  1
  Sm3+  Sm56  1  0.36885952  0.75501466  0.44006066  1
  Sm3+  Sm57  1  -0.00009074  0.37738304  0.05675527  1
  Sm3+  Sm58  1  0.37289802  0.75185984  0.94337436  1
  Sm3+  Sm59  1  0.74981908  0.62783527  0.06200843  1
  Sm3+  Sm60  1  0.49680278  0.88018500  0.55582347  1
  Sm3+  Sm61  1  0.37448005  0.49928565  0.94843244  1
  Sm3+  Sm62  1  0.75006565  0.37562468  0.05766994  1
  Sm3+  Sm63  1  0.12662510  -0.00177481  0.94497859  1
  Bi2+  Bi64  1  -0.07989138  0.07737712  0.24905957  1
  Bi2+  Bi65  1  0.04210350  0.17053993  0.76804239  1
  Bi2+  Bi66  1  -0.04609813  0.34937392  0.28407642  1
  Bi2+  Bi67  1  0.03222895  0.37995471  0.79261718  1
  Bi2+  Bi68  1  0.01467067  0.66011114  0.31909379  1
  Bi2+  Bi69  1  -0.03673254  0.63310117  0.80651927  1
  Bi2+  Bi70  1  0.05087684  0.89718952  0.30468234  1
  Bi2+  Bi71  1  0.01210295  0.91518005  0.80122808  1
  Bi2+  Bi72  1  0.26804050  0.14133360  0.30304560  1
  Bi2+  Bi73  1  0.23001681  0.15835727  0.80182922  1
  Bi2+  Bi74  1  0.27339386  0.39073608  0.29395960  1
  Bi2+  Bi75  1  0.21982435  0.35639580  0.82971959  1
  Bi2+  Bi76  1  0.22564458  0.60784254  0.27731316  1
  Bi2+  Bi77  1  0.33245055  0.62093052  0.78521093  1
  Bi2+  Bi78  1  0.26403398  0.92747180  0.27511058  1
  Bi2+  Bi79  1  0.28479273  0.88893887  0.79436971  1
  Bi2+  Bi80  1  0.52240483  0.10639041  0.29642116  1
  Bi2+  Bi81  1  0.42389276  0.10647904  0.77664649  1
  Bi2+  Bi82  1  0.50131386  0.30590411  0.25918417  1
  Bi2+  Bi83  1  0.57588244  0.39140437  0.80930391  1
  Bi2+  Bi84  1  0.49026133  0.66844480  0.28954862  1
  Bi2+  Bi85  1  0.52660552  0.57539382  0.78579741  1
  Bi2+  Bi86  1  0.54985998  0.91571383  0.27897439  1
  Bi2+  Bi87  1  0.47134942  0.82920601  0.76518282  1
  Bi2+  Bi88  1  0.70619354  0.11729891  0.33908018  1
  Bi2+  Bi89  1  0.71922994  0.16962894  0.78545876  1
  Bi2+  Bi90  1  0.77613226  0.29303459  0.31676200  1
  Bi2+  Bi91  1  0.76689485  0.41261642  0.79179043  1
  Bi2+  Bi92  1  0.76039392  0.60871895  0.27904370  1
  Bi2+  Bi93  1  0.73558702  0.59268943  0.73075896  1
  Bi2+  Bi94  1  0.80246453  0.95559688  0.31090762  1
  Bi2+  Bi95  1  0.72738431  0.83462673  0.78394843  1
  Bi2+  Bi96  1  0.11093759  0.00333698  0.21604243  1
  Bi2+  Bi97  1  0.18994825  0.00361564  0.71794033  1
  Bi2+  Bi98  1  0.13127230  0.23395800  0.19601683  1
  Bi2+  Bi99  1  0.15612948  0.28120754  0.70069738  1
  Bi2+  Bi100  1  0.12143805  0.49023680  0.20300851  1
  Bi2+  Bi101  1  0.16774255  0.51599308  0.76654451  1
  Bi2+  Bi102  1  0.11461099  0.74283493  0.19793549  1
  Bi2+  Bi103  1  0.12310785  0.75210571  0.70845703  1
  Bi2+  Bi104  1  0.41331859  -0.03115338  0.20432520  1
  Bi2+  Bi105  1  0.37742618  -0.03908217  0.69668550  1
  Bi2+  Bi106  1  0.37407070  0.18028493  0.20523317  1
  Bi2+  Bi107  1  0.35051488  0.24726656  0.70990208  1
  Bi2+  Bi108  1  0.39487344  0.51065414  0.24700093  1
  Bi2+  Bi109  1  0.36492902  0.44426717  0.72466478  1
  Bi2+  Bi110  1  0.33643416  0.75846125  0.24025175  1
  Bi2+  Bi111  1  0.33839725  0.74783364  0.69346290  1
  Bi2+  Bi112  1  0.69191202  -0.01392502  0.21019532  1
  Bi2+  Bi113  1  0.62453210  0.00095522  0.70315809  1
  Bi2+  Bi114  1  0.64835601  0.19436481  0.22152503  1
  Bi2+  Bi115  1  0.54886378  0.26298191  0.71882500  1
  Bi2+  Bi116  1  0.63320108  0.48292852  0.17440217  1
  Bi2+  Bi117  1  0.65420378  0.42769174  0.69073697  1
  Bi2+  Bi118  1  0.60827378  0.73028013  0.18765096  1
  Bi2+  Bi119  1  0.56444522  0.69978967  0.69652533  1
  Bi2+  Bi120  1  0.87853004  -0.06821922  0.17641070  1
  Bi2+  Bi121  1  0.88382144  0.01545197  0.72693574  1
  Bi2+  Bi122  1  0.84304307  0.24651660  0.20817110  1
  Bi2+  Bi123  1  0.88756969  0.31360937  0.71197425  1
  Bi2+  Bi124  1  0.94308910  0.52892564  0.24421491  1
  Bi2+  Bi125  1  0.90904676  0.50474824  0.70452726  1
  Bi2+  Bi126  1  0.91195657  0.79017702  0.25107760  1
  Bi2+  Bi127  1  0.86246161  0.76127607  0.71347974  1
  S2-  S128  1  0.00725331  0.12340295  0.15913979  1
  S2-  S129  1  -0.01776363  0.11845134  0.67236940  1
  S2-  S130  1  0.03853875  0.35581138  0.15148279  1
  S2-  S131  1  0.01658216  0.39285838  0.65611827  1
  S2-  S132  1  0.00997480  0.62139858  0.15755584  1
  S2-  S133  1  -0.01408030  0.66100288  0.67170193  1
  S2-  S134  1  0.10468508  0.87811758  0.14165613  1
  S2-  S135  1  -0.02710786  0.87721285  0.68693863  1
  S2-  S136  1  0.22678121  0.09490934  0.15974996  1
  S2-  S137  1  0.20293105  0.13205064  0.65209210  1
  S2-  S138  1  0.26726815  0.29982444  0.16393960  1
  S2-  S139  1  0.25896425  0.40673780  0.65408610  1
  S2-  S140  1  0.24785369  0.51474450  0.14437416  1
  S2-  S141  1  0.19207387  0.63918824  0.65726419  1
  S2-  S142  1  0.25980360  0.74092963  0.14407583  1
  S2-  S143  1  0.15972163  0.88276641  0.64221757  1
  S2-  S144  1  0.49513042  0.09775101  0.15314249  1
  S2-  S145  1  0.57185724  0.13308807  0.64450961  1
  S2-  S146  1  0.50830480  0.36149425  0.15628492  1
  S2-  S147  1  0.49141244  0.39252335  0.65298868  1
  S2-  S148  1  0.50526647  0.60728329  0.15842783  1
  S2-  S149  1  0.43502567  0.62656887  0.64606729  1
  S2-  S150  1  0.49661332  0.83129113  0.15379449  1
  S2-  S151  1  0.57837397  0.87696836  0.64184025  1
  S2-  S152  1  0.75591872  0.12285796  0.14807463  1
  S2-  S153  1  0.76320517  0.10415396  0.68824752  1
  S2-  S154  1  0.76112443  0.37869791  0.15533982  1
  S2-  S155  1  0.75116252  0.29425269  0.64748594  1
  S2-  S156  1  0.74380188  0.61966727  0.16028416  1
  S2-  S157  1  0.73037321  0.70393954  0.64576069  1
  S2-  S158  1  0.72680441  0.84567801  0.15045961  1
  S2-  S159  1  0.76807456  0.90242961  0.68302517  1
  S2-  S160  1  0.13314635  0.09464591  0.34946845  1
  S2-  S161  1  0.14594580  -0.03667558  0.84969127  1
  S2-  S162  1  0.15398455  0.28331035  0.30629799  1
  S2-  S163  1  0.00539613  0.25113877  0.85939609  1
  S2-  S164  1  0.16068282  0.49785716  0.34442965  1
  S2-  S165  1  0.11418420  0.58825201  0.85551149  1
  S2-  S166  1  0.14589687  0.77503498  0.34549349  1
  S2-  S167  1  0.07865315  0.77075491  0.81252779  1
  S2-  S168  1  0.36213464  0.01172939  0.34426422  1
  S2-  S169  1  0.43430532  -0.00308408  0.85131575  1
  S2-  S170  1  0.37835541  0.27272590  0.34028831  1
  S2-  S171  1  0.36694008  0.24571080  0.84368953  1
  S2-  S172  1  0.44867918  0.51290857  0.34425638  1
  S2-  S173  1  0.32934520  0.48792996  0.85453034  1
  S2-  S174  1  0.39487744  0.77068711  0.34364820  1
  S2-  S175  1  0.28858671  0.75334490  0.85770778  1
  S2-  S176  1  0.64450269  -0.11203601  0.36159035  1
  S2-  S177  1  0.69796470  -0.00675632  0.80315527  1
  S2-  S178  1  0.60943436  0.33277742  0.34411440  1
  S2-  S179  1  0.59179145  0.16017532  0.84469806  1
  S2-  S180  1  0.64141125  0.49777001  0.26917324  1
  S2-  S181  1  0.64024784  0.61339971  0.85733102  1
  S2-  S182  1  0.63827120  0.66607178  0.34422429  1
  S2-  S183  1  0.59271500  0.83628162  0.84336482  1
  S2-  S184  1  0.94561283  -0.02302063  0.37554401  1
  S2-  S185  1  0.90255737  0.04671224  0.83284098  1
  S2-  S186  1  0.95010993  0.23348153  0.35681552  1
  S2-  S187  1  0.77180274  0.26706058  0.85442114  1
  S2-  S188  1  0.79518890  0.50410411  0.35106856  1
  S2-  S189  1  0.88441884  0.51139854  0.84818200  1
  S2-  S190  1  0.87600097  0.73615094  0.35357028  1
  S2-  S191  1  0.85537630  0.75304893  0.84274881  1
  S2-  S192  1  -0.00403737  0.13073722  0.46487748  1
  S2-  S193  1  0.00351469  0.12091179  0.95338794  1
  S2-  S194  1  -0.00406300  0.37742006  0.45045686  1
  S2-  S195  1  0.00432394  0.38160260  0.95316227  1
  S2-  S196  1  -0.00792955  0.62690502  0.46246163  1
  S2-  S197  1  0.00359218  0.62913932  0.95471059  1
  S2-  S198  1  -0.00653261  0.87170251  0.47381924  1
  S2-  S199  1  0.00491165  0.87365991  0.95015113  1
  S2-  S200  1  0.24036048  0.13165986  0.45102832  1
  S2-  S201  1  0.24726056  0.12617413  0.95382118  1
  S2-  S202  1  0.23936557  0.37033597  0.44745275  1
  S2-  S203  1  0.24997678  0.37622359  0.96473776  1
  S2-  S204  1  0.24707244  0.63044308  0.45271992  1
  S2-  S205  1  0.25354061  0.62353518  0.95962937  1
  S2-  S206  1  0.24206990  0.87979603  0.45147987  1
  S2-  S207  1  0.24976435  0.87629564  0.96125346  1
  S2-  S208  1  0.49593301  0.12521859  0.44956804  1
  S2-  S209  1  0.49947664  0.12489638  0.95345188  1
  S2-  S210  1  0.49436202  0.37876711  0.44847888  1
  S2-  S211  1  0.50213201  0.37622630  0.95046660  1
  S2-  S212  1  0.49092979  0.63180066  0.44815308  1
  S2-  S213  1  0.49283654  0.62562325  0.95029586  1
  S2-  S214  1  0.49048404  0.88122374  0.45248379  1
  S2-  S215  1  0.49633997  0.87598030  0.95282330  1
  S2-  S216  1  0.74548997  0.12707179  0.46623202  1
  S2-  S217  1  0.74879604  0.12017446  0.94395200  1
  S2-  S218  1  0.74453238  0.37765609  0.45631204  1
  S2-  S219  1  0.75209451  0.38159741  0.95355274  1
  S2-  S220  1  0.74614331  0.63207653  0.45599635  1
  S2-  S221  1  0.75623422  0.62642836  0.95780584  1
  S2-  S222  1  0.74986252  0.87649680  0.46942026  1
  S2-  S223  1  0.74940821  0.87781025  0.94468733  1
  S2-  S224  1  0.12754019  0.00480681  0.04730908  1
  S2-  S225  1  0.11997159  0.00529470  0.54325067  1
  S2-  S226  1  0.12396723  0.25365705  0.04305207  1
  S2-  S227  1  0.11912277  0.25334420  0.55159942  1
  S2-  S228  1  0.12021221  0.50108703  0.04352861  1
  S2-  S229  1  0.12264182  0.50347567  0.54938031  1
  S2-  S230  1  0.12449510  0.75084788  0.03922270  1
  S2-  S231  1  0.12414776  0.75037346  0.54885661  1
  S2-  S232  1  0.37482482  0.00183565  0.05042478  1
  S2-  S233  1  0.36908906  0.00241701  0.54913192  1
  S2-  S234  1  0.37968636  0.25262707  0.05038611  1
  S2-  S235  1  0.37274164  0.25120640  0.54682534  1
  S2-  S236  1  0.38025042  0.50024688  0.05103902  1
  S2-  S237  1  0.37106431  0.50158257  0.53937028  1
  S2-  S238  1  0.37901861  0.75306881  0.04561982  1
  S2-  S239  1  0.37071865  0.76015018  0.54521466  1
  S2-  S240  1  0.62497433  0.00351546  0.04927424  1
  S2-  S241  1  0.62282181  0.00257389  0.54498798  1
  S2-  S242  1  0.62789406  0.24984147  0.04198750  1
  S2-  S243  1  0.61882645  0.25571424  0.54248398  1
  S2-  S244  1  0.62977497  0.50260470  0.04115106  1
  S2-  S245  1  0.62071265  0.50682035  0.55415289  1
  S2-  S246  1  0.62890233  0.75163634  0.03907268  1
  S2-  S247  1  0.61652898  0.75247270  0.53937781  1
  S2-  S248  1  0.87925812  0.00124598  0.03841436  1
  S2-  S249  1  0.86758911  0.00367650  0.56879899  1
  S2-  S250  1  0.87477085  0.25387413  0.04316281  1
  S2-  S251  1  0.87117541  0.24982116  0.55101922  1
  S2-  S252  1  0.87476283  0.50172013  0.05390520  1
  S2-  S253  1  0.86726328  0.50537796  0.55180395  1
  S2-  S254  1  0.87602044  0.75227066  0.04976240  1
  S2-  S255  1  0.87131300  0.75407670  0.55740328  1
