# generated using pymatgen
data_La6Ce6Pr19Nd20Sm13(BiS2)64
_symmetry_space_group_name_H-M   'P 1'
_cell_length_a   16.10030921
_cell_length_b   16.13084587
_cell_length_c   27.25012831
_cell_angle_alpha   89.88630832
_cell_angle_beta   90.11751273
_cell_angle_gamma   89.95875336
_symmetry_Int_Tables_number   1
_chemical_formula_structural   La6Ce6Pr19Nd20Sm13(BiS2)64
_chemical_formula_sum   'La6 Ce6 Pr19 Nd20 Sm13 Bi64 S128'
_cell_volume   7077.14392316
_cell_formula_units_Z   1
loop_
 _symmetry_equiv_pos_site_id
 _symmetry_equiv_pos_as_xyz
  1  'x, y, z'
loop_
 _atom_type_symbol
 _atom_type_oxidation_number
  La3+  3.0
  Ce3+  3.0
  Pr3+  3.0
  Nd3+  3.0
  Sm3+  3.0
  Bi2+  2.0
  S2-  -2.0
loop_
 _atom_site_type_symbol
 _atom_site_label
 _atom_site_symmetry_multiplicity
 _atom_site_fract_x
 _atom_site_fract_y
 _atom_site_fract_z
 _atom_site_occupancy
  La3+  La0  1  0.74818533  0.87904798  0.61482894  1
  La3+  La1  1  0.49912167  0.12719770  0.56202368  1
  La3+  La2  1  0.49615588  0.87980482  0.56954509  1
  La3+  La3  1  0.13007141  0.25741792  0.40814978  1
  La3+  La4  1  0.87128202  0.51314245  0.40706590  1
  La3+  La5  1  0.25572142  0.36182840  0.60819278  1
  Ce3+  Ce6  1  0.12772900  0.00113253  0.41919938  1
  Ce3+  Ce7  1  0.22859405  0.11844369  0.06250394  1
  Ce3+  Ce8  1  -0.02050329  0.61654562  0.07206245  1
  Ce3+  Ce9  1  0.75250831  0.37361683  0.55978716  1
  Ce3+  Ce10  1  0.10230073  0.49047253  0.95104730  1
  Ce3+  Ce11  1  0.87490873  0.75253856  0.44401206  1
  Pr3+  Pr12  1  0.00411833  0.37402386  0.54940456  1
  Pr3+  Pr13  1  0.60557921  0.48846757  0.93190699  1
  Pr3+  Pr14  1  0.60007944  0.24236070  0.92726556  1
  Pr3+  Pr15  1  0.87996936  -0.00151597  0.42823681  1
  Pr3+  Pr16  1  0.86857867  0.25430763  0.42185298  1
  Pr3+  Pr17  1  0.23099616  0.36641447  0.06955669  1
  Pr3+  Pr18  1  0.37565690  -0.00299558  0.42410713  1
  Pr3+  Pr19  1  0.35364463  0.48964700  0.94669206  1
  Pr3+  Pr20  1  0.50040892  0.62602015  0.56308293  1
  Pr3+  Pr21  1  0.50794721  0.37615651  0.56663043  1
  Pr3+  Pr22  1  0.62423598  -0.00282800  0.43451068  1
  Pr3+  Pr23  1  -0.02578421  0.11982795  0.07731979  1
  Pr3+  Pr24  1  0.62592336  0.25397045  0.43344022  1
  Pr3+  Pr25  1  0.00172395  0.62325132  0.55207092  1
  Pr3+  Pr26  1  0.24714682  0.12936205  0.54573117  1
  Pr3+  Pr27  1  0.85519767  0.74263590  0.93755755  1
  Pr3+  Pr28  1  -0.02534940  0.36726537  0.08320374  1
  Pr3+  Pr29  1  0.75499039  0.62817337  0.56788843  1
  Pr3+  Pr30  1  -0.03024693  0.86754496  0.09066951  1
  Nd3+  Nd31  1  0.35306402  -0.00870159  0.94048476  1
  Nd3+  Nd32  1  0.48257028  0.11690520  0.05726589  1
  Nd3+  Nd33  1  0.37687366  0.25422743  0.43456599  1
  Nd3+  Nd34  1  0.24734776  0.61971365  0.56978113  1
  Nd3+  Nd35  1  0.37445355  0.75179248  0.44772092  1
  Nd3+  Nd36  1  0.48206237  0.86669168  0.05650119  1
  Nd3+  Nd37  1  0.48694364  0.36674875  0.06601127  1
  Nd3+  Nd38  1  0.10340761  0.74236736  0.93861554  1
  Nd3+  Nd39  1  0.72896010  0.61962532  0.05740630  1
  Nd3+  Nd40  1  0.62572090  0.50390811  0.43945002  1
  Nd3+  Nd41  1  0.13550342  0.50079270  0.42838221  1
  Nd3+  Nd42  1  0.22883035  0.86672694  0.06410689  1
  Nd3+  Nd43  1  0.59781083  0.74104214  0.92284387  1
  Nd3+  Nd44  1  0.12773576  0.75137131  0.44217065  1
  Nd3+  Nd45  1  0.85801478  0.49094603  0.94227642  1
  Nd3+  Nd46  1  0.60424053  -0.00641342  0.93756530  1
  Nd3+  Nd47  1  0.35025766  0.24306781  0.93530023  1
  Nd3+  Nd48  1  0.00077459  0.88128048  0.56279381  1
  Nd3+  Nd49  1  0.34720601  0.74270704  0.93179947  1
  Nd3+  Nd50  1  0.10269244  0.24307181  0.93738413  1
  Sm3+  Sm51  1  0.00305489  0.12850516  0.54084829  1
  Sm3+  Sm52  1  0.48267993  0.62051070  0.05125343  1
  Sm3+  Sm53  1  0.85861457  -0.00678708  0.94144993  1
  Sm3+  Sm54  1  0.73273641  0.11870620  0.05316722  1
  Sm3+  Sm55  1  0.62766083  0.75248141  0.45032615  1
  Sm3+  Sm56  1  0.73034717  0.36674313  0.06256097  1
  Sm3+  Sm57  1  0.85979159  0.24162882  0.93802947  1
  Sm3+  Sm58  1  0.25054807  0.88086737  0.56220528  1
  Sm3+  Sm59  1  0.10196024  -0.00590731  0.94963000  1
  Sm3+  Sm60  1  0.37462739  0.50006856  0.44355886  1
  Sm3+  Sm61  1  0.23151287  0.62027328  0.06172515  1
  Sm3+  Sm62  1  0.75427135  0.11968248  0.55189406  1
  Sm3+  Sm63  1  0.73192497  0.86745855  0.05542200  1
  Bi2+  Bi64  1  -0.02736747  0.10605268  0.29282802  1
  Bi2+  Bi65  1  -0.02070392  0.14402904  0.79329351  1
  Bi2+  Bi66  1  0.01340712  0.37002245  0.26624639  1
  Bi2+  Bi67  1  -0.06944009  0.39282511  0.77123584  1
  Bi2+  Bi68  1  0.08676032  0.62192766  0.28722565  1
  Bi2+  Bi69  1  0.06943740  0.62725724  0.80468531  1
  Bi2+  Bi70  1  0.02318371  0.87439550  0.26587961  1
  Bi2+  Bi71  1  0.07388123  0.88604070  0.77674716  1
  Bi2+  Bi72  1  0.34081030  0.11792676  0.29036440  1
  Bi2+  Bi73  1  0.18364754  0.11717437  0.78456625  1
  Bi2+  Bi74  1  0.26810721  0.39943644  0.29499449  1
  Bi2+  Bi75  1  0.22521391  0.38898615  0.81197650  1
  Bi2+  Bi76  1  0.31201128  0.60681431  0.27072856  1
  Bi2+  Bi77  1  0.23227293  0.60597132  0.73800736  1
  Bi2+  Bi78  1  0.25898780  0.85139994  0.29033657  1
  Bi2+  Bi79  1  0.26281442  0.85295198  0.79988942  1
  Bi2+  Bi80  1  0.50012285  0.22334037  0.32100447  1
  Bi2+  Bi81  1  0.51924143  0.11881462  0.80220339  1
  Bi2+  Bi82  1  0.49883764  0.42115308  0.33794998  1
  Bi2+  Bi83  1  0.50677364  0.40032674  0.80581209  1
  Bi2+  Bi84  1  0.50656120  0.60403211  0.29469134  1
  Bi2+  Bi85  1  0.43484374  0.64341098  0.76526555  1
  Bi2+  Bi86  1  0.50037476  0.87160081  0.29484448  1
  Bi2+  Bi87  1  0.51342966  0.86974194  0.80573155  1
  Bi2+  Bi88  1  0.66797280  0.12465550  0.29364197  1
  Bi2+  Bi89  1  0.79038549  0.16958965  0.72278344  1
  Bi2+  Bi90  1  0.67861137  0.38429697  0.28332788  1
  Bi2+  Bi91  1  0.75719965  0.31567473  0.80497047  1
  Bi2+  Bi92  1  0.71247392  0.65485493  0.30377948  1
  Bi2+  Bi93  1  0.86819199  0.63684047  0.78318156  1
  Bi2+  Bi94  1  0.73740652  0.91138353  0.31218163  1
  Bi2+  Bi95  1  0.78104723  0.89287398  0.81660482  1
  Bi2+  Bi96  1  0.15005264  -0.01348288  0.21155663  1
  Bi2+  Bi97  1  0.14076617  -0.04321216  0.67004131  1
  Bi2+  Bi98  1  0.14470883  0.22133630  0.21996211  1
  Bi2+  Bi99  1  0.10702312  0.22907169  0.70017763  1
  Bi2+  Bi100  1  0.15369707  0.50668413  0.20373281  1
  Bi2+  Bi101  1  0.06805806  0.49760060  0.71465464  1
  Bi2+  Bi102  1  0.13454499  0.74284568  0.19965609  1
  Bi2+  Bi103  1  0.16830496  0.75990219  0.66989149  1
  Bi2+  Bi104  1  0.43509513  0.01020941  0.21696911  1
  Bi2+  Bi105  1  0.30845847  -0.00220712  0.72747038  1
  Bi2+  Bi106  1  0.41008722  0.25764410  0.21400164  1
  Bi2+  Bi107  1  0.37451152  0.21770502  0.71056584  1
  Bi2+  Bi108  1  0.42485799  0.45238622  0.22618017  1
  Bi2+  Bi109  1  0.46737283  0.48958464  0.70482378  1
  Bi2+  Bi110  1  0.46002911  0.73613952  0.21072482  1
  Bi2+  Bi111  1  0.35774144  0.78443367  0.70521251  1
  Bi2+  Bi112  1  0.63283255  -0.02892880  0.22086782  1
  Bi2+  Bi113  1  0.61763051  0.01367327  0.70985293  1
  Bi2+  Bi114  1  0.60989694  0.24964912  0.20963681  1
  Bi2+  Bi115  1  0.62606366  0.28050958  0.71881990  1
  Bi2+  Bi116  1  0.64767887  0.51638048  0.20043730  1
  Bi2+  Bi117  1  0.66666122  0.47898626  0.75084224  1
  Bi2+  Bi118  1  0.65924329  0.71490676  0.19778114  1
  Bi2+  Bi119  1  0.64465269  0.74600682  0.72179221  1
  Bi2+  Bi120  1  0.84575984  -0.01228000  0.20607522  1
  Bi2+  Bi121  1  0.96286643  0.01378272  0.71106759  1
  Bi2+  Bi122  1  0.85498956  0.24630102  0.20656871  1
  Bi2+  Bi123  1  0.86847070  0.32152685  0.67019090  1
  Bi2+  Bi124  1  0.91822348  0.58532769  0.22615574  1
  Bi2+  Bi125  1  0.83257217  0.50957087  0.68962634  1
  Bi2+  Bi126  1  0.85616580  0.77762837  0.26409914  1
  Bi2+  Bi127  1  0.98086528  0.74792135  0.71214230  1
  S2-  S128  1  0.00194447  0.23507257  0.15582780  1
  S2-  S129  1  0.00370067  0.14020172  0.64093017  1
  S2-  S130  1  -0.00582557  0.50205260  0.15132391  1
  S2-  S131  1  0.08692214  0.36925099  0.64046450  1
  S2-  S132  1  -0.00786565  0.72619938  0.14914826  1
  S2-  S133  1  -0.01966410  0.60190813  0.65238207  1
  S2-  S134  1  -0.00433542  1.00271857  0.15501436  1
  S2-  S135  1  -0.08410346  0.88132754  0.64944192  1
  S2-  S136  1  0.23108205  0.11432106  0.16097605  1
  S2-  S137  1  0.25077925  0.18671176  0.64153979  1
  S2-  S138  1  0.20733011  0.34542943  0.16967942  1
  S2-  S139  1  0.25583256  0.33562303  0.72464345  1
  S2-  S140  1  0.25526852  0.62451004  0.15887905  1
  S2-  S141  1  0.26103670  0.52387812  0.65200659  1
  S2-  S142  1  0.24706678  0.87213176  0.16359217  1
  S2-  S143  1  0.36280700  0.91616285  0.63811760  1
  S2-  S144  1  0.50007686  0.13777346  0.15479980  1
  S2-  S145  1  0.50019111  0.11610940  0.66361838  1
  S2-  S146  1  0.60935108  0.37636467  0.13620604  1
  S2-  S147  1  0.41853688  0.34060307  0.65147548  1
  S2-  S148  1  0.52671391  0.61650106  0.14560638  1
  S2-  S149  1  0.52944068  0.63304737  0.66367549  1
  S2-  S150  1  0.50147466  0.88147871  0.15407974  1
  S2-  S151  1  0.58185948  0.87327686  0.65899833  1
  S2-  S152  1  0.78915761  0.12601292  0.14632191  1
  S2-  S153  1  0.74439030  0.05580153  0.64377812  1
  S2-  S154  1  0.82939850  0.36262978  0.14564171  1
  S2-  S155  1  0.64371403  0.37104256  0.63754768  1
  S2-  S156  1  0.77994334  0.61042724  0.15351140  1
  S2-  S157  1  0.75232864  0.71352977  0.65679829  1
  S2-  S158  1  0.81180558  0.86864874  0.14281121  1
  S2-  S159  1  0.74464369  0.89135715  0.72441285  1
  S2-  S160  1  0.00420043  -0.03550173  0.35203944  1
  S2-  S161  1  0.12419408  0.00309603  0.85135953  1
  S2-  S162  1  0.11543540  0.15263516  0.32068773  1
  S2-  S163  1  0.22524368  0.24195435  0.86162622  1
  S2-  S164  1  0.11567762  0.39846769  0.34388206  1
  S2-  S165  1  0.08824542  0.47692611  0.85421395  1
  S2-  S166  1  0.13599165  0.75661263  0.34244664  1
  S2-  S167  1  0.21868291  0.72741158  0.86203399  1
  S2-  S168  1  0.25495501  -0.01511364  0.34653059  1
  S2-  S169  1  0.41175334  -0.00134561  0.84653258  1
  S2-  S170  1  0.28786601  0.25793363  0.34627484  1
  S2-  S171  1  0.46140119  0.24495636  0.85607347  1
  S2-  S172  1  0.27801242  0.53619927  0.36120364  1
  S2-  S173  1  0.35675118  0.47704130  0.84623061  1
  S2-  S174  1  0.37013521  0.78936507  0.35013126  1
  S2-  S175  1  0.45737375  0.73764243  0.85361362  1
  S2-  S176  1  0.50871906  -0.00174902  0.35681417  1
  S2-  S177  1  0.63092209  -0.01978150  0.83922035  1
  S2-  S178  1  0.72968543  0.26421379  0.35166042  1
  S2-  S179  1  0.66223408  0.18305177  0.83828841  1
  S2-  S180  1  0.71854794  0.50671092  0.35473721  1
  S2-  S181  1  0.59662049  0.54063411  0.83651237  1
  S2-  S182  1  0.62261794  0.78333831  0.35266166  1
  S2-  S183  1  0.65685452  0.76525037  0.82894815  1
  S2-  S184  1  0.81766517  0.05821617  0.33705224  1
  S2-  S185  1  0.86827745  0.02798243  0.84515183  1
  S2-  S186  1  0.93583356  0.26257741  0.32490878  1
  S2-  S187  1  0.97717863  0.25456228  0.86549249  1
  S2-  S188  1  0.91431810  0.48162638  0.30463798  1
  S2-  S189  1  0.84755415  0.49811792  0.84256251  1
  S2-  S190  1  0.86912164  0.68296577  0.35464375  1
  S2-  S191  1  0.90402613  0.77260560  0.84230348  1
  S2-  S192  1  0.00070859  0.13178938  0.43806498  1
  S2-  S193  1  -0.02052931  0.11529810  0.96295026  1
  S2-  S194  1  -0.00861027  0.38472572  0.44222639  1
  S2-  S195  1  -0.02211881  0.36890458  0.96756225  1
  S2-  S196  1  0.00449765  0.62393368  0.44630377  1
  S2-  S197  1  -0.02009651  0.61857691  0.95725046  1
  S2-  S198  1  0.00294105  0.87104026  0.45593351  1
  S2-  S199  1  -0.01760989  0.87005721  0.95149394  1
  S2-  S200  1  0.25216595  0.12709289  0.44193032  1
  S2-  S201  1  0.22972221  0.11444697  0.95770420  1
  S2-  S202  1  0.25561351  0.37815928  0.44875463  1
  S2-  S203  1  0.22928338  0.36697242  0.96320350  1
  S2-  S204  1  0.25200051  0.62920820  0.46306433  1
  S2-  S205  1  0.22893412  0.61320001  0.95907222  1
  S2-  S206  1  0.24975008  0.87512524  0.45765503  1
  S2-  S207  1  0.22708836  0.87071500  0.95774677  1
  S2-  S208  1  0.50181473  0.12861635  0.45361649  1
  S2-  S209  1  0.47815154  0.11522466  0.95361409  1
  S2-  S210  1  0.50197288  0.37866575  0.45896683  1
  S2-  S211  1  0.48001477  0.36728334  0.96019625  1
  S2-  S212  1  0.50009758  0.62823944  0.45439355  1
  S2-  S213  1  0.47777713  0.61522641  0.94943551  1
  S2-  S214  1  0.50066459  0.87168671  0.46062846  1
  S2-  S215  1  0.47926305  0.86790262  0.95185366  1
  S2-  S216  1  0.74844646  0.12316621  0.44954433  1
  S2-  S217  1  0.73447253  0.11746520  0.95021565  1
  S2-  S218  1  0.75178839  0.38213599  0.45460169  1
  S2-  S219  1  0.73240961  0.36394910  0.95106177  1
  S2-  S220  1  0.75009483  0.62860664  0.46005823  1
  S2-  S221  1  0.72802573  0.61848675  0.94777927  1
  S2-  S222  1  0.75154117  0.87500073  0.44766093  1
  S2-  S223  1  0.73029982  0.86943152  0.95068361  1
  S2-  S224  1  0.10460007  -0.01003813  0.05294272  1
  S2-  S225  1  0.12481302  0.00177624  0.53371818  1
  S2-  S226  1  0.10690526  0.24258421  0.04755741  1
  S2-  S227  1  0.12359314  0.25061128  0.52874919  1
  S2-  S228  1  0.11164992  0.49444574  0.05473385  1
  S2-  S229  1  0.12711412  0.50160002  0.53799288  1
  S2-  S230  1  0.10804679  0.74310025  0.04496489  1
  S2-  S231  1  0.12665536  0.75304410  0.54800407  1
  S2-  S232  1  0.35639208  -0.00829068  0.04944478  1
  S2-  S233  1  0.37310094  0.00543939  0.53368064  1
  S2-  S234  1  0.35930688  0.24354090  0.04983890  1
  S2-  S235  1  0.37517480  0.25399611  0.54088084  1
  S2-  S236  1  0.36021332  0.49393745  0.05547338  1
  S2-  S237  1  0.37815705  0.49934899  0.54760923  1
  S2-  S238  1  0.35689910  0.74230632  0.04433809  1
  S2-  S239  1  0.37024179  0.74824495  0.55336322  1
  S2-  S240  1  0.60932292  -0.00743022  0.04626213  1
  S2-  S241  1  0.62579628  0.00071747  0.54305600  1
  S2-  S242  1  0.60823124  0.23902169  0.03884584  1
  S2-  S243  1  0.63030632  0.24418444  0.54130056  1
  S2-  S244  1  0.60617376  0.49647368  0.03846961  1
  S2-  S245  1  0.62834683  0.50706349  0.54537965  1
  S2-  S246  1  0.60661526  0.74487912  0.03825859  1
  S2-  S247  1  0.62652959  0.75316254  0.55278831  1
  S2-  S248  1  0.85484251  -0.00783759  0.04458615  1
  S2-  S249  1  0.88077322  0.00421937  0.53755283  1
  S2-  S250  1  0.85297436  0.24246012  0.04138205  1
  S2-  S251  1  0.87484408  0.24695316  0.53396911  1
  S2-  S252  1  0.85077996  0.49424486  0.04649317  1
  S2-  S253  1  0.87505981  0.50014842  0.54505230  1
  S2-  S254  1  0.85455233  0.74341603  0.04357180  1
  S2-  S255  1  0.87884188  0.75284907  0.54818714  1
