# generated using pymatgen
data_La6Ce6Pr19Nd20Sm13(BiS2)64
_symmetry_space_group_name_H-M   'P 1'
_cell_length_a   16.17671639
_cell_length_b   16.18680603
_cell_length_c   27.11141933
_cell_angle_alpha   89.95029974
_cell_angle_beta   89.97532167
_cell_angle_gamma   90.00458675
_symmetry_Int_Tables_number   1
_chemical_formula_structural   La6Ce6Pr19Nd20Sm13(BiS2)64
_chemical_formula_sum   'La6 Ce6 Pr19 Nd20 Sm13 Bi64 S128'
_cell_volume   7099.10473117
_cell_formula_units_Z   1
loop_
 _symmetry_equiv_pos_site_id
 _symmetry_equiv_pos_as_xyz
  1  'x, y, z'
loop_
 _atom_type_symbol
 _atom_type_oxidation_number
  La3+  3.0
  Ce3+  3.0
  Pr3+  3.0
  Nd3+  3.0
  Sm3+  3.0
  Bi2+  2.0
  S2-  -2.0
loop_
 _atom_site_type_symbol
 _atom_site_label
 _atom_site_symmetry_multiplicity
 _atom_site_fract_x
 _atom_site_fract_y
 _atom_site_fract_z
 _atom_site_occupancy
  La3+  La0  1  0.62866014  -0.01085318  0.39615202  1
  La3+  La1  1  0.75377348  0.61370821  0.06534201  1
  La3+  La2  1  0.76074114  0.12728429  0.07930702  1
  La3+  La3  1  0.49167431  0.86855216  0.08968035  1
  La3+  La4  1  0.88455936  0.49795001  0.89412036  1
  La3+  La5  1  0.38218245  -0.01004167  0.92608225  1
  Ce3+  Ce6  1  -0.00087977  0.36946233  0.55888080  1
  Ce3+  Ce7  1  0.38054196  -0.00580436  0.44342383  1
  Ce3+  Ce8  1  0.12828845  0.24209391  0.44894600  1
  Ce3+  Ce9  1  0.87117156  0.24290563  0.43828438  1
  Ce3+  Ce10  1  0.12420489  0.49679414  0.93514976  1
  Ce3+  Ce11  1  0.00197292  0.87138513  0.05668796  1
  Pr3+  Pr12  1  0.25072464  0.36949260  0.56465409  1
  Pr3+  Pr13  1  0.25284013  0.61943538  0.05218652  1
  Pr3+  Pr14  1  0.25500656  0.36960199  0.05871442  1
  Pr3+  Pr15  1  0.74782675  0.86967642  0.55473896  1
  Pr3+  Pr16  1  0.62844743  0.24195375  0.93700305  1
  Pr3+  Pr17  1  0.48737543  0.13664805  0.08052683  1
  Pr3+  Pr18  1  0.88185650  0.74575285  0.43054228  1
  Pr3+  Pr19  1  0.74571948  0.12388205  0.55804369  1
  Pr3+  Pr20  1  0.12879725  0.49503469  0.44892711  1
  Pr3+  Pr21  1  0.12755318  0.24547319  0.94039846  1
  Pr3+  Pr22  1  0.61873290  0.24460901  0.43547972  1
  Pr3+  Pr23  1  0.87502614  0.49385179  0.44154602  1
  Pr3+  Pr24  1  0.49715381  0.37822656  0.57314950  1
  Pr3+  Pr25  1  0.75274717  0.87004791  0.07285645  1
  Pr3+  Pr26  1  -0.00339443  0.12049952  0.55814040  1
  Pr3+  Pr27  1  0.63025169  0.50608230  0.92592558  1
  Pr3+  Pr28  1  0.24878165  0.11260152  0.57580935  1
  Pr3+  Pr29  1  0.50246053  0.87146319  0.56064841  1
  Pr3+  Pr30  1  0.24857779  0.62554204  0.56660634  1
  Nd3+  Nd31  1  0.50632356  0.37235671  0.05007704  1
  Nd3+  Nd32  1  0.25019314  0.86774233  0.57375365  1
  Nd3+  Nd33  1  0.74975079  0.36379738  0.58298245  1
  Nd3+  Nd34  1  0.87374571  -0.00696635  0.43576393  1
  Nd3+  Nd35  1  -0.00893653  0.86786187  0.56948669  1
  Nd3+  Nd36  1  0.38245193  0.74496794  0.93708653  1
  Nd3+  Nd37  1  0.87455086  0.23964866  0.92667531  1
  Nd3+  Nd38  1  0.25543968  0.11916931  0.05089297  1
  Nd3+  Nd39  1  0.12788512  -0.00428375  0.93944374  1
  Nd3+  Nd40  1  0.37650823  0.25618114  0.92066722  1
  Nd3+  Nd41  1  0.12502759  0.74660353  0.94368285  1
  Nd3+  Nd42  1  0.37718456  0.49809655  0.44120262  1
  Nd3+  Nd43  1  -0.00612781  0.61889360  0.56190970  1
  Nd3+  Nd44  1  0.38095198  0.50002671  0.93652517  1
  Nd3+  Nd45  1  0.50191668  0.12501785  0.56835282  1
  Nd3+  Nd46  1  0.50202549  0.62043872  0.56302342  1
  Nd3+  Nd47  1  0.00235937  0.61829041  0.05928335  1
  Nd3+  Nd48  1  0.50198581  0.61889274  0.06852410  1
  Nd3+  Nd49  1  0.38185926  0.74920788  0.44156203  1
  Nd3+  Nd50  1  0.63201075  0.73333854  0.40380976  1
  Sm3+  Sm51  1  0.25326037  0.87253800  0.05780232  1
  Sm3+  Sm52  1  0.62237585  -0.00220421  0.96024409  1
  Sm3+  Sm53  1  0.12440575  0.74877742  0.44271717  1
  Sm3+  Sm54  1  0.62990841  0.74611383  0.94965259  1
  Sm3+  Sm55  1  0.12852140  -0.00435527  0.45060854  1
  Sm3+  Sm56  1  0.62512006  0.49561457  0.44328095  1
  Sm3+  Sm57  1  0.37768374  0.24307589  0.45164373  1
  Sm3+  Sm58  1  0.87558776  0.74590647  0.94550742  1
  Sm3+  Sm59  1  0.00027203  0.37003020  0.04867979  1
  Sm3+  Sm60  1  0.74911101  0.61896763  0.55720071  1
  Sm3+  Sm61  1  0.00329912  0.12061284  0.05745888  1
  Sm3+  Sm62  1  0.87069367  -0.00300769  0.94391982  1
  Sm3+  Sm63  1  0.75570590  0.37115527  0.04269685  1
  Bi2+  Bi64  1  0.00678967  0.17250510  0.28743726  1
  Bi2+  Bi65  1  -0.00965242  0.07766072  0.78694563  1
  Bi2+  Bi66  1  0.00794253  0.38137291  0.25228406  1
  Bi2+  Bi67  1  -0.01307599  0.34188980  0.75807081  1
  Bi2+  Bi68  1  0.00724373  0.60472397  0.29859703  1
  Bi2+  Bi69  1  0.00547554  0.65310201  0.79278027  1
  Bi2+  Bi70  1  0.00990028  0.87978246  0.29524379  1
  Bi2+  Bi71  1  -0.07505922  0.89175469  0.78726168  1
  Bi2+  Bi72  1  0.24408878  0.09084713  0.30321899  1
  Bi2+  Bi73  1  0.25088894  0.12304414  0.80453221  1
  Bi2+  Bi74  1  0.18969364  0.36843743  0.29394953  1
  Bi2+  Bi75  1  0.24244683  0.36928824  0.78712623  1
  Bi2+  Bi76  1  0.19647613  0.64145932  0.28130519  1
  Bi2+  Bi77  1  0.26889537  0.63497730  0.79805161  1
  Bi2+  Bi78  1  0.24226877  0.89562218  0.29673329  1
  Bi2+  Bi79  1  0.23090989  0.83346382  0.78851622  1
  Bi2+  Bi80  1  0.50568174  0.14392539  0.29640877  1
  Bi2+  Bi81  1  0.52307972  0.11334393  0.80389210  1
  Bi2+  Bi82  1  0.46894772  0.39513305  0.28303743  1
  Bi2+  Bi83  1  0.48052274  0.46204434  0.77324565  1
  Bi2+  Bi84  1  0.48423580  0.60959069  0.29108520  1
  Bi2+  Bi85  1  0.46089400  0.63737777  0.82319758  1
  Bi2+  Bi86  1  0.47188398  0.87380128  0.28546724  1
  Bi2+  Bi87  1  0.50422846  0.82668833  0.79487649  1
  Bi2+  Bi88  1  0.76679681  0.14986614  0.29301315  1
  Bi2+  Bi89  1  0.74190582  0.09834959  0.79718476  1
  Bi2+  Bi90  1  0.70799508  0.42253063  0.24400872  1
  Bi2+  Bi91  1  0.73832590  0.35966363  0.78092769  1
  Bi2+  Bi92  1  0.76020111  0.59706559  0.28689245  1
  Bi2+  Bi93  1  0.73859871  0.66277248  0.78784788  1
  Bi2+  Bi94  1  0.77209210  0.86209447  0.28126115  1
  Bi2+  Bi95  1  0.73654160  0.85408379  0.80904847  1
  Bi2+  Bi96  1  0.15117860  0.02054628  0.19721573  1
  Bi2+  Bi97  1  0.11598377  -0.03704410  0.72957211  1
  Bi2+  Bi98  1  0.14868419  0.21592866  0.21257246  1
  Bi2+  Bi99  1  0.11932700  0.22018680  0.72265413  1
  Bi2+  Bi100  1  0.14117934  0.51043608  0.20067416  1
  Bi2+  Bi101  1  0.13236312  0.50835332  0.75066258  1
  Bi2+  Bi102  1  0.14475011  0.79737261  0.21487384  1
  Bi2+  Bi103  1  0.13316744  0.71671874  0.70760962  1
  Bi2+  Bi104  1  0.34619863  0.01583654  0.20954011  1
  Bi2+  Bi105  1  0.37205040  -0.01239358  0.71182908  1
  Bi2+  Bi106  1  0.33603845  0.25200617  0.25849573  1
  Bi2+  Bi107  1  0.37594483  0.26772637  0.71516017  1
  Bi2+  Bi108  1  0.36228660  0.49825961  0.20336965  1
  Bi2+  Bi109  1  0.33869952  0.54315090  0.70082309  1
  Bi2+  Bi110  1  0.34618656  0.74618002  0.21018326  1
  Bi2+  Bi111  1  0.41222950  0.72443710  0.71039840  1
  Bi2+  Bi112  1  0.65613755  0.00865952  0.19475854  1
  Bi2+  Bi113  1  0.64286254  -0.04200107  0.72648256  1
  Bi2+  Bi114  1  0.59057432  0.27469926  0.19920704  1
  Bi2+  Bi115  1  0.61471632  0.18661692  0.70738972  1
  Bi2+  Bi116  1  0.55395077  0.50698598  0.18233968  1
  Bi2+  Bi117  1  0.61773192  0.56255392  0.70909725  1
  Bi2+  Bi118  1  0.61753034  0.68255218  0.21802789  1
  Bi2+  Bi119  1  0.61972611  0.76177769  0.70914550  1
  Bi2+  Bi120  1  0.95769630  0.01941734  0.21946974  1
  Bi2+  Bi121  1  0.83110397  0.00389293  0.70319623  1
  Bi2+  Bi122  1  0.87230561  0.28076761  0.18973966  1
  Bi2+  Bi123  1  0.88704794  0.19292270  0.70897993  1
  Bi2+  Bi124  1  0.85021604  0.52883755  0.19094834  1
  Bi2+  Bi125  1  0.86919453  0.51072217  0.69669447  1
  Bi2+  Bi126  1  0.95244662  0.74300264  0.21915429  1
  Bi2+  Bi127  1  0.88172751  0.75310354  0.70559414  1
  S2-  S128  1  -0.08280448  0.13215723  0.14104638  1
  S2-  S129  1  0.01978027  0.11907781  0.65755403  1
  S2-  S130  1  0.00124129  0.35603906  0.14685477  1
  S2-  S131  1  -0.03288049  0.38470808  0.65413923  1
  S2-  S132  1  0.00265873  0.60476918  0.15885712  1
  S2-  S133  1  -0.00765766  0.62786833  0.66132593  1
  S2-  S134  1  -0.02522787  0.87794787  0.15235539  1
  S2-  S135  1  0.06295823  0.85845238  0.66261351  1
  S2-  S136  1  0.33457541  0.13046565  0.13760525  1
  S2-  S137  1  0.25908235  0.18403550  0.67077429  1
  S2-  S138  1  0.24736544  0.39723096  0.15826328  1
  S2-  S139  1  0.29873880  0.39106185  0.66061590  1
  S2-  S140  1  0.27111144  0.62445000  0.15176668  1
  S2-  S141  1  0.25307640  0.73946219  0.64369237  1
  S2-  S142  1  0.33591511  0.87751653  0.14358943  1
  S2-  S143  1  0.24593118  0.98313593  0.64967157  1
  S2-  S144  1  0.52888838  0.12351391  0.18016633  1
  S2-  S145  1  0.47882002  0.09521928  0.66742475  1
  S2-  S146  1  0.46957713  0.30464178  0.13792313  1
  S2-  S147  1  0.52426655  0.30111784  0.66356689  1
  S2-  S148  1  0.48549722  0.71728128  0.14995518  1
  S2-  S149  1  0.50545102  0.51647410  0.64319878  1
  S2-  S150  1  0.53845606  0.90370688  0.18877258  1
  S2-  S151  1  0.43467052  0.87437080  0.65488367  1
  S2-  S152  1  0.73340233  0.17094597  0.17890341  1
  S2-  S153  1  0.74702599  0.21903041  0.64335080  1
  S2-  S154  1  0.76165095  0.39598138  0.14086161  1
  S2-  S155  1  0.73229747  0.42533690  0.67770509  1
  S2-  S156  1  0.76005961  0.66862850  0.16112016  1
  S2-  S157  1  0.77130571  0.63603857  0.65474132  1
  S2-  S158  1  0.76259047  0.88961875  0.17417161  1
  S2-  S159  1  0.85261947  0.86272150  0.63621995  1
  S2-  S160  1  0.11816447  -0.01605430  0.35217557  1
  S2-  S161  1  0.16421978  -0.00013307  0.84202398  1
  S2-  S162  1  0.14005937  0.22889221  0.35235597  1
  S2-  S163  1  0.14560612  0.25045905  0.84035842  1
  S2-  S164  1  0.13968799  0.51387665  0.34954502  1
  S2-  S165  1  0.04342896  0.50540111  0.84819883  1
  S2-  S166  1  0.01955241  0.74776317  0.36403038  1
  S2-  S167  1  0.10600777  0.76514258  0.84509469  1
  S2-  S168  1  0.45832802  0.00624598  0.35458145  1
  S2-  S169  1  0.38751797  0.02913180  0.82317781  1
  S2-  S170  1  0.41639307  0.25907074  0.35659119  1
  S2-  S171  1  0.39771069  0.22255430  0.82119399  1
  S2-  S172  1  0.38005471  0.50296941  0.34169904  1
  S2-  S173  1  0.36293780  0.41413012  0.85079991  1
  S2-  S174  1  0.41734432  0.74759071  0.34378544  1
  S2-  S175  1  0.36674684  0.84571786  0.85676555  1
  S2-  S176  1  0.63372561  0.04491735  0.29577991  1
  S2-  S177  1  0.62760672  0.00878323  0.86180872  1
  S2-  S178  1  0.64265443  0.23553636  0.33443781  1
  S2-  S179  1  0.64752555  0.23628904  0.83599879  1
  S2-  S180  1  0.62262222  0.57753248  0.35597492  1
  S2-  S181  1  0.61747307  0.43985254  0.82974024  1
  S2-  S182  1  0.61688208  0.85003710  0.33010831  1
  S2-  S183  1  0.62579838  0.65418551  0.86518933  1
  S2-  S184  1  0.80799129  -0.00288524  0.34304403  1
  S2-  S185  1  0.87067387  0.09915062  0.86391852  1
  S2-  S186  1  0.87695292  0.25059697  0.33986445  1
  S2-  S187  1  0.88335967  0.32504212  0.83788092  1
  S2-  S188  1  0.88491365  0.51334629  0.34160061  1
  S2-  S189  1  0.81759460  0.49952208  0.79681129  1
  S2-  S190  1  0.78473253  0.74373140  0.34616853  1
  S2-  S191  1  0.87913973  0.67051578  0.85702489  1
  S2-  S192  1  0.00020358  0.11719472  0.45027065  1
  S2-  S193  1  0.00366412  0.11835138  0.95383221  1
  S2-  S194  1  0.00216749  0.36859287  0.45068229  1
  S2-  S195  1  0.00028420  0.36968395  0.94464259  1
  S2-  S196  1  0.00287898  0.61657550  0.45697950  1
  S2-  S197  1  0.00130912  0.62270767  0.95443790  1
  S2-  S198  1  0.00136765  0.87584758  0.46083367  1
  S2-  S199  1  -0.00238244  0.87410927  0.94890096  1
  S2-  S200  1  0.25400134  0.11854037  0.46258037  1
  S2-  S201  1  0.25591061  0.12099522  0.94477395  1
  S2-  S202  1  0.25592124  0.36904356  0.45581303  1
  S2-  S203  1  0.24924376  0.37438016  0.95132551  1
  S2-  S204  1  0.25092025  0.62702562  0.45537652  1
  S2-  S205  1  0.25207455  0.62228600  0.94508186  1
  S2-  S206  1  0.25000650  0.86907187  0.45848693  1
  S2-  S207  1  0.24923613  0.86988272  0.95485466  1
  S2-  S208  1  0.50128470  0.11959294  0.46052042  1
  S2-  S209  1  0.50017149  0.12292949  0.95346478  1
  S2-  S210  1  0.49906879  0.37514532  0.45923833  1
  S2-  S211  1  0.50659577  0.37299337  0.94398785  1
  S2-  S212  1  0.50343164  0.62217063  0.45688994  1
  S2-  S213  1  0.50255492  0.62233907  0.96258932  1
  S2-  S214  1  0.51092780  0.86818405  0.45302640  1
  S2-  S215  1  0.50832924  0.86713364  0.95815265  1
  S2-  S216  1  0.74283499  0.11604887  0.45006747  1
  S2-  S217  1  0.74881421  0.11767111  0.96608185  1
  S2-  S218  1  0.74626648  0.37113913  0.44649157  1
  S2-  S219  1  0.75459126  0.37515158  0.93953994  1
  S2-  S220  1  0.74947393  0.61928415  0.45310285  1
  S2-  S221  1  0.75793508  0.62149416  0.95773124  1
  S2-  S222  1  0.74589751  0.86997059  0.44878707  1
  S2-  S223  1  0.75090836  0.87192281  0.96283569  1
  S2-  S224  1  0.12810695  -0.00313920  0.04743561  1
  S2-  S225  1  0.11868310  -0.00894853  0.55269666  1
  S2-  S226  1  0.12713261  0.24375156  0.04826637  1
  S2-  S227  1  0.12577816  0.24425818  0.55578610  1
  S2-  S228  1  0.12578529  0.49323312  0.04332501  1
  S2-  S229  1  0.12520389  0.49792434  0.55711611  1
  S2-  S230  1  0.12853449  0.74709904  0.05136533  1
  S2-  S231  1  0.11721830  0.74534057  0.54591645  1
  S2-  S232  1  0.37860120  -0.00554915  0.03907730  1
  S2-  S233  1  0.37795446  -0.00371475  0.54828213  1
  S2-  S234  1  0.37461816  0.24978852  0.02952599  1
  S2-  S235  1  0.37541299  0.24539600  0.55593489  1
  S2-  S236  1  0.37952387  0.49515812  0.04402619  1
  S2-  S237  1  0.37023831  0.50075678  0.54654394  1
  S2-  S238  1  0.37421880  0.74591364  0.04260141  1
  S2-  S239  1  0.37924289  0.74490075  0.54682044  1
  S2-  S240  1  0.62326836  -0.00019800  0.06501610  1
  S2-  S241  1  0.62602353  -0.00305358  0.56382400  1
  S2-  S242  1  0.63090511  0.24728069  0.04589674  1
  S2-  S243  1  0.62184615  0.25261480  0.54400108  1
  S2-  S244  1  0.62930934  0.49443065  0.03887224  1
  S2-  S245  1  0.63296700  0.49160507  0.54731619  1
  S2-  S246  1  0.62705650  0.74635786  0.05384013  1
  S2-  S247  1  0.62654786  0.74203796  0.55755562  1
  S2-  S248  1  0.87733510  -0.00419511  0.04767857  1
  S2-  S249  1  0.87047379  0.00049084  0.54263442  1
  S2-  S250  1  0.87932402  0.24772269  0.03551420  1
  S2-  S251  1  0.87357851  0.24886437  0.54451666  1
  S2-  S252  1  0.88130314  0.49268766  0.04447850  1
  S2-  S253  1  0.86915121  0.49114314  0.54897075  1
  S2-  S254  1  0.87815485  0.74506237  0.05060263  1
  S2-  S255  1  0.87193210  0.73930901  0.53838364  1
