# generated using pymatgen
data_La6Ce6Pr19Nd20Sm13(BiS2)64
_symmetry_space_group_name_H-M   'P 1'
_cell_length_a   16.07611627
_cell_length_b   16.07780077
_cell_length_c   27.63601223
_cell_angle_alpha   90.14100204
_cell_angle_beta   89.96216084
_cell_angle_gamma   90.06757227
_symmetry_Int_Tables_number   1
_chemical_formula_structural   La6Ce6Pr19Nd20Sm13(BiS2)64
_chemical_formula_sum   'La6 Ce6 Pr19 Nd20 Sm13 Bi64 S128'
_cell_volume   7143.01309996
_cell_formula_units_Z   1
loop_
 _symmetry_equiv_pos_site_id
 _symmetry_equiv_pos_as_xyz
  1  'x, y, z'
loop_
 _atom_type_symbol
 _atom_type_oxidation_number
  La3+  3.0
  Ce3+  3.0
  Pr3+  3.0
  Nd3+  3.0
  Sm3+  3.0
  Bi2+  2.0
  S2-  -2.0
loop_
 _atom_site_type_symbol
 _atom_site_label
 _atom_site_symmetry_multiplicity
 _atom_site_fract_x
 _atom_site_fract_y
 _atom_site_fract_z
 _atom_site_occupancy
  La3+  La0  1  0.41771975  0.23286626  0.94260779  1
  La3+  La1  1  0.04248484  0.10991953  0.07693073  1
  La3+  La2  1  0.67176785  0.23447312  0.91988273  1
  La3+  La3  1  0.01192860  0.63379231  0.58779133  1
  La3+  La4  1  0.29439880  0.85882454  0.08179114  1
  La3+  La5  1  0.41841897  0.73168259  0.93584483  1
  Ce3+  Ce6  1  0.15920417  0.73179556  0.95433186  1
  Ce3+  Ce7  1  0.37712654  0.25293394  0.43940875  1
  Ce3+  Ce8  1  0.62573980  0.25435975  0.44520054  1
  Ce3+  Ce9  1  0.74958572  0.13062043  0.55377778  1
  Ce3+  Ce10  1  0.68004672  0.73038484  0.92296546  1
  Ce3+  Ce11  1  0.37739135  0.75659823  0.44119294  1
  Pr3+  Pr12  1  0.38532901  0.50513397  0.42796285  1
  Pr3+  Pr13  1  0.75348100  0.63166404  0.55998808  1
  Pr3+  Pr14  1  0.67274210  -0.01972907  0.91994253  1
  Pr3+  Pr15  1  0.87738773  0.25887627  0.43737562  1
  Pr3+  Pr16  1  0.29707830  0.36050061  0.07600988  1
  Pr3+  Pr17  1  0.78627783  0.10862173  0.05960332  1
  Pr3+  Pr18  1  0.92435047  0.48547737  0.94414429  1
  Pr3+  Pr19  1  0.62980722  0.75731759  0.43817341  1
  Pr3+  Pr20  1  0.54023234  0.60905125  0.06090562  1
  Pr3+  Pr21  1  0.03537652  0.85928133  0.07842290  1
  Pr3+  Pr22  1  0.04619493  0.60842009  0.08616775  1
  Pr3+  Pr23  1  0.00442375  0.13377653  0.56107864  1
  Pr3+  Pr24  1  0.92037982  0.23352901  0.93945081  1
  Pr3+  Pr25  1  0.54599930  0.10459839  0.05900157  1
  Pr3+  Pr26  1  0.11792439  -0.00816503  0.40802100  1
  Pr3+  Pr27  1  0.54484504  0.36073918  0.06250131  1
  Pr3+  Pr28  1  0.62320451  0.00745067  0.43232526  1
  Pr3+  Pr29  1  0.00465776  0.88742801  0.57103719  1
  Pr3+  Pr30  1  0.78631198  0.35939222  0.05815389  1
  Nd3+  Nd31  1  0.12739794  0.25261830  0.43359868  1
  Nd3+  Nd32  1  0.00223364  0.38231379  0.55908684  1
  Nd3+  Nd33  1  0.37429009  0.00318501  0.43484232  1
  Nd3+  Nd34  1  0.91994474  -0.01898067  0.94161025  1
  Nd3+  Nd35  1  0.25030488  0.38362058  0.54999170  1
  Nd3+  Nd36  1  0.16915009  0.47947732  0.94131480  1
  Nd3+  Nd37  1  0.29322441  0.60602017  0.06702185  1
  Nd3+  Nd38  1  0.78481879  0.60933509  0.06323469  1
  Nd3+  Nd39  1  0.50115973  0.88153021  0.55812110  1
  Nd3+  Nd40  1  0.78368448  0.85694062  0.05937463  1
  Nd3+  Nd41  1  0.49933552  0.62966939  0.56241260  1
  Nd3+  Nd42  1  0.54062098  0.85764443  0.05876199  1
  Nd3+  Nd43  1  0.67429518  0.48469901  0.92312127  1
  Nd3+  Nd44  1  0.50205606  0.12825152  0.56167187  1
  Nd3+  Nd45  1  0.87920012  0.75566408  0.44236659  1
  Nd3+  Nd46  1  0.41671247  -0.01865060  0.93956499  1
  Nd3+  Nd47  1  0.16438928  -0.01755230  0.95207688  1
  Nd3+  Nd48  1  0.87827052  0.50674037  0.44144804  1
  Nd3+  Nd49  1  0.12886890  0.50596479  0.42984238  1
  Nd3+  Nd50  1  0.41517385  0.48198454  0.93710154  1
  Sm3+  Sm51  1  0.49797830  0.38094508  0.55822584  1
  Sm3+  Sm52  1  0.62530540  0.50535130  0.44486945  1
  Sm3+  Sm53  1  0.03972746  0.35938653  0.07583751  1
  Sm3+  Sm54  1  0.75199147  0.88177728  0.55428593  1
  Sm3+  Sm55  1  0.24988450  0.62983325  0.55298281  1
  Sm3+  Sm56  1  0.16588881  0.23444051  0.95517737  1
  Sm3+  Sm57  1  0.24885366  0.88345622  0.55483557  1
  Sm3+  Sm58  1  0.29833779  0.10795358  0.06874343  1
  Sm3+  Sm59  1  0.92426757  0.72993806  0.94421345  1
  Sm3+  Sm60  1  0.25060209  0.12900910  0.54774792  1
  Sm3+  Sm61  1  0.87996560  0.00612165  0.43742247  1
  Sm3+  Sm62  1  0.12484501  0.75572801  0.44208831  1
  Sm3+  Sm63  1  0.75240525  0.38219821  0.55863350  1
  Bi2+  Bi64  1  -0.03671287  0.12533877  0.27783051  1
  Bi2+  Bi65  1  -0.02799753  0.08055619  0.82715093  1
  Bi2+  Bi66  1  -0.09259170  0.40769881  0.25042671  1
  Bi2+  Bi67  1  -0.06471275  0.36703658  0.81763575  1
  Bi2+  Bi68  1  -0.08440931  0.66092757  0.30449712  1
  Bi2+  Bi69  1  -0.05338791  0.61595764  0.82179205  1
  Bi2+  Bi70  1  -0.05651393  0.92861885  0.25855254  1
  Bi2+  Bi71  1  0.01662199  0.86158703  0.81296772  1
  Bi2+  Bi72  1  0.22243135  0.18167346  0.28337294  1
  Bi2+  Bi73  1  0.24335670  0.16060484  0.74806758  1
  Bi2+  Bi74  1  0.19820272  0.41699228  0.29759098  1
  Bi2+  Bi75  1  0.19301495  0.42030628  0.80030127  1
  Bi2+  Bi76  1  0.25176635  0.67267003  0.23939592  1
  Bi2+  Bi77  1  0.21150703  0.60704953  0.74086111  1
  Bi2+  Bi78  1  0.24365218  0.86013547  0.28801564  1
  Bi2+  Bi79  1  0.25807798  0.89118885  0.74442502  1
  Bi2+  Bi80  1  0.53535017  0.10037035  0.29678546  1
  Bi2+  Bi81  1  0.48668967  0.12457155  0.79200147  1
  Bi2+  Bi82  1  0.43830674  0.40012236  0.30133152  1
  Bi2+  Bi83  1  0.46888383  0.39666727  0.81306309  1
  Bi2+  Bi84  1  0.52140159  0.60354695  0.27812424  1
  Bi2+  Bi85  1  0.47092755  0.60678029  0.81170730  1
  Bi2+  Bi86  1  0.49816578  0.86332303  0.30630870  1
  Bi2+  Bi87  1  0.49280269  0.88842992  0.79981476  1
  Bi2+  Bi88  1  0.76881493  0.15367887  0.27371437  1
  Bi2+  Bi89  1  0.72696175  0.04077194  0.77820411  1
  Bi2+  Bi90  1  0.72236862  0.41539586  0.29478497  1
  Bi2+  Bi91  1  0.69742473  0.34203371  0.75751187  1
  Bi2+  Bi92  1  0.72331514  0.61526855  0.28898204  1
  Bi2+  Bi93  1  0.72649895  0.59230091  0.76294733  1
  Bi2+  Bi94  1  0.75231154  0.88238122  0.27137452  1
  Bi2+  Bi95  1  0.78393607  0.84331837  0.74650954  1
  Bi2+  Bi96  1  0.12958339  0.01242972  0.21759524  1
  Bi2+  Bi97  1  0.12302633  0.01957791  0.70311708  1
  Bi2+  Bi98  1  0.07992007  0.31318047  0.22115095  1
  Bi2+  Bi99  1  0.06768831  0.23524982  0.77865297  1
  Bi2+  Bi100  1  0.08771113  0.55875097  0.22839047  1
  Bi2+  Bi101  1  0.10986693  0.43953694  0.68297508  1
  Bi2+  Bi102  1  0.06677296  0.76443971  0.25941337  1
  Bi2+  Bi103  1  0.10353393  0.77193815  0.72541928  1
  Bi2+  Bi104  1  0.35558013  -0.00417538  0.19924697  1
  Bi2+  Bi105  1  0.36695942  0.03572800  0.69232893  1
  Bi2+  Bi106  1  0.39610164  0.23484330  0.24433010  1
  Bi2+  Bi107  1  0.33595925  0.33505945  0.73666430  1
  Bi2+  Bi108  1  0.34631819  0.47755264  0.19560681  1
  Bi2+  Bi109  1  0.36693743  0.51852039  0.68569602  1
  Bi2+  Bi110  1  0.43266033  0.73353733  0.21114590  1
  Bi2+  Bi111  1  0.37486865  0.72474550  0.73235102  1
  Bi2+  Bi112  1  0.59406290  0.00468695  0.19077745  1
  Bi2+  Bi113  1  0.61672011  -0.00905436  0.68699789  1
  Bi2+  Bi114  1  0.59304461  0.27683473  0.24701350  1
  Bi2+  Bi115  1  0.59231515  0.20241872  0.71050705  1
  Bi2+  Bi116  1  0.61028983  0.48513179  0.20288116  1
  Bi2+  Bi117  1  0.56469147  0.49597338  0.73059878  1
  Bi2+  Bi118  1  0.65761985  0.74674457  0.20643338  1
  Bi2+  Bi119  1  0.61161560  0.75639504  0.76161322  1
  Bi2+  Bi120  1  0.79723036  0.02089666  0.18949463  1
  Bi2+  Bi121  1  0.93266411  -0.03000937  0.73274672  1
  Bi2+  Bi122  1  0.79721493  0.29103724  0.19285976  1
  Bi2+  Bi123  1  0.85070008  0.19876505  0.75817161  1
  Bi2+  Bi124  1  0.85623600  0.58898601  0.20168716  1
  Bi2+  Bi125  1  0.88716489  0.38864074  0.70444912  1
  Bi2+  Bi126  1  0.85714518  0.78451198  0.18159996  1
  Bi2+  Bi127  1  0.86670632  0.67971508  0.70268480  1
  S2-  S128  1  0.01922249  0.23614945  0.14798857  1
  S2-  S129  1  -0.00780623  0.02339608  0.63751612  1
  S2-  S130  1  0.02444895  0.47325409  0.15088654  1
  S2-  S131  1  0.01605675  0.30348823  0.64595326  1
  S2-  S132  1  0.01950045  0.74466194  0.15617974  1
  S2-  S133  1  -0.03902438  0.53839371  0.66653273  1
  S2-  S134  1  0.02129015  0.98932522  0.14864240  1
  S2-  S135  1  -0.00829540  0.77582076  0.64853209  1
  S2-  S136  1  0.23697951  0.10769418  0.16063168  1
  S2-  S137  1  0.22738643  0.12581978  0.64353878  1
  S2-  S138  1  0.22813323  0.36964295  0.17172417  1
  S2-  S139  1  0.24485197  0.37097164  0.64814138  1
  S2-  S140  1  0.19589407  0.60729702  0.15142992  1
  S2-  S141  1  0.17127522  0.60851799  0.63822283  1
  S2-  S142  1  0.22189346  0.88194275  0.17527384  1
  S2-  S143  1  0.20842547  0.86692999  0.64870521  1
  S2-  S144  1  0.45111668  0.08953128  0.14754644  1
  S2-  S145  1  0.45586873  0.16441986  0.65406163  1
  S2-  S146  1  0.43458337  0.37041448  0.14483868  1
  S2-  S147  1  0.49088931  0.41343603  0.65225645  1
  S2-  S148  1  0.42164010  0.60719920  0.13929383  1
  S2-  S149  1  0.46674605  0.65403328  0.65722640  1
  S2-  S150  1  0.43580225  0.86417525  0.14510196  1
  S2-  S151  1  0.47780379  0.91474890  0.65333082  1
  S2-  S152  1  0.66811022  0.11641551  0.13579123  1
  S2-  S153  1  0.71747162  0.12160046  0.64750526  1
  S2-  S154  1  0.67286976  0.36739771  0.13587326  1
  S2-  S155  1  0.74370815  0.37727913  0.65513067  1
  S2-  S156  1  0.66046348  0.61005716  0.13722724  1
  S2-  S157  1  0.72465980  0.62317373  0.65748779  1
  S2-  S158  1  0.65962264  0.86612863  0.13300387  1
  S2-  S159  1  0.72681629  0.87729888  0.64957129  1
  S2-  S160  1  0.19690307  0.03125884  0.32007827  1
  S2-  S161  1  0.11071126  -0.01592673  0.85725432  1
  S2-  S162  1  0.10469351  0.27721399  0.33768101  1
  S2-  S163  1  0.15778208  0.27708336  0.86132364  1
  S2-  S164  1  0.09209089  0.53121774  0.33485416  1
  S2-  S165  1  0.04974720  0.49346452  0.86741389  1
  S2-  S166  1  0.11671121  0.83217962  0.35543395  1
  S2-  S167  1  0.06050005  0.72027369  0.87313555  1
  S2-  S168  1  0.41578933  0.00788519  0.33920414  1
  S2-  S169  1  0.39265524  0.00358122  0.84204148  1
  S2-  S170  1  0.35283106  0.25399956  0.34431654  1
  S2-  S171  1  0.40256139  0.24213331  0.84355583  1
  S2-  S172  1  0.31320303  0.51301948  0.33631144  1
  S2-  S173  1  0.29298370  0.48767461  0.86464343  1
  S2-  S174  1  0.35906629  0.78235208  0.34582365  1
  S2-  S175  1  0.38616032  0.75348843  0.83845345  1
  S2-  S176  1  0.63808361  -0.02971864  0.33580722  1
  S2-  S177  1  0.63055352  0.10979123  0.84973345  1
  S2-  S178  1  0.60476082  0.23901226  0.35138652  1
  S2-  S179  1  0.63409444  0.36437024  0.84961062  1
  S2-  S180  1  0.53227360  0.49936052  0.36329477  1
  S2-  S181  1  0.64043769  0.60842870  0.85290503  1
  S2-  S182  1  0.57968599  0.73962104  0.34381414  1
  S2-  S183  1  0.63588218  0.84773296  0.85176154  1
  S2-  S184  1  0.96759233  0.00476754  0.35425375  1
  S2-  S185  1  0.82356921  -0.01497802  0.85827296  1
  S2-  S186  1  0.87972332  0.22073692  0.34027794  1
  S2-  S187  1  0.82300097  0.24167978  0.85555646  1
  S2-  S188  1  0.86340894  0.44844989  0.35004385  1
  S2-  S189  1  0.83326439  0.49121631  0.85459335  1
  S2-  S190  1  0.83229190  0.78719532  0.34951445  1
  S2-  S191  1  0.84062460  0.72343702  0.85664895  1
  S2-  S192  1  0.00254673  0.13105486  0.45368134  1
  S2-  S193  1  0.04267421  0.10981853  0.96644443  1
  S2-  S194  1  0.00437394  0.38164576  0.45186931  1
  S2-  S195  1  0.04328491  0.35451932  0.96960897  1
  S2-  S196  1  0.00325623  0.63150139  0.44835818  1
  S2-  S197  1  0.04516387  0.60656977  0.97706261  1
  S2-  S198  1  -0.00016366  0.88003157  0.45942069  1
  S2-  S199  1  0.03962439  0.86011607  0.97088724  1
  S2-  S200  1  0.24778418  0.12511438  0.44374827  1
  S2-  S201  1  0.28826047  0.10825303  0.95901536  1
  S2-  S202  1  0.25295329  0.38087096  0.44547619  1
  S2-  S203  1  0.29098736  0.35477954  0.96444420  1
  S2-  S204  1  0.25027988  0.63228695  0.44882044  1
  S2-  S205  1  0.28838981  0.61118895  0.96047603  1
  S2-  S206  1  0.24926412  0.88130862  0.45142339  1
  S2-  S207  1  0.28714168  0.85782245  0.95365892  1
  S2-  S208  1  0.49899315  0.12862376  0.45519425  1
  S2-  S209  1  0.53914444  0.10509694  0.95329232  1
  S2-  S210  1  0.50222591  0.37709234  0.45641732  1
  S2-  S211  1  0.53976493  0.36063574  0.95507399  1
  S2-  S212  1  0.50371235  0.63337598  0.45738743  1
  S2-  S213  1  0.53856002  0.60527841  0.95412901  1
  S2-  S214  1  0.50169027  0.88072102  0.45258570  1
  S2-  S215  1  0.53919859  0.85894856  0.95363689  1
  S2-  S216  1  0.75373294  0.12879025  0.44711175  1
  S2-  S217  1  0.79413908  0.10833067  0.95583537  1
  S2-  S218  1  0.74872597  0.38231485  0.45468408  1
  S2-  S219  1  0.79504400  0.36074672  0.95522168  1
  S2-  S220  1  0.75098300  0.62854987  0.45215217  1
  S2-  S221  1  0.79615788  0.60868960  0.95995590  1
  S2-  S222  1  0.75315364  0.88520959  0.45107525  1
  S2-  S223  1  0.79883850  0.85400418  0.95649369  1
  S2-  S224  1  0.17176884  -0.01563871  0.05454719  1
  S2-  S225  1  0.12951569  0.00663770  0.53906940  1
  S2-  S226  1  0.17280882  0.23422027  0.05641546  1
  S2-  S227  1  0.12998885  0.25554672  0.53884756  1
  S2-  S228  1  0.16798719  0.47685169  0.04938350  1
  S2-  S229  1  0.12429211  0.50650804  0.53627338  1
  S2-  S230  1  0.16768721  0.73959838  0.05651522  1
  S2-  S231  1  0.12847699  0.75633254  0.54306422  1
  S2-  S232  1  0.41244822  -0.01769357  0.04244102  1
  S2-  S233  1  0.37477924  0.00554426  0.54147374  1
  S2-  S234  1  0.41728361  0.23060753  0.04871231  1
  S2-  S235  1  0.37497947  0.25570650  0.54473098  1
  S2-  S236  1  0.41589277  0.48269222  0.03954804  1
  S2-  S237  1  0.37612714  0.50755703  0.53921988  1
  S2-  S238  1  0.41287885  0.73609042  0.04218840  1
  S2-  S239  1  0.37263369  0.75656161  0.54788983  1
  S2-  S240  1  0.66747188  -0.01826146  0.03129693  1
  S2-  S241  1  0.62575262  0.00432062  0.53958589  1
  S2-  S242  1  0.66453927  0.23404442  0.03233251  1
  S2-  S243  1  0.62420001  0.25925112  0.55065523  1
  S2-  S244  1  0.66565025  0.48583020  0.03254502  1
  S2-  S245  1  0.62482567  0.50414461  0.54817766  1
  S2-  S246  1  0.66406164  0.73310629  0.03255779  1
  S2-  S247  1  0.62598520  0.75660001  0.54576840  1
  S2-  S248  1  0.90924506  -0.01745857  0.04689536  1
  S2-  S249  1  0.87323132  0.00630398  0.54040222  1
  S2-  S250  1  0.91178319  0.23431848  0.04626695  1
  S2-  S251  1  0.87453703  0.25696666  0.54417610  1
  S2-  S252  1  0.91019851  0.48444691  0.05216740  1
  S2-  S253  1  0.87775336  0.50632447  0.54727133  1
  S2-  S254  1  0.91065903  0.73185947  0.04946356  1
  S2-  S255  1  0.87625369  0.75705015  0.54705920  1
