# generated using pymatgen
data_La6Ce6Pr19Nd20Sm13(BiS2)64
_symmetry_space_group_name_H-M   'P 1'
_cell_length_a   16.13359905
_cell_length_b   16.08776470
_cell_length_c   27.14605618
_cell_angle_alpha   89.92635045
_cell_angle_beta   90.14255776
_cell_angle_gamma   90.05140839
_symmetry_Int_Tables_number   1
_chemical_formula_structural   La6Ce6Pr19Nd20Sm13(BiS2)64
_chemical_formula_sum   'La6 Ce6 Pr19 Nd20 Sm13 Bi64 S128'
_cell_volume   7045.82467105
_cell_formula_units_Z   1
loop_
 _symmetry_equiv_pos_site_id
 _symmetry_equiv_pos_as_xyz
  1  'x, y, z'
loop_
 _atom_type_symbol
 _atom_type_oxidation_number
  La3+  3.0
  Ce3+  3.0
  Pr3+  3.0
  Nd3+  3.0
  Sm3+  3.0
  Bi2+  2.0
  S2-  -2.0
loop_
 _atom_site_type_symbol
 _atom_site_label
 _atom_site_symmetry_multiplicity
 _atom_site_fract_x
 _atom_site_fract_y
 _atom_site_fract_z
 _atom_site_occupancy
  La3+  La0  1  0.24963031  0.12447946  0.57579703  1
  La3+  La1  1  0.37521952  0.26345147  0.43236826  1
  La3+  La2  1  0.01772097  0.12067459  0.08499772  1
  La3+  La3  1  0.12202562  0.76100408  0.42697964  1
  La3+  La4  1  0.25068473  0.38876255  0.57983088  1
  La3+  La5  1  -0.01200580  0.63463253  0.60265780  1
  Ce3+  Ce6  1  0.25431163  0.61467053  0.06706313  1
  Ce3+  Ce7  1  0.26839838  0.11499060  0.06775469  1
  Ce3+  Ce8  1  0.36854652  0.01275477  0.43081790  1
  Ce3+  Ce9  1  0.76814294  0.86067353  0.05860788  1
  Ce3+  Ce10  1  0.88799174  0.23707589  0.93893579  1
  Ce3+  Ce11  1  0.01339675  0.86305036  0.04706259  1
  Pr3+  Pr12  1  -0.00730186  0.13156742  0.57409133  1
  Pr3+  Pr13  1  0.24405282  0.88248068  0.54922752  1
  Pr3+  Pr14  1  0.61883375  0.26398897  0.44539722  1
  Pr3+  Pr15  1  0.11499955  0.02158308  0.42470796  1
  Pr3+  Pr16  1  0.51300872  0.11342609  0.06697231  1
  Pr3+  Pr17  1  0.14860866  0.74155180  0.92524611  1
  Pr3+  Pr18  1  0.14632542  0.49118385  0.92448575  1
  Pr3+  Pr19  1  0.52791767  0.85434693  0.08659043  1
  Pr3+  Pr20  1  0.61997156  0.01263450  0.44026700  1
  Pr3+  Pr21  1  0.89126328  0.48284075  0.91695594  1
  Pr3+  Pr22  1  0.24545683  0.63918947  0.56565465  1
  Pr3+  Pr23  1  0.26261772  0.86077200  0.07323642  1
  Pr3+  Pr24  1  0.76756098  0.36387667  0.06039255  1
  Pr3+  Pr25  1  0.74542976  0.13585462  0.56984482  1
  Pr3+  Pr26  1  0.51385736  0.61576542  0.05944439  1
  Pr3+  Pr27  1  -0.00233432  0.88717798  0.56509026  1
  Pr3+  Pr28  1  0.63862963  0.23269579  0.92841640  1
  Pr3+  Pr29  1  0.88039284  0.73980918  0.91142554  1
  Pr3+  Pr30  1  0.12441799  0.26086847  0.45061836  1
  Nd3+  Nd31  1  0.63546533  0.74206227  0.93366444  1
  Nd3+  Nd32  1  0.26597070  0.36202018  0.05276184  1
  Nd3+  Nd33  1  0.49747687  0.63827255  0.56395551  1
  Nd3+  Nd34  1  0.87884301  0.76186756  0.42757923  1
  Nd3+  Nd35  1  0.51311520  0.36110572  0.05697170  1
  Nd3+  Nd36  1  0.87296318  0.26785375  0.43572318  1
  Nd3+  Nd37  1  0.38994230  0.22778626  0.91941734  1
  Nd3+  Nd38  1  0.01724239  0.36659317  0.05573765  1
  Nd3+  Nd39  1  0.74961601  0.38948346  0.55672296  1
  Nd3+  Nd40  1  0.37037533  0.51412422  0.43776816  1
  Nd3+  Nd41  1  0.76258937  0.11816415  0.07833845  1
  Nd3+  Nd42  1  0.88818831  -0.00776393  0.94465269  1
  Nd3+  Nd43  1  0.12463517  0.51412190  0.44941857  1
  Nd3+  Nd44  1  0.49561332  0.39221021  0.57208054  1
  Nd3+  Nd45  1  0.62284792  0.76211092  0.43524185  1
  Nd3+  Nd46  1  0.49418329  0.13598361  0.56652349  1
  Nd3+  Nd47  1  0.38699921  0.49049588  0.93820898  1
  Nd3+  Nd48  1  0.75265894  0.63899216  0.55629019  1
  Nd3+  Nd49  1  0.13983048  -0.00974823  0.93951346  1
  Nd3+  Nd50  1  0.37702966  0.76506527  0.39812648  1
  Sm3+  Sm51  1  0.77034154  0.61360037  0.04692949  1
  Sm3+  Sm52  1  0.61818103  0.51653755  0.44279721  1
  Sm3+  Sm53  1  0.87342485  0.02129305  0.43630301  1
  Sm3+  Sm54  1  0.75082241  0.88398592  0.54858687  1
  Sm3+  Sm55  1  0.63794699  0.48823538  0.94587918  1
  Sm3+  Sm56  1  0.87317311  0.51165962  0.43467904  1
  Sm3+  Sm57  1  0.39220419  -0.01192632  0.94812113  1
  Sm3+  Sm58  1  0.14082184  0.23704047  0.94015270  1
  Sm3+  Sm59  1  0.63789344  -0.01018446  0.94375304  1
  Sm3+  Sm60  1  0.01577638  0.61739529  0.04533383  1
  Sm3+  Sm61  1  -0.00282106  0.38605866  0.56364399  1
  Sm3+  Sm62  1  0.49736373  0.88524538  0.55509625  1
  Sm3+  Sm63  1  0.39099779  0.74387012  0.94306927  1
  Bi2+  Bi64  1  -0.00744416  0.13270478  0.29789722  1
  Bi2+  Bi65  1  -0.04083051  0.11694400  0.78656006  1
  Bi2+  Bi66  1  0.01270713  0.35881252  0.29652551  1
  Bi2+  Bi67  1  -0.03667255  0.36296107  0.77457056  1
  Bi2+  Bi68  1  -0.03540086  0.62861966  0.27420801  1
  Bi2+  Bi69  1  -0.00546169  0.63117030  0.78669519  1
  Bi2+  Bi70  1  0.04714954  0.88441638  0.29084984  1
  Bi2+  Bi71  1  -0.03266346  0.92636797  0.77142497  1
  Bi2+  Bi72  1  0.28138898  0.19617448  0.27443835  1
  Bi2+  Bi73  1  0.22738514  0.11007320  0.81629765  1
  Bi2+  Bi74  1  0.20360037  0.38030442  0.30634873  1
  Bi2+  Bi75  1  0.20102090  0.37334736  0.80164337  1
  Bi2+  Bi76  1  0.24849876  0.61786575  0.28287167  1
  Bi2+  Bi77  1  0.23536385  0.64002435  0.79488027  1
  Bi2+  Bi78  1  0.27154248  0.88510611  0.27215100  1
  Bi2+  Bi79  1  0.36141741  0.85839231  0.77383131  1
  Bi2+  Bi80  1  0.50266444  0.14333717  0.29504721  1
  Bi2+  Bi81  1  0.51689447  0.12363760  0.79288119  1
  Bi2+  Bi82  1  0.47106688  0.39186970  0.28996172  1
  Bi2+  Bi83  1  0.49639020  0.41290342  0.79151759  1
  Bi2+  Bi84  1  0.51352865  0.61399618  0.28659297  1
  Bi2+  Bi85  1  0.48502763  0.68337873  0.80633171  1
  Bi2+  Bi86  1  0.52741923  0.89222946  0.28447108  1
  Bi2+  Bi87  1  0.50912593  0.86887554  0.85457427  1
  Bi2+  Bi88  1  0.75094564  0.17071024  0.28175322  1
  Bi2+  Bi89  1  0.76987427  0.16446287  0.80599792  1
  Bi2+  Bi90  1  0.74046834  0.36664757  0.29127953  1
  Bi2+  Bi91  1  0.69092481  0.34662625  0.79811449  1
  Bi2+  Bi92  1  0.78558656  0.61629012  0.31952930  1
  Bi2+  Bi93  1  0.67211894  0.63680852  0.78474894  1
  Bi2+  Bi94  1  0.76474362  0.81091766  0.31477077  1
  Bi2+  Bi95  1  0.66445055  0.88807544  0.78647508  1
  Bi2+  Bi96  1  0.06629007  0.01114930  0.20642835  1
  Bi2+  Bi97  1  0.13145931  -0.04175722  0.71165952  1
  Bi2+  Bi98  1  0.13532096  0.26427500  0.20551617  1
  Bi2+  Bi99  1  0.05312808  0.22574690  0.70915186  1
  Bi2+  Bi100  1  0.08291964  0.50294200  0.22005137  1
  Bi2+  Bi101  1  0.11988802  0.48314676  0.70547603  1
  Bi2+  Bi102  1  0.12582274  0.75054559  0.18365041  1
  Bi2+  Bi103  1  0.24494163  0.80601755  0.68474090  1
  Bi2+  Bi104  1  0.38832625  0.05245830  0.22330709  1
  Bi2+  Bi105  1  0.44368398  0.00857745  0.71485323  1
  Bi2+  Bi106  1  0.38065466  0.31157583  0.19387298  1
  Bi2+  Bi107  1  0.32821723  0.24634664  0.71362126  1
  Bi2+  Bi108  1  0.38145042  0.52352814  0.21812120  1
  Bi2+  Bi109  1  0.37836721  0.49577901  0.71434078  1
  Bi2+  Bi110  1  0.41553464  0.74219807  0.21124075  1
  Bi2+  Bi111  1  0.40576873  0.69585481  0.69830563  1
  Bi2+  Bi112  1  0.64643815  -0.01378757  0.21532206  1
  Bi2+  Bi113  1  0.61284747  0.10730280  0.67972481  1
  Bi2+  Bi114  1  0.62640893  0.25356564  0.20709104  1
  Bi2+  Bi115  1  0.57345243  0.29039851  0.70965104  1
  Bi2+  Bi116  1  0.71028812  0.52488983  0.22344141  1
  Bi2+  Bi117  1  0.63078537  0.48973250  0.71045432  1
  Bi2+  Bi118  1  0.69637213  0.72716195  0.21720163  1
  Bi2+  Bi119  1  0.59409958  0.76426932  0.70679362  1
  Bi2+  Bi120  1  0.83058346  -0.00717275  0.24318730  1
  Bi2+  Bi121  1  0.76384042  0.00369353  0.71553866  1
  Bi2+  Bi122  1  0.87888577  0.30837506  0.21568157  1
  Bi2+  Bi123  1  0.83629066  0.25998742  0.70957377  1
  Bi2+  Bi124  1  0.89487241  0.51045214  0.18516651  1
  Bi2+  Bi125  1  0.85208661  0.50687836  0.72009469  1
  Bi2+  Bi126  1  0.88791002  0.80320178  0.22390885  1
  Bi2+  Bi127  1  0.84626252  0.77082827  0.70845040  1
  S2-  S128  1  -0.08650121  0.06813523  0.16627169  1
  S2-  S129  1  0.02453981  0.00323552  0.64409853  1
  S2-  S130  1  0.00767749  0.27915593  0.14317608  1
  S2-  S131  1  -0.02431530  0.46768144  0.65030695  1
  S2-  S132  1  0.10821272  0.60010136  0.13032204  1
  S2-  S133  1  0.08163233  0.63699083  0.69487140  1
  S2-  S134  1  -0.01502050  0.80222624  0.13732196  1
  S2-  S135  1  -0.02937569  0.79078830  0.65156956  1
  S2-  S136  1  0.16135056  0.11890834  0.14800909  1
  S2-  S137  1  0.19635290  0.12765309  0.71578403  1
  S2-  S138  1  0.23811120  0.37778790  0.15134876  1
  S2-  S139  1  0.18167113  0.32374309  0.67175995  1
  S2-  S140  1  0.27984265  0.72387832  0.14254853  1
  S2-  S141  1  0.25394616  0.53264527  0.64844600  1
  S2-  S142  1  0.19666128  0.90378128  0.16952357  1
  S2-  S143  1  0.25219126  0.96630921  0.63795436  1
  S2-  S144  1  0.38966530  0.15012578  0.13983049  1
  S2-  S145  1  0.38331312  0.13841911  0.64542755  1
  S2-  S146  1  0.53830887  0.36926480  0.15651553  1
  S2-  S147  1  0.38576668  0.35926275  0.65020018  1
  S2-  S148  1  0.53180924  0.70090206  0.14652895  1
  S2-  S149  1  0.50831385  0.52818954  0.64311830  1
  S2-  S150  1  0.45009156  0.90351286  0.17498741  1
  S2-  S151  1  0.51257516  0.88936334  0.65445548  1
  S2-  S152  1  0.62657781  0.10535987  0.14656114  1
  S2-  S153  1  0.85879725  0.13230809  0.64640768  1
  S2-  S154  1  0.76507617  0.26174184  0.14210574  1
  S2-  S155  1  0.76117950  0.40056658  0.65593849  1
  S2-  S156  1  0.79312684  0.63910713  0.14340807  1
  S2-  S157  1  0.82111778  0.63230597  0.64905287  1
  S2-  S158  1  0.68304269  0.86126183  0.14459019  1
  S2-  S159  1  0.76121775  0.87658718  0.64761518  1
  S2-  S160  1  0.18206981  -0.02157938  0.32750805  1
  S2-  S161  1  0.14527661  -0.02457117  0.83902443  1
  S2-  S162  1  0.10402975  0.17688377  0.36176740  1
  S2-  S163  1  0.11463742  0.23994360  0.84183295  1
  S2-  S164  1  0.14639390  0.52695989  0.34935334  1
  S2-  S165  1  0.06930086  0.48642407  0.83119049  1
  S2-  S166  1  0.22832545  0.75806974  0.33917249  1
  S2-  S167  1  0.11135174  0.73291268  0.82472994  1
  S2-  S168  1  0.39053692  -0.08389515  0.34386961  1
  S2-  S169  1  0.38100063  0.07410836  0.86054140  1
  S2-  S170  1  0.36032339  0.13641150  0.35827850  1
  S2-  S171  1  0.31771206  0.27005418  0.82288037  1
  S2-  S172  1  0.35282537  0.39274911  0.36203246  1
  S2-  S173  1  0.28595856  0.50271704  0.85533588  1
  S2-  S174  1  0.37563869  0.61017117  0.35154424  1
  S2-  S175  1  0.29585788  0.74430156  0.85898885  1
  S2-  S176  1  0.60875453  0.01887278  0.33934610  1
  S2-  S177  1  0.64572593  0.08888496  0.86078418  1
  S2-  S178  1  0.53199977  0.26969371  0.35750861  1
  S2-  S179  1  0.52106018  0.26158637  0.85263763  1
  S2-  S180  1  0.58394026  0.49745784  0.34651931  1
  S2-  S181  1  0.62852645  0.49090467  0.84787242  1
  S2-  S182  1  0.53843986  0.75824892  0.34763889  1
  S2-  S183  1  0.72974717  0.75741244  0.85010099  1
  S2-  S184  1  0.97495349  -0.00806928  0.35676884  1
  S2-  S185  1  0.86889689  0.00315278  0.84524785  1
  S2-  S186  1  0.85411396  0.15020164  0.36209466  1
  S2-  S187  1  0.87936355  0.33486967  0.85772935  1
  S2-  S188  1  0.87842410  0.39308406  0.35932546  1
  S2-  S189  1  0.85702997  0.55706516  0.82520508  1
  S2-  S190  1  0.99834760  0.75356401  0.35060902  1
  S2-  S191  1  0.91586163  0.78086306  0.81106050  1
  S2-  S192  1  -0.01000628  0.14247374  0.46576302  1
  S2-  S193  1  0.01546232  0.11501955  0.94996504  1
  S2-  S194  1  0.00013298  0.38886633  0.45956078  1
  S2-  S195  1  0.01967862  0.36280094  0.95006334  1
  S2-  S196  1  -0.00559690  0.63033574  0.44650448  1
  S2-  S197  1  0.01279773  0.61579214  0.93993893  1
  S2-  S198  1  -0.00500955  0.88723362  0.45634002  1
  S2-  S199  1  0.01175478  0.86317916  0.93959845  1
  S2-  S200  1  0.24662533  0.13532882  0.46343001  1
  S2-  S201  1  0.26285360  0.11261644  0.95919166  1
  S2-  S202  1  0.24429294  0.38829920  0.46739759  1
  S2-  S203  1  0.26760985  0.35801472  0.94719104  1
  S2-  S204  1  0.24865266  0.64058997  0.45804779  1
  S2-  S205  1  0.26848662  0.61788386  0.96009343  1
  S2-  S206  1  0.24865182  0.88486606  0.44484429  1
  S2-  S207  1  0.26752164  0.86914091  0.95901845  1
  S2-  S208  1  0.49915185  0.13434728  0.46052238  1
  S2-  S209  1  0.51429528  0.11102884  0.96031622  1
  S2-  S210  1  0.50035739  0.39413102  0.46432677  1
  S2-  S211  1  0.51257290  0.36901800  0.95232837  1
  S2-  S212  1  0.49869109  0.64125016  0.45787437  1
  S2-  S213  1  0.51285437  0.61452240  0.95125448  1
  S2-  S214  1  0.49751931  0.88349166  0.45161373  1
  S2-  S215  1  0.51663339  0.86558637  0.96915122  1
  S2-  S216  1  0.74263069  0.13904353  0.46169129  1
  S2-  S217  1  0.76458275  0.11384840  0.96400692  1
  S2-  S218  1  0.74129927  0.39172512  0.45167412  1
  S2-  S219  1  0.75787603  0.36454058  0.95407253  1
  S2-  S220  1  0.74854272  0.63620006  0.44960450  1
  S2-  S221  1  0.76299384  0.60917808  0.94357090  1
  S2-  S222  1  0.75046534  0.88908300  0.44429913  1
  S2-  S223  1  0.76295836  0.86824049  0.95186766  1
  S2-  S224  1  0.13633238  -0.01169212  0.04653835  1
  S2-  S225  1  0.12176286  0.01252680  0.53580008  1
  S2-  S226  1  0.14074588  0.24042724  0.04323603  1
  S2-  S227  1  0.11898782  0.25794013  0.55717237  1
  S2-  S228  1  0.13948896  0.48592345  0.03249271  1
  S2-  S229  1  0.11378519  0.51548572  0.55418086  1
  S2-  S230  1  0.13757245  0.74181106  0.03397705  1
  S2-  S231  1  0.11696549  0.75629292  0.54606121  1
  S2-  S232  1  0.39007544  -0.01694455  0.05302565  1
  S2-  S233  1  0.37862237  0.00661774  0.53974579  1
  S2-  S234  1  0.39031257  0.24261401  0.03374581  1
  S2-  S235  1  0.37426097  0.26076635  0.54332454  1
  S2-  S236  1  0.38846807  0.49027882  0.04720531  1
  S2-  S237  1  0.37382389  0.51655684  0.54471913  1
  S2-  S238  1  0.39204196  0.74161731  0.04533818  1
  S2-  S239  1  0.37537708  0.76221872  0.55648032  1
  S2-  S240  1  0.64378795  -0.01282876  0.04652296  1
  S2-  S241  1  0.62401501  0.00732814  0.54770079  1
  S2-  S242  1  0.63795801  0.24168517  0.04041202  1
  S2-  S243  1  0.62149037  0.26507833  0.55383699  1
  S2-  S244  1  0.64209016  0.49123176  0.05152981  1
  S2-  S245  1  0.62798508  0.51529557  0.54662344  1
  S2-  S246  1  0.64650096  0.73352171  0.03934195  1
  S2-  S247  1  0.62445690  0.76194634  0.54406547  1
  S2-  S248  1  0.88847815  -0.00942413  0.05049859  1
  S2-  S249  1  0.86663920  0.00946922  0.54152812  1
  S2-  S250  1  0.89154320  0.23745677  0.04305762  1
  S2-  S251  1  0.87184882  0.26610292  0.54572125  1
  S2-  S252  1  0.89322688  0.48964876  0.03483220  1
  S2-  S253  1  0.87359136  0.51220911  0.53975784  1
  S2-  S254  1  0.88972814  0.73578840  0.02705291  1
  S2-  S255  1  0.87180985  0.76096203  0.53595685  1
