# generated using pymatgen
data_La6Ce6Pr19Nd20Sm13(BiS2)64
_symmetry_space_group_name_H-M   'P 1'
_cell_length_a   16.12030793
_cell_length_b   16.00436898
_cell_length_c   27.18493503
_cell_angle_alpha   89.81259946
_cell_angle_beta   90.11535426
_cell_angle_gamma   90.00221828
_symmetry_Int_Tables_number   1
_chemical_formula_structural   La6Ce6Pr19Nd20Sm13(BiS2)64
_chemical_formula_sum   'La6 Ce6 Pr19 Nd20 Sm13 Bi64 S128'
_cell_volume   7013.53526505
_cell_formula_units_Z   1
loop_
 _symmetry_equiv_pos_site_id
 _symmetry_equiv_pos_as_xyz
  1  'x, y, z'
loop_
 _atom_type_symbol
 _atom_type_oxidation_number
  La3+  3.0
  Ce3+  3.0
  Pr3+  3.0
  Nd3+  3.0
  Sm3+  3.0
  Bi2+  2.0
  S2-  -2.0
loop_
 _atom_site_type_symbol
 _atom_site_label
 _atom_site_symmetry_multiplicity
 _atom_site_fract_x
 _atom_site_fract_y
 _atom_site_fract_z
 _atom_site_occupancy
  La3+  La0  1  0.23885909  0.36959022  0.58567514  1
  La3+  La1  1  0.24789492  0.87756200  0.07983787  1
  La3+  La2  1  0.87289288  0.51699989  0.92151536  1
  La3+  La3  1  0.60826505  0.74073691  0.39087874  1
  La3+  La4  1  0.13115506  0.50361456  0.90148783  1
  La3+  La5  1  0.86912070  0.75224759  0.42539087  1
  Ce3+  Ce6  1  -0.01135897  0.36489268  0.57455809  1
  Ce3+  Ce7  1  0.00632230  0.63054192  0.05177735  1
  Ce3+  Ce8  1  -0.00875952  0.62176273  0.55946656  1
  Ce3+  Ce9  1  0.75805374  0.13582017  0.05524672  1
  Ce3+  Ce10  1  0.11854347  0.49944101  0.45014978  1
  Ce3+  Ce11  1  0.86665316  -0.00265642  0.43131326  1
  Pr3+  Pr12  1  0.49016955  0.12224443  0.56893237  1
  Pr3+  Pr13  1  0.62936584  0.25229805  0.92204820  1
  Pr3+  Pr14  1  0.35952216  0.24684290  0.43721612  1
  Pr3+  Pr15  1  0.62830673  0.51857942  0.92812737  1
  Pr3+  Pr16  1  0.52086006  0.13698452  0.07006191  1
  Pr3+  Pr17  1  0.24339261  0.62775727  0.57603380  1
  Pr3+  Pr18  1  0.27067900  0.13250932  0.09393394  1
  Pr3+  Pr19  1  0.75758905  0.87420647  0.07720324  1
  Pr3+  Pr20  1  0.86535400  0.50326495  0.43396968  1
  Pr3+  Pr21  1  0.26077563  0.38200893  0.06008112  1
  Pr3+  Pr22  1  0.74495281  0.12601676  0.55836903  1
  Pr3+  Pr23  1  0.61043308  0.24562226  0.43620964  1
  Pr3+  Pr24  1  0.00151102  0.88201937  0.06877143  1
  Pr3+  Pr25  1  0.11547161  0.26096571  0.42781249  1
  Pr3+  Pr26  1  0.49234318  0.36878819  0.57892928  1
  Pr3+  Pr27  1  0.74141164  0.62357094  0.55455054  1
  Pr3+  Pr28  1  0.23925372  0.12263969  0.56125634  1
  Pr3+  Pr29  1  0.13211821  0.76001256  0.92973494  1
  Pr3+  Pr30  1  0.37871194  0.25219536  0.93194522  1
  Nd3+  Nd31  1  0.50620364  0.64008733  0.06745304  1
  Nd3+  Nd32  1  0.01024241  0.14134854  0.09383612  1
  Nd3+  Nd33  1  0.50906929  0.38644530  0.05035142  1
  Nd3+  Nd34  1  0.49287045  0.87287745  0.56096708  1
  Nd3+  Nd35  1  0.37876280  0.76152633  0.93431376  1
  Nd3+  Nd36  1  0.13016051  0.01076014  0.95091941  1
  Nd3+  Nd37  1  -0.00488773  0.12382106  0.54690085  1
  Nd3+  Nd38  1  0.88618377  0.26620593  0.93218170  1
  Nd3+  Nd39  1  0.74393211  0.87171870  0.55812440  1
  Nd3+  Nd40  1  0.12373054  -0.00754580  0.40683387  1
  Nd3+  Nd41  1  0.49494730  0.62266880  0.56012893  1
  Nd3+  Nd42  1  0.88334379  0.01007768  0.94519601  1
  Nd3+  Nd43  1  -0.00876078  0.87392655  0.56082247  1
  Nd3+  Nd44  1  0.36643246  0.49818513  0.44918183  1
  Nd3+  Nd45  1  0.87044431  0.25445851  0.42659275  1
  Nd3+  Nd46  1  0.38112481  0.51251418  0.92669214  1
  Nd3+  Nd47  1  0.36697000  -0.00041703  0.43575811  1
  Nd3+  Nd48  1  0.61453820  0.49130755  0.43365920  1
  Nd3+  Nd49  1  0.00704519  0.38298094  0.05678535  1
  Nd3+  Nd50  1  0.74237841  0.37357198  0.56763693  1
  Sm3+  Sm51  1  0.24142543  0.87247948  0.56329829  1
  Sm3+  Sm52  1  0.63260452  0.00720184  0.93995918  1
  Sm3+  Sm53  1  0.63028230  0.76082742  0.94233122  1
  Sm3+  Sm54  1  0.25616929  0.63295011  0.05429717  1
  Sm3+  Sm55  1  0.76402539  0.62307226  0.07118684  1
  Sm3+  Sm56  1  0.12127767  0.75138204  0.44259793  1
  Sm3+  Sm57  1  0.50633823  0.88170629  0.06165259  1
  Sm3+  Sm58  1  0.13392443  0.25616044  0.94738244  1
  Sm3+  Sm59  1  0.87863888  0.75983038  0.93851208  1
  Sm3+  Sm60  1  0.61714592  -0.00623144  0.44449148  1
  Sm3+  Sm61  1  0.37987751  0.01139515  0.94794187  1
  Sm3+  Sm62  1  0.75640759  0.38675128  0.05187721  1
  Sm3+  Sm63  1  0.36912284  0.74930393  0.44027920  1
  Bi2+  Bi64  1  -0.05906380  0.15329449  0.27030866  1
  Bi2+  Bi65  1  -0.01365347  0.04658439  0.78117212  1
  Bi2+  Bi66  1  -0.02822120  0.39430519  0.30074681  1
  Bi2+  Bi67  1  0.01594961  0.30206575  0.79353178  1
  Bi2+  Bi68  1  0.01214021  0.61912176  0.28200526  1
  Bi2+  Bi69  1  -0.00459762  0.70450395  0.77564940  1
  Bi2+  Bi70  1  -0.01430249  0.89202581  0.28302198  1
  Bi2+  Bi71  1  0.07026715  0.87577346  0.81555604  1
  Bi2+  Bi72  1  0.30636372  0.14379364  0.29376695  1
  Bi2+  Bi73  1  0.25852022  0.07916787  0.78397005  1
  Bi2+  Bi74  1  0.23324926  0.41535779  0.28860983  1
  Bi2+  Bi75  1  0.25754536  0.35310128  0.79016659  1
  Bi2+  Bi76  1  0.19829436  0.64398559  0.31942092  1
  Bi2+  Bi77  1  0.26375630  0.64960244  0.79179909  1
  Bi2+  Bi78  1  0.23668771  0.83302124  0.29366814  1
  Bi2+  Bi79  1  0.26655577  0.84095814  0.82558146  1
  Bi2+  Bi80  1  0.57847397  0.07957030  0.30843123  1
  Bi2+  Bi81  1  0.48193442  0.07910524  0.78895906  1
  Bi2+  Bi82  1  0.46249423  0.33574253  0.30900617  1
  Bi2+  Bi83  1  0.51842762  0.44071884  0.79809410  1
  Bi2+  Bi84  1  0.37094130  0.59937803  0.27056467  1
  Bi2+  Bi85  1  0.51193899  0.64728410  0.78177860  1
  Bi2+  Bi86  1  0.47949369  0.87875916  0.29141634  1
  Bi2+  Bi87  1  0.45641041  0.88407760  0.82202165  1
  Bi2+  Bi88  1  0.76828931  0.13383509  0.32191928  1
  Bi2+  Bi89  1  0.73012978  0.04462465  0.78898098  1
  Bi2+  Bi90  1  0.69860929  0.30795178  0.27197187  1
  Bi2+  Bi91  1  0.78681971  0.36155754  0.79430288  1
  Bi2+  Bi92  1  0.74906181  0.56725356  0.29513749  1
  Bi2+  Bi93  1  0.75223403  0.63027891  0.78802865  1
  Bi2+  Bi94  1  0.74204255  0.90231781  0.27348525  1
  Bi2+  Bi95  1  0.65365368  0.87168532  0.82637450  1
  Bi2+  Bi96  1  0.12632785  0.00040650  0.21378494  1
  Bi2+  Bi97  1  0.21673245  -0.01453116  0.68132807  1
  Bi2+  Bi98  1  0.13480825  0.29795737  0.21295481  1
  Bi2+  Bi99  1  0.11148332  0.14549011  0.71094793  1
  Bi2+  Bi100  1  0.10984921  0.49515056  0.20470837  1
  Bi2+  Bi101  1  0.09536884  0.51565827  0.70671259  1
  Bi2+  Bi102  1  0.13011050  0.72813142  0.21220611  1
  Bi2+  Bi103  1  0.11665020  0.81336824  0.70762026  1
  Bi2+  Bi104  1  0.40258159  0.02015391  0.22488400  1
  Bi2+  Bi105  1  0.40953990  0.02707772  0.68234231  1
  Bi2+  Bi106  1  0.39637730  0.35289924  0.20506850  1
  Bi2+  Bi107  1  0.36476038  0.22557006  0.71339682  1
  Bi2+  Bi108  1  0.29889907  0.51650725  0.17622889  1
  Bi2+  Bi109  1  0.38707474  0.50607062  0.72038070  1
  Bi2+  Bi110  1  0.36815972  0.77482757  0.21475399  1
  Bi2+  Bi111  1  0.36179688  0.81312273  0.72300709  1
  Bi2+  Bi112  1  0.59933889  -0.04428309  0.20186588  1
  Bi2+  Bi113  1  0.59913320  -0.00994952  0.70697284  1
  Bi2+  Bi114  1  0.55982776  0.19435894  0.21361274  1
  Bi2+  Bi115  1  0.61428099  0.26045315  0.71813074  1
  Bi2+  Bi116  1  0.59131119  0.45069897  0.22156169  1
  Bi2+  Bi117  1  0.63072256  0.51696078  0.71185431  1
  Bi2+  Bi118  1  0.60385104  0.70521350  0.21195274  1
  Bi2+  Bi119  1  0.63906672  0.79608447  0.71731399  1
  Bi2+  Bi120  1  0.78302753  0.05938315  0.20687497  1
  Bi2+  Bi121  1  0.85709295  -0.01918630  0.69591587  1
  Bi2+  Bi122  1  0.85335994  0.30551326  0.20361917  1
  Bi2+  Bi123  1  0.86326471  0.17843155  0.70993283  1
  Bi2+  Bi124  1  0.86510289  0.50224613  0.20846115  1
  Bi2+  Bi125  1  0.87878171  0.51628035  0.69981240  1
  Bi2+  Bi126  1  0.86921426  0.74244502  0.20587314  1
  Bi2+  Bi127  1  0.82890034  0.80931032  0.75763826  1
  S2-  S128  1  -0.04567878  0.06030724  0.17936720  1
  S2-  S129  1  -0.01569110  0.19059141  0.63983259  1
  S2-  S130  1  -0.00559690  0.29885466  0.14644118  1
  S2-  S131  1  0.09881309  0.38468269  0.65066344  1
  S2-  S132  1  -0.07570012  0.63004957  0.13838615  1
  S2-  S133  1  -0.00937421  0.63980726  0.65748503  1
  S2-  S134  1  0.10395881  0.86753106  0.15206772  1
  S2-  S135  1  0.00388420  0.91340436  0.65831816  1
  S2-  S136  1  0.14082021  0.14101109  0.16509993  1
  S2-  S137  1  0.23535096  0.21713374  0.64759189  1
  S2-  S138  1  0.26724062  0.29117056  0.14749427  1
  S2-  S139  1  0.37427643  0.38024343  0.65782051  1
  S2-  S140  1  0.25996005  0.72401883  0.13987169  1
  S2-  S141  1  0.24069281  0.55816719  0.67227519  1
  S2-  S142  1  0.27365029  0.98480851  0.16013766  1
  S2-  S143  1  0.25393205  0.76807339  0.64349616  1
  S2-  S144  1  0.42251644  0.14307279  0.15312234  1
  S2-  S145  1  0.50514781  0.22383653  0.65120517  1
  S2-  S146  1  0.54977457  0.34318684  0.14530809  1
  S2-  S147  1  0.63027786  0.38228224  0.64837835  1
  S2-  S148  1  0.54285912  0.57268974  0.16150012  1
  S2-  S149  1  0.49902475  0.59827997  0.65951650  1
  S2-  S150  1  0.49599026  0.77493204  0.14083492  1
  S2-  S151  1  0.49446698  0.83782027  0.65994014  1
  S2-  S152  1  0.66383393  0.14225151  0.13700404  1
  S2-  S153  1  0.72472319  0.16961957  0.65623641  1
  S2-  S154  1  0.75370545  0.48262907  0.13502645  1
  S2-  S155  1  0.86101607  0.38114578  0.64547668  1
  S2-  S156  1  0.72571074  0.73174647  0.14835301  1
  S2-  S157  1  0.75614688  0.59753341  0.65547588  1
  S2-  S158  1  0.88438153  0.86745478  0.14882164  1
  S2-  S159  1  0.78061138  0.83405144  0.65402396  1
  S2-  S160  1  0.05789014  0.03756542  0.31386977  1
  S2-  S161  1  0.12736140  0.03589897  0.85021187  1
  S2-  S162  1  0.24316497  0.24867274  0.35481902  1
  S2-  S163  1  0.14920561  0.25827304  0.84773069  1
  S2-  S164  1  0.11405810  0.42823942  0.36108906  1
  S2-  S165  1  0.10444661  0.44471567  0.79959270  1
  S2-  S166  1  0.09667773  0.83654613  0.35579273  1
  S2-  S167  1  0.12018093  0.65464215  0.84509905  1
  S2-  S168  1  0.27438176  -0.00341928  0.34992413  1
  S2-  S169  1  0.36684280  0.10980228  0.86438692  1
  S2-  S170  1  0.44678905  0.17522479  0.35451243  1
  S2-  S171  1  0.39686620  0.32660111  0.83747972  1
  S2-  S172  1  0.37805512  0.47553869  0.34892566  1
  S2-  S173  1  0.27760397  0.49817379  0.84422362  1
  S2-  S174  1  0.44511139  0.74523024  0.35087998  1
  S2-  S175  1  0.40010753  0.65011859  0.85601426  1
  S2-  S176  1  0.61933762  -0.08415045  0.35578282  1
  S2-  S177  1  0.61930705  0.10495804  0.85816962  1
  S2-  S178  1  0.60641273  0.36075375  0.35911250  1
  S2-  S179  1  0.62955980  0.30645178  0.82135916  1
  S2-  S180  1  0.61041405  0.57761969  0.34455697  1
  S2-  S181  1  0.73634328  0.49238935  0.84755368  1
  S2-  S182  1  0.70325982  0.73891073  0.29849257  1
  S2-  S183  1  0.62646126  0.66345401  0.85926137  1
  S2-  S184  1  0.86870555  -0.11331223  0.35223047  1
  S2-  S185  1  0.86792377  -0.02014245  0.84702816  1
  S2-  S186  1  0.99529402  0.24699715  0.35104086  1
  S2-  S187  1  0.86946444  0.22338370  0.83471005  1
  S2-  S188  1  0.84285358  0.38910687  0.35720742  1
  S2-  S189  1  0.92366756  0.41951554  0.84196866  1
  S2-  S190  1  0.88098174  0.62441591  0.35284485  1
  S2-  S191  1  0.88002085  0.66509113  0.85474043  1
  S2-  S192  1  -0.00450637  0.11560144  0.44259772  1
  S2-  S193  1  0.00578638  0.13730087  0.95085025  1
  S2-  S194  1  -0.01020079  0.37915004  0.46219990  1
  S2-  S195  1  0.01545626  0.38552579  0.95120710  1
  S2-  S196  1  -0.00122489  0.62919424  0.45275933  1
  S2-  S197  1  0.00861096  0.63139157  0.94876729  1
  S2-  S198  1  -0.00299190  0.87944130  0.45571612  1
  S2-  S199  1  0.00406159  0.88101991  0.95636744  1
  S2-  S200  1  0.23551437  0.11536511  0.45467834  1
  S2-  S201  1  0.25388440  0.13209408  0.96441008  1
  S2-  S202  1  0.24348307  0.37699951  0.46484219  1
  S2-  S203  1  0.25536063  0.38439882  0.95249074  1
  S2-  S204  1  0.24447246  0.62849673  0.46088848  1
  S2-  S205  1  0.25232890  0.63141328  0.95148394  1
  S2-  S206  1  0.24524007  0.87223271  0.45757463  1
  S2-  S207  1  0.25595616  0.88679108  0.95951013  1
  S2-  S208  1  0.49345304  0.11534619  0.46284683  1
  S2-  S209  1  0.50899535  0.12902374  0.96189916  1
  S2-  S210  1  0.48561207  0.37087192  0.46296850  1
  S2-  S211  1  0.50726737  0.38570578  0.94459727  1
  S2-  S212  1  0.49208615  0.62510454  0.45406078  1
  S2-  S213  1  0.50362961  0.63877364  0.96029429  1
  S2-  S214  1  0.49149463  0.87290282  0.45549984  1
  S2-  S215  1  0.50561589  0.88618944  0.95674148  1
  S2-  S216  1  0.74001749  0.12123268  0.45035315  1
  S2-  S217  1  0.75993697  0.13409299  0.95036631  1
  S2-  S218  1  0.73943068  0.37035405  0.46037977  1
  S2-  S219  1  0.75252059  0.38042969  0.94838665  1
  S2-  S220  1  0.73387985  0.63065321  0.44825889  1
  S2-  S221  1  0.75448265  0.64021687  0.96111705  1
  S2-  S222  1  0.73988934  0.87157781  0.45365958  1
  S2-  S223  1  0.75749158  0.88336151  0.95994857  1
  S2-  S224  1  0.12421797  0.01391727  0.05531168  1
  S2-  S225  1  0.11737725  -0.00477401  0.54960736  1
  S2-  S226  1  0.13147390  0.25670943  0.04939207  1
  S2-  S227  1  0.11714771  0.24865460  0.53774009  1
  S2-  S228  1  0.13330231  0.50769248  0.05337104  1
  S2-  S229  1  0.11977359  0.50346739  0.55308052  1
  S2-  S230  1  0.12860017  0.75467668  0.03855675  1
  S2-  S231  1  0.11587452  0.75098036  0.54661203  1
  S2-  S232  1  0.38605643  0.00475237  0.05145480  1
  S2-  S233  1  0.36544413  -0.00508983  0.54472985  1
  S2-  S234  1  0.38875165  0.25821067  0.04107963  1
  S2-  S235  1  0.36697973  0.24555226  0.54509420  1
  S2-  S236  1  0.38334923  0.51158257  0.04076243  1
  S2-  S237  1  0.36611617  0.50194647  0.55397267  1
  S2-  S238  1  0.37874872  0.76066883  0.03919282  1
  S2-  S239  1  0.37057785  0.74916126  0.54488233  1
  S2-  S240  1  0.63590226  -0.00086827  0.04558526  1
  S2-  S241  1  0.61898398  -0.00204050  0.55093750  1
  S2-  S242  1  0.63613854  0.26377062  0.03260914  1
  S2-  S243  1  0.61687389  0.24609312  0.54277843  1
  S2-  S244  1  0.63080675  0.51174459  0.03726039  1
  S2-  S245  1  0.61567432  0.49821393  0.54285999  1
  S2-  S246  1  0.63192875  0.75908585  0.04396005  1
  S2-  S247  1  0.61774961  0.74997791  0.55577736  1
  S2-  S248  1  0.88292071  0.01450617  0.05180394  1
  S2-  S249  1  0.86740084  -0.00104964  0.54162081  1
  S2-  S250  1  0.88038551  0.26057142  0.04138243  1
  S2-  S251  1  0.86693466  0.24601908  0.53486052  1
  S2-  S252  1  0.88353079  0.50390853  0.03309034  1
  S2-  S253  1  0.86776019  0.50093406  0.54148966  1
  S2-  S254  1  0.87901443  0.75498936  0.04077766  1
  S2-  S255  1  0.86861498  0.74907470  0.53966774  1
