# generated using pymatgen
data_La6Ce6Pr19Nd20Sm13(BiS2)64
_symmetry_space_group_name_H-M   'P 1'
_cell_length_a   16.09323131
_cell_length_b   16.14755839
_cell_length_c   27.32018342
_cell_angle_alpha   89.97714769
_cell_angle_beta   90.13071304
_cell_angle_gamma   90.00974495
_symmetry_Int_Tables_number   1
_chemical_formula_structural   La6Ce6Pr19Nd20Sm13(BiS2)64
_chemical_formula_sum   'La6 Ce6 Pr19 Nd20 Sm13 Bi64 S128'
_cell_volume   7099.57836373
_cell_formula_units_Z   1
loop_
 _symmetry_equiv_pos_site_id
 _symmetry_equiv_pos_as_xyz
  1  'x, y, z'
loop_
 _atom_type_symbol
 _atom_type_oxidation_number
  La3+  3.0
  Ce3+  3.0
  Pr3+  3.0
  Nd3+  3.0
  Sm3+  3.0
  Bi2+  2.0
  S2-  -2.0
loop_
 _atom_site_type_symbol
 _atom_site_label
 _atom_site_symmetry_multiplicity
 _atom_site_fract_x
 _atom_site_fract_y
 _atom_site_fract_z
 _atom_site_occupancy
  La3+  La0  1  0.14439958  0.26050675  0.38702217  1
  La3+  La1  1  0.74939194  0.61316586  0.61786791  1
  La3+  La2  1  0.74880367  0.36660836  0.09546922  1
  La3+  La3  1  0.50217588  0.11385359  0.61074513  1
  La3+  La4  1  0.62080762  0.24505052  0.89281170  1
  La3+  La5  1  0.13429831  0.00202100  0.42537024  1
  Ce3+  Ce6  1  0.87509302  0.24699198  0.94025817  1
  Ce3+  Ce7  1  0.00779806  0.62431356  0.56777388  1
  Ce3+  Ce8  1  0.26202575  0.61934200  0.05743357  1
  Ce3+  Ce9  1  0.00380693  0.37207167  0.56564657  1
  Ce3+  Ce10  1  0.51218742  0.36797938  0.05112996  1
  Ce3+  Ce11  1  0.64417260  -0.00043568  0.92553086  1
  Pr3+  Pr12  1  0.13483100  -0.00237347  0.93374430  1
  Pr3+  Pr13  1  0.25777896  0.62335242  0.56828480  1
  Pr3+  Pr14  1  0.89238721  -0.00577175  0.93411628  1
  Pr3+  Pr15  1  0.63457755  0.49272439  0.93342430  1
  Pr3+  Pr16  1  0.75583080  0.87313835  0.05810162  1
  Pr3+  Pr17  1  0.50286097  0.62163285  0.56795395  1
  Pr3+  Pr18  1  0.25513924  0.36682474  0.56912561  1
  Pr3+  Pr19  1  0.63676073  0.25447557  0.43693016  1
  Pr3+  Pr20  1  0.76239975  0.37155131  0.57112733  1
  Pr3+  Pr21  1  0.00756594  0.61773231  0.06230829  1
  Pr3+  Pr22  1  0.01859795  0.87377194  0.56807925  1
  Pr3+  Pr23  1  0.51293895  0.37148675  0.57129127  1
  Pr3+  Pr24  1  0.00955542  0.36565243  0.06019979  1
  Pr3+  Pr25  1  0.51075170  0.87360011  0.56184630  1
  Pr3+  Pr26  1  0.63248556  0.00046965  0.44469587  1
  Pr3+  Pr27  1  0.13317937  0.74860115  0.43004078  1
  Pr3+  Pr28  1  0.38503437  -0.00026729  0.93488991  1
  Pr3+  Pr29  1  0.88442083  0.24998753  0.43195876  1
  Pr3+  Pr30  1  0.37970767  0.49367721  0.44324601  1
  Nd3+  Nd31  1  0.13126537  0.49607484  0.44800069  1
  Nd3+  Nd32  1  0.38319744  0.00267688  0.43880105  1
  Nd3+  Nd33  1  0.26272619  0.36840628  0.06126894  1
  Nd3+  Nd34  1  0.63476200  0.74643043  0.93431898  1
  Nd3+  Nd35  1  0.38167447  0.24753884  0.45070028  1
  Nd3+  Nd36  1  0.88264380  0.49900504  0.44714251  1
  Nd3+  Nd37  1  0.88441890  -0.00288427  0.44314854  1
  Nd3+  Nd38  1  0.63278926  0.74611046  0.44268160  1
  Nd3+  Nd39  1  0.38359929  0.49368430  0.93276866  1
  Nd3+  Nd40  1  0.88596845  0.74380648  0.94019281  1
  Nd3+  Nd41  1  0.75693554  0.12083189  0.06178057  1
  Nd3+  Nd42  1  0.26886549  0.10893210  0.08353274  1
  Nd3+  Nd43  1  0.01065756  0.87233785  0.06281519  1
  Nd3+  Nd44  1  0.38318750  0.74646805  0.44366472  1
  Nd3+  Nd45  1  0.76187793  0.12389155  0.56704876  1
  Nd3+  Nd46  1  0.13316088  0.49447716  0.94380543  1
  Nd3+  Nd47  1  0.76089228  0.86763384  0.56345703  1
  Nd3+  Nd48  1  0.51117746  0.61900245  0.05218824  1
  Nd3+  Nd49  1  0.25906645  0.87806526  0.55699448  1
  Nd3+  Nd50  1  0.25482785  0.12164594  0.56282590  1
  Sm3+  Sm51  1  0.38414945  0.74688302  0.94227594  1
  Sm3+  Sm52  1  0.37413923  0.24276379  0.93266172  1
  Sm3+  Sm53  1  0.63444163  0.50015356  0.45016670  1
  Sm3+  Sm54  1  0.88065794  0.49122861  0.95004775  1
  Sm3+  Sm55  1  0.88352103  0.74650220  0.44857003  1
  Sm3+  Sm56  1  0.13691318  0.24570749  0.94316362  1
  Sm3+  Sm57  1  0.00398156  0.12215820  0.55758098  1
  Sm3+  Sm58  1  0.75852162  0.62075773  0.05555997  1
  Sm3+  Sm59  1  0.13480785  0.74344899  0.94609901  1
  Sm3+  Sm60  1  0.01099767  0.12064946  0.05370197  1
  Sm3+  Sm61  1  0.51165518  0.87137614  0.04756770  1
  Sm3+  Sm62  1  0.50942444  0.12196216  0.05231780  1
  Sm3+  Sm63  1  0.25992254  0.87179750  0.05335544  1
  Bi2+  Bi64  1  -0.02785842  0.12061763  0.28665826  1
  Bi2+  Bi65  1  0.00068329  0.11658933  0.79298587  1
  Bi2+  Bi66  1  -0.00123371  0.41146236  0.29235872  1
  Bi2+  Bi67  1  0.02958187  0.30994120  0.79078984  1
  Bi2+  Bi68  1  0.02034123  0.67113795  0.31311980  1
  Bi2+  Bi69  1  0.01392260  0.62103368  0.75358672  1
  Bi2+  Bi70  1  -0.01576818  0.87266546  0.29342958  1
  Bi2+  Bi71  1  0.03234979  0.93825911  0.74827350  1
  Bi2+  Bi72  1  0.26583597  0.12902467  0.28634739  1
  Bi2+  Bi73  1  0.19480026  0.07972103  0.81069800  1
  Bi2+  Bi74  1  0.29062766  0.39977736  0.30009467  1
  Bi2+  Bi75  1  0.21597892  0.36632125  0.79831600  1
  Bi2+  Bi76  1  0.20999584  0.64026429  0.30330257  1
  Bi2+  Bi77  1  0.20314921  0.61876485  0.80192509  1
  Bi2+  Bi78  1  0.25237015  0.87104512  0.29022751  1
  Bi2+  Bi79  1  0.21164924  0.81376011  0.76464182  1
  Bi2+  Bi80  1  0.50873309  0.09220163  0.22937954  1
  Bi2+  Bi81  1  0.46374621  0.09044970  0.78506810  1
  Bi2+  Bi82  1  0.51247989  0.35933875  0.29458624  1
  Bi2+  Bi83  1  0.45117535  0.33696311  0.76402017  1
  Bi2+  Bi84  1  0.45365074  0.67959985  0.27814208  1
  Bi2+  Bi85  1  0.39823967  0.60023893  0.78373223  1
  Bi2+  Bi86  1  0.52686172  0.85958882  0.28946757  1
  Bi2+  Bi87  1  0.49411676  0.85031361  0.79333727  1
  Bi2+  Bi88  1  0.68700934  0.13733732  0.29394132  1
  Bi2+  Bi89  1  0.74854149  0.12129911  0.78076352  1
  Bi2+  Bi90  1  0.75200089  0.39305294  0.29807304  1
  Bi2+  Bi91  1  0.76707417  0.39494461  0.80924968  1
  Bi2+  Bi92  1  0.67388528  0.63012276  0.27438912  1
  Bi2+  Bi93  1  0.76898191  0.63543763  0.82251325  1
  Bi2+  Bi94  1  0.71561090  0.91953719  0.28306869  1
  Bi2+  Bi95  1  0.76695256  0.87331904  0.79441996  1
  Bi2+  Bi96  1  0.11794755  -0.00246188  0.19485364  1
  Bi2+  Bi97  1  0.10316369  0.09487733  0.68544071  1
  Bi2+  Bi98  1  0.10657987  0.25056740  0.18953723  1
  Bi2+  Bi99  1  0.11385244  0.29367332  0.67744952  1
  Bi2+  Bi100  1  0.09177997  0.54578951  0.22909449  1
  Bi2+  Bi101  1  0.08514209  0.49157619  0.67470046  1
  Bi2+  Bi102  1  0.10432838  0.75070898  0.21114205  1
  Bi2+  Bi103  1  0.14738031  0.68470503  0.67882520  1
  Bi2+  Bi104  1  0.38954025  -0.07758316  0.21448852  1
  Bi2+  Bi105  1  0.30032484  -0.06597056  0.69302077  1
  Bi2+  Bi106  1  0.41943516  0.26751720  0.20721152  1
  Bi2+  Bi107  1  0.26205212  0.19156634  0.72619695  1
  Bi2+  Bi108  1  0.35672780  0.45850379  0.19901815  1
  Bi2+  Bi109  1  0.27895181  0.51641717  0.70239506  1
  Bi2+  Bi110  1  0.30502131  0.73170036  0.20575979  1
  Bi2+  Bi111  1  0.38811378  0.76320311  0.70890885  1
  Bi2+  Bi112  1  0.65609363  -0.01012547  0.17451501  1
  Bi2+  Bi113  1  0.61935259  -0.03912366  0.72864816  1
  Bi2+  Bi114  1  0.62015677  0.25771601  0.21019161  1
  Bi2+  Bi115  1  0.64090684  0.28791985  0.69163079  1
  Bi2+  Bi116  1  0.54682703  0.50910521  0.21896582  1
  Bi2+  Bi117  1  0.60865726  0.51469769  0.72822616  1
  Bi2+  Bi118  1  0.61693046  0.74569560  0.18303768  1
  Bi2+  Bi119  1  0.61237096  0.76437153  0.71812300  1
  Bi2+  Bi120  1  0.81968718  0.05940494  0.22116085  1
  Bi2+  Bi121  1  0.85058003  0.00475556  0.71162861  1
  Bi2+  Bi122  1  0.87862314  0.28442127  0.21614178  1
  Bi2+  Bi123  1  0.87183818  0.23712524  0.71481931  1
  Bi2+  Bi124  1  0.84589045  0.58077614  0.22193915  1
  Bi2+  Bi125  1  0.91664071  0.44148955  0.73741130  1
  Bi2+  Bi126  1  0.83381300  0.77356782  0.24602344  1
  Bi2+  Bi127  1  0.87798955  0.75512058  0.71627242  1
  S2-  S128  1  0.01628836  0.11016683  0.15152166  1
  S2-  S129  1  -0.10538354  0.12312280  0.63825122  1
  S2-  S130  1  -0.01042683  0.37312933  0.15964970  1
  S2-  S131  1  -0.10280489  0.35751971  0.64380842  1
  S2-  S132  1  -0.01298880  0.63111897  0.16067277  1
  S2-  S133  1  -0.08226043  0.62966026  0.65192735  1
  S2-  S134  1  0.01476688  0.87922281  0.16156688  1
  S2-  S135  1  -0.05807247  0.87874931  0.66088782  1
  S2-  S136  1  0.22596749  0.13338210  0.18205003  1
  S2-  S137  1  0.33366510  0.09198186  0.65117545  1
  S2-  S138  1  0.23074617  0.35323594  0.15742049  1
  S2-  S139  1  0.28926259  0.34424927  0.66766349  1
  S2-  S140  1  0.26347344  0.58609624  0.15213894  1
  S2-  S141  1  0.37501396  0.62022816  0.64415558  1
  S2-  S142  1  0.25899980  0.94996120  0.13950787  1
  S2-  S143  1  0.16052453  0.89184252  0.63718481  1
  S2-  S144  1  0.42361158  0.13075495  0.13761653  1
  S2-  S145  1  0.49294136  0.20212666  0.70395237  1
  S2-  S146  1  0.58680915  0.38876483  0.14002968  1
  S2-  S147  1  0.50525958  0.40790518  0.67180175  1
  S2-  S148  1  0.50437984  0.63698318  0.15066863  1
  S2-  S149  1  0.58469419  0.63115324  0.65701796  1
  S2-  S150  1  0.51700872  0.87718871  0.14514145  1
  S2-  S151  1  0.51155865  0.95108089  0.65187494  1
  S2-  S152  1  0.76757026  0.21390642  0.14743796  1
  S2-  S153  1  0.66530101  0.14489070  0.65068503  1
  S2-  S154  1  0.79087828  0.42325496  0.19233937  1
  S2-  S155  1  0.71104933  0.44662322  0.65992909  1
  S2-  S156  1  0.73149929  0.62249829  0.15104151  1
  S2-  S157  1  0.75226553  0.61469308  0.72837251  1
  S2-  S158  1  0.76382410  0.84663725  0.15649892  1
  S2-  S159  1  0.74291233  0.78761474  0.65140349  1
  S2-  S160  1  0.12632548  0.10141911  0.34101447  1
  S2-  S161  1  0.02022635  -0.02439525  0.85717390  1
  S2-  S162  1  0.16499426  0.27258589  0.27817872  1
  S2-  S163  1  0.23702227  0.22793246  0.86395182  1
  S2-  S164  1  0.13871094  0.43357349  0.35588011  1
  S2-  S165  1  0.12496740  0.47337996  0.84546357  1
  S2-  S166  1  0.11933255  0.87045957  0.35502457  1
  S2-  S167  1  0.12437551  0.74754613  0.84947370  1
  S2-  S168  1  0.32365494  0.00314004  0.34452600  1
  S2-  S169  1  0.35139566  0.00741293  0.83587873  1
  S2-  S170  1  0.32022817  0.24653950  0.35678063  1
  S2-  S171  1  0.45319838  0.23271669  0.84405588  1
  S2-  S172  1  0.40418247  0.48914857  0.34398451  1
  S2-  S173  1  0.38320147  0.44850070  0.83625532  1
  S2-  S174  1  0.33693321  0.74228750  0.34862203  1
  S2-  S175  1  0.38735880  0.74445675  0.84545100  1
  S2-  S176  1  0.59933275  -0.00333160  0.34557155  1
  S2-  S177  1  0.60548860  0.09152863  0.84210689  1
  S2-  S178  1  0.75308816  0.25357102  0.35926293  1
  S2-  S179  1  0.61719047  0.32475185  0.79756818  1
  S2-  S180  1  0.63327154  0.44310166  0.35632546  1
  S2-  S181  1  0.63577879  0.52435578  0.83416517  1
  S2-  S182  1  0.58993804  0.71842100  0.34702776  1
  S2-  S183  1  0.63560028  0.75431069  0.83514762  1
  S2-  S184  1  0.90398209  0.00824925  0.34384023  1
  S2-  S185  1  0.78225881  -0.00134760  0.85668645  1
  S2-  S186  1  0.97858444  0.26557148  0.34594574  1
  S2-  S187  1  0.79205904  0.24223738  0.85276302  1
  S2-  S188  1  0.87664794  0.48131759  0.34606320  1
  S2-  S189  1  0.88040070  0.51372564  0.85356456  1
  S2-  S190  1  0.87721140  0.76175232  0.35005392  1
  S2-  S191  1  0.88154085  0.77085450  0.84225017  1
  S2-  S192  1  0.00452768  0.12240699  0.45420088  1
  S2-  S193  1  0.01059159  0.12764471  0.94944712  1
  S2-  S194  1  0.00706161  0.37530505  0.45933935  1
  S2-  S195  1  0.00896966  0.36849981  0.95265013  1
  S2-  S196  1  0.00898401  0.62430469  0.45724274  1
  S2-  S197  1  0.00890282  0.61824197  0.95518623  1
  S2-  S198  1  0.00567567  0.87018514  0.45769101  1
  S2-  S199  1  0.01217571  0.86488653  0.95787217  1
  S2-  S200  1  0.25877531  0.12490593  0.45740084  1
  S2-  S201  1  0.25865907  0.11731090  0.96422019  1
  S2-  S202  1  0.25401532  0.36930011  0.46149428  1
  S2-  S203  1  0.25866696  0.37295229  0.95483197  1
  S2-  S204  1  0.25724301  0.62203524  0.45812993  1
  S2-  S205  1  0.26062564  0.62084684  0.95042143  1
  S2-  S206  1  0.26107536  0.87300066  0.45273892  1
  S2-  S207  1  0.25846881  0.86957996  0.94830619  1
  S2-  S208  1  0.50871260  0.12774180  0.44244911  1
  S2-  S209  1  0.50835259  0.12503369  0.94994097  1
  S2-  S210  1  0.50905679  0.37399417  0.46125634  1
  S2-  S211  1  0.50776409  0.36722126  0.94451698  1
  S2-  S212  1  0.50597082  0.61977627  0.45725388  1
  S2-  S213  1  0.50745977  0.62154305  0.94564123  1
  S2-  S214  1  0.50657291  0.87231641  0.45334648  1
  S2-  S215  1  0.51053688  0.87184733  0.94330234  1
  S2-  S216  1  0.75841062  0.12077308  0.45805897  1
  S2-  S217  1  0.76042442  0.12055822  0.95723413  1
  S2-  S218  1  0.75802146  0.37864653  0.46323700  1
  S2-  S219  1  0.75575631  0.37128784  0.95114553  1
  S2-  S220  1  0.75690001  0.62359801  0.44468349  1
  S2-  S221  1  0.75988513  0.62010033  0.95164697  1
  S2-  S222  1  0.75743749  0.87061779  0.45432180  1
  S2-  S223  1  0.76199329  0.86711271  0.95247074  1
  S2-  S224  1  0.13315282  -0.00438560  0.04147250  1
  S2-  S225  1  0.13116520  0.00421477  0.53658052  1
  S2-  S226  1  0.13838610  0.24062655  0.04769574  1
  S2-  S227  1  0.12772636  0.24367283  0.55500879  1
  S2-  S228  1  0.13446207  0.49359376  0.05020192  1
  S2-  S229  1  0.13369058  0.49658461  0.55286187  1
  S2-  S230  1  0.13611557  0.74629353  0.05186241  1
  S2-  S231  1  0.13716504  0.74671342  0.53932600  1
  S2-  S232  1  0.38817186  -0.00864221  0.04060586  1
  S2-  S233  1  0.38779281  0.00025102  0.54412686  1
  S2-  S234  1  0.38425610  0.24649279  0.03951172  1
  S2-  S235  1  0.38944312  0.24278959  0.55721022  1
  S2-  S236  1  0.38681942  0.49409092  0.04119674  1
  S2-  S237  1  0.38151999  0.49035448  0.54975691  1
  S2-  S238  1  0.38537933  0.74876582  0.04698364  1
  S2-  S239  1  0.38121267  0.75307046  0.54860899  1
  S2-  S240  1  0.63170962  -0.00259071  0.03604907  1
  S2-  S241  1  0.63712159  -0.00235840  0.55045686  1
  S2-  S242  1  0.63211796  0.24221015  0.04868433  1
  S2-  S243  1  0.63383046  0.24909917  0.54549661  1
  S2-  S244  1  0.63782564  0.49738726  0.04073040  1
  S2-  S245  1  0.63403104  0.50183651  0.55143271  1
  S2-  S246  1  0.63423872  0.74480509  0.04040550  1
  S2-  S247  1  0.63225024  0.74526184  0.54689694  1
  S2-  S248  1  0.88582040  -0.00275435  0.04702999  1
  S2-  S249  1  0.88383652  -0.00835297  0.54689317  1
  S2-  S250  1  0.88405626  0.24409156  0.04602320  1
  S2-  S251  1  0.88373400  0.24700462  0.53892359  1
  S2-  S252  1  0.87781407  0.49133891  0.05515266  1
  S2-  S253  1  0.87867015  0.50583008  0.55155521  1
  S2-  S254  1  0.88345285  0.74538136  0.04824200  1
  S2-  S255  1  0.88776468  0.75113283  0.54957146  1
