# generated using pymatgen
data_La6Ce6Pr19Nd20Sm13(BiS2)64
_symmetry_space_group_name_H-M   'P 1'
_cell_length_a   16.02472415
_cell_length_b   16.06907588
_cell_length_c   27.35135743
_cell_angle_alpha   90.18131012
_cell_angle_beta   89.67104094
_cell_angle_gamma   90.06679894
_symmetry_Int_Tables_number   1
_chemical_formula_structural   La6Ce6Pr19Nd20Sm13(BiS2)64
_chemical_formula_sum   'La6 Ce6 Pr19 Nd20 Sm13 Bi64 S128'
_cell_volume   7042.88716047
_cell_formula_units_Z   1
loop_
 _symmetry_equiv_pos_site_id
 _symmetry_equiv_pos_as_xyz
  1  'x, y, z'
loop_
 _atom_type_symbol
 _atom_type_oxidation_number
  La3+  3.0
  Ce3+  3.0
  Pr3+  3.0
  Nd3+  3.0
  Sm3+  3.0
  Bi2+  2.0
  S2-  -2.0
loop_
 _atom_site_type_symbol
 _atom_site_label
 _atom_site_symmetry_multiplicity
 _atom_site_fract_x
 _atom_site_fract_y
 _atom_site_fract_z
 _atom_site_occupancy
  La3+  La0  1  0.88190071  0.26351152  0.39131657  1
  La3+  La1  1  0.12102329  0.48191939  0.91058834  1
  La3+  La2  1  0.27306993  0.63753425  0.59121222  1
  La3+  La3  1  0.00539041  0.63556745  0.60644884  1
  La3+  La4  1  0.23638959  0.85396172  0.08339168  1
  La3+  La5  1  0.12992573  0.73866549  0.91576718  1
  Ce3+  Ce6  1  0.12141456  -0.01595756  0.92788968  1
  Ce3+  Ce7  1  0.36749351  0.48211483  0.93969759  1
  Ce3+  Ce8  1  0.62426661  0.22421883  0.94157652  1
  Ce3+  Ce9  1  0.49843688  0.35950984  0.05466786  1
  Ce3+  Ce10  1  0.01112018  0.38165081  0.56292073  1
  Ce3+  Ce11  1  0.00031458  0.85747077  0.05349187  1
  Pr3+  Pr12  1  0.76637104  0.13639885  0.55408211  1
  Pr3+  Pr13  1  -0.00426984  0.10747910  0.06426011  1
  Pr3+  Pr14  1  0.23266551  0.60739937  0.06496653  1
  Pr3+  Pr15  1  0.11756614  0.23113203  0.93118935  1
  Pr3+  Pr16  1  0.89069510  0.51296203  0.43091334  1
  Pr3+  Pr17  1  0.01423579  0.88540911  0.56407849  1
  Pr3+  Pr18  1  0.52245766  0.13799684  0.56499814  1
  Pr3+  Pr19  1  0.64038345  0.01106497  0.42665378  1
  Pr3+  Pr20  1  0.73362463  0.11128401  0.08443169  1
  Pr3+  Pr21  1  0.74447660  0.61627172  0.07017358  1
  Pr3+  Pr22  1  0.37406451  0.22989648  0.93335694  1
  Pr3+  Pr23  1  0.76366657  0.63493137  0.56504093  1
  Pr3+  Pr24  1  0.14209617  0.75541127  0.45009883  1
  Pr3+  Pr25  1  0.74495352  0.36705212  0.09563063  1
  Pr3+  Pr26  1  0.38705504  0.00803774  0.42778788  1
  Pr3+  Pr27  1  0.51262579  0.88392022  0.55105224  1
  Pr3+  Pr28  1  0.50534427  0.38361752  0.57688754  1
  Pr3+  Pr29  1  0.13714734  0.51161473  0.45204853  1
  Pr3+  Pr30  1  0.86643805  0.48028672  0.93664557  1
  Nd3+  Nd31  1  0.48547473  0.10638578  0.07090257  1
  Nd3+  Nd32  1  0.62157566  0.73235099  0.93041922  1
  Nd3+  Nd33  1  0.62079360  -0.02138893  0.94288367  1
  Nd3+  Nd34  1  0.49271476  0.84780112  0.06712112  1
  Nd3+  Nd35  1  0.24190336  0.35939414  0.05911163  1
  Nd3+  Nd36  1  0.38998074  0.75027808  0.41736333  1
  Nd3+  Nd37  1  0.49391834  0.61044437  0.05320589  1
  Nd3+  Nd38  1  0.27264930  0.12984437  0.56659898  1
  Nd3+  Nd39  1  0.89264876  0.01204847  0.42989714  1
  Nd3+  Nd40  1  0.13855593  0.25933771  0.43503201  1
  Nd3+  Nd41  1  0.13948628  0.00741538  0.43344322  1
  Nd3+  Nd42  1  0.38554922  0.25807872  0.43625360  1
  Nd3+  Nd43  1  0.76776198  0.38463559  0.55375387  1
  Nd3+  Nd44  1  0.86859178  -0.01587077  0.94475833  1
  Nd3+  Nd45  1  0.63933632  0.75519163  0.42859505  1
  Nd3+  Nd46  1  0.51163802  0.63701810  0.55644291  1
  Nd3+  Nd47  1  -0.00389716  0.36113400  0.06498163  1
  Nd3+  Nd48  1  0.37070983  -0.02056633  0.94312142  1
  Nd3+  Nd49  1  0.01477347  0.13849370  0.55994599  1
  Nd3+  Nd50  1  0.63627655  0.26295949  0.43497094  1
  Sm3+  Sm51  1  0.89210612  0.75411317  0.44059729  1
  Sm3+  Sm52  1  0.86608007  0.23302911  0.95195900  1
  Sm3+  Sm53  1  0.38902187  0.50884937  0.44065390  1
  Sm3+  Sm54  1  0.62631477  0.47943247  0.93758820  1
  Sm3+  Sm55  1  0.76526784  0.88468185  0.54951071  1
  Sm3+  Sm56  1  0.36752488  0.73117068  0.93857547  1
  Sm3+  Sm57  1  0.26270312  0.38286000  0.55990677  1
  Sm3+  Sm58  1  0.24685069  0.10768077  0.05647718  1
  Sm3+  Sm59  1  0.74516523  0.86045962  0.06412074  1
  Sm3+  Sm60  1  0.63913837  0.50683011  0.44754363  1
  Sm3+  Sm61  1  -0.00327530  0.60698349  0.04675778  1
  Sm3+  Sm62  1  0.87080043  0.73181525  0.94049911  1
  Sm3+  Sm63  1  0.26528878  0.88028123  0.55965401  1
  Bi2+  Bi64  1  0.04854273  0.12023782  0.29108453  1
  Bi2+  Bi65  1  0.00038555  0.12919895  0.77122979  1
  Bi2+  Bi66  1  0.10494771  0.38553761  0.27957358  1
  Bi2+  Bi67  1  -0.03022675  0.35007857  0.78910071  1
  Bi2+  Bi68  1  -0.00507574  0.55168443  0.29498323  1
  Bi2+  Bi69  1  -0.03267076  0.62116893  0.78987515  1
  Bi2+  Bi70  1  -0.00877693  0.79030630  0.28471947  1
  Bi2+  Bi71  1  -0.00318712  0.93203920  0.78497145  1
  Bi2+  Bi72  1  0.26524212  0.14057855  0.28318913  1
  Bi2+  Bi73  1  0.23768474  0.09286615  0.78848453  1
  Bi2+  Bi74  1  0.30788557  0.39113196  0.29291986  1
  Bi2+  Bi75  1  0.24424053  0.36218109  0.78388244  1
  Bi2+  Bi76  1  0.23471580  0.66325945  0.30565135  1
  Bi2+  Bi77  1  0.25798231  0.62255085  0.78790530  1
  Bi2+  Bi78  1  0.21175553  0.90249341  0.28638663  1
  Bi2+  Bi79  1  0.20438372  0.98177415  0.69405380  1
  Bi2+  Bi80  1  0.46371681  0.17552188  0.29575764  1
  Bi2+  Bi81  1  0.45723903  0.10891596  0.81234188  1
  Bi2+  Bi82  1  0.48580489  0.35986546  0.33891285  1
  Bi2+  Bi83  1  0.50709892  0.44888330  0.80778392  1
  Bi2+  Bi84  1  0.48177982  0.63594846  0.27864464  1
  Bi2+  Bi85  1  0.51822646  0.64964700  0.81217051  1
  Bi2+  Bi86  1  0.53163539  0.90666683  0.28583987  1
  Bi2+  Bi87  1  0.51028485  0.84951244  0.79209400  1
  Bi2+  Bi88  1  0.71942958  0.11808369  0.28923755  1
  Bi2+  Bi89  1  0.75942615  0.14192696  0.81387292  1
  Bi2+  Bi90  1  0.75296205  0.41210701  0.28760122  1
  Bi2+  Bi91  1  0.73755818  0.38537784  0.77862318  1
  Bi2+  Bi92  1  0.76242313  0.63967432  0.28719521  1
  Bi2+  Bi93  1  0.71812339  0.64093673  0.80958713  1
  Bi2+  Bi94  1  0.70366373  0.82426408  0.30010342  1
  Bi2+  Bi95  1  0.74906699  0.89448983  0.78523868  1
  Bi2+  Bi96  1  0.05021654  -0.02435726  0.21658452  1
  Bi2+  Bi97  1  0.01242238  0.02084605  0.67303071  1
  Bi2+  Bi98  1  0.21779000  0.27153907  0.20319786  1
  Bi2+  Bi99  1  0.11333545  0.26476647  0.71559352  1
  Bi2+  Bi100  1  0.17375794  0.50307868  0.19596810  1
  Bi2+  Bi101  1  0.11979426  0.47127499  0.72210017  1
  Bi2+  Bi102  1  0.12216293  0.71841206  0.20730672  1
  Bi2+  Bi103  1  0.11350392  0.81002496  0.72325058  1
  Bi2+  Bi104  1  0.39686480  0.03629335  0.21558804  1
  Bi2+  Bi105  1  0.40366629  -0.02011263  0.71137418  1
  Bi2+  Bi106  1  0.39854900  0.33400296  0.17645893  1
  Bi2+  Bi107  1  0.38443222  0.23852286  0.69635432  1
  Bi2+  Bi108  1  0.36788625  0.52013171  0.20762139  1
  Bi2+  Bi109  1  0.41846845  0.49992746  0.70965964  1
  Bi2+  Bi110  1  0.38364412  0.79161436  0.20187650  1
  Bi2+  Bi111  1  0.39400477  0.77576595  0.70679879  1
  Bi2+  Bi112  1  0.65750748  -0.03216787  0.20701622  1
  Bi2+  Bi113  1  0.60556844  0.01948745  0.75650529  1
  Bi2+  Bi114  1  0.57217084  0.24122435  0.20889466  1
  Bi2+  Bi115  1  0.56926176  0.28205899  0.75769373  1
  Bi2+  Bi116  1  0.57347768  0.46531497  0.25679429  1
  Bi2+  Bi117  1  0.62166145  0.52910459  0.71812262  1
  Bi2+  Bi118  1  0.62415547  0.64020398  0.19697174  1
  Bi2+  Bi119  1  0.62775326  0.72913383  0.72172674  1
  Bi2+  Bi120  1  0.86178259  -0.07050784  0.24812249  1
  Bi2+  Bi121  1  0.81092454  0.02434560  0.68514353  1
  Bi2+  Bi122  1  0.89725489  0.21503539  0.19336625  1
  Bi2+  Bi123  1  0.84193963  0.21562032  0.68359491  1
  Bi2+  Bi124  1  0.88771244  0.55295115  0.20319141  1
  Bi2+  Bi125  1  0.85388931  0.48463599  0.70944716  1
  Bi2+  Bi126  1  0.87402540  0.74742060  0.19579538  1
  Bi2+  Bi127  1  0.84643747  0.78007228  0.71076950  1
  S2-  S128  1  0.04323872  0.12172608  0.16147540  1
  S2-  S129  1  -0.00776366  0.25487588  0.63687461  1
  S2-  S130  1  -0.09274595  0.36155175  0.15367181  1
  S2-  S131  1  -0.00272404  0.47193729  0.64866671  1
  S2-  S132  1  0.08003975  0.60224977  0.13269992  1
  S2-  S133  1  0.07164925  0.65203236  0.70663170  1
  S2-  S134  1  0.07822379  0.85252754  0.14071453  1
  S2-  S135  1  -0.00987815  0.80308301  0.65220407  1
  S2-  S136  1  0.34713526  0.11931307  0.13825853  1
  S2-  S137  1  0.22926565  0.18888775  0.65909839  1
  S2-  S138  1  0.12620026  0.36500801  0.13547649  1
  S2-  S139  1  0.35957632  0.38168572  0.64150467  1
  S2-  S140  1  0.26270248  0.71383399  0.14738010  1
  S2-  S141  1  0.25436991  0.55535407  0.68600456  1
  S2-  S142  1  0.27923927  0.91730942  0.18208024  1
  S2-  S143  1  0.26166369  0.79042065  0.64692728  1
  S2-  S144  1  0.58910221  0.10340410  0.15096637  1
  S2-  S145  1  0.41002340  0.10736069  0.63859339  1
  S2-  S146  1  0.57527864  0.37288507  0.14148381  1
  S2-  S147  1  0.53971413  0.27785862  0.65714975  1
  S2-  S148  1  0.49506758  0.70215333  0.13790995  1
  S2-  S149  1  0.43535318  0.63776247  0.64613949  1
  S2-  S150  1  0.49535184  0.90570363  0.16254372  1
  S2-  S151  1  0.50274087  0.88046522  0.65164055  1
  S2-  S152  1  0.80187012  0.01282499  0.16350332  1
  S2-  S153  1  0.69131168  0.12340499  0.64542556  1
  S2-  S154  1  0.74619392  0.23402508  0.16361626  1
  S2-  S155  1  0.77341976  0.36308167  0.65325194  1
  S2-  S156  1  0.74308781  0.51543131  0.15346138  1
  S2-  S157  1  0.84331937  0.63436389  0.65469296  1
  S2-  S158  1  0.72468001  0.75602270  0.14106853  1
  S2-  S159  1  0.75161300  0.86546917  0.64649549  1
  S2-  S160  1  0.02004988  0.00581009  0.35737989  1
  S2-  S161  1  0.11591327  0.10819918  0.85412244  1
  S2-  S162  1  0.04622490  0.26369861  0.34893077  1
  S2-  S163  1  0.11501446  0.33634897  0.84938623  1
  S2-  S164  1  0.13963361  0.52952916  0.34999525  1
  S2-  S165  1  0.11603072  0.61813848  0.83985446  1
  S2-  S166  1  0.12250605  0.78000124  0.35000524  1
  S2-  S167  1  0.10935334  0.87742724  0.84710338  1
  S2-  S168  1  0.25606790  0.00767761  0.35495585  1
  S2-  S169  1  0.34739675  -0.01160060  0.84372499  1
  S2-  S170  1  0.26573608  0.25763439  0.36097670  1
  S2-  S171  1  0.33241194  0.23122076  0.83500627  1
  S2-  S172  1  0.36896824  0.60224538  0.35739144  1
  S2-  S173  1  0.28746746  0.48874697  0.85234509  1
  S2-  S174  1  0.32784843  0.80877620  0.32337190  1
  S2-  S175  1  0.29140015  0.73797296  0.84966542  1
  S2-  S176  1  0.51255867  0.02666204  0.35408185  1
  S2-  S177  1  0.61508598  0.09000695  0.86566842  1
  S2-  S178  1  0.71218512  0.26647996  0.34376734  1
  S2-  S179  1  0.66785813  0.28037178  0.84978374  1
  S2-  S180  1  0.66760137  0.52790207  0.35132794  1
  S2-  S181  1  0.73981557  0.49457482  0.86161915  1
  S2-  S182  1  0.53456832  0.75638859  0.34877886  1
  S2-  S183  1  0.63391195  0.86220777  0.86327276  1
  S2-  S184  1  0.76967551  0.01412770  0.35399406  1
  S2-  S185  1  0.84484641  -0.00430105  0.84584893  1
  S2-  S186  1  0.87724462  0.17881228  0.29419928  1
  S2-  S187  1  0.88802269  0.22726814  0.85297638  1
  S2-  S188  1  0.88745538  0.41916173  0.34226932  1
  S2-  S189  1  0.96124900  0.47947757  0.84842763  1
  S2-  S190  1  0.88886181  0.64950821  0.36060819  1
  S2-  S191  1  0.87508207  0.72788357  0.84126944  1
  S2-  S192  1  0.01601601  0.13414577  0.45527139  1
  S2-  S193  1  -0.00864048  0.10787297  0.95727482  1
  S2-  S194  1  0.01287465  0.38430416  0.45458388  1
  S2-  S195  1  -0.00940125  0.35333267  0.95743127  1
  S2-  S196  1  0.01424565  0.63571396  0.45746721  1
  S2-  S197  1  -0.00541472  0.61133713  0.94592615  1
  S2-  S198  1  0.01131290  0.87969245  0.45720972  1
  S2-  S199  1  -0.00815831  0.85821192  0.94924210  1
  S2-  S200  1  0.26505336  0.13131157  0.45901499  1
  S2-  S201  1  0.24906074  0.10745885  0.95392155  1
  S2-  S202  1  0.26574530  0.38882179  0.45658072  1
  S2-  S203  1  0.24816410  0.35319745  0.95324203  1
  S2-  S204  1  0.26780571  0.63291152  0.46133017  1
  S2-  S205  1  0.24670943  0.60701949  0.95570268  1
  S2-  S206  1  0.26828838  0.87939131  0.45541983  1
  S2-  S207  1  0.24739948  0.85943120  0.95460249  1
  S2-  S208  1  0.51449840  0.13882384  0.45651560  1
  S2-  S209  1  0.49207614  0.10417546  0.96418397  1
  S2-  S210  1  0.51214828  0.38694866  0.46349476  1
  S2-  S211  1  0.49944986  0.35821304  0.94749509  1
  S2-  S212  1  0.51665164  0.63003540  0.45242725  1
  S2-  S213  1  0.49696605  0.60617852  0.94760925  1
  S2-  S214  1  0.51505666  0.87992807  0.44659440  1
  S2-  S215  1  0.49232940  0.85254312  0.95694193  1
  S2-  S216  1  0.76734055  0.14247449  0.44774972  1
  S2-  S217  1  0.74662191  0.10478013  0.96824685  1
  S2-  S218  1  0.76390894  0.38577831  0.44949557  1
  S2-  S219  1  0.74347387  0.35480357  0.96199831  1
  S2-  S220  1  0.75895122  0.63456492  0.45867773  1
  S2-  S221  1  0.74513163  0.61366168  0.95967665  1
  S2-  S222  1  0.76648320  0.87789583  0.44682909  1
  S2-  S223  1  0.74991314  0.85511644  0.96022529  1
  S2-  S224  1  0.12413990  -0.01377350  0.04213284  1
  S2-  S225  1  0.14241190  0.00743496  0.54489260  1
  S2-  S226  1  0.12331822  0.22814487  0.04115802  1
  S2-  S227  1  0.14387630  0.25862333  0.54286392  1
  S2-  S228  1  0.11805968  0.48145226  0.02997600  1
  S2-  S229  1  0.14452454  0.51220767  0.55883551  1
  S2-  S230  1  0.11917322  0.73409670  0.03263754  1
  S2-  S231  1  0.13547890  0.75305813  0.55518473  1
  S2-  S232  1  0.36566908  -0.02584723  0.04887193  1
  S2-  S233  1  0.38795316  0.00374841  0.53653406  1
  S2-  S234  1  0.36814567  0.23793796  0.03986448  1
  S2-  S235  1  0.38866281  0.25858535  0.54111523  1
  S2-  S236  1  0.36829348  0.48556591  0.04757959  1
  S2-  S237  1  0.38685750  0.51154946  0.54440539  1
  S2-  S238  1  0.36334940  0.73118719  0.04075343  1
  S2-  S239  1  0.38832206  0.75888273  0.53925251  1
  S2-  S240  1  0.61775893  -0.02456139  0.04978043  1
  S2-  S241  1  0.64070456  0.00705282  0.53573465  1
  S2-  S242  1  0.61513745  0.23192325  0.04742499  1
  S2-  S243  1  0.63959691  0.26530671  0.54160485  1
  S2-  S244  1  0.62125907  0.48956083  0.04106295  1
  S2-  S245  1  0.63514867  0.50827591  0.55364324  1
  S2-  S246  1  0.62017733  0.73493934  0.03553170  1
  S2-  S247  1  0.63985117  0.75914921  0.54101979  1
  S2-  S248  1  0.87078333  -0.01992628  0.05018351  1
  S2-  S249  1  0.88888377  0.00873906  0.53977751  1
  S2-  S250  1  0.86748993  0.23140731  0.05492824  1
  S2-  S251  1  0.88732760  0.26023464  0.53844936  1
  S2-  S252  1  0.87086187  0.48668993  0.04542977  1
  S2-  S253  1  0.88870307  0.51265581  0.54320365  1
  S2-  S254  1  0.87463457  0.73449011  0.04538341  1
  S2-  S255  1  0.88695619  0.75868043  0.54383462  1
