# generated using pymatgen
data_La6Ce6Pr19Nd20Sm13(BiS2)64
_symmetry_space_group_name_H-M   'P 1'
_cell_length_a   16.10497773
_cell_length_b   16.07757452
_cell_length_c   27.66172467
_cell_angle_alpha   89.82671333
_cell_angle_beta   90.02599930
_cell_angle_gamma   90.00105575
_symmetry_Int_Tables_number   1
_chemical_formula_structural   La6Ce6Pr19Nd20Sm13(BiS2)64
_chemical_formula_sum   'La6 Ce6 Pr19 Nd20 Sm13 Bi64 S128'
_cell_volume   7162.38864651
_cell_formula_units_Z   1
loop_
 _symmetry_equiv_pos_site_id
 _symmetry_equiv_pos_as_xyz
  1  'x, y, z'
loop_
 _atom_type_symbol
 _atom_type_oxidation_number
  La3+  3.0
  Ce3+  3.0
  Pr3+  3.0
  Nd3+  3.0
  Sm3+  3.0
  Bi2+  2.0
  S2-  -2.0
loop_
 _atom_site_type_symbol
 _atom_site_label
 _atom_site_symmetry_multiplicity
 _atom_site_fract_x
 _atom_site_fract_y
 _atom_site_fract_z
 _atom_site_occupancy
  La3+  La0  1  0.23377934  0.12173460  0.57598766  1
  La3+  La1  1  0.12644419  0.49652580  0.92170607  1
  La3+  La2  1  0.51044052  0.88247885  0.08746268  1
  La3+  La3  1  0.49736329  0.87430405  0.60859227  1
  La3+  La4  1  0.10822953  0.01432436  0.43077732  1
  La3+  La5  1  0.38281792  0.75354187  0.93845169  1
  Ce3+  Ce6  1  0.13220454  0.75211587  0.94159627  1
  Ce3+  Ce7  1  0.85470339  0.50910423  0.43167831  1
  Ce3+  Ce8  1  -0.02335838  0.37807667  0.56432288  1
  Ce3+  Ce9  1  0.75647027  0.12935257  0.05590149  1
  Ce3+  Ce10  1  0.22332751  0.63308876  0.56198288  1
  Ce3+  Ce11  1  0.35223526  0.50207413  0.44999353  1
  Pr3+  Pr12  1  0.60178647  0.00603920  0.44451143  1
  Pr3+  Pr13  1  0.72802559  0.63597513  0.55207513  1
  Pr3+  Pr14  1  0.63178705  0.25388173  0.93146147  1
  Pr3+  Pr15  1  0.01128943  0.62535250  0.06279834  1
  Pr3+  Pr16  1  0.10372046  0.50618245  0.44030298  1
  Pr3+  Pr17  1  0.60039700  0.25577608  0.44000075  1
  Pr3+  Pr18  1  0.59953775  0.75864505  0.43040598  1
  Pr3+  Pr19  1  0.38408243  0.25778143  0.89924017  1
  Pr3+  Pr20  1  0.87952070  0.25179453  0.93273313  1
  Pr3+  Pr21  1  0.25780916  0.37576697  0.05772784  1
  Pr3+  Pr22  1  0.60072896  0.50207836  0.43302743  1
  Pr3+  Pr23  1  0.47750797  0.13029035  0.57780739  1
  Pr3+  Pr24  1  0.00809053  0.12489998  0.05720989  1
  Pr3+  Pr25  1  0.22618688  0.38020622  0.57618331  1
  Pr3+  Pr26  1  0.63325869  0.74970055  0.94160560  1
  Pr3+  Pr27  1  0.25833524  0.87930970  0.06352226  1
  Pr3+  Pr28  1  -0.01848060  0.12826949  0.56516839  1
  Pr3+  Pr29  1  0.75792020  0.61988324  0.06945217  1
  Pr3+  Pr30  1  0.73334310  0.38222498  0.56619939  1
  Nd3+  Nd31  1  0.87972399  0.00212345  0.94523365  1
  Nd3+  Nd32  1  0.23051751  0.88082767  0.56228970  1
  Nd3+  Nd33  1  0.13490856  0.00338786  0.93571349  1
  Nd3+  Nd34  1  0.85396202  0.00872949  0.43011091  1
  Nd3+  Nd35  1  0.75812597  0.36845692  0.06620946  1
  Nd3+  Nd36  1  0.47811443  0.63558504  0.55409542  1
  Nd3+  Nd37  1  0.88013051  0.75135034  0.94742101  1
  Nd3+  Nd38  1  0.73142968  0.12895612  0.55651100  1
  Nd3+  Nd39  1  0.85392160  0.75895892  0.42717324  1
  Nd3+  Nd40  1  0.50846176  0.12552903  0.05592311  1
  Nd3+  Nd41  1  0.35752497  0.00562652  0.44771733  1
  Nd3+  Nd42  1  0.01074553  0.37695016  0.05808387  1
  Nd3+  Nd43  1  0.10732945  0.76218270  0.42701658  1
  Nd3+  Nd44  1  0.25971210  0.62681347  0.05269622  1
  Nd3+  Nd45  1  0.75481387  0.87569868  0.06697393  1
  Nd3+  Nd46  1  0.35041704  0.75750936  0.44074807  1
  Nd3+  Nd47  1  -0.01961138  0.63134110  0.55556834  1
  Nd3+  Nd48  1  0.26108154  0.12409799  0.05002824  1
  Nd3+  Nd49  1  0.50717278  0.37458317  0.05862923  1
  Nd3+  Nd50  1  0.48604420  0.38277200  0.56823727  1
  Sm3+  Sm51  1  0.62943012  0.00064587  0.93807551  1
  Sm3+  Sm52  1  0.00768080  0.87619463  0.05205858  1
  Sm3+  Sm53  1  0.85011103  0.26079930  0.42663216  1
  Sm3+  Sm54  1  0.88208170  0.50249957  0.94129141  1
  Sm3+  Sm55  1  0.38394106  0.00122718  0.93588671  1
  Sm3+  Sm56  1  -0.01944423  0.88233287  0.54966554  1
  Sm3+  Sm57  1  0.38070383  0.49652544  0.93596904  1
  Sm3+  Sm58  1  0.13392451  0.25027998  0.94243499  1
  Sm3+  Sm59  1  0.35912308  0.25586576  0.44809894  1
  Sm3+  Sm60  1  0.73073400  0.88097526  0.55565094  1
  Sm3+  Sm61  1  0.10741767  0.25711462  0.44386326  1
  Sm3+  Sm62  1  0.63183605  0.49945080  0.94896269  1
  Sm3+  Sm63  1  0.50687839  0.62724019  0.05497555  1
  Bi2+  Bi64  1  -0.00340546  0.12442155  0.29155536  1
  Bi2+  Bi65  1  -0.04808705  0.09855995  0.76969347  1
  Bi2+  Bi66  1  0.03204676  0.36201449  0.28772327  1
  Bi2+  Bi67  1  0.01551467  0.37953152  0.78861113  1
  Bi2+  Bi68  1  0.02507120  0.65186245  0.30774625  1
  Bi2+  Bi69  1  -0.03100361  0.61147031  0.77722679  1
  Bi2+  Bi70  1  -0.01518880  0.84455594  0.28936664  1
  Bi2+  Bi71  1  -0.02807043  0.87264964  0.74376311  1
  Bi2+  Bi72  1  0.21524247  0.13812079  0.27632984  1
  Bi2+  Bi73  1  0.16591122  0.15365329  0.79626835  1
  Bi2+  Bi74  1  0.24966225  0.32379084  0.30852220  1
  Bi2+  Bi75  1  0.28139629  0.37316298  0.78014722  1
  Bi2+  Bi76  1  0.20904861  0.58920480  0.25488314  1
  Bi2+  Bi77  1  0.25317407  0.64300039  0.79246660  1
  Bi2+  Bi78  1  0.24788375  0.84101317  0.30659644  1
  Bi2+  Bi79  1  0.24922834  0.87998603  0.80898509  1
  Bi2+  Bi80  1  0.55434252  0.12500558  0.22299437  1
  Bi2+  Bi81  1  0.53614271  0.20199422  0.75119224  1
  Bi2+  Bi82  1  0.51767757  0.37758053  0.31126183  1
  Bi2+  Bi83  1  0.56268595  0.38353719  0.79679262  1
  Bi2+  Bi84  1  0.48454473  0.61931034  0.25571117  1
  Bi2+  Bi85  1  0.55463422  0.63064707  0.79027519  1
  Bi2+  Bi86  1  0.47576456  0.89447862  0.31418520  1
  Bi2+  Bi87  1  0.50035591  0.88017989  0.80884247  1
  Bi2+  Bi88  1  0.72143888  0.15912582  0.28795169  1
  Bi2+  Bi89  1  0.76787882  0.13048538  0.81232789  1
  Bi2+  Bi90  1  0.75543198  0.40887709  0.29518033  1
  Bi2+  Bi91  1  0.76729017  0.32479980  0.82005688  1
  Bi2+  Bi92  1  0.77824899  0.67206719  0.26439074  1
  Bi2+  Bi93  1  0.77731729  0.59514342  0.80412596  1
  Bi2+  Bi94  1  0.70731181  0.92801206  0.30008735  1
  Bi2+  Bi95  1  0.79728435  0.85579637  0.80082609  1
  Bi2+  Bi96  1  0.11785611  0.00003827  0.19016900  1
  Bi2+  Bi97  1  0.11548578  -0.00018569  0.70746638  1
  Bi2+  Bi98  1  0.12390249  0.25308054  0.19743041  1
  Bi2+  Bi99  1  0.09150393  0.26114131  0.71252867  1
  Bi2+  Bi100  1  0.11204507  0.47883794  0.17951297  1
  Bi2+  Bi101  1  0.15041760  0.52185530  0.69417881  1
  Bi2+  Bi102  1  0.03457196  0.72761129  0.19985239  1
  Bi2+  Bi103  1  0.10789638  0.72906855  0.73136377  1
  Bi2+  Bi104  1  0.34917218  -0.01663835  0.19783076  1
  Bi2+  Bi105  1  0.36723699  0.03624860  0.70994479  1
  Bi2+  Bi106  1  0.39986863  0.21512371  0.27107054  1
  Bi2+  Bi107  1  0.45734752  0.34596460  0.69318656  1
  Bi2+  Bi108  1  0.36367308  0.46144745  0.25581451  1
  Bi2+  Bi109  1  0.42367080  0.52452482  0.73463172  1
  Bi2+  Bi110  1  0.33622430  0.71308042  0.20491499  1
  Bi2+  Bi111  1  0.37970444  0.71667635  0.71233858  1
  Bi2+  Bi112  1  0.72950869  0.07796637  0.18037274  1
  Bi2+  Bi113  1  0.69619662  -0.01104780  0.74800063  1
  Bi2+  Bi114  1  0.64060630  0.29905487  0.19124833  1
  Bi2+  Bi115  1  0.71490695  0.25117683  0.71669900  1
  Bi2+  Bi116  1  0.60969413  0.51205670  0.19070681  1
  Bi2+  Bi117  1  0.66223840  0.50980860  0.71107830  1
  Bi2+  Bi118  1  0.59779502  0.76237300  0.20910631  1
  Bi2+  Bi119  1  0.64080628  0.73775480  0.70779692  1
  Bi2+  Bi120  1  0.87205270  -0.00407907  0.23937043  1
  Bi2+  Bi121  1  0.85131467  0.02222841  0.67784062  1
  Bi2+  Bi122  1  0.87746098  0.26697915  0.25449643  1
  Bi2+  Bi123  1  0.90298949  0.21626970  0.68030685  1
  Bi2+  Bi124  1  0.91105268  0.53274964  0.24994954  1
  Bi2+  Bi125  1  0.85394761  0.45283931  0.73560172  1
  Bi2+  Bi126  1  0.85414927  0.81170227  0.20011962  1
  Bi2+  Bi127  1  0.83696696  0.73285855  0.71139615  1
  S2-  S128  1  0.02050158  0.12136540  0.15593473  1
  S2-  S129  1  0.09956508  0.12911443  0.64283503  1
  S2-  S130  1  0.00104749  0.35572403  0.15510208  1
  S2-  S131  1  0.08184525  0.39362200  0.64321377  1
  S2-  S132  1  -0.03955355  0.58752635  0.15474663  1
  S2-  S133  1  0.05700932  0.63855799  0.64457099  1
  S2-  S134  1  0.01956949  0.89208762  0.14770070  1
  S2-  S135  1  0.00434073  0.90996130  0.64407054  1
  S2-  S136  1  0.25844904  0.09068539  0.14688357  1
  S2-  S137  1  0.34352573  0.15658695  0.65244693  1
  S2-  S138  1  0.23381634  0.36261003  0.15626443  1
  S2-  S139  1  0.28778320  0.38275970  0.67279332  1
  S2-  S140  1  0.22610782  0.61547146  0.14794800  1
  S2-  S141  1  0.27073833  0.61813863  0.65339988  1
  S2-  S142  1  0.23773553  0.87275053  0.16302281  1
  S2-  S143  1  0.24404347  0.95580632  0.65153161  1
  S2-  S144  1  0.48590471  0.03806463  0.14043110  1
  S2-  S145  1  0.50163032  0.02912294  0.65853830  1
  S2-  S146  1  0.50553102  0.37728177  0.15702929  1
  S2-  S147  1  0.61203703  0.39729990  0.64036471  1
  S2-  S148  1  0.47503336  0.61667010  0.14954687  1
  S2-  S149  1  0.50771321  0.69860519  0.64366694  1
  S2-  S150  1  0.44677772  0.83787198  0.17984465  1
  S2-  S151  1  0.43703783  0.86766155  0.71037916  1
  S2-  S152  1  0.77386357  0.23123300  0.13349345  1
  S2-  S153  1  0.70723217  0.11616344  0.65440645  1
  S2-  S154  1  0.74427438  0.44496713  0.15506909  1
  S2-  S155  1  0.86096891  0.37887427  0.63710893  1
  S2-  S156  1  0.70792437  0.65367705  0.16263463  1
  S2-  S157  1  0.76052630  0.61461253  0.64919403  1
  S2-  S158  1  0.65467989  0.87498285  0.14793866  1
  S2-  S159  1  0.66417407  0.86146579  0.64505832  1
  S2-  S160  1  0.11565589  -0.10281708  0.35359292  1
  S2-  S161  1  0.13877182  -0.01251819  0.83802927  1
  S2-  S162  1  0.11885684  0.15026102  0.36485390  1
  S2-  S163  1  0.14035994  0.30018899  0.85039729  1
  S2-  S164  1  0.13910769  0.43436789  0.35183860  1
  S2-  S165  1  0.20348974  0.50404713  0.83145282  1
  S2-  S166  1  0.19577909  0.70099226  0.34658685  1
  S2-  S167  1  0.13906639  0.75442750  0.84576246  1
  S2-  S168  1  0.34347471  -0.02278490  0.34823115  1
  S2-  S169  1  0.37093879  -0.01425496  0.83853030  1
  S2-  S170  1  0.46604362  0.24397683  0.36859727  1
  S2-  S171  1  0.32006059  0.21199673  0.80763675  1
  S2-  S172  1  0.40358688  0.48382191  0.35907683  1
  S2-  S173  1  0.39481856  0.41313679  0.85096131  1
  S2-  S174  1  0.39947299  0.76175157  0.34460786  1
  S2-  S175  1  0.37606805  0.75998546  0.83910627  1
  S2-  S176  1  0.58606871  0.02244935  0.34558922  1
  S2-  S177  1  0.60416902  -0.00689034  0.84104461  1
  S2-  S178  1  0.69976781  0.27622240  0.35791820  1
  S2-  S179  1  0.53629964  0.23003254  0.84947637  1
  S2-  S180  1  0.63573068  0.50560279  0.33509917  1
  S2-  S181  1  0.64318875  0.51273238  0.85346435  1
  S2-  S182  1  0.62652034  0.79471287  0.33303095  1
  S2-  S183  1  0.61592213  0.76793288  0.84342780  1
  S2-  S184  1  0.85007077  -0.11517606  0.35725801  1
  S2-  S185  1  0.87628566  -0.00324932  0.84818316  1
  S2-  S186  1  0.87216807  0.13247672  0.35945791  1
  S2-  S187  1  0.92867138  0.25460486  0.83785609  1
  S2-  S188  1  0.88316956  0.39348022  0.36224657  1
  S2-  S189  1  0.98057796  0.50145528  0.86127912  1
  S2-  S190  1  0.84879894  0.63701828  0.35373189  1
  S2-  S191  1  0.87780309  0.72325313  0.85156861  1
  S2-  S192  1  -0.02002741  0.13598260  0.45992616  1
  S2-  S193  1  0.00822292  0.12635057  0.94940742  1
  S2-  S194  1  -0.01525071  0.37729993  0.45907260  1
  S2-  S195  1  0.00707898  0.37179248  0.95448389  1
  S2-  S196  1  -0.01644112  0.63664955  0.45105943  1
  S2-  S197  1  0.00607824  0.62801097  0.95723114  1
  S2-  S198  1  -0.01936319  0.88351007  0.44981571  1
  S2-  S199  1  0.00618420  0.87798721  0.94863695  1
  S2-  S200  1  0.23848907  0.13375258  0.46429497  1
  S2-  S201  1  0.26257194  0.12970534  0.94437298  1
  S2-  S202  1  0.23232578  0.37615332  0.46363872  1
  S2-  S203  1  0.26082315  0.37159096  0.95172586  1
  S2-  S204  1  0.22939679  0.62979130  0.45715199  1
  S2-  S205  1  0.25801986  0.62270219  0.94757719  1
  S2-  S206  1  0.23133843  0.88249457  0.45769456  1
  S2-  S207  1  0.25759929  0.87941609  0.95482425  1
  S2-  S208  1  0.47808079  0.12925352  0.46810238  1
  S2-  S209  1  0.50410955  0.12492689  0.95117560  1
  S2-  S210  1  0.47956943  0.38204183  0.46528722  1
  S2-  S211  1  0.50638511  0.37642687  0.95399039  1
  S2-  S212  1  0.47674411  0.63132938  0.44930403  1
  S2-  S213  1  0.50560302  0.62132047  0.95054212  1
  S2-  S214  1  0.47741592  0.87972852  0.44950061  1
  S2-  S215  1  0.50814052  0.87876486  0.95135682  1
  S2-  S216  1  0.72857756  0.13075789  0.45334164  1
  S2-  S217  1  0.75342042  0.12575141  0.95070064  1
  S2-  S218  1  0.72989340  0.38465239  0.45962217  1
  S2-  S219  1  0.75791039  0.37897040  0.95742391  1
  S2-  S220  1  0.72435717  0.63349255  0.44807421  1
  S2-  S221  1  0.75757101  0.62277103  0.96081226  1
  S2-  S222  1  0.72663512  0.88023283  0.45380589  1
  S2-  S223  1  0.75517121  0.87779929  0.95779627  1
  S2-  S224  1  0.13208568  0.00012119  0.04070146  1
  S2-  S225  1  0.10595811  0.00306601  0.53872187  1
  S2-  S226  1  0.13449305  0.24853286  0.04538407  1
  S2-  S227  1  0.10798734  0.25453235  0.54557239  1
  S2-  S228  1  0.13409718  0.50144871  0.03714800  1
  S2-  S229  1  0.10509138  0.50622780  0.54285021  1
  S2-  S230  1  0.13328401  0.75342703  0.04734055  1
  S2-  S231  1  0.10322462  0.76050060  0.53885307  1
  S2-  S232  1  0.38407028  -0.00203676  0.03906501  1
  S2-  S233  1  0.36441018  -0.00425586  0.55133004  1
  S2-  S234  1  0.38308734  0.24888841  0.05559383  1
  S2-  S235  1  0.35799711  0.26203103  0.54992702  1
  S2-  S236  1  0.38355441  0.50171716  0.04174870  1
  S2-  S237  1  0.35707109  0.50503696  0.55416893  1
  S2-  S238  1  0.38523142  0.75404556  0.04694479  1
  S2-  S239  1  0.35445452  0.75873012  0.54847867  1
  S2-  S240  1  0.63326114  0.00157462  0.04153615  1
  S2-  S241  1  0.60628276  0.00214792  0.54908251  1
  S2-  S242  1  0.62958810  0.25106830  0.03840485  1
  S2-  S243  1  0.60615417  0.25201792  0.54841803  1
  S2-  S244  1  0.62957060  0.50095335  0.05007208  1
  S2-  S245  1  0.60338019  0.51264709  0.53978943  1
  S2-  S246  1  0.62998533  0.74878028  0.04677525  1
  S2-  S247  1  0.60321718  0.76124863  0.53708486  1
  S2-  S248  1  0.88096539  -0.00109800  0.05035198  1
  S2-  S249  1  0.85527457  0.00339897  0.53931242  1
  S2-  S250  1  0.88871112  0.25201208  0.03810916  1
  S2-  S251  1  0.85421194  0.25041820  0.53875371  1
  S2-  S252  1  0.88238088  0.49756105  0.04483261  1
  S2-  S253  1  0.85593218  0.51221220  0.53860093  1
  S2-  S254  1  0.88157332  0.75194237  0.05260566  1
  S2-  S255  1  0.85669736  0.75911627  0.54138468  1
