# generated using pymatgen
data_La6Ce6Pr19Nd20Sm13(BiS2)64
_symmetry_space_group_name_H-M   'P 1'
_cell_length_a   16.14857459
_cell_length_b   16.11232544
_cell_length_c   27.29622857
_cell_angle_alpha   89.94799413
_cell_angle_beta   90.18499480
_cell_angle_gamma   90.01189697
_symmetry_Int_Tables_number   1
_chemical_formula_structural   La6Ce6Pr19Nd20Sm13(BiS2)64
_chemical_formula_sum   'La6 Ce6 Pr19 Nd20 Sm13 Bi64 S128'
_cell_volume   7102.19534845
_cell_formula_units_Z   1
loop_
 _symmetry_equiv_pos_site_id
 _symmetry_equiv_pos_as_xyz
  1  'x, y, z'
loop_
 _atom_type_symbol
 _atom_type_oxidation_number
  La3+  3.0
  Ce3+  3.0
  Pr3+  3.0
  Nd3+  3.0
  Sm3+  3.0
  Bi2+  2.0
  S2-  -2.0
loop_
 _atom_site_type_symbol
 _atom_site_label
 _atom_site_symmetry_multiplicity
 _atom_site_fract_x
 _atom_site_fract_y
 _atom_site_fract_z
 _atom_site_occupancy
  La3+  La0  1  0.90057859  0.24669180  0.88274434  1
  La3+  La1  1  0.38573464  0.75572741  0.88915513  1
  La3+  La2  1  0.87011179  0.00252577  0.39737204  1
  La3+  La3  1  0.24162725  0.62311495  0.07610469  1
  La3+  La4  1  0.74060715  0.13259861  0.08155919  1
  La3+  La5  1  -0.00052266  0.87295861  0.07440521  1
  Ce3+  Ce6  1  0.24364630  0.12318401  0.06203991  1
  Ce3+  Ce7  1  0.74562292  0.86196991  0.07590885  1
  Ce3+  Ce8  1  0.75771918  0.13429270  0.55219179  1
  Ce3+  Ce9  1  0.50699656  0.38346394  0.55967671  1
  Ce3+  Ce10  1  0.38169086  0.76041903  0.44015128  1
  Ce3+  Ce11  1  0.00492744  0.88644255  0.56346587  1
  Pr3+  Pr12  1  0.62651418  0.75059115  0.93713474  1
  Pr3+  Pr13  1  0.24443117  0.87201194  0.07012508  1
  Pr3+  Pr14  1  0.74656973  0.37722882  0.06732819  1
  Pr3+  Pr15  1  0.87121008  0.75061431  0.93781020  1
  Pr3+  Pr16  1  0.00764903  0.13924381  0.56076969  1
  Pr3+  Pr17  1  0.12532225  0.75864831  0.43209684  1
  Pr3+  Pr18  1  0.62969147  0.76228578  0.43434037  1
  Pr3+  Pr19  1  0.25701166  0.13163147  0.56095263  1
  Pr3+  Pr20  1  0.74840169  0.38307248  0.56783411  1
  Pr3+  Pr21  1  0.62932046  0.25939757  0.43104962  1
  Pr3+  Pr22  1  0.88298497  0.25829657  0.43289634  1
  Pr3+  Pr23  1  0.49223629  0.37733844  0.05348428  1
  Pr3+  Pr24  1  0.49343567  0.87100619  0.06350711  1
  Pr3+  Pr25  1  0.50856538  0.63494768  0.55880422  1
  Pr3+  Pr26  1  0.12877944  0.00794236  0.42228406  1
  Pr3+  Pr27  1  0.11431025  0.00259761  0.93934563  1
  Pr3+  Pr28  1  0.62755711  0.25027223  0.93747944  1
  Pr3+  Pr29  1  0.49422480  0.12497302  0.05972944  1
  Pr3+  Pr30  1  0.62030533  -0.00291825  0.94924640  1
  Nd3+  Nd31  1  0.74916105  0.62169338  0.06518608  1
  Nd3+  Nd32  1  0.36622933  0.00108349  0.93995810  1
  Nd3+  Nd33  1  0.25284240  0.63464852  0.55481196  1
  Nd3+  Nd34  1  0.24873779  0.38490233  0.55555624  1
  Nd3+  Nd35  1  0.00654023  0.63810815  0.56700854  1
  Nd3+  Nd36  1  0.12665738  0.25749124  0.43310101  1
  Nd3+  Nd37  1  0.86644582  0.00705398  0.95170569  1
  Nd3+  Nd38  1  0.36039751  0.50687386  0.92989154  1
  Nd3+  Nd39  1  0.75402348  0.88912902  0.55838590  1
  Nd3+  Nd40  1  0.12462000  0.75247159  0.93935231  1
  Nd3+  Nd41  1  0.25628115  0.88578054  0.55797003  1
  Nd3+  Nd42  1  0.63155705  0.50600083  0.42999410  1
  Nd3+  Nd43  1  0.48943318  0.62644883  0.05598863  1
  Nd3+  Nd44  1  0.36906543  0.25064534  0.93861092  1
  Nd3+  Nd45  1  0.88221904  0.50718772  0.44102659  1
  Nd3+  Nd46  1  0.61808700  0.50328429  0.94653121  1
  Nd3+  Nd47  1  0.62285885  0.01480099  0.42449710  1
  Nd3+  Nd48  1  0.51234233  0.88699863  0.56747395  1
  Nd3+  Nd49  1  0.12561644  0.51220969  0.43039559  1
  Nd3+  Nd50  1  0.12099456  0.50022211  0.93864374  1
  Sm3+  Sm51  1  0.87842578  0.76233769  0.44331167  1
  Sm3+  Sm52  1  0.75286383  0.63489096  0.55259466  1
  Sm3+  Sm53  1  -0.00572318  0.12647184  0.06605247  1
  Sm3+  Sm54  1  0.86817776  0.49477306  0.93908174  1
  Sm3+  Sm55  1  0.37910132  0.50941787  0.44623923  1
  Sm3+  Sm56  1  -0.00596668  0.37271882  0.05675523  1
  Sm3+  Sm57  1  0.11994359  0.25016249  0.94982635  1
  Sm3+  Sm58  1  -0.00572742  0.38991728  0.57536102  1
  Sm3+  Sm59  1  0.38178446  0.01015809  0.43686098  1
  Sm3+  Sm60  1  0.37707806  0.26120952  0.44454135  1
  Sm3+  Sm61  1  -0.00257871  0.62283161  0.05808451  1
  Sm3+  Sm62  1  0.50643801  0.13478935  0.55630291  1
  Sm3+  Sm63  1  0.24446829  0.37702915  0.06538331  1
  Bi2+  Bi64  1  0.02346096  0.20830134  0.29143875  1
  Bi2+  Bi65  1  0.02300213  0.11597545  0.79472822  1
  Bi2+  Bi66  1  0.00985411  0.38455893  0.34616239  1
  Bi2+  Bi67  1  0.02254557  0.44859644  0.78803383  1
  Bi2+  Bi68  1  -0.01654291  0.57278382  0.29000504  1
  Bi2+  Bi69  1  -0.03901054  0.62911676  0.83098856  1
  Bi2+  Bi70  1  0.00533277  0.86456615  0.29531829  1
  Bi2+  Bi71  1  -0.00961476  0.82866431  0.83557835  1
  Bi2+  Bi72  1  0.27176328  0.06486094  0.29750788  1
  Bi2+  Bi73  1  0.25619717  0.17641275  0.76028681  1
  Bi2+  Bi74  1  0.19823388  0.38617899  0.30874778  1
  Bi2+  Bi75  1  0.30203868  0.33760620  0.82013095  1
  Bi2+  Bi76  1  0.23688000  0.58247190  0.29254447  1
  Bi2+  Bi77  1  0.15759698  0.60892039  0.79861364  1
  Bi2+  Bi78  1  0.26788444  0.86420378  0.28002402  1
  Bi2+  Bi79  1  0.24549575  0.88177168  0.79159838  1
  Bi2+  Bi80  1  0.47565085  0.11242535  0.29200479  1
  Bi2+  Bi81  1  0.52650759  0.12628759  0.74739019  1
  Bi2+  Bi82  1  0.48939582  0.37616245  0.29601736  1
  Bi2+  Bi83  1  0.49924127  0.29095394  0.81170987  1
  Bi2+  Bi84  1  0.51126814  0.57524902  0.29233457  1
  Bi2+  Bi85  1  0.54168377  0.61962272  0.79206460  1
  Bi2+  Bi86  1  0.49148019  0.85688127  0.28606320  1
  Bi2+  Bi87  1  0.50895192  0.89100952  0.78565727  1
  Bi2+  Bi88  1  0.74373868  0.13048488  0.28666861  1
  Bi2+  Bi89  1  0.73334302  0.09068097  0.80732092  1
  Bi2+  Bi90  1  0.75642195  0.39385811  0.28786471  1
  Bi2+  Bi91  1  0.73014927  0.39601006  0.79424771  1
  Bi2+  Bi92  1  0.70252856  0.61048556  0.29756380  1
  Bi2+  Bi93  1  0.79123999  0.64778982  0.77380676  1
  Bi2+  Bi94  1  0.74949915  0.85917714  0.27925282  1
  Bi2+  Bi95  1  0.80304011  0.86329527  0.79498153  1
  Bi2+  Bi96  1  0.13415572  0.02616732  0.21338407  1
  Bi2+  Bi97  1  0.06980079  -0.05929940  0.75112009  1
  Bi2+  Bi98  1  0.14504521  0.28434532  0.21159148  1
  Bi2+  Bi99  1  0.12637137  0.31722786  0.72499632  1
  Bi2+  Bi100  1  0.11334586  0.49477147  0.21626495  1
  Bi2+  Bi101  1  0.17147052  0.50233801  0.70150855  1
  Bi2+  Bi102  1  0.11008887  0.75091080  0.20108459  1
  Bi2+  Bi103  1  0.04985575  0.73848744  0.73695049  1
  Bi2+  Bi104  1  0.37179002  -0.02598699  0.20799644  1
  Bi2+  Bi105  1  0.33864819  0.01139339  0.68922096  1
  Bi2+  Bi106  1  0.32692156  0.25448365  0.24714242  1
  Bi2+  Bi107  1  0.39384864  0.28217245  0.70352439  1
  Bi2+  Bi108  1  0.36658844  0.44356169  0.21416868  1
  Bi2+  Bi109  1  0.42591323  0.45304290  0.75555300  1
  Bi2+  Bi110  1  0.35373532  0.68893192  0.22610766  1
  Bi2+  Bi111  1  0.35134820  0.75872135  0.68102891  1
  Bi2+  Bi112  1  0.61073806  0.01215791  0.19765187  1
  Bi2+  Bi113  1  0.68338796  -0.00404604  0.71399347  1
  Bi2+  Bi114  1  0.59450891  0.27520706  0.20961104  1
  Bi2+  Bi115  1  0.65107187  0.26928983  0.71896670  1
  Bi2+  Bi116  1  0.64354989  0.48277326  0.20318202  1
  Bi2+  Bi117  1  0.61218189  0.48409768  0.71903450  1
  Bi2+  Bi118  1  0.60283930  0.67836341  0.20511089  1
  Bi2+  Bi119  1  0.63749093  0.72678466  0.69366332  1
  Bi2+  Bi120  1  0.88595152  -0.02032535  0.18016276  1
  Bi2+  Bi121  1  0.87648822  -0.02499802  0.70491043  1
  Bi2+  Bi122  1  0.90430690  0.33150074  0.23122453  1
  Bi2+  Bi123  1  0.89347231  0.21667125  0.68008876  1
  Bi2+  Bi124  1  0.83246113  0.49491744  0.17710857  1
  Bi2+  Bi125  1  0.89483709  0.50984178  0.71079665  1
  Bi2+  Bi126  1  0.86929529  0.67308664  0.21570974  1
  Bi2+  Bi127  1  0.85682070  0.77708498  0.69459320  1
  S2-  S128  1  0.00522686  0.10561300  0.16387762  1
  S2-  S129  1  -0.01409160  0.06646611  0.65397065  1
  S2-  S130  1  0.02504729  0.37277988  0.15451242  1
  S2-  S131  1  0.04216281  0.26944902  0.64086400  1
  S2-  S132  1  0.08414072  0.62386310  0.14349191  1
  S2-  S133  1  0.01893709  0.52140729  0.64250308  1
  S2-  S134  1  -0.04932588  0.80885876  0.16873209  1
  S2-  S135  1  0.00778963  0.76840985  0.63768904  1
  S2-  S136  1  0.26277477  0.09088488  0.15604445  1
  S2-  S137  1  0.22863640  0.12017850  0.65985280  1
  S2-  S138  1  0.25964243  0.48234738  0.14250211  1
  S2-  S139  1  0.26566544  0.37099870  0.65469369  1
  S2-  S140  1  0.26117106  0.74654807  0.15167553  1
  S2-  S141  1  0.22483020  0.63772267  0.65194193  1
  S2-  S142  1  0.13003459  0.90026826  0.14840762  1
  S2-  S143  1  0.23371653  0.88501454  0.65710178  1
  S2-  S144  1  0.52052126  0.13867663  0.15861660  1
  S2-  S145  1  0.47817563  0.10146573  0.65093653  1
  S2-  S146  1  0.49226570  0.38173954  0.15362511  1
  S2-  S147  1  0.61060291  0.37837595  0.63786276  1
  S2-  S148  1  0.46092498  0.62852466  0.15528218  1
  S2-  S149  1  0.49283370  0.65784874  0.65833017  1
  S2-  S150  1  0.49909688  0.88319593  0.16592444  1
  S2-  S151  1  0.44579146  0.88307959  0.66025814  1
  S2-  S152  1  0.76437488  0.09713163  0.18243932  1
  S2-  S153  1  0.73374229  0.16648269  0.64810574  1
  S2-  S154  1  0.71653219  0.27914932  0.14804986  1
  S2-  S155  1  0.85938181  0.38126577  0.64703832  1
  S2-  S156  1  0.74292111  0.71751873  0.14625930  1
  S2-  S157  1  0.71848553  0.60855311  0.64749808  1
  S2-  S158  1  0.72746879  0.90321810  0.17370458  1
  S2-  S159  1  0.64902648  0.88310165  0.63937241  1
  S2-  S160  1  0.01626415  0.00027352  0.34490553  1
  S2-  S161  1  0.15011691  0.00876438  0.84064538  1
  S2-  S162  1  0.15010146  0.15413468  0.35348323  1
  S2-  S163  1  0.07543519  0.23851562  0.85532090  1
  S2-  S164  1  0.10766620  0.63341197  0.35610380  1
  S2-  S165  1  0.22715994  0.48409916  0.86045622  1
  S2-  S166  1  0.14888552  0.86306790  0.35226860  1
  S2-  S167  1  0.21655427  0.75150065  0.85397453  1
  S2-  S168  1  0.48437407  -0.00895428  0.35684735  1
  S2-  S169  1  0.37951359  -0.06978296  0.84993247  1
  S2-  S170  1  0.39830373  0.24995638  0.34763047  1
  S2-  S171  1  0.34755337  0.16785872  0.85168941  1
  S2-  S172  1  0.37891072  0.51451956  0.34852174  1
  S2-  S173  1  0.40820159  0.59365764  0.84610452  1
  S2-  S174  1  0.38192417  0.76809028  0.34221344  1
  S2-  S175  1  0.37894629  0.77502789  0.77526714  1
  S2-  S176  1  0.71768985  -0.01611705  0.34171347  1
  S2-  S177  1  0.61055874  -0.00747086  0.84784732  1
  S2-  S178  1  0.61594031  0.15912939  0.34659898  1
  S2-  S179  1  0.72664001  0.23772621  0.85495299  1
  S2-  S180  1  0.63246733  0.38574058  0.35779134  1
  S2-  S181  1  0.64597871  0.51546789  0.84913732  1
  S2-  S182  1  0.61524294  0.78968620  0.33472965  1
  S2-  S183  1  0.54764402  0.77199803  0.84597586  1
  S2-  S184  1  0.87264703  -0.02647079  0.27391753  1
  S2-  S185  1  0.88696211  0.06794102  0.85829888  1
  S2-  S186  1  0.86689861  0.16567600  0.34558885  1
  S2-  S187  1  0.90827006  0.23130230  0.77420290  1
  S2-  S188  1  0.83630675  0.53275783  0.34469338  1
  S2-  S189  1  0.87026134  0.41434665  0.85139991  1
  S2-  S190  1  0.87192625  0.80128128  0.34733483  1
  S2-  S191  1  0.75282048  0.74625433  0.86141065  1
  S2-  S192  1  0.00503444  0.13383363  0.45256462  1
  S2-  S193  1  -0.00735975  0.13146437  0.96138472  1
  S2-  S194  1  0.00568382  0.38543507  0.46262380  1
  S2-  S195  1  -0.00569073  0.37283679  0.95284216  1
  S2-  S196  1  -0.00214228  0.63587502  0.45923476  1
  S2-  S197  1  -0.00392940  0.62233855  0.95458898  1
  S2-  S198  1  -0.00032040  0.88326996  0.45581393  1
  S2-  S199  1  -0.00720243  0.87815234  0.96248018  1
  S2-  S200  1  0.26139934  0.13224737  0.45418079  1
  S2-  S201  1  0.24093277  0.12690851  0.95665581  1
  S2-  S202  1  0.25326406  0.38637416  0.44942208  1
  S2-  S203  1  0.24327780  0.37012998  0.96210054  1
  S2-  S204  1  0.25691924  0.63342290  0.44907869  1
  S2-  S205  1  0.23923052  0.62463366  0.96046875  1
  S2-  S206  1  0.26099908  0.88744291  0.45197842  1
  S2-  S207  1  0.24087167  0.88239856  0.95966513  1
  S2-  S208  1  0.49867556  0.13799436  0.45363306  1
  S2-  S209  1  0.49580413  0.12607977  0.95244578  1
  S2-  S210  1  0.50016330  0.38550162  0.45498639  1
  S2-  S211  1  0.49251801  0.37847258  0.94679612  1
  S2-  S212  1  0.50666103  0.63104266  0.44954908  1
  S2-  S213  1  0.49554008  0.63036478  0.95238234  1
  S2-  S214  1  0.50527205  0.88372762  0.45875600  1
  S2-  S215  1  0.49133462  0.87326866  0.95683948  1
  S2-  S216  1  0.75531588  0.13119050  0.44866253  1
  S2-  S217  1  0.74003591  0.12198265  0.96862579  1
  S2-  S218  1  0.75870354  0.38438137  0.45608697  1
  S2-  S219  1  0.74205474  0.38140093  0.96089148  1
  S2-  S220  1  0.75403038  0.63550540  0.44832088  1
  S2-  S221  1  0.74961300  0.61909849  0.95940385  1
  S2-  S222  1  0.75361958  0.88582808  0.45286366  1
  S2-  S223  1  0.74853465  0.87646864  0.96527455  1
  S2-  S224  1  0.11777620  0.00577084  0.04611209  1
  S2-  S225  1  0.13160429  0.00826706  0.54247976  1
  S2-  S226  1  0.12034547  0.25099392  0.05462829  1
  S2-  S227  1  0.13693691  0.25742733  0.53753173  1
  S2-  S228  1  0.11720170  0.49402070  0.04359178  1
  S2-  S229  1  0.13017230  0.51049888  0.53806550  1
  S2-  S230  1  0.11791360  0.74919887  0.04432001  1
  S2-  S231  1  0.13320146  0.76156738  0.53937851  1
  S2-  S232  1  0.36992518  -0.00089765  0.04799759  1
  S2-  S233  1  0.38434397  0.00888191  0.54150003  1
  S2-  S234  1  0.36714070  0.25137684  0.04876639  1
  S2-  S235  1  0.38088744  0.26017185  0.54923451  1
  S2-  S236  1  0.36802939  0.49972616  0.03843930  1
  S2-  S237  1  0.37971374  0.50870416  0.55162186  1
  S2-  S238  1  0.36928515  0.74989976  0.05102894  1
  S2-  S239  1  0.38166859  0.75965542  0.54587631  1
  S2-  S240  1  0.62082408  -0.00243444  0.05665466  1
  S2-  S241  1  0.62869369  0.01482855  0.53894226  1
  S2-  S242  1  0.61523139  0.25307670  0.04337793  1
  S2-  S243  1  0.62768746  0.25619962  0.53794464  1
  S2-  S244  1  0.61883841  0.50297574  0.05283294  1
  S2-  S245  1  0.62997655  0.51001633  0.53648599  1
  S2-  S246  1  0.61848613  0.74587799  0.04585671  1
  S2-  S247  1  0.63130654  0.75776101  0.54022711  1
  S2-  S248  1  0.86940627  0.00050459  0.05917234  1
  S2-  S249  1  0.87912032  0.00780466  0.54902977  1
  S2-  S250  1  0.87457575  0.25087757  0.06178951  1
  S2-  S251  1  0.87963673  0.26186806  0.54072065  1
  S2-  S252  1  0.87544638  0.49930398  0.04489597  1
  S2-  S253  1  0.87395245  0.51459321  0.54528995  1
  S2-  S254  1  0.87505176  0.74428384  0.04580651  1
  S2-  S255  1  0.87286266  0.75924642  0.54609074  1
