# generated using pymatgen
data_La6Ce6Pr19Nd20Sm13(BiS2)64
_symmetry_space_group_name_H-M   'P 1'
_cell_length_a   16.09656409
_cell_length_b   16.03185734
_cell_length_c   27.44784508
_cell_angle_alpha   90.20280524
_cell_angle_beta   89.97359282
_cell_angle_gamma   90.00955498
_symmetry_Int_Tables_number   1
_chemical_formula_structural   La6Ce6Pr19Nd20Sm13(BiS2)64
_chemical_formula_sum   'La6 Ce6 Pr19 Nd20 Sm13 Bi64 S128'
_cell_volume   7083.08581870
_cell_formula_units_Z   1
loop_
 _symmetry_equiv_pos_site_id
 _symmetry_equiv_pos_as_xyz
  1  'x, y, z'
loop_
 _atom_type_symbol
 _atom_type_oxidation_number
  La3+  3.0
  Ce3+  3.0
  Pr3+  3.0
  Nd3+  3.0
  Sm3+  3.0
  Bi2+  2.0
  S2-  -2.0
loop_
 _atom_site_type_symbol
 _atom_site_label
 _atom_site_symmetry_multiplicity
 _atom_site_fract_x
 _atom_site_fract_y
 _atom_site_fract_z
 _atom_site_occupancy
  La3+  La0  1  0.73404163  0.39762750  0.06726964  1
  La3+  La1  1  0.35640037  0.51321592  0.89801986  1
  La3+  La2  1  0.39065809  0.00197217  0.38059394  1
  La3+  La3  1  -0.01046493  0.15028541  0.56064361  1
  La3+  La4  1  0.74186371  0.36682944  0.61463125  1
  La3+  La5  1  -0.01521887  0.89902206  0.57420580  1
  Ce3+  Ce6  1  0.48716322  0.39837477  0.57222871  1
  Ce3+  Ce7  1  0.61498055  0.02383267  0.94247189  1
  Ce3+  Ce8  1  0.74241119  0.63458343  0.56423401  1
  Ce3+  Ce9  1  0.49132338  0.64462480  0.55629025  1
  Ce3+  Ce10  1  0.61551272  0.01928265  0.44406243  1
  Ce3+  Ce11  1  0.24188817  0.89863345  0.05789937  1
  Pr3+  Pr12  1  0.36716062  0.51587217  0.43524092  1
  Pr3+  Pr13  1  0.11857640  0.27025171  0.43080643  1
  Pr3+  Pr14  1  0.87093442  0.02484772  0.42385113  1
  Pr3+  Pr15  1  0.48489134  0.14565089  0.07649835  1
  Pr3+  Pr16  1  -0.01067652  0.89984257  0.06897426  1
  Pr3+  Pr17  1  0.24061838  0.64200676  0.06231632  1
  Pr3+  Pr18  1  0.36623354  0.26359514  0.93586045  1
  Pr3+  Pr19  1  -0.01049163  0.64560850  0.05580074  1
  Pr3+  Pr20  1  -0.00945279  0.39959154  0.06368408  1
  Pr3+  Pr21  1  0.23665061  0.15066119  0.07637479  1
  Pr3+  Pr22  1  0.12083349  0.02185360  0.41852673  1
  Pr3+  Pr23  1  -0.01172490  0.15399506  0.08550195  1
  Pr3+  Pr24  1  0.61371730  0.27816792  0.93303305  1
  Pr3+  Pr25  1  0.36851698  0.26656865  0.43450308  1
  Pr3+  Pr26  1  0.11958544  0.51766110  0.43059610  1
  Pr3+  Pr27  1  0.48778482  0.39950166  0.05995868  1
  Pr3+  Pr28  1  0.61642635  0.51863528  0.44522134  1
  Pr3+  Pr29  1  0.11501881  0.26949077  0.93909823  1
  Pr3+  Pr30  1  0.49193485  0.14812684  0.56317992  1
  Nd3+  Nd31  1  -0.00629009  0.39904562  0.55958680  1
  Nd3+  Nd32  1  0.11286738  0.02304330  0.94368552  1
  Nd3+  Nd33  1  0.73734706  0.64558800  0.06924599  1
  Nd3+  Nd34  1  0.24274080  0.39915288  0.06026103  1
  Nd3+  Nd35  1  0.61210966  0.76898705  0.93660212  1
  Nd3+  Nd36  1  0.11586257  0.77270188  0.94466234  1
  Nd3+  Nd37  1  0.36266041  0.77316859  0.44210941  1
  Nd3+  Nd38  1  0.74217284  0.89393569  0.55847432  1
  Nd3+  Nd39  1  0.61104132  0.52719024  0.93482297  1
  Nd3+  Nd40  1  0.86411259  0.51718994  0.43391046  1
  Nd3+  Nd41  1  0.61781991  0.77033504  0.43865874  1
  Nd3+  Nd42  1  0.11582331  0.52084129  0.93236635  1
  Nd3+  Nd43  1  0.24052318  0.89899833  0.56268644  1
  Nd3+  Nd44  1  0.49490442  0.89544066  0.06785019  1
  Nd3+  Nd45  1  0.61385251  0.27180420  0.44381498  1
  Nd3+  Nd46  1  0.86087394  0.52147308  0.93608716  1
  Nd3+  Nd47  1  0.74025790  0.15133110  0.07086912  1
  Nd3+  Nd48  1  0.86497686  0.02479023  0.93860986  1
  Nd3+  Nd49  1  0.36945374  0.02091279  0.93923634  1
  Nd3+  Nd50  1  0.36477136  0.76771690  0.93828041  1
  Sm3+  Sm51  1  0.86480563  0.27114123  0.94416454  1
  Sm3+  Sm52  1  -0.00788933  0.64193583  0.55207049  1
  Sm3+  Sm53  1  0.74246098  0.14556459  0.54929744  1
  Sm3+  Sm54  1  0.24071552  0.64651221  0.55954778  1
  Sm3+  Sm55  1  0.11593978  0.77495024  0.44867642  1
  Sm3+  Sm56  1  0.86514131  0.27419473  0.43477206  1
  Sm3+  Sm57  1  0.86961735  0.77140390  0.44610143  1
  Sm3+  Sm58  1  0.74056937  0.89695035  0.05352241  1
  Sm3+  Sm59  1  0.86619591  0.77174847  0.94732061  1
  Sm3+  Sm60  1  0.48655143  0.64908253  0.06795994  1
  Sm3+  Sm61  1  0.49081919  0.89553817  0.55952875  1
  Sm3+  Sm62  1  0.24530634  0.39446536  0.56459075  1
  Sm3+  Sm63  1  0.24370086  0.14356648  0.55120278  1
  Bi2+  Bi64  1  -0.00313819  0.11364363  0.28660737  1
  Bi2+  Bi65  1  -0.00020008  0.11444124  0.81693447  1
  Bi2+  Bi66  1  0.00008657  0.39407907  0.28746485  1
  Bi2+  Bi67  1  0.05034312  0.34802782  0.78005418  1
  Bi2+  Bi68  1  -0.06701076  0.58764343  0.31114558  1
  Bi2+  Bi69  1  0.04769298  0.61685275  0.75295740  1
  Bi2+  Bi70  1  -0.00485149  0.84233167  0.29255119  1
  Bi2+  Bi71  1  0.00546483  0.86223231  0.81760014  1
  Bi2+  Bi72  1  0.24938808  0.11078584  0.28170259  1
  Bi2+  Bi73  1  0.29301959  0.10189773  0.77101777  1
  Bi2+  Bi74  1  0.26112464  0.38894514  0.28526259  1
  Bi2+  Bi75  1  0.24082677  0.39055878  0.77060272  1
  Bi2+  Bi76  1  0.26740726  0.57600647  0.32432852  1
  Bi2+  Bi77  1  0.27068359  0.60405148  0.76648701  1
  Bi2+  Bi78  1  0.25932573  0.82675200  0.29202912  1
  Bi2+  Bi79  1  0.27854746  0.81429627  0.80546739  1
  Bi2+  Bi80  1  0.51474510  0.14908720  0.29477473  1
  Bi2+  Bi81  1  0.51114497  0.08214396  0.80316097  1
  Bi2+  Bi82  1  0.51583976  0.40161335  0.29194040  1
  Bi2+  Bi83  1  0.49936791  0.33873175  0.80676269  1
  Bi2+  Bi84  1  0.45115450  0.61228960  0.28757016  1
  Bi2+  Bi85  1  0.55421272  0.73339117  0.77982885  1
  Bi2+  Bi86  1  0.53442048  0.78139570  0.24892017  1
  Bi2+  Bi87  1  0.45879472  0.89002341  0.83295900  1
  Bi2+  Bi88  1  0.73363514  0.10028382  0.26685784  1
  Bi2+  Bi89  1  0.76156714  0.09124299  0.73673404  1
  Bi2+  Bi90  1  0.74414951  0.40947754  0.28428726  1
  Bi2+  Bi91  1  0.76180774  0.33739183  0.81745504  1
  Bi2+  Bi92  1  0.73328211  0.63496815  0.30221659  1
  Bi2+  Bi93  1  0.78105099  0.61082919  0.80813537  1
  Bi2+  Bi94  1  0.78497230  0.91082949  0.28942322  1
  Bi2+  Bi95  1  0.73807309  0.82674423  0.78453499  1
  Bi2+  Bi96  1  0.11488733  -0.03768961  0.20880618  1
  Bi2+  Bi97  1  0.16794723  -0.03562828  0.73135672  1
  Bi2+  Bi98  1  0.10747695  0.26084263  0.20703672  1
  Bi2+  Bi99  1  0.12401658  0.21290726  0.70555611  1
  Bi2+  Bi100  1  0.09631172  0.48432715  0.19661748  1
  Bi2+  Bi101  1  0.12931979  0.40078165  0.67702915  1
  Bi2+  Bi102  1  0.11057498  0.64288592  0.26841290  1
  Bi2+  Bi103  1  0.16547907  0.76344189  0.71135795  1
  Bi2+  Bi104  1  0.39222074  -0.07111882  0.18951585  1
  Bi2+  Bi105  1  0.39922918  -0.04806403  0.72779181  1
  Bi2+  Bi106  1  0.36300292  0.24805166  0.20715795  1
  Bi2+  Bi107  1  0.36810056  0.24333512  0.70337926  1
  Bi2+  Bi108  1  0.36631822  0.49201799  0.20738225  1
  Bi2+  Bi109  1  0.46262629  0.46666586  0.71738696  1
  Bi2+  Bi110  1  0.29641155  0.67987671  0.21936776  1
  Bi2+  Bi111  1  0.40061060  0.71163015  0.70681013  1
  Bi2+  Bi112  1  0.62956981  -0.05059165  0.22025777  1
  Bi2+  Bi113  1  0.64741463  -0.05768056  0.70672972  1
  Bi2+  Bi114  1  0.61209080  0.21716040  0.20391734  1
  Bi2+  Bi115  1  0.61375211  0.23161933  0.71031856  1
  Bi2+  Bi116  1  0.61948322  0.43673545  0.19671190  1
  Bi2+  Bi117  1  0.65040809  0.58913710  0.72398382  1
  Bi2+  Bi118  1  0.64049700  0.64143667  0.19808789  1
  Bi2+  Bi119  1  0.71006237  0.75997893  0.67619700  1
  Bi2+  Bi120  1  0.89670312  -0.00824596  0.20490022  1
  Bi2+  Bi121  1  0.92085544  -0.02105090  0.71357412  1
  Bi2+  Bi122  1  0.86148829  0.25119861  0.26278518  1
  Bi2+  Bi123  1  0.88858699  0.23935129  0.71203922  1
  Bi2+  Bi124  1  0.88936272  0.50582034  0.20886435  1
  Bi2+  Bi125  1  0.90698970  0.51863601  0.70405345  1
  Bi2+  Bi126  1  0.79569900  0.75731668  0.21510031  1
  Bi2+  Bi127  1  0.89054883  0.72028534  0.72131482  1
  S2-  S128  1  0.11499270  0.11153165  0.15447155  1
  S2-  S129  1  -0.01232102  0.12134624  0.65960084  1
  S2-  S130  1  -0.01496267  0.30459100  0.14823154  1
  S2-  S131  1  -0.08635342  0.36758586  0.64565834  1
  S2-  S132  1  -0.00552514  0.60630101  0.15273145  1
  S2-  S133  1  0.00080329  0.63245980  0.64915643  1
  S2-  S134  1  0.00319979  0.85660105  0.16665374  1
  S2-  S135  1  0.05331485  0.88955412  0.66825451  1
  S2-  S136  1  0.34994867  0.11481847  0.15295429  1
  S2-  S137  1  0.25495387  0.15411512  0.65103440  1
  S2-  S138  1  0.23617656  0.29592021  0.14293694  1
  S2-  S139  1  0.35674542  0.39563332  0.64248373  1
  S2-  S140  1  0.23226250  0.52074536  0.13677878  1
  S2-  S141  1  0.25806674  0.64118441  0.65693083  1
  S2-  S142  1  0.23468487  0.87948381  0.15547468  1
  S2-  S143  1  0.27022788  0.89686325  0.66110211  1
  S2-  S144  1  0.52265311  0.01148333  0.14538893  1
  S2-  S145  1  0.49931194  0.14638302  0.66448318  1
  S2-  S146  1  0.48580209  0.28694190  0.14176111  1
  S2-  S147  1  0.57855863  0.37462644  0.65607743  1
  S2-  S148  1  0.49599474  0.52220615  0.13828913  1
  S2-  S149  1  0.49493579  0.60495866  0.65127792  1
  S2-  S150  1  0.47886780  0.77957920  0.14441039  1
  S2-  S151  1  0.50899630  0.87950308  0.65653595  1
  S2-  S152  1  0.85202960  0.11082555  0.14610239  1
  S2-  S153  1  0.75134974  0.18323075  0.64447352  1
  S2-  S154  1  0.72626244  0.28296795  0.14530235  1
  S2-  S155  1  0.74840206  0.35314288  0.72388956  1
  S2-  S156  1  0.75096758  0.52401325  0.14213652  1
  S2-  S157  1  0.75789122  0.53838141  0.64652048  1
  S2-  S158  1  0.73123382  0.86911167  0.14988670  1
  S2-  S159  1  0.84318982  0.92284575  0.63802504  1
  S2-  S160  1  0.22564121  -0.02044931  0.33997371  1
  S2-  S161  1  0.11240734  -0.01197076  0.84534311  1
  S2-  S162  1  0.12154213  0.16540363  0.34626761  1
  S2-  S163  1  0.12480493  0.22861542  0.84149470  1
  S2-  S164  1  0.12752918  0.39586837  0.35674672  1
  S2-  S165  1  0.20161880  0.51724414  0.84606491  1
  S2-  S166  1  0.12371180  0.77276563  0.35050626  1
  S2-  S167  1  0.11410850  0.75347349  0.84649383  1
  S2-  S168  1  0.39392803  0.01206967  0.27036718  1
  S2-  S169  1  0.36779057  0.12973441  0.86128742  1
  S2-  S170  1  0.36399746  0.17142554  0.34726635  1
  S2-  S171  1  0.34563988  0.34824966  0.84801076  1
  S2-  S172  1  0.38129281  0.39318355  0.36005050  1
  S2-  S173  1  0.46351938  0.50295863  0.81090540  1
  S2-  S174  1  0.38963529  0.82757929  0.34982930  1
  S2-  S175  1  0.35420559  0.67924159  0.85183810  1
  S2-  S176  1  0.56228047  0.01456752  0.35246959  1
  S2-  S177  1  0.62048606  -0.02185615  0.84847241  1
  S2-  S178  1  0.59829970  0.27012921  0.34359893  1
  S2-  S179  1  0.61709538  0.20879060  0.83763537  1
  S2-  S180  1  0.62935506  0.50857550  0.34482406  1
  S2-  S181  1  0.63519991  0.41267387  0.85858732  1
  S2-  S182  1  0.63119549  0.75845965  0.34046435  1
  S2-  S183  1  0.62630401  0.65270362  0.86182625  1
  S2-  S184  1  0.99076375  -0.02431441  0.35247102  1
  S2-  S185  1  0.88805295  -0.00764407  0.84222677  1
  S2-  S186  1  0.86627066  0.16537021  0.35487675  1
  S2-  S187  1  0.88342757  0.21807107  0.85000165  1
  S2-  S188  1  0.86179232  0.39559538  0.35982163  1
  S2-  S189  1  0.86759660  0.47468223  0.84017474  1
  S2-  S190  1  0.89014797  0.75981482  0.34856496  1
  S2-  S191  1  0.86741940  0.75734154  0.84987924  1
  S2-  S192  1  -0.00589469  0.14686109  0.45426932  1
  S2-  S193  1  -0.01119683  0.14611222  0.95759952  1
  S2-  S194  1  -0.00719437  0.39563600  0.45588222  1
  S2-  S195  1  -0.01105404  0.39668227  0.95095160  1
  S2-  S196  1  -0.00545504  0.64477220  0.44906896  1
  S2-  S197  1  -0.01011845  0.64583475  0.94888069  1
  S2-  S198  1  -0.00806846  0.89300176  0.46256418  1
  S2-  S199  1  -0.01140750  0.89579151  0.96030583  1
  S2-  S200  1  0.24096156  0.14346620  0.45158454  1
  S2-  S201  1  0.23739134  0.14256301  0.96046707  1
  S2-  S202  1  0.24243332  0.39485055  0.46074174  1
  S2-  S203  1  0.23843235  0.39710659  0.95306091  1
  S2-  S204  1  0.23870452  0.64645413  0.45515679  1
  S2-  S205  1  0.23670371  0.64501784  0.95604378  1
  S2-  S206  1  0.23891485  0.89600414  0.45743151  1
  S2-  S207  1  0.24104257  0.89809432  0.95116925  1
  S2-  S208  1  0.49187969  0.14155091  0.45650717  1
  S2-  S209  1  0.49466231  0.14516421  0.96015663  1
  S2-  S210  1  0.49230173  0.39532592  0.46324570  1
  S2-  S211  1  0.48416581  0.40270074  0.95040907  1
  S2-  S212  1  0.48922198  0.64724006  0.44824044  1
  S2-  S213  1  0.48700930  0.64877662  0.95845755  1
  S2-  S214  1  0.49043187  0.89472934  0.45567114  1
  S2-  S215  1  0.49162475  0.89450784  0.96106926  1
  S2-  S216  1  0.73804572  0.14569949  0.44759187  1
  S2-  S217  1  0.74146247  0.14780421  0.95573165  1
  S2-  S218  1  0.73794636  0.39337418  0.45214666  1
  S2-  S219  1  0.74384416  0.39708159  0.95902643  1
  S2-  S220  1  0.74398691  0.64641965  0.45445438  1
  S2-  S221  1  0.74483116  0.64926790  0.96237143  1
  S2-  S222  1  0.74537747  0.89490551  0.45128728  1
  S2-  S223  1  0.74158254  0.89318016  0.94976362  1
  S2-  S224  1  0.11258079  0.02138360  0.04838978  1
  S2-  S225  1  0.11678663  0.02280688  0.55379954  1
  S2-  S226  1  0.11143029  0.27241488  0.04412229  1
  S2-  S227  1  0.12104071  0.27237130  0.54518404  1
  S2-  S228  1  0.11233788  0.52069329  0.03710156  1
  S2-  S229  1  0.12045155  0.52156719  0.54206588  1
  S2-  S230  1  0.11467091  0.77102062  0.05070074  1
  S2-  S231  1  0.11539362  0.76926667  0.55270493  1
  S2-  S232  1  0.36651146  0.01787035  0.04366101  1
  S2-  S233  1  0.36869970  0.01952516  0.55769446  1
  S2-  S234  1  0.36317836  0.27033649  0.04119277  1
  S2-  S235  1  0.36494011  0.26889403  0.54295032  1
  S2-  S236  1  0.36610555  0.52520883  0.04233008  1
  S2-  S237  1  0.36178869  0.52496708  0.54178889  1
  S2-  S238  1  0.36211432  0.76952574  0.04432749  1
  S2-  S239  1  0.36534565  0.77138820  0.54893083  1
  S2-  S240  1  0.62304910  0.02251018  0.04648215  1
  S2-  S241  1  0.61799313  0.01897982  0.55129630  1
  S2-  S242  1  0.61203144  0.26936229  0.04004415  1
  S2-  S243  1  0.62008413  0.27118568  0.54873348  1
  S2-  S244  1  0.61394092  0.52784856  0.04001732  1
  S2-  S245  1  0.61399902  0.51941380  0.54963739  1
  S2-  S246  1  0.61830144  0.76954315  0.04357797  1
  S2-  S247  1  0.61648635  0.77000915  0.54507283  1
  S2-  S248  1  0.86409313  0.01962695  0.04372291  1
  S2-  S249  1  0.86393193  0.02532687  0.53485693  1
  S2-  S250  1  0.86545373  0.27269165  0.04509071  1
  S2-  S251  1  0.86201650  0.27264831  0.54002346  1
  S2-  S252  1  0.86578024  0.52241366  0.04206106  1
  S2-  S253  1  0.87272245  0.52160466  0.53854775  1
  S2-  S254  1  0.86385635  0.77122980  0.05223634  1
  S2-  S255  1  0.86670616  0.76382548  0.54926243  1
