# generated using pymatgen
data_La6Ce6Pr19Nd20Sm13(BiS2)64
_symmetry_space_group_name_H-M   'P 1'
_cell_length_a   16.14928347
_cell_length_b   16.07894924
_cell_length_c   27.26974675
_cell_angle_alpha   89.70289884
_cell_angle_beta   89.92920985
_cell_angle_gamma   90.06722557
_symmetry_Int_Tables_number   1
_chemical_formula_structural   La6Ce6Pr19Nd20Sm13(BiS2)64
_chemical_formula_sum   'La6 Ce6 Pr19 Nd20 Sm13 Bi64 S128'
_cell_volume   7080.85260431
_cell_formula_units_Z   1
loop_
 _symmetry_equiv_pos_site_id
 _symmetry_equiv_pos_as_xyz
  1  'x, y, z'
loop_
 _atom_type_symbol
 _atom_type_oxidation_number
  La3+  3.0
  Ce3+  3.0
  Pr3+  3.0
  Nd3+  3.0
  Sm3+  3.0
  Bi2+  2.0
  S2-  -2.0
loop_
 _atom_site_type_symbol
 _atom_site_label
 _atom_site_symmetry_multiplicity
 _atom_site_fract_x
 _atom_site_fract_y
 _atom_site_fract_z
 _atom_site_occupancy
  La3+  La0  1  0.76136832  0.62910021  0.06054393  1
  La3+  La1  1  0.23953629  0.12365735  0.58033878  1
  La3+  La2  1  0.89306430  0.76343034  0.92810362  1
  La3+  La3  1  0.01552264  0.37459999  0.10036969  1
  La3+  La4  1  0.64377928  0.76165062  0.92195581  1
  La3+  La5  1  0.49723180  0.61153311  0.59391223  1
  Ce3+  Ce6  1  0.51825525  0.37642309  0.07308374  1
  Ce3+  Ce7  1  0.13524361  0.50880711  0.94581497  1
  Ce3+  Ce8  1  0.25988026  0.38273143  0.05998012  1
  Ce3+  Ce9  1  0.74978597  0.86891472  0.55794646  1
  Ce3+  Ce10  1  0.63991380  0.50706235  0.93593835  1
  Ce3+  Ce11  1  0.62489209  0.74303867  0.45413812  1
  Pr3+  Pr12  1  0.74932696  0.13004538  0.55858338  1
  Pr3+  Pr13  1  0.62505909  -0.00094092  0.44485239  1
  Pr3+  Pr14  1  0.51337511  0.12819578  0.06762533  1
  Pr3+  Pr15  1  -0.00554389  0.87202765  0.55715210  1
  Pr3+  Pr16  1  0.76087791  0.62033507  0.58696793  1
  Pr3+  Pr17  1  0.49972679  0.12656044  0.56146493  1
  Pr3+  Pr18  1  0.37353116  0.00126792  0.44226101  1
  Pr3+  Pr19  1  0.39104148  0.25868297  0.94052824  1
  Pr3+  Pr20  1  0.64094184  0.25638961  0.93686363  1
  Pr3+  Pr21  1  0.00655202  0.63100529  0.07737827  1
  Pr3+  Pr22  1  0.75054239  0.37265536  0.55995643  1
  Pr3+  Pr23  1  0.89362481  0.50857093  0.93899264  1
  Pr3+  Pr24  1  0.13708004  0.01102690  0.93404186  1
  Pr3+  Pr25  1  0.88372437  0.25009929  0.39082173  1
  Pr3+  Pr26  1  0.39283881  0.75878663  0.92872634  1
  Pr3+  Pr27  1  0.63828996  0.00891419  0.93740155  1
  Pr3+  Pr28  1  0.12610774  0.74725890  0.44246906  1
  Pr3+  Pr29  1  0.62831195  0.24780123  0.42572481  1
  Pr3+  Pr30  1  0.26068566  0.13158632  0.06107652  1
  Nd3+  Nd31  1  0.89111457  0.00791273  0.94897761  1
  Nd3+  Nd32  1  0.76450162  0.13066192  0.06688006  1
  Nd3+  Nd33  1  -0.00158815  0.12656490  0.55494374  1
  Nd3+  Nd34  1  0.62645598  0.50090240  0.44213972  1
  Nd3+  Nd35  1  0.01558031  0.87619896  0.06834963  1
  Nd3+  Nd36  1  0.24709660  0.37002059  0.56005658  1
  Nd3+  Nd37  1  0.24906811  0.87325962  0.56883926  1
  Nd3+  Nd38  1  0.24706221  0.62611738  0.57476445  1
  Nd3+  Nd39  1  0.76301697  0.87814246  0.06170854  1
  Nd3+  Nd40  1  0.01573147  0.12946179  0.07353500  1
  Nd3+  Nd41  1  0.89122045  0.25824735  0.94657096  1
  Nd3+  Nd42  1  0.49985725  0.87168506  0.56589882  1
  Nd3+  Nd43  1  0.38947539  0.50763162  0.94171492  1
  Nd3+  Nd44  1  0.87176470  0.74509405  0.43151760  1
  Nd3+  Nd45  1  0.12416135  -0.00143668  0.43793379  1
  Nd3+  Nd46  1  0.12797544  0.24129191  0.42426771  1
  Nd3+  Nd47  1  0.37635767  0.74527257  0.44961140  1
  Nd3+  Nd48  1  0.37425210  0.24866142  0.44347040  1
  Nd3+  Nd49  1  0.51715176  0.63378752  0.06359373  1
  Nd3+  Nd50  1  -0.00069600  0.37211441  0.55112477  1
  Sm3+  Sm51  1  0.76305672  0.37892757  0.06472957  1
  Sm3+  Sm52  1  0.26311615  0.63256523  0.04948207  1
  Sm3+  Sm53  1  0.87311636  0.00260338  0.43834747  1
  Sm3+  Sm54  1  0.37480737  0.49961225  0.44549214  1
  Sm3+  Sm55  1  0.13758335  0.25421539  0.93839481  1
  Sm3+  Sm56  1  0.13396810  0.76300889  0.93055352  1
  Sm3+  Sm57  1  0.38999777  0.00867753  0.94268522  1
  Sm3+  Sm58  1  0.51404131  0.87976582  0.06422123  1
  Sm3+  Sm59  1  0.12487996  0.49666171  0.44111196  1
  Sm3+  Sm60  1  0.50199558  0.37542329  0.55529998  1
  Sm3+  Sm61  1  -0.00042368  0.62058611  0.55680903  1
  Sm3+  Sm62  1  0.26362724  0.87801885  0.05272228  1
  Sm3+  Sm63  1  0.87358228  0.49762788  0.43373011  1
  Bi2+  Bi64  1  0.01871919  0.08483621  0.27850267  1
  Bi2+  Bi65  1  -0.02144357  0.16338164  0.79306501  1
  Bi2+  Bi66  1  0.01755991  0.40691447  0.28406002  1
  Bi2+  Bi67  1  0.01868659  0.38598629  0.79385678  1
  Bi2+  Bi68  1  -0.03336252  0.67467265  0.28392789  1
  Bi2+  Bi69  1  -0.02934837  0.60503978  0.78960915  1
  Bi2+  Bi70  1  0.01416872  0.89085808  0.29022650  1
  Bi2+  Bi71  1  0.01579286  0.87225998  0.79246052  1
  Bi2+  Bi72  1  0.25789326  0.05506825  0.28905303  1
  Bi2+  Bi73  1  0.24055282  0.14514312  0.78765035  1
  Bi2+  Bi74  1  0.25287719  0.31988772  0.30329000  1
  Bi2+  Bi75  1  0.20577046  0.34127247  0.79588693  1
  Bi2+  Bi76  1  0.23478321  0.69634889  0.29220740  1
  Bi2+  Bi77  1  0.23165525  0.56651364  0.78853130  1
  Bi2+  Bi78  1  0.19706265  0.88506106  0.24123831  1
  Bi2+  Bi79  1  0.23050023  0.87480506  0.76902240  1
  Bi2+  Bi80  1  0.48773509  0.11821096  0.30534400  1
  Bi2+  Bi81  1  0.51092819  0.14005373  0.81676561  1
  Bi2+  Bi82  1  0.47611979  0.39391583  0.28715261  1
  Bi2+  Bi83  1  0.46505007  0.37438481  0.73312772  1
  Bi2+  Bi84  1  0.47698035  0.65001769  0.30840242  1
  Bi2+  Bi85  1  0.48718368  0.58700413  0.78921420  1
  Bi2+  Bi86  1  0.48579005  0.85352642  0.26035248  1
  Bi2+  Bi87  1  0.48741418  0.85615360  0.80165821  1
  Bi2+  Bi88  1  0.76420979  0.00722794  0.29265473  1
  Bi2+  Bi89  1  0.71379363  0.12507767  0.83225381  1
  Bi2+  Bi90  1  0.74905435  0.39896884  0.27843308  1
  Bi2+  Bi91  1  0.73388473  0.30704832  0.79087028  1
  Bi2+  Bi92  1  0.71873323  0.64508629  0.30124036  1
  Bi2+  Bi93  1  0.72564854  0.62863004  0.79270216  1
  Bi2+  Bi94  1  0.82250431  0.82382416  0.30978828  1
  Bi2+  Bi95  1  0.76459156  0.90062801  0.79583597  1
  Bi2+  Bi96  1  0.07551310  -0.00287127  0.17679220  1
  Bi2+  Bi97  1  0.10560358  -0.00967871  0.70972069  1
  Bi2+  Bi98  1  0.17113013  0.23949529  0.20908794  1
  Bi2+  Bi99  1  0.10404224  0.25091103  0.70876422  1
  Bi2+  Bi100  1  0.23265676  0.50219447  0.26549980  1
  Bi2+  Bi101  1  0.09990651  0.53287543  0.68712090  1
  Bi2+  Bi102  1  0.11007611  0.63876770  0.20793912  1
  Bi2+  Bi103  1  0.13170667  0.71178938  0.73205679  1
  Bi2+  Bi104  1  0.37418703  -0.01135083  0.20355331  1
  Bi2+  Bi105  1  0.35189966  0.01426437  0.72623757  1
  Bi2+  Bi106  1  0.37226449  0.27873016  0.21343227  1
  Bi2+  Bi107  1  0.37465363  0.20851754  0.70369369  1
  Bi2+  Bi108  1  0.39152074  0.47488496  0.19227444  1
  Bi2+  Bi109  1  0.27483435  0.44692600  0.70124357  1
  Bi2+  Bi110  1  0.36662010  0.71991263  0.20153086  1
  Bi2+  Bi111  1  0.36742897  0.73656398  0.70261838  1
  Bi2+  Bi112  1  0.62337371  -0.03104415  0.21825205  1
  Bi2+  Bi113  1  0.63738092  0.05499334  0.73557160  1
  Bi2+  Bi114  1  0.62734410  0.25381127  0.20923320  1
  Bi2+  Bi115  1  0.58940814  0.23167402  0.69060247  1
  Bi2+  Bi116  1  0.58249799  0.50345993  0.21214349  1
  Bi2+  Bi117  1  0.65250222  0.42879213  0.71441770  1
  Bi2+  Bi118  1  0.61696625  0.73240609  0.20925252  1
  Bi2+  Bi119  1  0.62108775  0.79883906  0.69941325  1
  Bi2+  Bi120  1  0.89004987  -0.01328297  0.20175837  1
  Bi2+  Bi121  1  0.84103819  0.05731506  0.73601285  1
  Bi2+  Bi122  1  0.86745922  0.24739133  0.21617626  1
  Bi2+  Bi123  1  0.86064860  0.24497992  0.70817951  1
  Bi2+  Bi124  1  0.87468685  0.51456130  0.21670567  1
  Bi2+  Bi125  1  0.91418347  0.46817873  0.70966686  1
  Bi2+  Bi126  1  0.87877107  0.78455534  0.19442796  1
  Bi2+  Bi127  1  0.87502233  0.77521712  0.69504690  1
  S2-  S128  1  0.00695967  0.22324165  0.15945284  1
  S2-  S129  1  0.08172041  0.11845111  0.64262791  1
  S2-  S130  1  0.02335632  0.51563298  0.16001781  1
  S2-  S131  1  -0.01703163  0.34164790  0.64967430  1
  S2-  S132  1  -0.14328153  0.63412388  0.14638371  1
  S2-  S133  1  -0.08380398  0.65065071  0.64016401  1
  S2-  S134  1  0.03281259  0.76547675  0.14546872  1
  S2-  S135  1  0.00054600  0.87623079  0.65776610  1
  S2-  S136  1  0.28003659  0.12258564  0.16103927  1
  S2-  S137  1  0.24944779  -0.01314734  0.64720796  1
  S2-  S138  1  0.18233232  0.36759008  0.14702834  1
  S2-  S139  1  0.23926457  0.26896400  0.64213465  1
  S2-  S140  1  0.25936265  0.62856949  0.14736387  1
  S2-  S141  1  0.34855625  0.59292008  0.65422463  1
  S2-  S142  1  0.28853727  0.86208956  0.14967087  1
  S2-  S143  1  0.22950400  0.75938290  0.64587705  1
  S2-  S144  1  0.50477704  0.24141857  0.14586444  1
  S2-  S145  1  0.47430130  0.08903127  0.65839103  1
  S2-  S146  1  0.64898047  0.38431681  0.14436825  1
  S2-  S147  1  0.51693435  0.44810860  0.64445656  1
  S2-  S148  1  0.49673560  0.75898882  0.13536635  1
  S2-  S149  1  0.52491662  0.66191840  0.69298984  1
  S2-  S150  1  0.51810515  0.99965156  0.14033546  1
  S2-  S151  1  0.46990440  0.86220529  0.66401329  1
  S2-  S152  1  0.73887123  0.15636331  0.16535442  1
  S2-  S153  1  0.73646707  0.24360938  0.63502214  1
  S2-  S154  1  0.85619346  0.37317279  0.15349046  1
  S2-  S155  1  0.76599642  0.47129033  0.64561673  1
  S2-  S156  1  0.64110809  0.61287038  0.13852941  1
  S2-  S157  1  0.72835173  0.67482741  0.68778039  1
  S2-  S158  1  0.71577957  0.85583031  0.15760648  1
  S2-  S159  1  0.75651470  0.88603926  0.65458067  1
  S2-  S160  1  0.14023436  0.09738267  0.35656922  1
  S2-  S161  1  0.14822589  -0.10506990  0.85775616  1
  S2-  S162  1  0.03573916  0.27494840  0.33858672  1
  S2-  S163  1  0.11510821  0.14023776  0.86224904  1
  S2-  S164  1  0.10940342  0.51043089  0.34339697  1
  S2-  S165  1  0.09629264  0.52442808  0.85038134  1
  S2-  S166  1  0.09167350  0.75669537  0.34523779  1
  S2-  S167  1  0.01685568  0.73683956  0.85644037  1
  S2-  S168  1  0.38392810  -0.01518865  0.34244747  1
  S2-  S169  1  0.41555822  -0.00899283  0.84585627  1
  S2-  S170  1  0.34783795  0.19952033  0.34981253  1
  S2-  S171  1  0.37172247  0.22567081  0.84251180  1
  S2-  S172  1  0.40311071  0.52205976  0.34889064  1
  S2-  S173  1  0.37571916  0.50253515  0.84242929  1
  S2-  S174  1  0.36242423  0.75411451  0.35089853  1
  S2-  S175  1  0.36735249  0.75563629  0.82761609  1
  S2-  S176  1  0.61478118  0.04529793  0.34821486  1
  S2-  S177  1  0.63161029  -0.09268706  0.85464296  1
  S2-  S178  1  0.55665028  0.25780509  0.33371256  1
  S2-  S179  1  0.58304989  0.29001610  0.84355139  1
  S2-  S180  1  0.65244238  0.50606242  0.34299315  1
  S2-  S181  1  0.61764617  0.51395763  0.83730594  1
  S2-  S182  1  0.61024276  0.74186791  0.35648489  1
  S2-  S183  1  0.57702976  0.71121663  0.82892961  1
  S2-  S184  1  0.89144733  0.08298364  0.35138706  1
  S2-  S185  1  0.90454480  -0.06534175  0.85875424  1
  S2-  S186  1  0.77162607  0.24563846  0.30902670  1
  S2-  S187  1  0.90139504  0.28733313  0.84704887  1
  S2-  S188  1  0.87981823  0.41330839  0.34599524  1
  S2-  S189  1  0.84540341  0.53275190  0.84061981  1
  S2-  S190  1  0.86675989  0.62152880  0.36067002  1
  S2-  S191  1  0.78050829  0.74990106  0.84803856  1
  S2-  S192  1  -0.00123054  0.12460807  0.45130324  1
  S2-  S193  1  0.01177272  0.13289557  0.96594417  1
  S2-  S194  1  0.00225643  0.37449007  0.44739854  1
  S2-  S195  1  0.01763747  0.37783461  0.94951869  1
  S2-  S196  1  0.00299366  0.62101837  0.45377347  1
  S2-  S197  1  0.01481437  0.63366485  0.96283488  1
  S2-  S198  1  -0.00415345  0.87561331  0.44877395  1
  S2-  S199  1  0.01769955  0.88523566  0.96278866  1
  S2-  S200  1  0.25043262  0.12364865  0.46402779  1
  S2-  S201  1  0.26594803  0.13204498  0.95453264  1
  S2-  S202  1  0.24935109  0.37444958  0.45202544  1
  S2-  S203  1  0.26081371  0.38087817  0.95140462  1
  S2-  S204  1  0.24934240  0.62031408  0.45821651  1
  S2-  S205  1  0.26200749  0.63606487  0.94393864  1
  S2-  S206  1  0.24970537  0.87338811  0.45663939  1
  S2-  S207  1  0.26848782  0.88338204  0.94992992  1
  S2-  S208  1  0.50018888  0.12599524  0.45445631  1
  S2-  S209  1  0.51286681  0.13156798  0.95852524  1
  S2-  S210  1  0.49889903  0.37516904  0.45029680  1
  S2-  S211  1  0.51338181  0.38307781  0.95747738  1
  S2-  S212  1  0.49804158  0.61994087  0.46230386  1
  S2-  S213  1  0.51347074  0.63199678  0.95252645  1
  S2-  S214  1  0.49960413  0.87302479  0.45788178  1
  S2-  S215  1  0.51057793  0.88460042  0.95791793  1
  S2-  S216  1  0.75154485  0.12598909  0.45120759  1
  S2-  S217  1  0.76762183  0.13200010  0.96002308  1
  S2-  S218  1  0.75036756  0.37236171  0.44796112  1
  S2-  S219  1  0.76530732  0.38152972  0.95329236  1
  S2-  S220  1  0.74938930  0.62242812  0.46110916  1
  S2-  S221  1  0.76450672  0.63028622  0.95290991  1
  S2-  S222  1  0.75097172  0.87441048  0.45067295  1
  S2-  S223  1  0.76526575  0.88695313  0.95705311  1
  S2-  S224  1  0.13964230  0.00347857  0.04441702  1
  S2-  S225  1  0.12077430  -0.00616269  0.54197819  1
  S2-  S226  1  0.13462091  0.25483333  0.04352203  1
  S2-  S227  1  0.12241958  0.24960918  0.53462974  1
  S2-  S228  1  0.13838703  0.50876671  0.04936974  1
  S2-  S229  1  0.12624078  0.49881199  0.54668706  1
  S2-  S230  1  0.14351898  0.75632020  0.03836158  1
  S2-  S231  1  0.11912463  0.74663043  0.54744547  1
  S2-  S232  1  0.38405586  0.00406353  0.04605690  1
  S2-  S233  1  0.37684848  -0.00219654  0.54871020  1
  S2-  S234  1  0.38394249  0.25768914  0.04736495  1
  S2-  S235  1  0.37804812  0.25235844  0.54900176  1
  S2-  S236  1  0.38941519  0.50754373  0.04823526  1
  S2-  S237  1  0.37177755  0.49356718  0.54794444  1
  S2-  S238  1  0.38521837  0.75550886  0.03606340  1
  S2-  S239  1  0.37801755  0.74483209  0.55391027  1
  S2-  S240  1  0.64281180  0.00564562  0.04469900  1
  S2-  S241  1  0.62528826  -0.00046939  0.55279651  1
  S2-  S242  1  0.64266749  0.25147746  0.04397075  1
  S2-  S243  1  0.62051297  0.25176353  0.53426703  1
  S2-  S244  1  0.63639243  0.49998881  0.03945036  1
  S2-  S245  1  0.62628353  0.50155634  0.54710032  1
  S2-  S246  1  0.63776970  0.76068280  0.03687580  1
  S2-  S247  1  0.62430915  0.74184970  0.56075592  1
  S2-  S248  1  0.89035758  0.00480354  0.05534797  1
  S2-  S249  1  0.87224058  0.00175137  0.54508191  1
  S2-  S250  1  0.88933617  0.25397720  0.05119954  1
  S2-  S251  1  0.87711513  0.24902609  0.54176902  1
  S2-  S252  1  0.88960996  0.49693122  0.04601192  1
  S2-  S253  1  0.87865003  0.49882492  0.53960217  1
  S2-  S254  1  0.88820312  0.76040311  0.04149261  1
  S2-  S255  1  0.87268656  0.74623867  0.53758893  1
