# generated using pymatgen
data_La6Ce6Pr19Nd20Sm13(BiS2)64
_symmetry_space_group_name_H-M   'P 1'
_cell_length_a   16.13201674
_cell_length_b   16.11448348
_cell_length_c   27.30250401
_cell_angle_alpha   90.16056244
_cell_angle_beta   90.33178044
_cell_angle_gamma   89.97710051
_symmetry_Int_Tables_number   1
_chemical_formula_structural   La6Ce6Pr19Nd20Sm13(BiS2)64
_chemical_formula_sum   'La6 Ce6 Pr19 Nd20 Sm13 Bi64 S128'
_cell_volume   7097.38745614
_cell_formula_units_Z   1
loop_
 _symmetry_equiv_pos_site_id
 _symmetry_equiv_pos_as_xyz
  1  'x, y, z'
loop_
 _atom_type_symbol
 _atom_type_oxidation_number
  La3+  3.0
  Ce3+  3.0
  Pr3+  3.0
  Nd3+  3.0
  Sm3+  3.0
  Bi2+  2.0
  S2-  -2.0
loop_
 _atom_site_type_symbol
 _atom_site_label
 _atom_site_symmetry_multiplicity
 _atom_site_fract_x
 _atom_site_fract_y
 _atom_site_fract_z
 _atom_site_occupancy
  La3+  La0  1  0.87114203  0.50869049  0.92578374  1
  La3+  La1  1  0.50881794  0.39129103  0.07735915  1
  La3+  La2  1  0.09590479  0.25873288  0.41269449  1
  La3+  La3  1  0.87364552  0.02104697  0.89298574  1
  La3+  La4  1  0.09875949  -0.00823859  0.40817300  1
  La3+  La5  1  0.22097947  0.36970117  0.57183924  1
  Ce3+  Ce6  1  -0.02012955  0.37803612  0.55625833  1
  Ce3+  Ce7  1  0.25058585  0.63129949  0.06030548  1
  Ce3+  Ce8  1  0.22312865  0.12968670  0.54715563  1
  Ce3+  Ce9  1  0.74855894  0.13532188  0.06124409  1
  Ce3+  Ce10  1  0.00003494  0.89138344  0.06691163  1
  Ce3+  Ce11  1  0.72956239  0.62948473  0.55457712  1
  Pr3+  Pr12  1  0.12391055  0.51144489  0.92881605  1
  Pr3+  Pr13  1  -0.02151527  0.89127210  0.56817892  1
  Pr3+  Pr14  1  0.34960287  0.75502468  0.44509850  1
  Pr3+  Pr15  1  0.60007734  0.25782197  0.43050991  1
  Pr3+  Pr16  1  0.47782211  0.88282897  0.56314469  1
  Pr3+  Pr17  1  0.12243009  0.76648900  0.94559883  1
  Pr3+  Pr18  1  0.84848889  0.00160508  0.43529097  1
  Pr3+  Pr19  1  0.49990772  0.88853689  0.05484839  1
  Pr3+  Pr20  1  0.85375289  0.25333809  0.43702530  1
  Pr3+  Pr21  1  0.50330687  0.63625250  0.06171158  1
  Pr3+  Pr22  1  0.37589671  0.26438587  0.94754615  1
  Pr3+  Pr23  1  0.62455368  0.25832710  0.93934346  1
  Pr3+  Pr24  1  0.62082757  0.01299019  0.93009600  1
  Pr3+  Pr25  1  0.72384013  0.14186791  0.58681667  1
  Pr3+  Pr26  1  0.25152976  0.89079688  0.06428762  1
  Pr3+  Pr27  1  0.72092964  0.88577045  0.57245488  1
  Pr3+  Pr28  1  0.60308243  0.00437267  0.43208601  1
  Pr3+  Pr29  1  0.12333658  0.26000936  0.94966713  1
  Pr3+  Pr30  1  0.47845121  0.38214343  0.56035650  1
  Nd3+  Nd31  1  0.50444633  0.13615512  0.07389163  1
  Nd3+  Nd32  1  0.75365849  0.39260678  0.06282752  1
  Nd3+  Nd33  1  0.87820913  0.25446668  0.95238620  1
  Nd3+  Nd34  1  0.62113323  0.50885067  0.93162101  1
  Nd3+  Nd35  1  0.00702748  0.14244749  0.09007062  1
  Nd3+  Nd36  1  0.12252124  0.01577887  0.95086862  1
  Nd3+  Nd37  1  0.62447211  0.76423712  0.93957109  1
  Nd3+  Nd38  1  0.47860359  0.13827074  0.56427367  1
  Nd3+  Nd39  1  0.85126147  0.75721469  0.44816671  1
  Nd3+  Nd40  1  0.34630286  0.50496847  0.43838700  1
  Nd3+  Nd41  1  0.59668128  0.50629590  0.43408411  1
  Nd3+  Nd42  1  0.25314384  0.39413908  0.06879886  1
  Nd3+  Nd43  1  0.10281784  0.50614458  0.43330807  1
  Nd3+  Nd44  1  0.47689052  0.62462058  0.56768755  1
  Nd3+  Nd45  1  -0.02072896  0.63009092  0.55886650  1
  Nd3+  Nd46  1  0.00180484  0.39263891  0.06904079  1
  Nd3+  Nd47  1  0.22635150  0.62210866  0.57422395  1
  Nd3+  Nd48  1  0.75224324  0.89064850  0.05922250  1
  Nd3+  Nd49  1  0.25732752  0.14721315  0.08210270  1
  Nd3+  Nd50  1  -0.02089033  0.12930516  0.55254030  1
  Sm3+  Sm51  1  0.72866162  0.37941883  0.55324039  1
  Sm3+  Sm52  1  0.59986241  0.75473428  0.44885100  1
  Sm3+  Sm53  1  0.37526431  0.01515995  0.93688158  1
  Sm3+  Sm54  1  0.35130054  0.00463293  0.44394202  1
  Sm3+  Sm55  1  0.10202006  0.75563884  0.44956891  1
  Sm3+  Sm56  1  0.37211774  0.76029060  0.94288668  1
  Sm3+  Sm57  1  0.75192938  0.63862219  0.05101367  1
  Sm3+  Sm58  1  0.85208321  0.50636978  0.44193875  1
  Sm3+  Sm59  1  0.87474404  0.77083879  0.94422962  1
  Sm3+  Sm60  1  0.22786367  0.87732414  0.56382275  1
  Sm3+  Sm61  1  0.34904712  0.25430715  0.43285480  1
  Sm3+  Sm62  1  -0.00011636  0.63462571  0.05884912  1
  Sm3+  Sm63  1  0.37297742  0.51147554  0.93143402  1
  Bi2+  Bi64  1  -0.02861984  0.13730965  0.28678664  1
  Bi2+  Bi65  1  0.00560742  0.16815054  0.79604212  1
  Bi2+  Bi66  1  -0.01700540  0.41703197  0.29188058  1
  Bi2+  Bi67  1  0.04205807  0.39640731  0.78113073  1
  Bi2+  Bi68  1  0.03868528  0.60911878  0.30477888  1
  Bi2+  Bi69  1  0.04396057  0.63133540  0.78544819  1
  Bi2+  Bi70  1  -0.02982309  0.85154649  0.29374811  1
  Bi2+  Bi71  1  0.12404812  0.90199349  0.81850719  1
  Bi2+  Bi72  1  0.27817338  0.10430565  0.30092350  1
  Bi2+  Bi73  1  0.26562364  0.05237933  0.81071708  1
  Bi2+  Bi74  1  0.25867566  0.44505970  0.28552492  1
  Bi2+  Bi75  1  0.27994848  0.38424275  0.79650652  1
  Bi2+  Bi76  1  0.23279190  0.62584647  0.32632982  1
  Bi2+  Bi77  1  0.31595968  0.66307585  0.74568799  1
  Bi2+  Bi78  1  0.25038591  0.84749142  0.30369686  1
  Bi2+  Bi79  1  0.31514320  0.85899108  0.81180459  1
  Bi2+  Bi80  1  0.54361909  0.08176534  0.28844969  1
  Bi2+  Bi81  1  0.45535918  0.07285575  0.76568978  1
  Bi2+  Bi82  1  0.49600797  0.36772458  0.30384127  1
  Bi2+  Bi83  1  0.51700822  0.33682396  0.80132190  1
  Bi2+  Bi84  1  0.55335457  0.62815945  0.28382339  1
  Bi2+  Bi85  1  0.49423289  0.60708793  0.78990153  1
  Bi2+  Bi86  1  0.53819773  0.88403667  0.28525937  1
  Bi2+  Bi87  1  0.50513667  0.87872845  0.78707291  1
  Bi2+  Bi88  1  0.75217758  0.07817308  0.28375322  1
  Bi2+  Bi89  1  0.75980422  0.14440985  0.78312536  1
  Bi2+  Bi90  1  0.76783983  0.39299428  0.28610198  1
  Bi2+  Bi91  1  0.77740707  0.39850203  0.76423656  1
  Bi2+  Bi92  1  0.78239693  0.64759325  0.24196186  1
  Bi2+  Bi93  1  0.78326362  0.60921490  0.79346547  1
  Bi2+  Bi94  1  0.73272919  0.83049210  0.29499554  1
  Bi2+  Bi95  1  0.73973180  0.86157676  0.79237524  1
  Bi2+  Bi96  1  0.11140838  -0.01933735  0.20523805  1
  Bi2+  Bi97  1  0.14382192  0.04946053  0.72011472  1
  Bi2+  Bi98  1  0.12371756  0.25858665  0.21747487  1
  Bi2+  Bi99  1  0.18042690  0.24608021  0.73582664  1
  Bi2+  Bi100  1  0.12413656  0.50646637  0.20766955  1
  Bi2+  Bi101  1  0.12522750  0.51764222  0.70585122  1
  Bi2+  Bi102  1  0.15856762  0.70031172  0.22512434  1
  Bi2+  Bi103  1  0.14120801  0.82389060  0.71316222  1
  Bi2+  Bi104  1  0.38245918  -0.01698194  0.21382356  1
  Bi2+  Bi105  1  0.39259296  -0.07662007  0.69510043  1
  Bi2+  Bi106  1  0.35951013  0.23502858  0.22363156  1
  Bi2+  Bi107  1  0.35589648  0.19832506  0.70505511  1
  Bi2+  Bi108  1  0.37917941  0.55067016  0.21671823  1
  Bi2+  Bi109  1  0.38413773  0.48019274  0.71781904  1
  Bi2+  Bi110  1  0.43439774  0.73657608  0.21674791  1
  Bi2+  Bi111  1  0.46230166  0.73849070  0.68458587  1
  Bi2+  Bi112  1  0.64203186  -0.01432182  0.20147022  1
  Bi2+  Bi113  1  0.66335957  -0.01146413  0.70236338  1
  Bi2+  Bi114  1  0.60949253  0.25198622  0.21059838  1
  Bi2+  Bi115  1  0.59562373  0.25527518  0.70185113  1
  Bi2+  Bi116  1  0.63196182  0.50413457  0.20788881  1
  Bi2+  Bi117  1  0.60508683  0.45735028  0.71763644  1
  Bi2+  Bi118  1  0.62361009  0.72815470  0.19011228  1
  Bi2+  Bi119  1  0.63814379  0.66876648  0.72016315  1
  Bi2+  Bi120  1  0.86896170  -0.06117373  0.21266159  1
  Bi2+  Bi121  1  0.91008242  -0.02350279  0.69479758  1
  Bi2+  Bi122  1  0.80806077  0.23282805  0.22208007  1
  Bi2+  Bi123  1  0.92747672  0.33249274  0.69492955  1
  Bi2+  Bi124  1  0.88189872  0.40923354  0.19280502  1
  Bi2+  Bi125  1  0.87675248  0.52187058  0.69862398  1
  Bi2+  Bi126  1  0.96210874  0.68647444  0.20536218  1
  Bi2+  Bi127  1  0.90043121  0.75655021  0.77099567  1
  S2-  S128  1  -0.04025924  0.06969728  0.18459674  1
  S2-  S129  1  0.01964345  0.06991040  0.64356173  1
  S2-  S130  1  0.00831833  0.28908020  0.15308142  1
  S2-  S131  1  0.06844363  0.36672377  0.63828884  1
  S2-  S132  1  -0.00752753  0.52753162  0.13680917  1
  S2-  S133  1  0.00897160  0.60722484  0.65543455  1
  S2-  S134  1  0.01081902  0.85215046  0.16222094  1
  S2-  S135  1  -0.00091149  0.83459795  0.66312776  1
  S2-  S136  1  0.14769981  0.11895311  0.15926374  1
  S2-  S137  1  0.22865156  0.21675483  0.63231661  1
  S2-  S138  1  0.25090766  0.29643075  0.15458088  1
  S2-  S139  1  0.25393653  0.49129481  0.64394078  1
  S2-  S140  1  0.25759603  0.52730328  0.13883471  1
  S2-  S141  1  0.23105464  0.71922254  0.65867196  1
  S2-  S142  1  0.25207632  0.90601157  0.16470535  1
  S2-  S143  1  0.22980998  0.94629902  0.65437629  1
  S2-  S144  1  0.38753221  0.11794608  0.15024898  1
  S2-  S145  1  0.58217723  0.10954501  0.64529602  1
  S2-  S146  1  0.46929310  0.31650039  0.17220716  1
  S2-  S147  1  0.45880451  0.27071374  0.63778645  1
  S2-  S148  1  0.49523437  0.53346045  0.14244276  1
  S2-  S149  1  0.49414260  0.50157306  0.63890348  1
  S2-  S150  1  0.49483641  0.93078772  0.15159094  1
  S2-  S151  1  0.58451827  0.88983102  0.64208718  1
  S2-  S152  1  0.64288868  0.12902217  0.13975104  1
  S2-  S153  1  0.79242998  0.10524775  0.68012419  1
  S2-  S154  1  0.65714821  0.37961096  0.14480341  1
  S2-  S155  1  0.71437102  0.30073196  0.63966289  1
  S2-  S156  1  0.74795463  0.59759938  0.14599264  1
  S2-  S157  1  0.74355439  0.60983541  0.65009998  1
  S2-  S158  1  0.74207076  0.85390279  0.15665000  1
  S2-  S159  1  0.77978804  0.87322855  0.66950661  1
  S2-  S160  1  0.15675581  -0.00491132  0.30638795  1
  S2-  S161  1  0.04420479  0.04536044  0.86393659  1
  S2-  S162  1  0.13077878  0.19416405  0.31738916  1
  S2-  S163  1  0.10878938  0.27488010  0.84941031  1
  S2-  S164  1  0.12849799  0.40504648  0.35216227  1
  S2-  S165  1  0.25192537  0.50513182  0.85800870  1
  S2-  S166  1  0.10453055  0.82476213  0.36024578  1
  S2-  S167  1  0.12803769  0.72828710  0.84698652  1
  S2-  S168  1  0.35279018  -0.02941089  0.34796966  1
  S2-  S169  1  0.48695241  0.01913377  0.86042993  1
  S2-  S170  1  0.36533530  0.25266784  0.33374708  1
  S2-  S171  1  0.38306319  0.26548769  0.84588918  1
  S2-  S172  1  0.40780941  0.48661152  0.34536922  1
  S2-  S173  1  0.49549742  0.48876121  0.86105072  1
  S2-  S174  1  0.35976188  0.74143166  0.34519191  1
  S2-  S175  1  0.37396680  0.70706247  0.84918960  1
  S2-  S176  1  0.72521306  -0.02729887  0.36075798  1
  S2-  S177  1  0.71514088  0.01460836  0.84318861  1
  S2-  S178  1  0.59537018  0.22871097  0.33071513  1
  S2-  S179  1  0.63378803  0.23218730  0.83860073  1
  S2-  S180  1  0.62406191  0.44282611  0.34324816  1
  S2-  S181  1  0.73778841  0.48298133  0.85648266  1
  S2-  S182  1  0.60022701  0.75296013  0.35096186  1
  S2-  S183  1  0.62388332  0.78242222  0.84065948  1
  S2-  S184  1  0.95071303  -0.00231710  0.34996168  1
  S2-  S185  1  0.89325005  0.03672370  0.78545983  1
  S2-  S186  1  0.93862952  0.25658507  0.34892048  1
  S2-  S187  1  0.87120194  0.20305885  0.85644800  1
  S2-  S188  1  0.85587508  0.50623880  0.34433164  1
  S2-  S189  1  0.99649116  0.50406919  0.85583396  1
  S2-  S190  1  0.85874956  0.76350222  0.34895593  1
  S2-  S191  1  0.88533506  0.84895267  0.85671361  1
  S2-  S192  1  -0.02079945  0.12431205  0.44792358  1
  S2-  S193  1  0.00111545  0.13768910  0.97359790  1
  S2-  S194  1  -0.02504302  0.38613721  0.45077294  1
  S2-  S195  1  -0.00289156  0.38415771  0.96066783  1
  S2-  S196  1  -0.02274738  0.63121183  0.45225551  1
  S2-  S197  1  -0.00526148  0.64348511  0.95492077  1
  S2-  S198  1  -0.02376627  0.87802559  0.46050368  1
  S2-  S199  1  -0.00193043  0.89163539  0.96168321  1
  S2-  S200  1  0.22623147  0.12639917  0.43976389  1
  S2-  S201  1  0.25216693  0.13642942  0.95791397  1
  S2-  S202  1  0.22987280  0.37791725  0.45398136  1
  S2-  S203  1  0.24946017  0.38671000  0.96036933  1
  S2-  S204  1  0.22396626  0.63090349  0.46169651  1
  S2-  S205  1  0.24844808  0.64008751  0.95640725  1
  S2-  S206  1  0.22773628  0.88120510  0.45808055  1
  S2-  S207  1  0.25286792  0.88978628  0.95603713  1
  S2-  S208  1  0.47425802  0.12985311  0.44768229  1
  S2-  S209  1  0.49819158  0.13691004  0.96283773  1
  S2-  S210  1  0.47357976  0.37945156  0.45187929  1
  S2-  S211  1  0.50304290  0.38474899  0.96263494  1
  S2-  S212  1  0.47637291  0.62953755  0.45680233  1
  S2-  S213  1  0.49946543  0.64074078  0.95467628  1
  S2-  S214  1  0.47743770  0.88018862  0.45500314  1
  S2-  S215  1  0.49435301  0.88239347  0.95054062  1
  S2-  S216  1  0.72627376  0.13390991  0.44487302  1
  S2-  S217  1  0.75216904  0.13098760  0.95593267  1
  S2-  S218  1  0.72979862  0.38160309  0.44925013  1
  S2-  S219  1  0.75154586  0.37905977  0.95789043  1
  S2-  S220  1  0.72525144  0.62961216  0.44745842  1
  S2-  S221  1  0.75153473  0.64396196  0.94709308  1
  S2-  S222  1  0.72299794  0.87422786  0.46449112  1
  S2-  S223  1  0.74896139  0.88933286  0.95395578  1
  S2-  S224  1  0.12719176  0.01474695  0.05557232  1
  S2-  S225  1  0.10786519  0.00099167  0.53778298  1
  S2-  S226  1  0.12889144  0.26618751  0.05365549  1
  S2-  S227  1  0.09783207  0.25213425  0.52823757  1
  S2-  S228  1  0.12333547  0.51448714  0.03740838  1
  S2-  S229  1  0.10190895  0.50579032  0.53998127  1
  S2-  S230  1  0.12557050  0.75948508  0.05343055  1
  S2-  S231  1  0.10361483  0.75626146  0.55189984  1
  S2-  S232  1  0.37473068  0.01380562  0.04196872  1
  S2-  S233  1  0.35387008  0.00920137  0.54852102  1
  S2-  S234  1  0.38040200  0.26652037  0.05254805  1
  S2-  S235  1  0.35149025  0.25359045  0.53461485  1
  S2-  S236  1  0.37820342  0.51396917  0.03698729  1
  S2-  S237  1  0.35145163  0.50483364  0.54160474  1
  S2-  S238  1  0.37467944  0.76048668  0.05068363  1
  S2-  S239  1  0.35353059  0.75346663  0.55156261  1
  S2-  S240  1  0.62493926  0.00902010  0.03945750  1
  S2-  S241  1  0.60162776  0.01268332  0.53783165  1
  S2-  S242  1  0.62781650  0.26204778  0.04511966  1
  S2-  S243  1  0.60440977  0.25660813  0.53648013  1
  S2-  S244  1  0.63084064  0.51675366  0.03763208  1
  S2-  S245  1  0.60842635  0.50395611  0.53966942  1
  S2-  S246  1  0.62751321  0.76287732  0.04557144  1
  S2-  S247  1  0.60057893  0.74851831  0.55148766  1
  S2-  S248  1  0.87541089  0.01437500  0.06582697  1
  S2-  S249  1  0.84580972  0.01176440  0.54789450  1
  S2-  S250  1  0.87270323  0.26244416  0.05780590  1
  S2-  S251  1  0.85256908  0.25309880  0.54362181  1
  S2-  S252  1  0.87266607  0.51596719  0.03648558  1
  S2-  S253  1  0.85390692  0.50253982  0.54672029  1
  S2-  S254  1  0.87637094  0.76102747  0.05007143  1
  S2-  S255  1  0.85458574  0.75713255  0.55392909  1
