# generated using pymatgen
data_La6Ce6Pr19Nd20Sm13(BiS2)64
_symmetry_space_group_name_H-M   'P 1'
_cell_length_a   16.00560802
_cell_length_b   16.11525350
_cell_length_c   27.31912599
_cell_angle_alpha   89.87360955
_cell_angle_beta   89.99905757
_cell_angle_gamma   90.02482087
_symmetry_Int_Tables_number   1
_chemical_formula_structural   La6Ce6Pr19Nd20Sm13(BiS2)64
_chemical_formula_sum   'La6 Ce6 Pr19 Nd20 Sm13 Bi64 S128'
_cell_volume   7046.52540124
_cell_formula_units_Z   1
loop_
 _symmetry_equiv_pos_site_id
 _symmetry_equiv_pos_as_xyz
  1  'x, y, z'
loop_
 _atom_type_symbol
 _atom_type_oxidation_number
  La3+  3.0
  Ce3+  3.0
  Pr3+  3.0
  Nd3+  3.0
  Sm3+  3.0
  Bi2+  2.0
  S2-  -2.0
loop_
 _atom_site_type_symbol
 _atom_site_label
 _atom_site_symmetry_multiplicity
 _atom_site_fract_x
 _atom_site_fract_y
 _atom_site_fract_z
 _atom_site_occupancy
  La3+  La0  1  0.38625506  0.70770268  0.37263489  1
  La3+  La1  1  0.23845666  0.38921907  0.60545918  1
  La3+  La2  1  0.23146315  0.39717063  0.11293185  1
  La3+  La3  1  0.60885300  0.50623030  0.89411424  1
  La3+  La4  1  0.60892993  0.76241184  0.92474752  1
  La3+  La5  1  0.85546051  0.00587675  0.89289582  1
  Ce3+  Ce6  1  0.85769325  0.25176751  0.94007113  1
  Ce3+  Ce7  1  0.73356241  0.13266400  0.06267660  1
  Ce3+  Ce8  1  0.11351665  0.50079684  0.94001564  1
  Ce3+  Ce9  1  0.00251877  0.14116835  0.57000304  1
  Ce3+  Ce10  1  0.63507073  0.50873100  0.43963798  1
  Ce3+  Ce11  1  0.86013183  0.75768144  0.93072701  1
  Pr3+  Pr12  1  0.50460159  0.37756761  0.57256053  1
  Pr3+  Pr13  1  0.75988843  0.63401230  0.56873494  1
  Pr3+  Pr14  1  0.48226269  0.62947724  0.05010630  1
  Pr3+  Pr15  1  0.63783840  0.26609756  0.43345851  1
  Pr3+  Pr16  1  0.22952941  0.88281292  0.06127972  1
  Pr3+  Pr17  1  0.10694991  0.76148186  0.92782273  1
  Pr3+  Pr18  1  0.23076139  0.63175379  0.05934561  1
  Pr3+  Pr19  1  0.22489835  0.13125970  0.08039719  1
  Pr3+  Pr20  1  0.11422510  0.01835724  0.92935558  1
  Pr3+  Pr21  1  0.51218073  0.13458720  0.55392214  1
  Pr3+  Pr22  1  0.60567927  0.25662378  0.93527978  1
  Pr3+  Pr23  1  0.88457844  0.76182637  0.43554826  1
  Pr3+  Pr24  1  0.25934755  0.88655815  0.56181123  1
  Pr3+  Pr25  1  0.01282217  0.88627324  0.56489058  1
  Pr3+  Pr26  1  0.01501442  0.63393378  0.55467543  1
  Pr3+  Pr27  1  -0.01580263  0.88288384  0.05891935  1
  Pr3+  Pr28  1  0.47606783  0.87680369  0.07484755  1
  Pr3+  Pr29  1  0.85839103  0.50238047  0.93885106  1
  Pr3+  Pr30  1  0.14088855  0.76671121  0.42911233  1
  Nd3+  Nd31  1  0.75795760  0.13197242  0.57042379  1
  Nd3+  Nd32  1  0.60695100  0.00874592  0.94718055  1
  Nd3+  Nd33  1  0.35818433  0.01065194  0.94523589  1
  Nd3+  Nd34  1  0.35740439  0.25880283  0.95752404  1
  Nd3+  Nd35  1  0.72934681  0.63250467  0.05305859  1
  Nd3+  Nd36  1  0.35571291  0.50300627  0.93536982  1
  Nd3+  Nd37  1  0.73277624  0.88215621  0.05713629  1
  Nd3+  Nd38  1  0.50913154  0.63453168  0.55697828  1
  Nd3+  Nd39  1  0.63657490  0.76066018  0.43159388  1
  Nd3+  Nd40  1  0.13553892  0.01387347  0.44298588  1
  Nd3+  Nd41  1  0.38482079  0.25309670  0.43166230  1
  Nd3+  Nd42  1  -0.01851503  0.63049309  0.05176371  1
  Nd3+  Nd43  1  0.88314866  0.26343080  0.44235921  1
  Nd3+  Nd44  1  0.48413087  0.38461627  0.06739510  1
  Nd3+  Nd45  1  0.64191160  0.01285950  0.43023564  1
  Nd3+  Nd46  1  0.26143029  0.63434721  0.55585892  1
  Nd3+  Nd47  1  0.26382990  0.13863482  0.56557137  1
  Nd3+  Nd48  1  0.39029809  -0.00051424  0.41883985  1
  Nd3+  Nd49  1  0.49048384  0.13327430  0.08079432  1
  Nd3+  Nd50  1  0.76345176  0.88233360  0.57514186  1
  Sm3+  Sm51  1  0.10876686  0.25545669  0.95643061  1
  Sm3+  Sm52  1  0.14113747  0.50945671  0.43344222  1
  Sm3+  Sm53  1  -0.01847511  0.13212521  0.06317740  1
  Sm3+  Sm54  1  0.72759993  0.38164844  0.06030357  1
  Sm3+  Sm55  1  0.51172359  0.88317040  0.55024933  1
  Sm3+  Sm56  1  0.13715586  0.25875805  0.44248341  1
  Sm3+  Sm57  1  0.01181499  0.38538869  0.55075591  1
  Sm3+  Sm58  1  0.75384062  0.38948699  0.57338347  1
  Sm3+  Sm59  1  0.88617401  0.51187664  0.44526756  1
  Sm3+  Sm60  1  0.35940864  0.75828376  0.92996231  1
  Sm3+  Sm61  1  -0.01896957  0.38343134  0.06723025  1
  Sm3+  Sm62  1  0.88248428  0.01247457  0.44296874  1
  Sm3+  Sm63  1  0.38538833  0.50164279  0.44638716  1
  Bi2+  Bi64  1  -0.00962140  0.00548684  0.31262355  1
  Bi2+  Bi65  1  0.07757176  0.10808937  0.77936231  1
  Bi2+  Bi66  1  -0.03042632  0.34796218  0.26829356  1
  Bi2+  Bi67  1  -0.00465562  0.41841125  0.83495356  1
  Bi2+  Bi68  1  -0.01773839  0.61589427  0.30169738  1
  Bi2+  Bi69  1  -0.00215571  0.58478319  0.77761064  1
  Bi2+  Bi70  1  0.00448932  0.80940115  0.32485643  1
  Bi2+  Bi71  1  0.00241317  0.85127977  0.77970623  1
  Bi2+  Bi72  1  0.25025156  0.12706066  0.29017600  1
  Bi2+  Bi73  1  0.31756817  0.11189846  0.79124352  1
  Bi2+  Bi74  1  0.26113766  0.36945513  0.30248879  1
  Bi2+  Bi75  1  0.19277505  0.33174580  0.82541471  1
  Bi2+  Bi76  1  0.15279194  0.57342680  0.24902470  1
  Bi2+  Bi77  1  0.19312892  0.63099846  0.79398394  1
  Bi2+  Bi78  1  0.22919614  0.85993847  0.28859427  1
  Bi2+  Bi79  1  0.27940956  0.87798047  0.78258687  1
  Bi2+  Bi80  1  0.51272039  0.10924583  0.28391826  1
  Bi2+  Bi81  1  0.48650191  0.03827949  0.83619492  1
  Bi2+  Bi82  1  0.47256627  0.31479348  0.29531316  1
  Bi2+  Bi83  1  0.50862517  0.22526410  0.81059429  1
  Bi2+  Bi84  1  0.59655721  0.55634232  0.30929450  1
  Bi2+  Bi85  1  0.44698556  0.65375834  0.78882442  1
  Bi2+  Bi86  1  0.50260364  0.85811572  0.27950819  1
  Bi2+  Bi87  1  0.48920077  0.92822621  0.74116692  1
  Bi2+  Bi88  1  0.76560206  0.14251983  0.28644189  1
  Bi2+  Bi89  1  0.68697312  0.13659950  0.79297117  1
  Bi2+  Bi90  1  0.77790914  0.37715331  0.29787815  1
  Bi2+  Bi91  1  0.76161768  0.36239368  0.78760873  1
  Bi2+  Bi92  1  0.77473753  0.63281009  0.28943555  1
  Bi2+  Bi93  1  0.78020486  0.63809317  0.78619536  1
  Bi2+  Bi94  1  0.81799844  0.89414812  0.29658395  1
  Bi2+  Bi95  1  0.69734711  0.88016791  0.77752095  1
  Bi2+  Bi96  1  0.09315844  -0.01476504  0.21279882  1
  Bi2+  Bi97  1  0.13677196  -0.04432183  0.71292402  1
  Bi2+  Bi98  1  0.02629773  0.16704123  0.24459516  1
  Bi2+  Bi99  1  0.12435409  0.27426519  0.71661792  1
  Bi2+  Bi100  1  -0.04426880  0.50519311  0.19693000  1
  Bi2+  Bi101  1  0.19707234  0.45981362  0.73282540  1
  Bi2+  Bi102  1  0.11645800  0.75445226  0.21183152  1
  Bi2+  Bi103  1  0.12437038  0.68994951  0.68533542  1
  Bi2+  Bi104  1  0.34862894  -0.01863117  0.21140690  1
  Bi2+  Bi105  1  0.32349137  0.00719295  0.69082289  1
  Bi2+  Bi106  1  0.38710898  0.25763305  0.19671713  1
  Bi2+  Bi107  1  0.38628589  0.27288024  0.71721368  1
  Bi2+  Bi108  1  0.43673571  0.48979863  0.25603946  1
  Bi2+  Bi109  1  0.38893223  0.45783287  0.75669894  1
  Bi2+  Bi110  1  0.34822719  0.69126562  0.17876127  1
  Bi2+  Bi111  1  0.31689424  0.72433581  0.71554921  1
  Bi2+  Bi112  1  0.71017308  0.01699665  0.20320828  1
  Bi2+  Bi113  1  0.59459243  0.08775199  0.69548804  1
  Bi2+  Bi114  1  0.63255793  0.28383226  0.21569370  1
  Bi2+  Bi115  1  0.72819268  0.23987469  0.69797224  1
  Bi2+  Bi116  1  0.68816935  0.50035208  0.21180267  1
  Bi2+  Bi117  1  0.63729213  0.50435523  0.70281933  1
  Bi2+  Bi118  1  0.62779451  0.73751540  0.18801100  1
  Bi2+  Bi119  1  0.60849445  0.75107547  0.70570978  1
  Bi2+  Bi120  1  0.89902062  -0.05548788  0.18587819  1
  Bi2+  Bi121  1  0.88128451  0.03063046  0.69667150  1
  Bi2+  Bi122  1  0.86186369  0.14323469  0.17815854  1
  Bi2+  Bi123  1  0.93782229  0.25386092  0.77600579  1
  Bi2+  Bi124  1  0.83666450  0.34472380  0.17773377  1
  Bi2+  Bi125  1  0.90959204  0.43461041  0.72534911  1
  Bi2+  Bi126  1  0.91099089  0.75349734  0.22151888  1
  Bi2+  Bi127  1  0.87834453  0.75595886  0.71135441  1
  S2-  S128  1  0.07628609  0.12735791  0.14691099  1
  S2-  S129  1  0.04079793  0.06810251  0.65688732  1
  S2-  S130  1  0.06243637  0.40005240  0.15328277  1
  S2-  S131  1  0.06478001  0.38738045  0.64356458  1
  S2-  S132  1  0.00203113  0.66204651  0.14836933  1
  S2-  S133  1  -0.02857803  0.64176436  0.65201682  1
  S2-  S134  1  0.10522220  0.87349790  0.13579042  1
  S2-  S135  1  -0.09493304  0.88582369  0.64556325  1
  S2-  S136  1  0.27338107  0.11705165  0.18051623  1
  S2-  S137  1  0.25224216  0.22758657  0.65202354  1
  S2-  S138  1  0.23280746  0.32446467  0.21273761  1
  S2-  S139  1  0.39644686  0.40367837  0.65380535  1
  S2-  S140  1  0.23277413  0.56091190  0.15293401  1
  S2-  S141  1  0.22710760  0.55810352  0.64420380  1
  S2-  S142  1  0.33401992  0.85241342  0.14187383  1
  S2-  S143  1  0.13968562  0.84631551  0.63470396  1
  S2-  S144  1  0.46527971  0.08411102  0.18038909  1
  S2-  S145  1  0.48821754  0.19198106  0.64873766  1
  S2-  S146  1  0.39727407  0.40830709  0.15600361  1
  S2-  S147  1  0.62980927  0.36890734  0.64820532  1
  S2-  S148  1  0.50519911  0.63979432  0.15135026  1
  S2-  S149  1  0.53602383  0.61765497  0.65639243  1
  S2-  S150  1  0.53474648  0.86699755  0.17291824  1
  S2-  S151  1  0.53537861  0.86828335  0.64913413  1
  S2-  S152  1  0.64151759  0.15161774  0.14536111  1
  S2-  S153  1  0.87272064  0.17576179  0.64507584  1
  S2-  S154  1  0.61546131  0.38563489  0.14026479  1
  S2-  S155  1  0.76832401  0.51566017  0.64717611  1
  S2-  S156  1  0.75050944  0.62416319  0.15239822  1
  S2-  S157  1  0.74379238  0.74981770  0.64515613  1
  S2-  S158  1  0.74064722  0.86132659  0.15658880  1
  S2-  S159  1  0.73484597  1.00861154  0.64676345  1
  S2-  S160  1  0.18526745  0.00911842  0.34545640  1
  S2-  S161  1  0.01783189  -0.00918123  0.84573256  1
  S2-  S162  1  0.16288985  0.24860303  0.34447885  1
  S2-  S163  1  0.11910491  0.18675102  0.86594384  1
  S2-  S164  1  0.13788263  0.48774702  0.33491648  1
  S2-  S165  1  0.22348536  0.49912141  0.86351039  1
  S2-  S166  1  0.21354235  0.72198754  0.34081905  1
  S2-  S167  1  0.23589278  0.76700020  0.85574682  1
  S2-  S168  1  0.37136405  -0.11893828  0.34577819  1
  S2-  S169  1  0.25683889  0.01028767  0.86153847  1
  S2-  S170  1  0.37800499  0.13558247  0.35241763  1
  S2-  S171  1  0.34657632  0.26606496  0.85692048  1
  S2-  S172  1  0.37724586  0.53194562  0.34734556  1
  S2-  S173  1  0.44503608  0.49898359  0.84696712  1
  S2-  S174  1  0.39405073  0.72207522  0.26457245  1
  S2-  S175  1  0.47803403  0.76956003  0.85440962  1
  S2-  S176  1  0.55131947  -0.01526380  0.34157503  1
  S2-  S177  1  0.68042223  -0.00321747  0.85497791  1
  S2-  S178  1  0.63965369  0.17539994  0.34456912  1
  S2-  S179  1  0.61610844  0.34966353  0.84833036  1
  S2-  S180  1  0.64365501  0.40135355  0.36212547  1
  S2-  S181  1  0.61852332  0.59448553  0.79776307  1
  S2-  S182  1  0.55500950  0.73871218  0.34173517  1
  S2-  S183  1  0.74272444  0.76858215  0.85201082  1
  S2-  S184  1  0.77925290  0.01377897  0.36275923  1
  S2-  S185  1  0.84707159  -0.05218534  0.78784086  1
  S2-  S186  1  0.88275347  0.25190078  0.34291317  1
  S2-  S187  1  0.85041855  0.16855718  0.85326804  1
  S2-  S188  1  0.86465559  0.50801590  0.34799069  1
  S2-  S189  1  0.77679992  0.50434602  0.84965447  1
  S2-  S190  1  0.76812935  0.76026940  0.35937359  1
  S2-  S191  1  0.97872872  0.75273317  0.85408708  1
  S2-  S192  1  0.00769835  0.13866919  0.45567428  1
  S2-  S193  1  -0.02023376  0.13079451  0.95982108  1
  S2-  S194  1  0.01318007  0.38677185  0.44496637  1
  S2-  S195  1  -0.01645921  0.37703232  0.96149157  1
  S2-  S196  1  0.01532789  0.63346992  0.44625592  1
  S2-  S197  1  -0.01398577  0.62497673  0.94770475  1
  S2-  S198  1  0.00924395  0.88965197  0.45533899  1
  S2-  S199  1  -0.02009461  0.88924610  0.95264676  1
  S2-  S200  1  0.25966552  0.13528819  0.45808431  1
  S2-  S201  1  0.23611744  0.13526113  0.97148153  1
  S2-  S202  1  0.25990026  0.38180374  0.44246805  1
  S2-  S203  1  0.23089656  0.37642296  0.96332403  1
  S2-  S204  1  0.26540186  0.63118922  0.45022220  1
  S2-  S205  1  0.23525377  0.63458206  0.95428340  1
  S2-  S206  1  0.25870105  0.89268629  0.45638705  1
  S2-  S207  1  0.23637236  0.88294614  0.95727335  1
  S2-  S208  1  0.51315412  0.13402489  0.44924539  1
  S2-  S209  1  0.48301039  0.13347361  0.96731385  1
  S2-  S210  1  0.50533136  0.38061439  0.45740792  1
  S2-  S211  1  0.48380978  0.38250932  0.95818991  1
  S2-  S212  1  0.50472200  0.63213754  0.45054271  1
  S2-  S213  1  0.48639290  0.62779798  0.94560133  1
  S2-  S214  1  0.51639203  0.88693232  0.45017900  1
  S2-  S215  1  0.48074998  0.88502649  0.96097587  1
  S2-  S216  1  0.76229530  0.14049714  0.46172410  1
  S2-  S217  1  0.73224346  0.13074833  0.95708782  1
  S2-  S218  1  0.76483931  0.39018950  0.46342674  1
  S2-  S219  1  0.73319561  0.37858761  0.95614523  1
  S2-  S220  1  0.76120998  0.63104398  0.45859722  1
  S2-  S221  1  0.73019642  0.62947412  0.94803842  1
  S2-  S222  1  0.76325689  0.88562267  0.46315152  1
  S2-  S223  1  0.74096205  0.88981389  0.95343176  1
  S2-  S224  1  0.10587712  0.01137676  0.03997229  1
  S2-  S225  1  0.13514105  0.01744758  0.54748879  1
  S2-  S226  1  0.10751251  0.26341726  0.05786485  1
  S2-  S227  1  0.13505159  0.26038434  0.54603608  1
  S2-  S228  1  0.10560214  0.50577345  0.04590183  1
  S2-  S229  1  0.13833483  0.50475956  0.53714500  1
  S2-  S230  1  0.10571481  0.75366293  0.03513118  1
  S2-  S231  1  0.13796469  0.75605933  0.53345761  1
  S2-  S232  1  0.35952118  0.01273717  0.05445506  1
  S2-  S233  1  0.38710241  0.00937278  0.54638032  1
  S2-  S234  1  0.35703362  0.25498209  0.06422165  1
  S2-  S235  1  0.38269630  0.25962098  0.53882635  1
  S2-  S236  1  0.35446602  0.50463131  0.04411621  1
  S2-  S237  1  0.38251750  0.50781370  0.54802249  1
  S2-  S238  1  0.35735520  0.75410770  0.03599587  1
  S2-  S239  1  0.38436444  0.76047450  0.55655695  1
  S2-  S240  1  0.60476579  0.00306573  0.05302370  1
  S2-  S241  1  0.63394155  0.00688864  0.54014024  1
  S2-  S242  1  0.60652648  0.25683442  0.04200895  1
  S2-  S243  1  0.63859681  0.26079035  0.54241732  1
  S2-  S244  1  0.60978221  0.50787209  0.04363184  1
  S2-  S245  1  0.63104526  0.50809934  0.54397372  1
  S2-  S246  1  0.60657401  0.75961465  0.03921416  1
  S2-  S247  1  0.63228647  0.75835205  0.53957511  1
  S2-  S248  1  0.85821624  0.00875343  0.05611993  1
  S2-  S249  1  0.88626609  0.01349176  0.54470168  1
  S2-  S250  1  0.85746769  0.25863762  0.04717661  1
  S2-  S251  1  0.88182441  0.27259195  0.54622994  1
  S2-  S252  1  0.85483531  0.50477402  0.04721009  1
  S2-  S253  1  0.88942775  0.50758572  0.54793113  1
  S2-  S254  1  0.85808418  0.75689438  0.04175769  1
  S2-  S255  1  0.88851928  0.75688221  0.54171105  1
