# generated using pymatgen
data_La6Ce6Pr19Nd20Sm13(BiS2)64
_symmetry_space_group_name_H-M   'P 1'
_cell_length_a   16.08006549
_cell_length_b   15.98830575
_cell_length_c   27.47005187
_cell_angle_alpha   90.28145553
_cell_angle_beta   89.80520465
_cell_angle_gamma   90.12405889
_symmetry_Int_Tables_number   1
_chemical_formula_structural   La6Ce6Pr19Nd20Sm13(BiS2)64
_chemical_formula_sum   'La6 Ce6 Pr19 Nd20 Sm13 Bi64 S128'
_cell_volume   7062.21581239
_cell_formula_units_Z   1
loop_
 _symmetry_equiv_pos_site_id
 _symmetry_equiv_pos_as_xyz
  1  'x, y, z'
loop_
 _atom_type_symbol
 _atom_type_oxidation_number
  La3+  3.0
  Ce3+  3.0
  Pr3+  3.0
  Nd3+  3.0
  Sm3+  3.0
  Bi2+  2.0
  S2-  -2.0
loop_
 _atom_site_type_symbol
 _atom_site_label
 _atom_site_symmetry_multiplicity
 _atom_site_fract_x
 _atom_site_fract_y
 _atom_site_fract_z
 _atom_site_occupancy
  La3+  La0  1  0.25253843  0.13955191  0.57843743  1
  La3+  La1  1  -0.01045923  0.90220870  0.10327074  1
  La3+  La2  1  -0.00159941  0.38101470  0.58699480  1
  La3+  La3  1  0.76855119  0.63745913  0.61354318  1
  La3+  La4  1  0.11192908  0.47986252  0.38657981  1
  La3+  La5  1  -0.00391998  0.11853887  0.60319146  1
  Ce3+  Ce6  1  0.62606312  0.01671988  0.43113305  1
  Ce3+  Ce7  1  -0.00263023  0.88300869  0.55755244  1
  Ce3+  Ce8  1  0.49574374  0.13689228  0.55507403  1
  Ce3+  Ce9  1  0.49804043  0.88815127  0.55613908  1
  Ce3+  Ce10  1  0.24375805  0.16223443  0.07107228  1
  Ce3+  Ce11  1  0.87577290  0.02374922  0.94507404  1
  Pr3+  Pr12  1  0.12557821  0.52766237  0.91796206  1
  Pr3+  Pr13  1  0.75032635  0.40434859  0.05538319  1
  Pr3+  Pr14  1  0.36857939  0.77590713  0.94575146  1
  Pr3+  Pr15  1  0.74801639  0.65292159  0.05716977  1
  Pr3+  Pr16  1  0.49483298  0.65821329  0.07169514  1
  Pr3+  Pr17  1  0.25301811  0.63712776  0.56950603  1
  Pr3+  Pr18  1  0.62382504  0.52778678  0.92558653  1
  Pr3+  Pr19  1  0.87838696  0.27460740  0.93284800  1
  Pr3+  Pr20  1  0.24950282  0.65299354  0.07901149  1
  Pr3+  Pr21  1  0.36945619  0.02746951  0.94436113  1
  Pr3+  Pr22  1  0.74179030  0.88535457  0.56554480  1
  Pr3+  Pr23  1  0.50381976  0.63507380  0.56443416  1
  Pr3+  Pr24  1  0.62429544  0.26298317  0.42752522  1
  Pr3+  Pr25  1  0.87507208  0.77776853  0.94066821  1
  Pr3+  Pr26  1  0.37159486  0.00646518  0.42825568  1
  Pr3+  Pr27  1  0.37480205  0.75740953  0.43656582  1
  Pr3+  Pr28  1  0.36409083  0.26480729  0.43453927  1
  Pr3+  Pr29  1  -0.00020847  0.39967409  0.05686060  1
  Pr3+  Pr30  1  0.13359791  0.27494042  0.91624681  1
  Nd3+  Nd31  1  0.62265003  0.02363249  0.93199864  1
  Nd3+  Nd32  1  0.12703949  0.75178517  0.43214046  1
  Nd3+  Nd33  1  0.87953208  0.50885543  0.44996264  1
  Nd3+  Nd34  1  0.88159589  0.26100201  0.44769883  1
  Nd3+  Nd35  1  0.49918518  0.15450229  0.06269014  1
  Nd3+  Nd36  1  0.62842833  0.76020969  0.43451881  1
  Nd3+  Nd37  1  0.49630623  0.90991028  0.06649345  1
  Nd3+  Nd38  1  0.62161055  0.27301715  0.92718425  1
  Nd3+  Nd39  1  0.12585540  0.77903212  0.95000781  1
  Nd3+  Nd40  1  0.37535193  0.52765707  0.94681732  1
  Nd3+  Nd41  1  0.61876686  0.77854823  0.93243992  1
  Nd3+  Nd42  1  0.74715959  0.90309954  0.06534268  1
  Nd3+  Nd43  1  0.00282671  0.63445683  0.56006461  1
  Nd3+  Nd44  1  0.49959957  0.38747537  0.55062515  1
  Nd3+  Nd45  1  0.12285316  0.00337230  0.43513083  1
  Nd3+  Nd46  1  0.62615288  0.51323972  0.43223006  1
  Nd3+  Nd47  1  0.74832118  0.13697370  0.56191634  1
  Nd3+  Nd48  1  0.74836151  0.15301980  0.05500059  1
  Nd3+  Nd49  1  0.87479491  0.52381284  0.92793418  1
  Nd3+  Nd50  1  0.25175167  0.88771549  0.56399029  1
  Sm3+  Sm51  1  0.24407997  0.90761152  0.07544213  1
  Sm3+  Sm52  1  0.87301614  0.00777657  0.44110014  1
  Sm3+  Sm53  1  0.50854666  0.39642047  0.06742030  1
  Sm3+  Sm54  1  0.36306439  0.51790660  0.43449177  1
  Sm3+  Sm55  1  -0.00205456  0.15487907  0.06401984  1
  Sm3+  Sm56  1  0.74705860  0.38897527  0.55987436  1
  Sm3+  Sm57  1  0.00229232  0.65073620  0.05488356  1
  Sm3+  Sm58  1  0.24672776  0.38557611  0.56142046  1
  Sm3+  Sm59  1  0.24431568  0.40211646  0.05624299  1
  Sm3+  Sm60  1  0.11957406  0.25560941  0.45368609  1
  Sm3+  Sm61  1  0.37535040  0.27834876  0.93857335  1
  Sm3+  Sm62  1  0.87505948  0.75600788  0.44222786  1
  Sm3+  Sm63  1  0.12370366  0.02854174  0.95006308  1
  Bi2+  Bi64  1  -0.04944145  0.11777681  0.29196416  1
  Bi2+  Bi65  1  -0.06499288  0.16717248  0.78304350  1
  Bi2+  Bi66  1  -0.02934711  0.35988947  0.29954116  1
  Bi2+  Bi67  1  0.01011511  0.40637162  0.78676145  1
  Bi2+  Bi68  1  -0.06673427  0.60314509  0.24071267  1
  Bi2+  Bi69  1  0.09695402  0.62522668  0.78669207  1
  Bi2+  Bi70  1  -0.02303858  0.84980691  0.29580672  1
  Bi2+  Bi71  1  0.00409175  0.94612470  0.74682838  1
  Bi2+  Bi72  1  0.23304020  0.05028437  0.31952872  1
  Bi2+  Bi73  1  0.23641378  0.11473492  0.81264931  1
  Bi2+  Bi74  1  0.29492071  0.29779167  0.23748744  1
  Bi2+  Bi75  1  0.23849309  0.39077260  0.74371171  1
  Bi2+  Bi76  1  0.25916739  0.58603960  0.29443148  1
  Bi2+  Bi77  1  0.30294201  0.67152532  0.79928365  1
  Bi2+  Bi78  1  0.24087592  0.84987237  0.29309639  1
  Bi2+  Bi79  1  0.26898725  0.88238679  0.82092879  1
  Bi2+  Bi80  1  0.42714477  0.09248905  0.30654544  1
  Bi2+  Bi81  1  0.48507665  0.14161144  0.79113139  1
  Bi2+  Bi82  1  0.52663256  0.33048102  0.28591485  1
  Bi2+  Bi83  1  0.48859665  0.33735670  0.82535513  1
  Bi2+  Bi84  1  0.50612107  0.59820052  0.29088318  1
  Bi2+  Bi85  1  0.50245168  0.53280216  0.80294091  1
  Bi2+  Bi86  1  0.48393592  0.90187769  0.27916850  1
  Bi2+  Bi87  1  0.51761310  0.87059439  0.77756282  1
  Bi2+  Bi88  1  0.68716684  0.05440637  0.27943496  1
  Bi2+  Bi89  1  0.74140564  0.10472590  0.78782121  1
  Bi2+  Bi90  1  0.73770319  0.30561774  0.28274936  1
  Bi2+  Bi91  1  0.67343986  0.37154468  0.79246605  1
  Bi2+  Bi92  1  0.77127146  0.50158602  0.26425817  1
  Bi2+  Bi93  1  0.75830500  0.66303444  0.82049352  1
  Bi2+  Bi94  1  0.64961278  0.78575197  0.29638711  1
  Bi2+  Bi95  1  0.78512749  0.89446069  0.80384049  1
  Bi2+  Bi96  1  0.10500212  0.02522612  0.21975807  1
  Bi2+  Bi97  1  0.19804511  -0.04453904  0.71975572  1
  Bi2+  Bi98  1  0.13261167  0.20238409  0.27221183  1
  Bi2+  Bi99  1  0.13500291  0.23037750  0.71680397  1
  Bi2+  Bi100  1  0.11216526  0.41132859  0.18476181  1
  Bi2+  Bi101  1  0.19004056  0.56309782  0.69399750  1
  Bi2+  Bi102  1  0.12015888  0.70103736  0.20457027  1
  Bi2+  Bi103  1  0.18824512  0.76764892  0.67742409  1
  Bi2+  Bi104  1  0.32950075  -0.03719664  0.21503247  1
  Bi2+  Bi105  1  0.38844631  0.01357234  0.70988336  1
  Bi2+  Bi106  1  0.41277882  0.15330226  0.19965833  1
  Bi2+  Bi107  1  0.45821409  0.27966763  0.71285143  1
  Bi2+  Bi108  1  0.41244988  0.45883428  0.22717020  1
  Bi2+  Bi109  1  0.38071831  0.50993413  0.71078136  1
  Bi2+  Bi110  1  0.37611575  0.74147680  0.21148525  1
  Bi2+  Bi111  1  0.38633754  0.77314379  0.71021546  1
  Bi2+  Bi112  1  0.61886409  -0.05529731  0.19793747  1
  Bi2+  Bi113  1  0.59892804  0.02083977  0.71214309  1
  Bi2+  Bi114  1  0.61934720  0.23667952  0.19736999  1
  Bi2+  Bi115  1  0.61278847  0.19959379  0.66125712  1
  Bi2+  Bi116  1  0.60370664  0.49824958  0.20234618  1
  Bi2+  Bi117  1  0.62064575  0.49567347  0.71162130  1
  Bi2+  Bi118  1  0.60376155  0.69514914  0.19685151  1
  Bi2+  Bi119  1  0.64097017  0.77709128  0.70529323  1
  Bi2+  Bi120  1  0.84399754  0.02362437  0.21163698  1
  Bi2+  Bi121  1  0.82165717  -0.03263742  0.69957259  1
  Bi2+  Bi122  1  0.88287561  0.26726705  0.20242159  1
  Bi2+  Bi123  1  0.76949923  0.25555237  0.71606974  1
  Bi2+  Bi124  1  0.87922909  0.45485870  0.17032469  1
  Bi2+  Bi125  1  0.88382477  0.51920289  0.71875616  1
  Bi2+  Bi126  1  0.81288141  0.75863210  0.23647747  1
  Bi2+  Bi127  1  1.00543614  0.75618397  0.72367227  1
  S2-  S128  1  -0.01330537  0.06147010  0.15096226  1
  S2-  S129  1  -0.00111444  0.25707306  0.66559481  1
  S2-  S130  1  0.01264207  0.28204675  0.13561411  1
  S2-  S131  1  0.01713787  0.45607369  0.68338360  1
  S2-  S132  1  -0.01315482  0.67696893  0.15162868  1
  S2-  S133  1  -0.06291621  0.64661322  0.65375564  1
  S2-  S134  1  0.05146784  0.86514773  0.19863714  1
  S2-  S135  1  -0.01476988  0.95183646  0.64691233  1
  S2-  S136  1  0.23210546  0.03834292  0.14468979  1
  S2-  S137  1  0.15274755  0.09563465  0.65831163  1
  S2-  S138  1  0.23839100  0.30036268  0.13754117  1
  S2-  S139  1  0.24721617  0.30824084  0.65014129  1
  S2-  S140  1  0.17632727  0.55562985  0.15688034  1
  S2-  S141  1  0.38266593  0.63999074  0.64172437  1
  S2-  S142  1  0.24192046  0.78745689  0.15064711  1
  S2-  S143  1  0.38072836  0.89322354  0.63481098  1
  S2-  S144  1  0.51353592  0.03616920  0.14024074  1
  S2-  S145  1  0.39809064  0.13234649  0.63890150  1
  S2-  S146  1  0.48045677  0.27292319  0.13789228  1
  S2-  S147  1  0.49823902  0.41242699  0.65016266  1
  S2-  S148  1  0.38341838  0.61949257  0.14950549  1
  S2-  S149  1  0.60188346  0.63944597  0.64932048  1
  S2-  S150  1  0.50002631  0.79745467  0.14317142  1
  S2-  S151  1  0.60178016  0.90045464  0.63527809  1
  S2-  S152  1  0.76123312  0.15412275  0.15412252  1
  S2-  S153  1  0.83068409  0.11817165  0.65034509  1
  S2-  S154  1  0.64940886  0.37897524  0.13589375  1
  S2-  S155  1  0.75853349  0.46272578  0.65020224  1
  S2-  S156  1  0.75946079  0.66323917  0.15703162  1
  S2-  S157  1  0.75670975  0.64622906  0.72672882  1
  S2-  S158  1  0.83177632  0.88770195  0.15292061  1
  S2-  S159  1  0.78353220  0.80818780  0.65351845  1
  S2-  S160  1  0.11414015  -0.11982769  0.35901643  1
  S2-  S161  1  0.14760595  -0.01978638  0.85571196  1
  S2-  S162  1  0.10384447  0.30203006  0.35946122  1
  S2-  S163  1  0.07822087  0.18676807  0.82843689  1
  S2-  S164  1  0.10315962  0.46499221  0.27375344  1
  S2-  S165  1  0.14086215  0.40498156  0.84245842  1
  S2-  S166  1  0.13848296  0.64638753  0.34958833  1
  S2-  S167  1  0.16254774  0.75138953  0.85352280  1
  S2-  S168  1  0.37151264  -0.12856802  0.35731841  1
  S2-  S169  1  0.38193821  0.02590699  0.84436976  1
  S2-  S170  1  0.38090728  0.25502127  0.33417400  1
  S2-  S171  1  0.28600793  0.24942477  0.85634404  1
  S2-  S172  1  0.28106755  0.46119358  0.35273812  1
  S2-  S173  1  0.33437413  0.53413384  0.85015269  1
  S2-  S174  1  0.38091982  0.64088591  0.35741602  1
  S2-  S175  1  0.41621658  0.78634431  0.84975327  1
  S2-  S176  1  0.67589461  -0.07497622  0.35250234  1
  S2-  S177  1  0.62966063  -0.09960176  0.85790430  1
  S2-  S178  1  0.61911519  0.13763968  0.35504242  1
  S2-  S179  1  0.62070349  0.14320150  0.85700069  1
  S2-  S180  1  0.63345452  0.39238651  0.35575708  1
  S2-  S181  1  0.75514196  0.50774232  0.85269036  1
  S2-  S182  1  0.62737247  0.63798168  0.35799962  1
  S2-  S183  1  0.60159958  0.65959653  0.85601995  1
  S2-  S184  1  0.90314985  -0.01975867  0.34373505  1
  S2-  S185  1  0.87764836  0.03352667  0.84794719  1
  S2-  S186  1  0.85901058  0.24030518  0.34886767  1
  S2-  S187  1  0.88813275  0.30611825  0.83432654  1
  S2-  S188  1  0.93743562  0.48939651  0.35635280  1
  S2-  S189  1  0.98397506  0.54121360  0.84935686  1
  S2-  S190  1  0.88087237  0.74575314  0.34212241  1
  S2-  S191  1  0.89210941  0.77906624  0.84015567  1
  S2-  S192  1  -0.00036775  0.12899496  0.44661154  1
  S2-  S193  1  0.00030414  0.15062896  0.95439230  1
  S2-  S194  1  0.00390625  0.38530846  0.46807118  1
  S2-  S195  1  0.00163156  0.40162330  0.94958693  1
  S2-  S196  1  0.00105121  0.63516727  0.45608680  1
  S2-  S197  1  0.00179629  0.65227378  0.95210724  1
  S2-  S198  1  -0.00441663  0.88161694  0.45525583  1
  S2-  S199  1  0.00163144  0.90165569  0.94997272  1
  S2-  S200  1  0.24494521  0.13367860  0.45281179  1
  S2-  S201  1  0.24729515  0.15182090  0.96204270  1
  S2-  S202  1  0.23741774  0.38630318  0.45953716  1
  S2-  S203  1  0.25088940  0.40314364  0.95339520  1
  S2-  S204  1  0.24837673  0.63656617  0.46360949  1
  S2-  S205  1  0.24655234  0.64791956  0.96280735  1
  S2-  S206  1  0.24710284  0.88303644  0.45921322  1
  S2-  S207  1  0.24687583  0.90380459  0.96814980  1
  S2-  S208  1  0.49099226  0.13919722  0.45081819  1
  S2-  S209  1  0.49536051  0.15282120  0.95558415  1
  S2-  S210  1  0.49023226  0.39028748  0.44619759  1
  S2-  S211  1  0.50131924  0.40172871  0.95651553  1
  S2-  S212  1  0.49962415  0.63206216  0.45836154  1
  S2-  S213  1  0.49650960  0.65323520  0.96308627  1
  S2-  S214  1  0.50508751  0.88661095  0.44952925  1
  S2-  S215  1  0.49555746  0.90256863  0.96043420  1
  S2-  S216  1  0.75533452  0.13608665  0.45501433  1
  S2-  S217  1  0.75133803  0.15090265  0.95038243  1
  S2-  S218  1  0.75412934  0.38386129  0.45632759  1
  S2-  S219  1  0.74664866  0.39620313  0.95074178  1
  S2-  S220  1  0.75650792  0.63239247  0.44965431  1
  S2-  S221  1  0.74881602  0.65250443  0.95261623  1
  S2-  S222  1  0.75468429  0.88162312  0.45805351  1
  S2-  S223  1  0.74945938  0.90077772  0.95948421  1
  S2-  S224  1  0.11184055  0.02413502  0.05055214  1
  S2-  S225  1  0.12355643  0.00886274  0.54370113  1
  S2-  S226  1  0.12304321  0.27690166  0.03161366  1
  S2-  S227  1  0.11858209  0.25380382  0.55470553  1
  S2-  S228  1  0.12268007  0.52643211  0.03916517  1
  S2-  S229  1  0.12575531  0.50891890  0.56553736  1
  S2-  S230  1  0.11473930  0.78387705  0.05452483  1
  S2-  S231  1  0.12514414  0.76205852  0.54574723  1
  S2-  S232  1  0.36786867  0.03303783  0.04892042  1
  S2-  S233  1  0.37094588  0.01381717  0.53435867  1
  S2-  S234  1  0.37326183  0.28231763  0.03934522  1
  S2-  S235  1  0.37191089  0.26536198  0.54051115  1
  S2-  S236  1  0.37712367  0.51457801  0.05038580  1
  S2-  S237  1  0.37033442  0.50563127  0.54248764  1
  S2-  S238  1  0.36744636  0.78435432  0.04993711  1
  S2-  S239  1  0.37537221  0.76189507  0.54111685  1
  S2-  S240  1  0.62744118  0.02739892  0.03933544  1
  S2-  S241  1  0.62267623  0.01797367  0.53758284  1
  S2-  S242  1  0.62499781  0.27391982  0.03279367  1
  S2-  S243  1  0.62544027  0.26383290  0.53615075  1
  S2-  S244  1  0.62052647  0.52928437  0.04344583  1
  S2-  S245  1  0.62685152  0.50777719  0.53974569  1
  S2-  S246  1  0.62479854  0.77997560  0.04330566  1
  S2-  S247  1  0.62277627  0.76082599  0.53884005  1
  S2-  S248  1  0.87399159  0.02688746  0.04879944  1
  S2-  S249  1  0.87287595  0.01016743  0.54388135  1
  S2-  S250  1  0.87154167  0.27644851  0.03978263  1
  S2-  S251  1  0.87163602  0.26289499  0.55326487  1
  S2-  S252  1  0.87581878  0.52939773  0.03691354  1
  S2-  S253  1  0.87587274  0.51020194  0.55396908  1
  S2-  S254  1  0.87763601  0.77736147  0.04710171  1
  S2-  S255  1  0.87363721  0.75606439  0.54641339  1
