# generated using pymatgen
data_La6Ce6Pr19Nd20Sm13(BiS2)64
_symmetry_space_group_name_H-M   'P 1'
_cell_length_a   16.08243145
_cell_length_b   16.03073653
_cell_length_c   27.36759536
_cell_angle_alpha   89.78298633
_cell_angle_beta   89.85095829
_cell_angle_gamma   90.07282943
_symmetry_Int_Tables_number   1
_chemical_formula_structural   La6Ce6Pr19Nd20Sm13(BiS2)64
_chemical_formula_sum   'La6 Ce6 Pr19 Nd20 Sm13 Bi64 S128'
_cell_volume   7055.64764820
_cell_formula_units_Z   1
loop_
 _symmetry_equiv_pos_site_id
 _symmetry_equiv_pos_as_xyz
  1  'x, y, z'
loop_
 _atom_type_symbol
 _atom_type_oxidation_number
  La3+  3.0
  Ce3+  3.0
  Pr3+  3.0
  Nd3+  3.0
  Sm3+  3.0
  Bi2+  2.0
  S2-  -2.0
loop_
 _atom_site_type_symbol
 _atom_site_label
 _atom_site_symmetry_multiplicity
 _atom_site_fract_x
 _atom_site_fract_y
 _atom_site_fract_z
 _atom_site_occupancy
  La3+  La0  1  0.11189642  0.01218431  0.89631776  1
  La3+  La1  1  0.11414722  0.76035928  0.94330654  1
  La3+  La2  1  0.76757814  0.63391427  0.56930932  1
  La3+  La3  1  -0.00964073  0.63612164  0.11142828  1
  La3+  La4  1  0.23746441  0.38504187  0.06750589  1
  La3+  La5  1  0.26823207  0.87514395  0.60454823  1
  Ce3+  Ce6  1  0.01825360  0.13467448  0.55517678  1
  Ce3+  Ce7  1  0.88899939  0.76082693  0.43300367  1
  Ce3+  Ce8  1  0.26413909  0.63331902  0.55732176  1
  Ce3+  Ce9  1  0.61619404  0.26701596  0.94338353  1
  Ce3+  Ce10  1  0.01654670  0.63225780  0.54613823  1
  Ce3+  Ce11  1  -0.01084934  0.88460263  0.06376600  1
  Pr3+  Pr12  1  0.23647579  0.63002372  0.07635868  1
  Pr3+  Pr13  1  0.26414079  0.38299510  0.56934441  1
  Pr3+  Pr14  1  0.86694306  0.51459654  0.93779009  1
  Pr3+  Pr15  1  0.23669296  0.88701102  0.06240729  1
  Pr3+  Pr16  1  0.11588182  0.26116340  0.93291705  1
  Pr3+  Pr17  1  0.64110520  0.76871844  0.43541637  1
  Pr3+  Pr18  1  0.73858134  0.39209332  0.06419248  1
  Pr3+  Pr19  1  0.61865395  0.51837064  0.92465710  1
  Pr3+  Pr20  1  0.86423131  0.01256276  0.94230672  1
  Pr3+  Pr21  1  0.64190125  0.51920790  0.42888961  1
  Pr3+  Pr22  1  0.64859894  0.25958731  0.42545891  1
  Pr3+  Pr23  1  0.76190952  0.38289084  0.56624564  1
  Pr3+  Pr24  1  0.11344999  0.51001811  0.92726897  1
  Pr3+  Pr25  1  0.36166800  0.76483931  0.94719417  1
  Pr3+  Pr26  1  0.36653628  0.01203698  0.92833190  1
  Pr3+  Pr27  1  0.51340389  0.88682705  0.56482131  1
  Pr3+  Pr28  1  0.63906224  0.01265970  0.43279843  1
  Pr3+  Pr29  1  0.48809691  0.88823378  0.06081580  1
  Pr3+  Pr30  1  0.88584000  0.51292680  0.41329934  1
  Nd3+  Nd31  1  0.14849389  0.50608584  0.40948935  1
  Nd3+  Nd32  1  0.01722406  0.88285244  0.55893674  1
  Nd3+  Nd33  1  0.76806418  0.88611720  0.56666604  1
  Nd3+  Nd34  1  0.73592274  0.64045922  0.07290541  1
  Nd3+  Nd35  1  0.49210199  0.38855171  0.05437955  1
  Nd3+  Nd36  1  0.76406305  0.13226865  0.56430599  1
  Nd3+  Nd37  1  0.14823012  0.26113716  0.42936222  1
  Nd3+  Nd38  1  0.23937464  0.13816946  0.06126872  1
  Nd3+  Nd39  1  0.39064504  0.50825751  0.43915266  1
  Nd3+  Nd40  1  0.36320692  0.26437812  0.93746717  1
  Nd3+  Nd41  1  0.89077613  0.00941709  0.43107518  1
  Nd3+  Nd42  1  0.14352251  0.01215097  0.44653622  1
  Nd3+  Nd43  1  0.73678963  0.88728009  0.06340770  1
  Nd3+  Nd44  1  0.26507910  0.13571477  0.57151433  1
  Nd3+  Nd45  1  0.14185146  0.76054987  0.43773166  1
  Nd3+  Nd46  1  0.61412197  0.01195385  0.92762930  1
  Nd3+  Nd47  1  0.01479991  0.38660466  0.55045816  1
  Nd3+  Nd48  1  0.51722978  0.38460629  0.55812435  1
  Nd3+  Nd49  1  0.73690155  0.13251499  0.06633752  1
  Nd3+  Nd50  1  -0.01207671  0.38803539  0.06613318  1
  Sm3+  Sm51  1  0.35920581  0.51694005  0.93873377  1
  Sm3+  Sm52  1  0.51522989  0.63601133  0.55246895  1
  Sm3+  Sm53  1  0.48935785  0.13517211  0.05066506  1
  Sm3+  Sm54  1  0.61648554  0.75955980  0.93736962  1
  Sm3+  Sm55  1  0.38887922  0.26408052  0.43883779  1
  Sm3+  Sm56  1  0.51229574  0.13452048  0.55283788  1
  Sm3+  Sm57  1  0.49280667  0.63389089  0.06083737  1
  Sm3+  Sm58  1  0.86738531  0.26038391  0.94688139  1
  Sm3+  Sm59  1  -0.00954799  0.14043147  0.06153548  1
  Sm3+  Sm60  1  0.38613598  0.01200790  0.44277211  1
  Sm3+  Sm61  1  0.86670478  0.76267184  0.94725839  1
  Sm3+  Sm62  1  0.89150553  0.26359468  0.44141059  1
  Sm3+  Sm63  1  0.38582511  0.76285643  0.44024366  1
  Bi2+  Bi64  1  -0.08569512  0.11596387  0.31206950  1
  Bi2+  Bi65  1  -0.04295971  0.13958262  0.79108776  1
  Bi2+  Bi66  1  -0.01024594  0.30188263  0.29792008  1
  Bi2+  Bi67  1  -0.02662970  0.38907203  0.80082265  1
  Bi2+  Bi68  1  0.01796499  0.71795851  0.30573386  1
  Bi2+  Bi69  1  0.03536703  0.59444256  0.76570212  1
  Bi2+  Bi70  1  -0.00359628  0.93081048  0.28312349  1
  Bi2+  Bi71  1  -0.01692610  0.84834944  0.80206829  1
  Bi2+  Bi72  1  0.14996043  0.15113192  0.30072685  1
  Bi2+  Bi73  1  0.23370544  0.15747511  0.77842273  1
  Bi2+  Bi74  1  0.28340782  0.36148765  0.29927066  1
  Bi2+  Bi75  1  0.24434126  0.41539955  0.79038159  1
  Bi2+  Bi76  1  0.28255900  0.66544632  0.29890133  1
  Bi2+  Bi77  1  0.32734994  0.62449322  0.77900495  1
  Bi2+  Bi78  1  0.29431969  0.91069893  0.31101756  1
  Bi2+  Bi79  1  0.24413534  0.86221490  0.80114271  1
  Bi2+  Bi80  1  0.53466805  0.19913050  0.27831641  1
  Bi2+  Bi81  1  0.47819088  0.16560438  0.75141189  1
  Bi2+  Bi82  1  0.50808944  0.36215173  0.33869970  1
  Bi2+  Bi83  1  0.45497906  0.34592387  0.80632663  1
  Bi2+  Bi84  1  0.50214729  0.54439024  0.29120798  1
  Bi2+  Bi85  1  0.49912541  0.53550889  0.80572689  1
  Bi2+  Bi86  1  0.45236918  0.93844606  0.24974135  1
  Bi2+  Bi87  1  0.50579605  0.87238506  0.80007804  1
  Bi2+  Bi88  1  0.73565584  0.01847151  0.29855489  1
  Bi2+  Bi89  1  0.71515496  0.05921509  0.80825715  1
  Bi2+  Bi90  1  0.70136159  0.33637908  0.29581739  1
  Bi2+  Bi91  1  0.70998392  0.37568414  0.78319137  1
  Bi2+  Bi92  1  0.69428400  0.57838633  0.27050528  1
  Bi2+  Bi93  1  0.74478768  0.63129282  0.79863998  1
  Bi2+  Bi94  1  0.74274592  0.80526285  0.30561664  1
  Bi2+  Bi95  1  0.71659088  0.85992120  0.80988647  1
  Bi2+  Bi96  1  0.09656727  0.04158607  0.20255253  1
  Bi2+  Bi97  1  0.09983178  0.00363896  0.69559527  1
  Bi2+  Bi98  1  0.13283007  0.25973401  0.21171898  1
  Bi2+  Bi99  1  0.11799365  0.25684721  0.70477141  1
  Bi2+  Bi100  1  0.12863302  0.52907586  0.21844930  1
  Bi2+  Bi101  1  0.13285317  0.46726038  0.69730117  1
  Bi2+  Bi102  1  0.13453050  0.84027025  0.19795711  1
  Bi2+  Bi103  1  0.10610764  0.73709219  0.69249904  1
  Bi2+  Bi104  1  0.29446118  0.02383029  0.19612241  1
  Bi2+  Bi105  1  0.40124202  0.00442406  0.71090685  1
  Bi2+  Bi106  1  0.37689522  0.19771792  0.21207831  1
  Bi2+  Bi107  1  0.40698842  0.32383192  0.69312921  1
  Bi2+  Bi108  1  0.37470985  0.46057443  0.21529501  1
  Bi2+  Bi109  1  0.32472219  0.50069039  0.68720079  1
  Bi2+  Bi110  1  0.40979361  0.65580262  0.20746819  1
  Bi2+  Bi111  1  0.46166095  0.73404789  0.72167805  1
  Bi2+  Bi112  1  0.60674898  0.03703762  0.21048541  1
  Bi2+  Bi113  1  0.63914917  -0.04727830  0.71189987  1
  Bi2+  Bi114  1  0.69782337  0.22738633  0.20007800  1
  Bi2+  Bi115  1  0.67020004  0.20104492  0.72805248  1
  Bi2+  Bi116  1  0.61801570  0.44748820  0.19428418  1
  Bi2+  Bi117  1  0.60886061  0.49878423  0.71184626  1
  Bi2+  Bi118  1  0.58517658  0.73801554  0.20310869  1
  Bi2+  Bi119  1  0.65461841  0.74689845  0.70906065  1
  Bi2+  Bi120  1  0.86418975  -0.01203002  0.20630185  1
  Bi2+  Bi121  1  0.83228914  -0.03150577  0.73130765  1
  Bi2+  Bi122  1  0.88608355  0.18146945  0.20021083  1
  Bi2+  Bi123  1  0.85728862  0.25741206  0.72047757  1
  Bi2+  Bi124  1  0.88371046  0.48387613  0.22553170  1
  Bi2+  Bi125  1  0.86132171  0.46298025  0.71575363  1
  Bi2+  Bi126  1  0.83888017  0.75038183  0.21219839  1
  Bi2+  Bi127  1  0.87516673  0.67594455  0.71721993  1
  S2-  S128  1  0.00197694  0.25257650  0.13876051  1
  S2-  S129  1  0.01979998  0.13141953  0.65382774  1
  S2-  S130  1  0.00912971  0.47014325  0.15441078  1
  S2-  S131  1  0.01386647  0.36730280  0.65001858  1
  S2-  S132  1  -0.01958920  0.62539668  0.22765393  1
  S2-  S133  1  -0.01478333  0.63271273  0.64206769  1
  S2-  S134  1  -0.02407920  0.80832538  0.15194981  1
  S2-  S135  1  0.00859781  0.87625014  0.65878284  1
  S2-  S136  1  0.25201836  0.24931255  0.14069020  1
  S2-  S137  1  0.26350444  0.03769510  0.65553549  1
  S2-  S138  1  0.24731023  0.49131487  0.14822631  1
  S2-  S139  1  0.25482741  0.26062410  0.64459663  1
  S2-  S140  1  0.14780914  0.66913649  0.16314979  1
  S2-  S141  1  0.25078133  0.70172440  0.64501346  1
  S2-  S142  1  0.28286081  0.85734193  0.15885082  1
  S2-  S143  1  0.21454586  0.86240620  0.70592218  1
  S2-  S144  1  0.48412725  0.11816994  0.14780105  1
  S2-  S145  1  0.49997016  0.11125085  0.64985276  1
  S2-  S146  1  0.48695464  0.36825793  0.15314148  1
  S2-  S147  1  0.56185365  0.37122633  0.65361833  1
  S2-  S148  1  0.59695889  0.59905527  0.13740970  1
  S2-  S149  1  0.53925644  0.62960864  0.65004259  1
  S2-  S150  1  0.51775565  0.87388876  0.15902398  1
  S2-  S151  1  0.42671409  0.87032154  0.65228058  1
  S2-  S152  1  0.72777586  0.00895253  0.13818705  1
  S2-  S153  1  0.76750589  0.00962056  0.63986751  1
  S2-  S154  1  0.77877938  0.38238704  0.16228509  1
  S2-  S155  1  0.75514600  0.25142624  0.63835189  1
  S2-  S156  1  0.83071244  0.60728250  0.15534611  1
  S2-  S157  1  0.75660230  0.50499060  0.64232839  1
  S2-  S158  1  0.72369241  0.78423922  0.14599302  1
  S2-  S159  1  0.77857156  0.76303260  0.64146764  1
  S2-  S160  1  0.15856428  0.00254490  0.34750350  1
  S2-  S161  1  0.10288477  -0.04203656  0.79418337  1
  S2-  S162  1  0.13134448  0.36610488  0.34755220  1
  S2-  S163  1  0.09913060  0.16471927  0.84485314  1
  S2-  S164  1  0.12255524  0.58387716  0.31923695  1
  S2-  S165  1  0.11655693  0.37601126  0.85402101  1
  S2-  S166  1  0.17344001  0.78179125  0.33982253  1
  S2-  S167  1  0.11539219  0.76396160  0.84194691  1
  S2-  S168  1  0.40872523  0.01403245  0.34456070  1
  S2-  S169  1  0.27134825  0.01961315  0.84337659  1
  S2-  S170  1  0.28790393  0.22964816  0.36114673  1
  S2-  S171  1  0.31042962  0.24984187  0.84194315  1
  S2-  S172  1  0.30315940  0.51113095  0.35366601  1
  S2-  S173  1  0.25332391  0.54090477  0.86041111  1
  S2-  S174  1  0.39583408  0.76304294  0.34140496  1
  S2-  S175  1  0.37591527  0.77174036  0.84729372  1
  S2-  S176  1  0.63063685  -0.10864149  0.35766710  1
  S2-  S177  1  0.49518149  0.00990306  0.85384404  1
  S2-  S178  1  0.64200649  0.12895751  0.35421571  1
  S2-  S179  1  0.60777555  0.28406625  0.84676404  1
  S2-  S180  1  0.74506777  0.48250027  0.35071881  1
  S2-  S181  1  0.75378048  0.49404168  0.85733031  1
  S2-  S182  1  0.64964712  0.67192945  0.35114395  1
  S2-  S183  1  0.60436937  0.65601369  0.85751560  1
  S2-  S184  1  0.88487945  -0.11664189  0.35819200  1
  S2-  S185  1  0.94201812  -0.00113531  0.85332474  1
  S2-  S186  1  0.82043178  0.26260605  0.35235640  1
  S2-  S187  1  0.87821007  0.25588776  0.84843095  1
  S2-  S188  1  0.94170002  0.45503942  0.31690311  1
  S2-  S189  1  0.98115103  0.53172207  0.85482655  1
  S2-  S190  1  0.88525737  0.66190910  0.35178754  1
  S2-  S191  1  0.85176915  0.75336136  0.84841953  1
  S2-  S192  1  0.01731118  0.13807276  0.44720615  1
  S2-  S193  1  -0.00914382  0.13444862  0.95795753  1
  S2-  S194  1  0.01384321  0.38862236  0.44617650  1
  S2-  S195  1  -0.01352272  0.38287382  0.95851847  1
  S2-  S196  1  0.02402404  0.62702340  0.44281383  1
  S2-  S197  1  -0.01244024  0.64150807  0.95356080  1
  S2-  S198  1  0.02007452  0.88702971  0.45238201  1
  S2-  S199  1  -0.00757316  0.88998504  0.95745103  1
  S2-  S200  1  0.26730658  0.13515945  0.46402784  1
  S2-  S201  1  0.24091391  0.13516036  0.95522023  1
  S2-  S202  1  0.26521306  0.38683132  0.46015883  1
  S2-  S203  1  0.24385069  0.38879912  0.95849177  1
  S2-  S204  1  0.26454878  0.63454030  0.45186167  1
  S2-  S205  1  0.24036597  0.63804300  0.96574708  1
  S2-  S206  1  0.26608227  0.88651345  0.45057245  1
  S2-  S207  1  0.23526663  0.89397433  0.95444028  1
  S2-  S208  1  0.50826118  0.13922465  0.44908501  1
  S2-  S209  1  0.49076623  0.14163409  0.94752869  1
  S2-  S210  1  0.51806704  0.38572577  0.45258443  1
  S2-  S211  1  0.48670359  0.39377692  0.94825400  1
  S2-  S212  1  0.50975101  0.63912894  0.44850779  1
  S2-  S213  1  0.48495183  0.63839653  0.95728689  1
  S2-  S214  1  0.50594870  0.88785228  0.45794999  1
  S2-  S215  1  0.49292209  0.88362140  0.95450061  1
  S2-  S216  1  0.77085581  0.13412892  0.45630281  1
  S2-  S217  1  0.73796969  0.13806043  0.95561501  1
  S2-  S218  1  0.76556565  0.38396397  0.45796314  1
  S2-  S219  1  0.74331236  0.38217642  0.95774368  1
  S2-  S220  1  0.76634901  0.63790865  0.45832674  1
  S2-  S221  1  0.74084382  0.64280146  0.95983960  1
  S2-  S222  1  0.76585038  0.89069632  0.46079172  1
  S2-  S223  1  0.73673273  0.88623650  0.95394869  1
  S2-  S224  1  0.11282579  0.01533490  0.06118229  1
  S2-  S225  1  0.14371671  0.00587934  0.55143172  1
  S2-  S226  1  0.11404034  0.26070010  0.03962003  1
  S2-  S227  1  0.13909902  0.26076813  0.53891553  1
  S2-  S228  1  0.11190478  0.51233520  0.04465906  1
  S2-  S229  1  0.14200981  0.50818792  0.54921295  1
  S2-  S230  1  0.11294194  0.76035666  0.05097413  1
  S2-  S231  1  0.14269421  0.76218363  0.54366951  1
  S2-  S232  1  0.36415220  0.01325018  0.04211382  1
  S2-  S233  1  0.38675553  0.00935765  0.54726476  1
  S2-  S234  1  0.37063591  0.26065924  0.04170458  1
  S2-  S235  1  0.39199717  0.26052219  0.54345961  1
  S2-  S236  1  0.36971117  0.51272211  0.04421411  1
  S2-  S237  1  0.39217777  0.50902309  0.54580664  1
  S2-  S238  1  0.36611829  0.75719074  0.05358032  1
  S2-  S239  1  0.38933965  0.75905309  0.54528889  1
  S2-  S240  1  0.61149290  0.01249195  0.03549540  1
  S2-  S241  1  0.63511284  0.01192041  0.54135499  1
  S2-  S242  1  0.61478959  0.25917210  0.05020916  1
  S2-  S243  1  0.63508175  0.25567772  0.53600156  1
  S2-  S244  1  0.61488940  0.51037089  0.03296077  1
  S2-  S245  1  0.63575040  0.51187492  0.53772167  1
  S2-  S246  1  0.60997690  0.76190742  0.04075295  1
  S2-  S247  1  0.63631615  0.76173965  0.54423848  1
  S2-  S248  1  0.86798700  0.01465982  0.04802546  1
  S2-  S249  1  0.89548228  0.01049099  0.53876847  1
  S2-  S250  1  0.85863156  0.25864643  0.04962850  1
  S2-  S251  1  0.89261002  0.25802897  0.54382560  1
  S2-  S252  1  0.86370045  0.51331337  0.04642719  1
  S2-  S253  1  0.89078757  0.50813880  0.53955834  1
  S2-  S254  1  0.86363545  0.76271275  0.04892875  1
  S2-  S255  1  0.89426241  0.76122571  0.53900406  1
