# generated using pymatgen
data_La6Ce6Pr19Nd20Sm13(BiS2)64
_symmetry_space_group_name_H-M   'P 1'
_cell_length_a   16.12347801
_cell_length_b   16.13650861
_cell_length_c   27.30367316
_cell_angle_alpha   90.00265569
_cell_angle_beta   90.09470496
_cell_angle_gamma   89.88568701
_symmetry_Int_Tables_number   1
_chemical_formula_structural   La6Ce6Pr19Nd20Sm13(BiS2)64
_chemical_formula_sum   'La6 Ce6 Pr19 Nd20 Sm13 Bi64 S128'
_cell_volume   7103.75414338
_cell_formula_units_Z   1
loop_
 _symmetry_equiv_pos_site_id
 _symmetry_equiv_pos_as_xyz
  1  'x, y, z'
loop_
 _atom_type_symbol
 _atom_type_oxidation_number
  La3+  3.0
  Ce3+  3.0
  Pr3+  3.0
  Nd3+  3.0
  Sm3+  3.0
  Bi2+  2.0
  S2-  -2.0
loop_
 _atom_site_type_symbol
 _atom_site_label
 _atom_site_symmetry_multiplicity
 _atom_site_fract_x
 _atom_site_fract_y
 _atom_site_fract_z
 _atom_site_occupancy
  La3+  La0  1  0.00414854  0.36255293  0.07417986  1
  La3+  La1  1  0.63239600  0.47996069  0.90770546  1
  La3+  La2  1  0.74389696  0.12176534  0.07712268  1
  La3+  La3  1  0.75047884  0.38912803  0.12012835  1
  La3+  La4  1  0.12785023  0.75482534  0.40498207  1
  La3+  La5  1  0.75308361  0.63693409  0.58609869  1
  Ce3+  Ce6  1  0.24768032  0.12925478  0.55154041  1
  Ce3+  Ce7  1  0.37654360  -0.01759184  0.93994770  1
  Ce3+  Ce8  1  0.25167668  0.36187300  0.06854167  1
  Ce3+  Ce9  1  0.75240426  0.13086425  0.56314313  1
  Ce3+  Ce10  1  0.49515910  0.88086739  0.55752209  1
  Ce3+  Ce11  1  0.12051166  0.25784527  0.43863129  1
  Pr3+  Pr12  1  0.86440993  0.51412322  0.43274433  1
  Pr3+  Pr13  1  0.50448956  0.60931456  0.05415261  1
  Pr3+  Pr14  1  0.62545235  0.75201668  0.44552267  1
  Pr3+  Pr15  1  0.50264627  0.86158917  0.06264012  1
  Pr3+  Pr16  1  0.75189996  0.86787794  0.06692776  1
  Pr3+  Pr17  1  0.37774182  0.50522308  0.43687375  1
  Pr3+  Pr18  1  0.49842470  0.10848219  0.06415156  1
  Pr3+  Pr19  1  0.50658692  0.38068550  0.57855044  1
  Pr3+  Pr20  1  0.62599137  0.00619037  0.44180856  1
  Pr3+  Pr21  1  0.00057076  0.63723075  0.56468059  1
  Pr3+  Pr22  1  0.37813056  0.23595294  0.93848329  1
  Pr3+  Pr23  1  0.87065973  0.73642206  0.93971221  1
  Pr3+  Pr24  1  0.75069936  0.61278517  0.05732885  1
  Pr3+  Pr25  1  0.23961836  0.87008656  0.07670335  1
  Pr3+  Pr26  1  0.49536272  0.63231826  0.56752125  1
  Pr3+  Pr27  1  0.00354189  0.10519640  0.06791500  1
  Pr3+  Pr28  1  0.75771684  0.37157817  0.57338546  1
  Pr3+  Pr29  1  0.87367546  0.23937614  0.95130010  1
  Pr3+  Pr30  1  0.12840317  0.72885488  0.93319219  1
  Nd3+  Nd31  1  0.88367226  -0.00394836  0.93138478  1
  Nd3+  Nd32  1  -0.00411246  0.38210660  0.55892734  1
  Nd3+  Nd33  1  0.62099667  0.50532276  0.44845733  1
  Nd3+  Nd34  1  0.61944903  0.25646037  0.44041069  1
  Nd3+  Nd35  1  0.25205974  0.10979629  0.05378864  1
  Nd3+  Nd36  1  0.87510296  0.00493399  0.44139635  1
  Nd3+  Nd37  1  0.12511314  0.00720965  0.42768317  1
  Nd3+  Nd38  1  0.37587395  0.76062981  0.42434975  1
  Nd3+  Nd39  1  0.37414421  0.00328198  0.43155316  1
  Nd3+  Nd40  1  0.12511450  -0.02268267  0.92264445  1
  Nd3+  Nd41  1  0.00255972  0.61334634  0.06229448  1
  Nd3+  Nd42  1  0.62600896  0.73897041  0.93592745  1
  Nd3+  Nd43  1  0.24643677  0.87842291  0.55179565  1
  Nd3+  Nd44  1  0.87218792  0.48326519  0.94178101  1
  Nd3+  Nd45  1  0.12493145  0.23709998  0.94680620  1
  Nd3+  Nd46  1  0.49753383  0.12948889  0.56416536  1
  Nd3+  Nd47  1  0.12562274  0.48412197  0.93765006  1
  Nd3+  Nd48  1  0.87296836  0.75365062  0.43796131  1
  Nd3+  Nd49  1  0.37910759  0.48522485  0.94317528  1
  Nd3+  Nd50  1  0.62828418  0.23385333  0.93534244  1
  Sm3+  Sm51  1  0.74936134  0.88011726  0.55804781  1
  Sm3+  Sm52  1  0.00252775  0.86139361  0.04909239  1
  Sm3+  Sm53  1  0.11899709  0.50437303  0.44128067  1
  Sm3+  Sm54  1  0.37893707  0.73686498  0.94960410  1
  Sm3+  Sm55  1  0.24737947  0.63109799  0.54941697  1
  Sm3+  Sm56  1  0.25212757  0.61300657  0.05994858  1
  Sm3+  Sm57  1  0.86552634  0.25566329  0.42742288  1
  Sm3+  Sm58  1  0.63648831  -0.00840017  0.93164435  1
  Sm3+  Sm59  1  0.00062753  0.12828685  0.54952458  1
  Sm3+  Sm60  1  0.50843081  0.36121794  0.05824867  1
  Sm3+  Sm61  1  0.37782418  0.25632574  0.44254063  1
  Sm3+  Sm62  1  0.00344249  0.87765586  0.55054106  1
  Sm3+  Sm63  1  0.24968057  0.37973776  0.55272739  1
  Bi2+  Bi64  1  0.12076033  0.11729514  0.29209840  1
  Bi2+  Bi65  1  0.06967854  0.14180851  0.78664819  1
  Bi2+  Bi66  1  0.03835222  0.36018733  0.30145846  1
  Bi2+  Bi67  1  0.01830842  0.42927332  0.80997407  1
  Bi2+  Bi68  1  -0.00423587  0.59002345  0.29789501  1
  Bi2+  Bi69  1  0.02088879  0.61983611  0.77311559  1
  Bi2+  Bi70  1  -0.02210173  0.90647297  0.29580740  1
  Bi2+  Bi71  1  0.01443889  0.89583776  0.74823326  1
  Bi2+  Bi72  1  0.30470837  0.05945389  0.31206611  1
  Bi2+  Bi73  1  0.26666165  0.11083012  0.76660278  1
  Bi2+  Bi74  1  0.31121820  0.32572547  0.28682808  1
  Bi2+  Bi75  1  0.20716427  0.38511652  0.78994094  1
  Bi2+  Bi76  1  0.33395415  0.57240809  0.29534602  1
  Bi2+  Bi77  1  0.21912581  0.67373068  0.78942002  1
  Bi2+  Bi78  1  0.27707511  0.86082367  0.28859526  1
  Bi2+  Bi79  1  0.19817849  0.94005593  0.79498401  1
  Bi2+  Bi80  1  0.46589524  0.16115909  0.27855943  1
  Bi2+  Bi81  1  0.50387871  0.13171454  0.79316835  1
  Bi2+  Bi82  1  0.51046859  0.38083495  0.29465833  1
  Bi2+  Bi83  1  0.47096698  0.38682798  0.80135289  1
  Bi2+  Bi84  1  0.50960500  0.65619128  0.30148416  1
  Bi2+  Bi85  1  0.46893244  0.65474676  0.80224123  1
  Bi2+  Bi86  1  0.49813792  0.80706697  0.22578581  1
  Bi2+  Bi87  1  0.53089209  0.93724133  0.78241039  1
  Bi2+  Bi88  1  0.73346201  0.09341832  0.29476731  1
  Bi2+  Bi89  1  0.76872630  0.11179886  0.79013228  1
  Bi2+  Bi90  1  0.75500719  0.38067674  0.32033642  1
  Bi2+  Bi91  1  0.76795539  0.34722335  0.79629745  1
  Bi2+  Bi92  1  0.73398748  0.64580021  0.29434022  1
  Bi2+  Bi93  1  0.73775413  0.63539069  0.79680820  1
  Bi2+  Bi94  1  0.72649267  0.88816496  0.29215577  1
  Bi2+  Bi95  1  0.79074098  0.87356742  0.77709759  1
  Bi2+  Bi96  1  0.09236910  -0.01245470  0.20865713  1
  Bi2+  Bi97  1  0.12551798  0.02305563  0.68213497  1
  Bi2+  Bi98  1  0.17582876  0.24519603  0.21112802  1
  Bi2+  Bi99  1  0.10474696  0.29693505  0.70420923  1
  Bi2+  Bi100  1  0.18973108  0.47252040  0.22818988  1
  Bi2+  Bi101  1  0.08900191  0.49552415  0.69256243  1
  Bi2+  Bi102  1  0.11164641  0.72923887  0.19972714  1
  Bi2+  Bi103  1  0.16061102  0.76277056  0.69169293  1
  Bi2+  Bi104  1  0.35634248  0.05381638  0.20163615  1
  Bi2+  Bi105  1  0.39158110  -0.01973293  0.70348192  1
  Bi2+  Bi106  1  0.35864514  0.24352073  0.17314606  1
  Bi2+  Bi107  1  0.32748847  0.26461861  0.70607248  1
  Bi2+  Bi108  1  0.38066916  0.44304272  0.19959135  1
  Bi2+  Bi109  1  0.27881879  0.52515143  0.72209943  1
  Bi2+  Bi110  1  0.35269970  0.67733453  0.19821971  1
  Bi2+  Bi111  1  0.35121773  0.80826091  0.75179859  1
  Bi2+  Bi112  1  0.61983230  -0.02797532  0.20140575  1
  Bi2+  Bi113  1  0.67525359  0.00430574  0.71334970  1
  Bi2+  Bi114  1  0.60673981  0.24379579  0.21631294  1
  Bi2+  Bi115  1  0.61047864  0.26131253  0.69786696  1
  Bi2+  Bi116  1  0.56192394  0.52614110  0.22092904  1
  Bi2+  Bi117  1  0.56836162  0.51543016  0.70336518  1
  Bi2+  Bi118  1  0.68196112  0.78121967  0.18573175  1
  Bi2+  Bi119  1  0.61035202  0.76204587  0.69981573  1
  Bi2+  Bi120  1  0.89135962  0.00497725  0.21023819  1
  Bi2+  Bi121  1  0.87289964  0.00997164  0.70513819  1
  Bi2+  Bi122  1  0.88954828  0.24432459  0.22511051  1
  Bi2+  Bi123  1  0.91772278  0.28452028  0.73202981  1
  Bi2+  Bi124  1  0.87721375  0.52041453  0.21403581  1
  Bi2+  Bi125  1  0.89272950  0.48397770  0.72147006  1
  Bi2+  Bi126  1  0.86314303  0.80284792  0.22328990  1
  Bi2+  Bi127  1  0.89628758  0.75227197  0.70427105  1
  S2-  S128  1  -0.01517991  0.14288458  0.16646919  1
  S2-  S129  1  -0.00755165  0.10661954  0.64657892  1
  S2-  S130  1  -0.07963069  0.37786124  0.16301017  1
  S2-  S131  1  -0.10381275  0.37151312  0.64012738  1
  S2-  S132  1  -0.00785054  0.62426220  0.16148704  1
  S2-  S133  1  -0.10483472  0.61208559  0.64554686  1
  S2-  S134  1  0.04975370  0.85638823  0.14325790  1
  S2-  S135  1  0.01988625  0.78025726  0.63142604  1
  S2-  S136  1  0.21817068  0.02088946  0.13696643  1
  S2-  S137  1  0.25170555  0.13852843  0.64833411  1
  S2-  S138  1  0.14187303  0.37763793  0.14547825  1
  S2-  S139  1  0.26645926  0.38388965  0.65016003  1
  S2-  S140  1  0.20764496  0.60218456  0.15453258  1
  S2-  S141  1  0.25700646  0.64616365  0.64727422  1
  S2-  S142  1  0.25897732  0.80968565  0.17255359  1
  S2-  S143  1  0.25146913  0.90034083  0.65076557  1
  S2-  S144  1  0.59206552  0.11892696  0.14928003  1
  S2-  S145  1  0.50153121  0.15651041  0.66212335  1
  S2-  S146  1  0.57954917  0.36628009  0.14867446  1
  S2-  S147  1  0.47358419  0.37590620  0.68020117  1
  S2-  S148  1  0.51096936  0.63382402  0.15325455  1
  S2-  S149  1  0.48913946  0.66039228  0.66746343  1
  S2-  S150  1  0.46580498  0.93207546  0.15250855  1
  S2-  S151  1  0.51275923  0.89165967  0.65372889  1
  S2-  S152  1  0.76853789  0.22501572  0.16280579  1
  S2-  S153  1  0.74379060  0.21501207  0.64609529  1
  S2-  S154  1  0.74779380  0.40568216  0.22917094  1
  S2-  S155  1  0.66463592  0.41050109  0.65622487  1
  S2-  S156  1  0.75668354  0.56240540  0.15264609  1
  S2-  S157  1  0.69695101  0.62217065  0.68988850  1
  S2-  S158  1  0.76652037  0.98590552  0.14267404  1
  S2-  S159  1  0.75599116  0.80166327  0.64476869  1
  S2-  S160  1  0.13345694  -0.09242031  0.34682510  1
  S2-  S161  1  0.00743506  0.03443246  0.85473999  1
  S2-  S162  1  0.17062852  0.26691488  0.34592040  1
  S2-  S163  1  0.11046484  0.27779910  0.85080027  1
  S2-  S164  1  0.12618314  0.50551233  0.34331581  1
  S2-  S165  1  0.12571621  0.59723724  0.86163969  1
  S2-  S166  1  0.07669162  0.72549585  0.30350892  1
  S2-  S167  1  0.12411971  0.83789578  0.85489890  1
  S2-  S168  1  0.39604286  -0.10597194  0.35168419  1
  S2-  S169  1  0.41664375  0.00797287  0.84621681  1
  S2-  S170  1  0.49160563  0.25616303  0.36820474  1
  S2-  S171  1  0.39916183  0.25657902  0.83907267  1
  S2-  S172  1  0.50535986  0.50046402  0.36829484  1
  S2-  S173  1  0.38001732  0.50602282  0.84410471  1
  S2-  S174  1  0.27443694  0.72522524  0.34397851  1
  S2-  S175  1  0.38301845  0.76316310  0.85296476  1
  S2-  S176  1  0.61571578  0.00982457  0.34099276  1
  S2-  S177  1  0.62316345  0.11530171  0.85880247  1
  S2-  S178  1  0.72677037  0.22862395  0.36162264  1
  S2-  S179  1  0.62041615  0.33128201  0.84736686  1
  S2-  S180  1  0.71772108  0.52875118  0.36500684  1
  S2-  S181  1  0.58604409  0.52646609  0.80970343  1
  S2-  S182  1  0.63573764  0.76313661  0.34552065  1
  S2-  S183  1  0.61419814  0.73290008  0.83586320  1
  S2-  S184  1  0.87433450  0.02571487  0.34335224  1
  S2-  S185  1  0.76650504  -0.02877046  0.85901606  1
  S2-  S186  1  0.93269131  0.24817611  0.33080721  1
  S2-  S187  1  0.84790396  0.22397177  0.84948904  1
  S2-  S188  1  0.91227457  0.45114493  0.34048652  1
  S2-  S189  1  0.79086948  0.49486745  0.85148440  1
  S2-  S190  1  0.86623431  0.66818646  0.35176245  1
  S2-  S191  1  0.84820131  0.73033483  0.83910473  1
  S2-  S192  1  -0.00160075  0.13055596  0.44433309  1
  S2-  S193  1  0.00410244  0.11705845  0.96076574  1
  S2-  S194  1  -0.00411795  0.37976353  0.45291724  1
  S2-  S195  1  0.00172979  0.36429446  0.96092036  1
  S2-  S196  1  0.00358291  0.63231617  0.45121354  1
  S2-  S197  1  -0.00546899  0.60999322  0.95505263  1
  S2-  S198  1  -0.00077744  0.87770388  0.44654424  1
  S2-  S199  1  -0.00418223  0.85791576  0.94725206  1
  S2-  S200  1  0.25141588  0.13264238  0.44638001  1
  S2-  S201  1  0.24913293  0.11009631  0.94590413  1
  S2-  S202  1  0.25174443  0.38096604  0.44878926  1
  S2-  S203  1  0.25182569  0.36296605  0.95624475  1
  S2-  S204  1  0.24752303  0.62497252  0.44690395  1
  S2-  S205  1  0.25857917  0.61085295  0.95598163  1
  S2-  S206  1  0.24952428  0.88008664  0.44789355  1
  S2-  S207  1  0.25387972  0.85738602  0.95734459  1
  S2-  S208  1  0.49563000  0.12495162  0.45788680  1
  S2-  S209  1  0.49854426  0.10819365  0.95705645  1
  S2-  S210  1  0.49603618  0.37977259  0.47055001  1
  S2-  S211  1  0.50285309  0.36342157  0.95330255  1
  S2-  S212  1  0.49317856  0.63763917  0.46000550  1
  S2-  S213  1  0.50477261  0.61060604  0.94791625  1
  S2-  S214  1  0.50211956  0.88073135  0.45351931  1
  S2-  S215  1  0.50508680  0.86297126  0.95340578  1
  S2-  S216  1  0.75096163  0.12703840  0.45927149  1
  S2-  S217  1  0.75446545  0.11066947  0.96329295  1
  S2-  S218  1  0.74753294  0.37779136  0.46094744  1
  S2-  S219  1  0.74950016  0.36176021  0.95169327  1
  S2-  S220  1  0.74784093  0.63541613  0.46933909  1
  S2-  S221  1  0.74585640  0.61093103  0.95161462  1
  S2-  S222  1  0.75049127  0.87995312  0.45281477  1
  S2-  S223  1  0.74968598  0.86176827  0.95919066  1
  S2-  S224  1  0.12339882  -0.01554068  0.03158244  1
  S2-  S225  1  0.12262898  0.00399451  0.53510367  1
  S2-  S226  1  0.12897487  0.23266792  0.05210559  1
  S2-  S227  1  0.12270395  0.25641082  0.54571874  1
  S2-  S228  1  0.12823353  0.49236673  0.04243640  1
  S2-  S229  1  0.12458419  0.50472713  0.54635715  1
  S2-  S230  1  0.12861732  0.73561471  0.04201111  1
  S2-  S231  1  0.12818651  0.75464239  0.53050965  1
  S2-  S232  1  0.37317055  -0.01687969  0.04401305  1
  S2-  S233  1  0.37229474  0.00529791  0.54182462  1
  S2-  S234  1  0.37607153  0.23811024  0.04481506  1
  S2-  S235  1  0.37446858  0.25668877  0.54749603  1
  S2-  S236  1  0.37662529  0.48603652  0.05087896  1
  S2-  S237  1  0.37190197  0.50487149  0.54801316  1
  S2-  S238  1  0.37408085  0.73842093  0.05344971  1
  S2-  S239  1  0.37070890  0.75524012  0.54056093  1
  S2-  S240  1  0.62375229  -0.01395569  0.04034210  1
  S2-  S241  1  0.62551742  0.00523902  0.55040528  1
  S2-  S242  1  0.61823112  0.23491107  0.04162239  1
  S2-  S243  1  0.62153016  0.25293980  0.54695717  1
  S2-  S244  1  0.62824237  0.48569043  0.04833624  1
  S2-  S245  1  0.62419157  0.51086294  0.55400618  1
  S2-  S246  1  0.62707623  0.73932168  0.04364176  1
  S2-  S247  1  0.62182465  0.75743544  0.55107052  1
  S2-  S248  1  0.88249410  -0.01645079  0.04059493  1
  S2-  S249  1  0.87734372  0.00027125  0.54761100  1
  S2-  S250  1  0.88246376  0.23511625  0.05504614  1
  S2-  S251  1  0.87923999  0.24877728  0.53575549  1
  S2-  S252  1  0.87653751  0.48772204  0.04832374  1
  S2-  S253  1  0.87609709  0.50757388  0.54126752  1
  S2-  S254  1  0.87660291  0.73986311  0.04848829  1
  S2-  S255  1  0.87453922  0.76074514  0.54138854  1
