# generated using pymatgen
data_La6Ce6Pr19Nd20Sm13(BiS2)64
_symmetry_space_group_name_H-M   'P 1'
_cell_length_a   16.08886936
_cell_length_b   16.10261513
_cell_length_c   27.23753326
_cell_angle_alpha   90.08714563
_cell_angle_beta   89.82915126
_cell_angle_gamma   90.09528271
_symmetry_Int_Tables_number   1
_chemical_formula_structural   La6Ce6Pr19Nd20Sm13(BiS2)64
_chemical_formula_sum   'La6 Ce6 Pr19 Nd20 Sm13 Bi64 S128'
_cell_volume   7056.45670825
_cell_formula_units_Z   1
loop_
 _symmetry_equiv_pos_site_id
 _symmetry_equiv_pos_as_xyz
  1  'x, y, z'
loop_
 _atom_type_symbol
 _atom_type_oxidation_number
  La3+  3.0
  Ce3+  3.0
  Pr3+  3.0
  Nd3+  3.0
  Sm3+  3.0
  Bi2+  2.0
  S2-  -2.0
loop_
 _atom_site_type_symbol
 _atom_site_label
 _atom_site_symmetry_multiplicity
 _atom_site_fract_x
 _atom_site_fract_y
 _atom_site_fract_z
 _atom_site_occupancy
  La3+  La0  1  0.23569428  0.36801270  0.11142135  1
  La3+  La1  1  0.36018303  -0.00249775  0.91223168  1
  La3+  La2  1  0.48600975  0.12969957  0.05031336  1
  La3+  La3  1  0.51189481  0.39290144  0.57463227  1
  La3+  La4  1  0.51902040  0.88552038  0.58864381  1
  La3+  La5  1  0.11780235  0.25606625  0.89119224  1
  Ce3+  Ce6  1  0.75866708  0.38425043  0.56533200  1
  Ce3+  Ce7  1  -0.01051664  0.62546683  0.05187998  1
  Ce3+  Ce8  1  0.88733189  0.50611691  0.43979346  1
  Ce3+  Ce9  1  0.76027809  0.63492439  0.55285332  1
  Ce3+  Ce10  1  0.73781698  0.63174258  0.05510177  1
  Ce3+  Ce11  1  0.11721374  0.75323296  0.94675392  1
  Pr3+  Pr12  1  0.01236734  0.88646685  0.56819137  1
  Pr3+  Pr13  1  0.01288897  0.13260081  0.56270178  1
  Pr3+  Pr14  1  0.89542433  0.00554271  0.42388819  1
  Pr3+  Pr15  1  -0.01784108  0.87650677  0.06681161  1
  Pr3+  Pr16  1  0.48532944  0.87802383  0.06160325  1
  Pr3+  Pr17  1  -0.00466553  0.13085505  0.05595245  1
  Pr3+  Pr18  1  0.63606087  0.76275586  0.43531937  1
  Pr3+  Pr19  1  0.24095280  0.87973231  0.06580217  1
  Pr3+  Pr20  1  0.14057434  0.00579163  0.44006542  1
  Pr3+  Pr21  1  -0.01242827  0.38003818  0.06609164  1
  Pr3+  Pr22  1  0.25238024  0.13707292  0.61108442  1
  Pr3+  Pr23  1  0.36993189  0.25459562  0.92194249  1
  Pr3+  Pr24  1  0.86853066  0.00516651  0.93572463  1
  Pr3+  Pr25  1  0.50582778  0.13477079  0.57521152  1
  Pr3+  Pr26  1  0.25815297  0.88541535  0.58790129  1
  Pr3+  Pr27  1  0.11434225  0.49647045  0.93380266  1
  Pr3+  Pr28  1  0.49404154  0.62889449  0.06404392  1
  Pr3+  Pr29  1  0.37251687  0.74861203  0.92909579  1
  Pr3+  Pr30  1  0.11322385  -0.00200908  0.93041738  1
  Nd3+  Nd31  1  0.01385614  0.38392147  0.55971117  1
  Nd3+  Nd32  1  0.89058077  0.26110432  0.43997086  1
  Nd3+  Nd33  1  0.24175657  0.61981071  0.05649843  1
  Nd3+  Nd34  1  0.26599338  0.63136616  0.56552884  1
  Nd3+  Nd35  1  0.26632962  0.38746721  0.58330865  1
  Nd3+  Nd36  1  0.01162949  0.63283276  0.55386742  1
  Nd3+  Nd37  1  0.38632699  0.76134137  0.44444188  1
  Nd3+  Nd38  1  0.73523505  0.88066978  0.06984341  1
  Nd3+  Nd39  1  0.63894192  0.01002914  0.43780505  1
  Nd3+  Nd40  1  0.88835531  0.76051949  0.44074822  1
  Nd3+  Nd41  1  0.74059462  0.12814178  0.07194149  1
  Nd3+  Nd42  1  0.86320521  0.49983870  0.93795701  1
  Nd3+  Nd43  1  0.48781793  0.37456087  0.06364872  1
  Nd3+  Nd44  1  0.76326290  0.88958846  0.56353866  1
  Nd3+  Nd45  1  0.39400874  0.49498547  0.42692617  1
  Nd3+  Nd46  1  0.38600613  0.00738082  0.45533099  1
  Nd3+  Nd47  1  0.61923233  0.75796470  0.92258874  1
  Nd3+  Nd48  1  0.36533404  0.49510904  0.94025855  1
  Nd3+  Nd49  1  0.61803674  -0.00053498  0.93622522  1
  Nd3+  Nd50  1  0.14488791  0.50921098  0.43582694  1
  Sm3+  Sm51  1  0.76270878  0.13141648  0.55231334  1
  Sm3+  Sm52  1  0.14116714  0.75784362  0.45116811  1
  Sm3+  Sm53  1  0.63602149  0.25739896  0.44644095  1
  Sm3+  Sm54  1  0.74223101  0.37666481  0.05948431  1
  Sm3+  Sm55  1  0.38690858  0.25775922  0.45282839  1
  Sm3+  Sm56  1  0.61746852  0.24880135  0.93271959  1
  Sm3+  Sm57  1  0.51177999  0.63419096  0.55070002  1
  Sm3+  Sm58  1  0.86369088  0.75342277  0.93439500  1
  Sm3+  Sm59  1  0.63829827  0.50512225  0.43416439  1
  Sm3+  Sm60  1  0.61464974  0.49959641  0.94426158  1
  Sm3+  Sm61  1  0.14201892  0.25956730  0.44761703  1
  Sm3+  Sm62  1  0.23855246  0.13809600  0.04532215  1
  Sm3+  Sm63  1  0.86716079  0.25072056  0.94082857  1
  Bi2+  Bi64  1  -0.04698399  0.08356401  0.28376041  1
  Bi2+  Bi65  1  -0.09967354  0.07638916  0.78328797  1
  Bi2+  Bi66  1  -0.01335317  0.33434574  0.29506894  1
  Bi2+  Bi67  1  -0.03232171  0.37648436  0.78626387  1
  Bi2+  Bi68  1  -0.01626485  0.67532622  0.25096518  1
  Bi2+  Bi69  1  -0.00294865  0.62733357  0.78751871  1
  Bi2+  Bi70  1  0.00821904  0.85501387  0.29752890  1
  Bi2+  Bi71  1  -0.02879445  0.82384610  0.80947843  1
  Bi2+  Bi72  1  0.24605919  0.12984760  0.27919159  1
  Bi2+  Bi73  1  0.25904696  0.11235951  0.77858229  1
  Bi2+  Bi74  1  0.23212011  0.39458496  0.32162554  1
  Bi2+  Bi75  1  0.25310598  0.46449461  0.78733218  1
  Bi2+  Bi76  1  0.20599662  0.64889687  0.30264264  1
  Bi2+  Bi77  1  0.26734121  0.65561784  0.79251777  1
  Bi2+  Bi78  1  0.23698055  0.93591519  0.30829997  1
  Bi2+  Bi79  1  0.23816194  0.86388187  0.78191392  1
  Bi2+  Bi80  1  0.53019561  0.16548484  0.27161267  1
  Bi2+  Bi81  1  0.57407253  0.12630336  0.79799883  1
  Bi2+  Bi82  1  0.49881053  0.35663688  0.29314697  1
  Bi2+  Bi83  1  0.53928371  0.39755841  0.79431832  1
  Bi2+  Bi84  1  0.57769162  0.60219195  0.28229429  1
  Bi2+  Bi85  1  0.55242011  0.60900137  0.77520331  1
  Bi2+  Bi86  1  0.48872583  0.86162817  0.31589057  1
  Bi2+  Bi87  1  0.50600205  0.83383965  0.78737871  1
  Bi2+  Bi88  1  0.71682632  0.12804965  0.22963324  1
  Bi2+  Bi89  1  0.74385835  0.12679382  0.85280481  1
  Bi2+  Bi90  1  0.71712917  0.36421284  0.30311915  1
  Bi2+  Bi91  1  0.75494427  0.32194472  0.78887031  1
  Bi2+  Bi92  1  0.76584389  0.55443399  0.30649287  1
  Bi2+  Bi93  1  0.79369048  0.62394347  0.78735204  1
  Bi2+  Bi94  1  0.73437694  0.89386014  0.29999805  1
  Bi2+  Bi95  1  0.79206053  0.89906568  0.78991382  1
  Bi2+  Bi96  1  0.17644566  0.00250404  0.19886803  1
  Bi2+  Bi97  1  0.04022985  -0.01405611  0.72117643  1
  Bi2+  Bi98  1  0.08404254  0.17358658  0.21543527  1
  Bi2+  Bi99  1  0.08254923  0.25039880  0.71871831  1
  Bi2+  Bi100  1  0.10410862  0.50018112  0.20885453  1
  Bi2+  Bi101  1  0.11170953  0.51891601  0.71331394  1
  Bi2+  Bi102  1  0.15266287  0.77679368  0.21556125  1
  Bi2+  Bi103  1  0.13179176  0.73511733  0.71246007  1
  Bi2+  Bi104  1  0.37510678  -0.02422118  0.21343697  1
  Bi2+  Bi105  1  0.41976525  0.01026792  0.71478564  1
  Bi2+  Bi106  1  0.37606218  0.21938317  0.20686577  1
  Bi2+  Bi107  1  0.35733219  0.27829695  0.73049723  1
  Bi2+  Bi108  1  0.36573119  0.51502981  0.21189385  1
  Bi2+  Bi109  1  0.39243388  0.53562640  0.70483557  1
  Bi2+  Bi110  1  0.34408546  0.78019959  0.23694200  1
  Bi2+  Bi111  1  0.32407472  0.72568999  0.69009860  1
  Bi2+  Bi112  1  0.57453830  -0.00195336  0.20675797  1
  Bi2+  Bi113  1  0.67552045  -0.00980196  0.71596618  1
  Bi2+  Bi114  1  0.64803516  0.27151192  0.15984600  1
  Bi2+  Bi115  1  0.62885005  0.24649180  0.71495455  1
  Bi2+  Bi116  1  0.61378877  0.44139140  0.21235869  1
  Bi2+  Bi117  1  0.66865497  0.51878694  0.69795296  1
  Bi2+  Bi118  1  0.57681757  0.73700306  0.20381390  1
  Bi2+  Bi119  1  0.69108215  0.75179717  0.72516416  1
  Bi2+  Bi120  1  0.90080514  -0.02779820  0.19327673  1
  Bi2+  Bi121  1  0.87994356  -0.07457405  0.67552703  1
  Bi2+  Bi122  1  0.82862421  0.28782056  0.21742065  1
  Bi2+  Bi123  1  0.83091490  0.20997523  0.70308753  1
  Bi2+  Bi124  1  0.86268616  0.52764958  0.20708246  1
  Bi2+  Bi125  1  0.84869546  0.40854388  0.69412038  1
  Bi2+  Bi126  1  0.80032050  0.71520345  0.21443119  1
  Bi2+  Bi127  1  0.90817089  0.73642552  0.70129422  1
  S2-  S128  1  -0.04656480  0.13121409  0.15499981  1
  S2-  S129  1  0.08319926  0.11924808  0.65517386  1
  S2-  S130  1  0.07208079  0.37159989  0.15579215  1
  S2-  S131  1  0.01985059  0.38714314  0.65950903  1
  S2-  S132  1  -0.00375669  0.60567844  0.14941494  1
  S2-  S133  1  0.01145652  0.62104138  0.65208469  1
  S2-  S134  1  0.05587589  0.89818146  0.15821917  1
  S2-  S135  1  0.11091947  0.87722265  0.65181093  1
  S2-  S136  1  0.25511104  0.19869145  0.14048788  1
  S2-  S137  1  0.40531944  0.16501743  0.66551952  1
  S2-  S138  1  0.23535560  0.39156884  0.22629445  1
  S2-  S139  1  0.22708640  0.28664959  0.66595805  1
  S2-  S140  1  0.23561604  0.54421443  0.14658698  1
  S2-  S141  1  0.24415315  0.52771081  0.64515289  1
  S2-  S142  1  0.36266636  0.85898783  0.13920563  1
  S2-  S143  1  0.27670248  0.99558820  0.67055155  1
  S2-  S144  1  0.47686724  0.10318804  0.15026263  1
  S2-  S145  1  0.55196867  0.02841277  0.65141393  1
  S2-  S146  1  0.40554671  0.37791663  0.15223618  1
  S2-  S147  1  0.40539588  0.38672910  0.65563525  1
  S2-  S148  1  0.44657378  0.62470237  0.16259378  1
  S2-  S149  1  0.52459327  0.57491121  0.64221465  1
  S2-  S150  1  0.60026696  0.85981947  0.13946729  1
  S2-  S151  1  0.45112023  0.84296756  0.68295380  1
  S2-  S152  1  0.74757770  0.01559950  0.14916643  1
  S2-  S153  1  0.78218248  0.06903663  0.64295026  1
  S2-  S154  1  0.85148232  0.39365964  0.13909523  1
  S2-  S155  1  0.64495277  0.37755562  0.64269070  1
  S2-  S156  1  0.68408959  0.63905727  0.14818202  1
  S2-  S157  1  0.76539785  0.64341328  0.65002003  1
  S2-  S158  1  0.85419021  0.83496929  0.14216503  1
  S2-  S159  1  0.66822491  0.85691787  0.64622260  1
  S2-  S160  1  0.03543898  0.00578186  0.35832303  1
  S2-  S161  1  0.21590087  -0.00336328  0.84659692  1
  S2-  S162  1  0.11710641  0.26880512  0.34953344  1
  S2-  S163  1  0.10824739  0.16459188  0.79980392  1
  S2-  S164  1  0.11065070  0.52112453  0.33678720  1
  S2-  S165  1  0.10886597  0.41462945  0.84351587  1
  S2-  S166  1  0.14896543  0.79703733  0.35601696  1
  S2-  S167  1  0.12556656  0.79515641  0.85320840  1
  S2-  S168  1  0.38196355  -0.02029984  0.35569164  1
  S2-  S169  1  0.42279437  0.06023563  0.81847010  1
  S2-  S170  1  0.37971251  0.33060692  0.36307275  1
  S2-  S171  1  0.28444711  0.25352553  0.83064922  1
  S2-  S172  1  0.31356579  0.54356454  0.34096831  1
  S2-  S173  1  0.39864457  0.47066570  0.84206753  1
  S2-  S174  1  0.38663724  0.74696069  0.34390434  1
  S2-  S175  1  0.36404946  0.85555408  0.84622049  1
  S2-  S176  1  0.61074680  -0.02037574  0.34092885  1
  S2-  S177  1  0.60154593  -0.10353739  0.85359597  1
  S2-  S178  1  0.63336709  0.23499475  0.34886081  1
  S2-  S179  1  0.51121573  0.26801644  0.85453471  1
  S2-  S180  1  0.53063993  0.49400597  0.35799717  1
  S2-  S181  1  0.63936063  0.50250465  0.84616478  1
  S2-  S182  1  0.63509835  0.75715650  0.33421059  1
  S2-  S183  1  0.49789460  0.70466821  0.85304118  1
  S2-  S184  1  0.80933623  0.02212440  0.33562869  1
  S2-  S185  1  0.98229249  -0.01033326  0.85712682  1
  S2-  S186  1  0.89735198  0.22493434  0.34228447  1
  S2-  S187  1  0.94534707  0.26223416  0.85304299  1
  S2-  S188  1  0.90105071  0.45388339  0.34745626  1
  S2-  S189  1  0.89301898  0.50825400  0.84049599  1
  S2-  S190  1  0.87313981  0.81198785  0.34647439  1
  S2-  S191  1  0.75884740  0.74149663  0.85573876  1
  S2-  S192  1  0.01562990  0.13815815  0.45602464  1
  S2-  S193  1  -0.00353100  0.13348787  0.94995143  1
  S2-  S194  1  0.01671607  0.38415866  0.45424784  1
  S2-  S195  1  -0.01418238  0.37762964  0.95665100  1
  S2-  S196  1  0.01422329  0.63484643  0.44705717  1
  S2-  S197  1  -0.01164970  0.62812566  0.94485919  1
  S2-  S198  1  0.01537681  0.87890451  0.46075053  1
  S2-  S199  1  -0.01190331  0.87237760  0.95957297  1
  S2-  S200  1  0.26365032  0.13553337  0.44545340  1
  S2-  S201  1  0.23710355  0.13212077  0.94244393  1
  S2-  S202  1  0.26196575  0.38347547  0.46270215  1
  S2-  S203  1  0.23984206  0.37421134  0.93971790  1
  S2-  S204  1  0.26423928  0.63470616  0.45836077  1
  S2-  S205  1  0.24184618  0.62391235  0.94825756  1
  S2-  S206  1  0.26199360  0.88157282  0.46655772  1
  S2-  S207  1  0.24178203  0.87481758  0.95848114  1
  S2-  S208  1  0.51080955  0.13417060  0.45883831  1
  S2-  S209  1  0.49146828  0.12242606  0.94451927  1
  S2-  S210  1  0.51687622  0.37783731  0.46378277  1
  S2-  S211  1  0.49572044  0.37627779  0.95671950  1
  S2-  S212  1  0.51237409  0.63444795  0.44799972  1
  S2-  S213  1  0.49311571  0.61869775  0.95738377  1
  S2-  S214  1  0.51235021  0.88483382  0.46016871  1
  S2-  S215  1  0.48787448  0.88060021  0.95514398  1
  S2-  S216  1  0.76427368  0.13545779  0.44911546  1
  S2-  S217  1  0.74075394  0.12896929  0.96459514  1
  S2-  S218  1  0.76002175  0.38138805  0.45538410  1
  S2-  S219  1  0.74012358  0.37388997  0.95187018  1
  S2-  S220  1  0.76111673  0.63347109  0.44548712  1
  S2-  S221  1  0.73794566  0.62370716  0.95120751  1
  S2-  S222  1  0.76305397  0.88571380  0.45508491  1
  S2-  S223  1  0.74636369  0.87981653  0.95635743  1
  S2-  S224  1  0.11817613  0.00449734  0.04273844  1
  S2-  S225  1  0.14218176  0.01137049  0.54801563  1
  S2-  S226  1  0.11662342  0.25756487  0.05020024  1
  S2-  S227  1  0.13874247  0.25876828  0.55177603  1
  S2-  S228  1  0.11405165  0.50166958  0.04027694  1
  S2-  S229  1  0.13515096  0.50848475  0.54329646  1
  S2-  S230  1  0.11692247  0.74989345  0.05383745  1
  S2-  S231  1  0.13945626  0.75524198  0.55403673  1
  S2-  S232  1  0.35854970  0.00739887  0.04065121  1
  S2-  S233  1  0.38443292  0.00626750  0.55949352  1
  S2-  S234  1  0.36517857  0.25651815  0.03430325  1
  S2-  S235  1  0.37984262  0.25705459  0.55394219  1
  S2-  S236  1  0.36856378  0.50070595  0.04507354  1
  S2-  S237  1  0.38842115  0.51097959  0.53969170  1
  S2-  S238  1  0.36377834  0.74569394  0.03890202  1
  S2-  S239  1  0.38883812  0.76019476  0.55278148  1
  S2-  S240  1  0.61499202  0.00687497  0.04242876  1
  S2-  S241  1  0.63868646  0.01038126  0.54277308  1
  S2-  S242  1  0.61711622  0.25374755  0.03818329  1
  S2-  S243  1  0.63733190  0.25083244  0.55004165  1
  S2-  S244  1  0.61645790  0.49742133  0.05017812  1
  S2-  S245  1  0.63871988  0.51149007  0.53775540  1
  S2-  S246  1  0.61480539  0.75317977  0.03446706  1
  S2-  S247  1  0.63495705  0.75795885  0.54243480  1
  S2-  S248  1  0.86542661  0.00630814  0.04300533  1
  S2-  S249  1  0.88955580  0.00953611  0.53620168  1
  S2-  S250  1  0.86241531  0.25012212  0.04584161  1
  S2-  S251  1  0.88568096  0.25869816  0.54886657  1
  S2-  S252  1  0.86024033  0.50686453  0.04211619  1
  S2-  S253  1  0.88632963  0.50738806  0.54725366  1
  S2-  S254  1  0.86410183  0.74814394  0.03773808  1
  S2-  S255  1  0.88735675  0.76011347  0.54769206  1
