# generated using pymatgen
data_La6Ce6Pr19Nd20Sm13(BiS2)64
_symmetry_space_group_name_H-M   'P 1'
_cell_length_a   16.03960590
_cell_length_b   16.12509384
_cell_length_c   27.39510876
_cell_angle_alpha   89.89284598
_cell_angle_beta   90.12325274
_cell_angle_gamma   89.89876136
_symmetry_Int_Tables_number   1
_chemical_formula_structural   La6Ce6Pr19Nd20Sm13(BiS2)64
_chemical_formula_sum   'La6 Ce6 Pr19 Nd20 Sm13 Bi64 S128'
_cell_volume   7085.43515072
_cell_formula_units_Z   1
loop_
 _symmetry_equiv_pos_site_id
 _symmetry_equiv_pos_as_xyz
  1  'x, y, z'
loop_
 _atom_type_symbol
 _atom_type_oxidation_number
  La3+  3.0
  Ce3+  3.0
  Pr3+  3.0
  Nd3+  3.0
  Sm3+  3.0
  Bi2+  2.0
  S2-  -2.0
loop_
 _atom_site_type_symbol
 _atom_site_label
 _atom_site_symmetry_multiplicity
 _atom_site_fract_x
 _atom_site_fract_y
 _atom_site_fract_z
 _atom_site_occupancy
  La3+  La0  1  0.25853899  0.35715681  0.57977452  1
  La3+  La1  1  0.75028666  0.86670730  0.57840832  1
  La3+  La2  1  0.50733797  0.13615184  0.10002360  1
  La3+  La3  1  0.24334114  0.86212258  0.60124406  1
  La3+  La4  1  0.50311645  0.89039338  0.11919510  1
  La3+  La5  1  0.13358335  0.76054200  0.91502346  1
  Ce3+  Ce6  1  0.37477401  -0.01102219  0.43423025  1
  Ce3+  Ce7  1  0.87466548  0.75637018  0.94276914  1
  Ce3+  Ce8  1  0.00373539  0.62815949  0.04554108  1
  Ce3+  Ce9  1  0.49717369  0.61953540  0.55941928  1
  Ce3+  Ce10  1  -0.00240533  0.86502124  0.56345014  1
  Ce3+  Ce11  1  0.38262850  0.00235718  0.95552939  1
  Pr3+  Pr12  1  0.12499291  -0.01268294  0.43721642  1
  Pr3+  Pr13  1  0.62420435  0.48881468  0.44482650  1
  Pr3+  Pr14  1  0.12663618  0.73795462  0.43800051  1
  Pr3+  Pr15  1  0.00158599  0.11257400  0.55950403  1
  Pr3+  Pr16  1  0.87563058  0.50308315  0.93331083  1
  Pr3+  Pr17  1  0.25081490  0.12509538  0.06967090  1
  Pr3+  Pr18  1  0.87449623  -0.01234080  0.43501362  1
  Pr3+  Pr19  1  0.49593716  0.87228500  0.56870238  1
  Pr3+  Pr20  1  0.86456978  -0.00640140  0.92018920  1
  Pr3+  Pr21  1  0.12895034  0.48645433  0.44398279  1
  Pr3+  Pr22  1  0.38322546  0.75383779  0.94059078  1
  Pr3+  Pr23  1  0.49587966  0.37873056  0.07350768  1
  Pr3+  Pr24  1  0.00132868  0.36173233  0.56546397  1
  Pr3+  Pr25  1  0.12696381  0.24069766  0.42902920  1
  Pr3+  Pr26  1  0.62450864  0.74061160  0.43973733  1
  Pr3+  Pr27  1  0.24582152  0.37659800  0.06448469  1
  Pr3+  Pr28  1  0.50575517  0.63241597  0.07260190  1
  Pr3+  Pr29  1  0.87478746  0.23976751  0.42484485  1
  Pr3+  Pr30  1  0.13038938  0.25195467  0.93454689  1
  Nd3+  Nd31  1  0.24013192  0.63151453  0.06442519  1
  Nd3+  Nd32  1  0.75658661  0.12447980  0.06299356  1
  Nd3+  Nd33  1  0.75263185  0.87921042  0.06842140  1
  Nd3+  Nd34  1  0.00325757  0.37688531  0.05801408  1
  Nd3+  Nd35  1  0.74811663  0.61627831  0.56679328  1
  Nd3+  Nd36  1  0.74871027  0.36360271  0.55940511  1
  Nd3+  Nd37  1  0.00578924  0.87547333  0.06134298  1
  Nd3+  Nd38  1  0.25136130  0.60807929  0.57232167  1
  Nd3+  Nd39  1  0.62595199  0.25227892  0.94339755  1
  Nd3+  Nd40  1  0.37471884  0.24122471  0.42786140  1
  Nd3+  Nd41  1  0.12606473  0.50432397  0.92672879  1
  Nd3+  Nd42  1  0.87378286  0.73862645  0.44258669  1
  Nd3+  Nd43  1  0.62167311  0.23793572  0.42467472  1
  Nd3+  Nd44  1  0.37427337  0.74094460  0.43961026  1
  Nd3+  Nd45  1  0.25499432  0.87464342  0.07016582  1
  Nd3+  Nd46  1  0.62418142  0.50185423  0.94424698  1
  Nd3+  Nd47  1  0.12811898  0.00181162  0.93771651  1
  Nd3+  Nd48  1  0.50044585  0.11222859  0.55414791  1
  Nd3+  Nd49  1  0.87534752  0.48787267  0.44384801  1
  Nd3+  Nd50  1  0.75234294  0.62561584  0.06459246  1
  Sm3+  Sm51  1  0.75469336  0.37355090  0.05290465  1
  Sm3+  Sm52  1  0.62635140  -0.01260411  0.43777429  1
  Sm3+  Sm53  1  0.00335929  0.61491174  0.55863808  1
  Sm3+  Sm54  1  0.62522666  0.00400397  0.95423413  1
  Sm3+  Sm55  1  0.37497012  0.50421398  0.95093625  1
  Sm3+  Sm56  1  0.00475645  0.12200485  0.05662959  1
  Sm3+  Sm57  1  0.75130394  0.11574778  0.55255921  1
  Sm3+  Sm58  1  0.50153798  0.35992805  0.55990052  1
  Sm3+  Sm59  1  0.37466178  0.48662849  0.44945308  1
  Sm3+  Sm60  1  0.37846056  0.25236650  0.94741366  1
  Sm3+  Sm61  1  0.25083685  0.10995478  0.55433005  1
  Sm3+  Sm62  1  0.87968432  0.25024062  0.93786235  1
  Sm3+  Sm63  1  0.62290685  0.75366549  0.94541913  1
  Bi2+  Bi64  1  -0.03491312  0.15482724  0.20501375  1
  Bi2+  Bi65  1  0.01617473  0.15216975  0.77742988  1
  Bi2+  Bi66  1  0.01585217  0.34220884  0.27896824  1
  Bi2+  Bi67  1  -0.03978474  0.36483892  0.78530883  1
  Bi2+  Bi68  1  -0.05012285  0.61505012  0.28695711  1
  Bi2+  Bi69  1  -0.10014844  0.60926096  0.76012597  1
  Bi2+  Bi70  1  -0.02433602  0.90097903  0.25380301  1
  Bi2+  Bi71  1  -0.03133205  0.90314722  0.78750606  1
  Bi2+  Bi72  1  0.17210318  0.14627972  0.28014149  1
  Bi2+  Bi73  1  0.20474117  0.12071978  0.77749286  1
  Bi2+  Bi74  1  0.22598011  0.38702376  0.29724888  1
  Bi2+  Bi75  1  0.24087722  0.33631006  0.78912452  1
  Bi2+  Bi76  1  0.16704152  0.61907545  0.29108702  1
  Bi2+  Bi77  1  0.23851318  0.61993820  0.80732309  1
  Bi2+  Bi78  1  0.23619083  0.88095993  0.31314861  1
  Bi2+  Bi79  1  0.26249356  0.92327257  0.81367987  1
  Bi2+  Bi80  1  0.58856205  0.14151316  0.28334121  1
  Bi2+  Bi81  1  0.45733871  0.14235850  0.76989900  1
  Bi2+  Bi82  1  0.49405456  0.38615285  0.29181520  1
  Bi2+  Bi83  1  0.50140414  0.33861947  0.79187246  1
  Bi2+  Bi84  1  0.52574105  0.59902093  0.29642733  1
  Bi2+  Bi85  1  0.50166763  0.64327116  0.79906791  1
  Bi2+  Bi86  1  0.50448723  0.87309603  0.32990021  1
  Bi2+  Bi87  1  0.50642636  0.93253792  0.78899361  1
  Bi2+  Bi88  1  0.83110384  0.12998037  0.28763529  1
  Bi2+  Bi89  1  0.64615309  0.10682222  0.78531543  1
  Bi2+  Bi90  1  0.81717455  0.36257781  0.28303901  1
  Bi2+  Bi91  1  0.71354514  0.44455420  0.77983629  1
  Bi2+  Bi92  1  0.71904336  0.53420312  0.26587335  1
  Bi2+  Bi93  1  0.72883169  0.67102126  0.80751673  1
  Bi2+  Bi94  1  0.78996436  0.85080262  0.28942312  1
  Bi2+  Bi95  1  0.70112745  0.86720209  0.80215923  1
  Bi2+  Bi96  1  0.12378133  0.00140316  0.20842523  1
  Bi2+  Bi97  1  0.09245149  0.03111965  0.69831207  1
  Bi2+  Bi98  1  0.20121147  0.28422902  0.19934980  1
  Bi2+  Bi99  1  0.14224104  0.29916261  0.69117941  1
  Bi2+  Bi100  1  0.03439776  0.50291475  0.20416254  1
  Bi2+  Bi101  1  0.09584405  0.49591937  0.70386771  1
  Bi2+  Bi102  1  0.13015237  0.73482437  0.20394275  1
  Bi2+  Bi103  1  0.09972920  0.74411437  0.71763104  1
  Bi2+  Bi104  1  0.37082461  0.02517098  0.22806061  1
  Bi2+  Bi105  1  0.38534763  -0.00318352  0.70365044  1
  Bi2+  Bi106  1  0.39564483  0.26875490  0.22225581  1
  Bi2+  Bi107  1  0.32046804  0.21806144  0.69370475  1
  Bi2+  Bi108  1  0.34478662  0.53383992  0.25631463  1
  Bi2+  Bi109  1  0.39900091  0.49127047  0.75580803  1
  Bi2+  Bi110  1  0.36358451  0.76433722  0.22574823  1
  Bi2+  Bi111  1  0.36250823  0.72932124  0.71523260  1
  Bi2+  Bi112  1  0.73402659  0.01038704  0.21666904  1
  Bi2+  Bi113  1  0.63829227  -0.05739856  0.69941542  1
  Bi2+  Bi114  1  0.66832015  0.27446615  0.21634525  1
  Bi2+  Bi115  1  0.58639511  0.32476534  0.68477607  1
  Bi2+  Bi116  1  0.53852375  0.50244126  0.19964807  1
  Bi2+  Bi117  1  0.58575581  0.52225030  0.69125202  1
  Bi2+  Bi118  1  0.62185350  0.73437988  0.21369155  1
  Bi2+  Bi119  1  0.61922536  0.73777594  0.71694242  1
  Bi2+  Bi120  1  0.89151887  -0.00277838  0.14599675  1
  Bi2+  Bi121  1  0.84803859  0.02812409  0.70667943  1
  Bi2+  Bi122  1  0.90602407  0.33371025  0.17704502  1
  Bi2+  Bi123  1  0.75438196  0.25826500  0.75316395  1
  Bi2+  Bi124  1  0.85274903  0.59347939  0.18641868  1
  Bi2+  Bi125  1  0.78247526  0.51327496  0.68368618  1
  Bi2+  Bi126  1  0.87185969  0.78736155  0.18677920  1
  Bi2+  Bi127  1  0.85072755  0.78198723  0.72111478  1
  S2-  S128  1  0.11166406  0.12562612  0.13676790  1
  S2-  S129  1  -0.03755948  0.12816792  0.65746508  1
  S2-  S130  1  0.11228110  0.38816910  0.13582991  1
  S2-  S131  1  -0.01130214  0.37495917  0.66634475  1
  S2-  S132  1  0.08036169  0.62503747  0.13186960  1
  S2-  S133  1  0.00737847  0.62737653  0.65674810  1
  S2-  S134  1  0.12120127  0.86528716  0.13887799  1
  S2-  S135  1  0.08467593  0.86975283  0.64804542  1
  S2-  S136  1  0.34538378  0.13476217  0.15683515  1
  S2-  S137  1  0.24466210  0.03037510  0.64209898  1
  S2-  S138  1  0.33747312  0.37675651  0.15228432  1
  S2-  S139  1  0.22908642  0.48438734  0.64933040  1
  S2-  S140  1  0.27244416  0.66825830  0.16192004  1
  S2-  S141  1  0.23089267  0.70137784  0.65425754  1
  S2-  S142  1  0.33643730  0.89611509  0.16261748  1
  S2-  S143  1  0.23207158  0.84381163  0.73319844  1
  S2-  S144  1  0.51156180  0.03396423  0.18257705  1
  S2-  S145  1  0.50933591  0.01965499  0.63759457  1
  S2-  S146  1  0.52726139  0.28319718  0.15544113  1
  S2-  S147  1  0.41051930  0.33495220  0.64162139  1
  S2-  S148  1  0.47878456  0.72673986  0.15610948  1
  S2-  S149  1  0.44600104  0.61237430  0.65173256  1
  S2-  S150  1  0.51188891  0.85853383  0.23717357  1
  S2-  S151  1  0.39859191  0.84481316  0.65144460  1
  S2-  S152  1  0.69222728  0.14096070  0.15454206  1
  S2-  S153  1  0.72998745  0.07324489  0.64690988  1
  S2-  S154  1  0.74624261  0.38575508  0.14995480  1
  S2-  S155  1  0.75535451  0.31717910  0.65419745  1
  S2-  S156  1  0.64534177  0.61169004  0.14323768  1
  S2-  S157  1  0.73881907  0.72667459  0.64450025  1
  S2-  S158  1  0.67097928  0.86820759  0.15706497  1
  S2-  S159  1  0.88098488  0.89610852  0.64535439  1
  S2-  S160  1  0.12966962  0.01375535  0.33751641  1
  S2-  S161  1  0.10511891  -0.08920276  0.85339459  1
  S2-  S162  1  0.25146249  0.24571117  0.35564428  1
  S2-  S163  1  0.08647190  0.28233789  0.83963374  1
  S2-  S164  1  0.10128253  0.48646902  0.34544890  1
  S2-  S165  1  0.15960721  0.48339312  0.82934658  1
  S2-  S166  1  0.12197893  0.77661678  0.33909530  1
  S2-  S167  1  0.09334255  0.69295346  0.81844259  1
  S2-  S168  1  0.37077654  -0.00073530  0.33463724  1
  S2-  S169  1  0.40387612  0.00203310  0.85749213  1
  S2-  S170  1  0.49577661  0.23362027  0.35246688  1
  S2-  S171  1  0.36176408  0.27958555  0.85029958  1
  S2-  S172  1  0.35927708  0.46641724  0.35325288  1
  S2-  S173  1  0.38366709  0.53653017  0.85404379  1
  S2-  S174  1  0.36519575  0.76073012  0.33913473  1
  S2-  S175  1  0.28384690  0.76915050  0.85682552  1
  S2-  S176  1  0.61650302  0.01447548  0.33951033  1
  S2-  S177  1  0.69985861  0.00421596  0.86462519  1
  S2-  S178  1  0.74709395  0.24280058  0.35331016  1
  S2-  S179  1  0.62314069  0.25549384  0.84434708  1
  S2-  S180  1  0.62059641  0.46904134  0.34592044  1
  S2-  S181  1  0.62703994  0.53491672  0.84701166  1
  S2-  S182  1  0.64274648  0.77574646  0.34195742  1
  S2-  S183  1  0.51210249  0.75776765  0.86749765  1
  S2-  S184  1  0.88918990  -0.01448279  0.33470287  1
  S2-  S185  1  0.91266140  0.05405307  0.82710919  1
  S2-  S186  1  1.00316141  0.23802049  0.35438680  1
  S2-  S187  1  0.85736010  0.27819944  0.84131932  1
  S2-  S188  1  0.85793445  0.49892205  0.34595962  1
  S2-  S189  1  0.93279782  0.49687808  0.83821534  1
  S2-  S190  1  0.87945899  0.73797811  0.34352295  1
  S2-  S191  1  0.87520067  0.84287224  0.85890984  1
  S2-  S192  1  -0.00063979  0.11343596  0.45246830  1
  S2-  S193  1  0.00184782  0.12641754  0.94912812  1
  S2-  S194  1  -0.00047288  0.36459466  0.45757078  1
  S2-  S195  1  0.00155177  0.37675478  0.95057522  1
  S2-  S196  1  -0.00012069  0.61290979  0.45258840  1
  S2-  S197  1  0.00108935  0.63053353  0.94058082  1
  S2-  S198  1  -0.00119438  0.86211657  0.45106049  1
  S2-  S199  1  0.00065191  0.87909180  0.95675232  1
  S2-  S200  1  0.25021124  0.11363612  0.45120421  1
  S2-  S201  1  0.25413914  0.12754071  0.95517016  1
  S2-  S202  1  0.25249452  0.36346662  0.46309649  1
  S2-  S203  1  0.25290192  0.37852015  0.95421196  1
  S2-  S204  1  0.25361301  0.61275445  0.45495853  1
  S2-  S205  1  0.24963508  0.62412214  0.95416260  1
  S2-  S206  1  0.25070828  0.86400530  0.44581886  1
  S2-  S207  1  0.25565099  0.88289191  0.96170956  1
  S2-  S208  1  0.50282129  0.11069439  0.45028464  1
  S2-  S209  1  0.50405374  0.13072106  0.95249251  1
  S2-  S210  1  0.49997075  0.36360861  0.45597991  1
  S2-  S211  1  0.49923367  0.37822551  0.95889790  1
  S2-  S212  1  0.49745122  0.61374516  0.45161466  1
  S2-  S213  1  0.50315292  0.62253303  0.96516294  1
  S2-  S214  1  0.50051025  0.86659374  0.45680497  1
  S2-  S215  1  0.50801262  0.88194111  0.96238339  1
  S2-  S216  1  0.74728970  0.11147196  0.44897704  1
  S2-  S217  1  0.75477101  0.13160813  0.95577113  1
  S2-  S218  1  0.74904399  0.36457383  0.45424458  1
  S2-  S219  1  0.75328891  0.37618208  0.94810222  1
  S2-  S220  1  0.74964246  0.61401264  0.45776863  1
  S2-  S221  1  0.74980703  0.62758969  0.95631045  1
  S2-  S222  1  0.75032651  0.86418298  0.45564997  1
  S2-  S223  1  0.74558366  0.87447229  0.96244759  1
  S2-  S224  1  0.12833976  0.00049566  0.04089693  1
  S2-  S225  1  0.12537881  -0.01332511  0.54209984  1
  S2-  S226  1  0.12408116  0.24865486  0.03940321  1
  S2-  S227  1  0.12830599  0.23696650  0.54718836  1
  S2-  S228  1  0.12524300  0.50180835  0.03260527  1
  S2-  S229  1  0.12291201  0.48758585  0.54870755  1
  S2-  S230  1  0.12517738  0.75396910  0.03152379  1
  S2-  S231  1  0.12458476  0.73698052  0.54426239  1
  S2-  S232  1  0.38466938  0.00400770  0.05886089  1
  S2-  S233  1  0.37168863  -0.01059545  0.53949397  1
  S2-  S234  1  0.37699459  0.25090309  0.04947745  1
  S2-  S235  1  0.37606297  0.23233213  0.53684956  1
  S2-  S236  1  0.37363443  0.50745352  0.05444531  1
  S2-  S237  1  0.37979614  0.48666256  0.55065852  1
  S2-  S238  1  0.37107773  0.74807527  0.04731359  1
  S2-  S239  1  0.36899822  0.74100733  0.54470415  1
  S2-  S240  1  0.62643334  0.00549490  0.05698212  1
  S2-  S241  1  0.63070128  -0.01210461  0.54010839  1
  S2-  S242  1  0.62986352  0.25330449  0.04732912  1
  S2-  S243  1  0.62507336  0.23705932  0.54028146  1
  S2-  S244  1  0.62845273  0.49340157  0.04723548  1
  S2-  S245  1  0.62191696  0.48906285  0.55095373  1
  S2-  S246  1  0.63222038  0.75338576  0.04779910  1
  S2-  S247  1  0.62013340  0.74366272  0.54623914  1
  S2-  S248  1  0.87862173  0.00154594  0.03321035  1
  S2-  S249  1  0.87260454  -0.00720034  0.54052805  1
  S2-  S250  1  0.88130943  0.24896465  0.04342359  1
  S2-  S251  1  0.87387717  0.23897855  0.54180389  1
  S2-  S252  1  0.87721510  0.50051853  0.04161686  1
  S2-  S253  1  0.87523559  0.49099075  0.55004556  1
  S2-  S254  1  0.87671184  0.75140025  0.04847962  1
  S2-  S255  1  0.87608058  0.73534815  0.54766936  1
