# generated using pymatgen
data_La6Ce6Pr19Nd20Sm13(BiS2)64
_symmetry_space_group_name_H-M   'P 1'
_cell_length_a   16.15834223
_cell_length_b   16.16762960
_cell_length_c   27.17923604
_cell_angle_alpha   90.06140843
_cell_angle_beta   89.97876290
_cell_angle_gamma   90.03270481
_symmetry_Int_Tables_number   1
_chemical_formula_structural   La6Ce6Pr19Nd20Sm13(BiS2)64
_chemical_formula_sum   'La6 Ce6 Pr19 Nd20 Sm13 Bi64 S128'
_cell_volume   7100.35476831
_cell_formula_units_Z   1
loop_
 _symmetry_equiv_pos_site_id
 _symmetry_equiv_pos_as_xyz
  1  'x, y, z'
loop_
 _atom_type_symbol
 _atom_type_oxidation_number
  La3+  3.0
  Ce3+  3.0
  Pr3+  3.0
  Nd3+  3.0
  Sm3+  3.0
  Bi2+  2.0
  S2-  -2.0
loop_
 _atom_site_type_symbol
 _atom_site_label
 _atom_site_symmetry_multiplicity
 _atom_site_fract_x
 _atom_site_fract_y
 _atom_site_fract_z
 _atom_site_occupancy
  La3+  La0  1  0.86828902  -0.00967451  0.92012665  1
  La3+  La1  1  0.49152076  0.38167018  0.10871981  1
  La3+  La2  1  0.12902526  -0.01249340  0.90034784  1
  La3+  La3  1  0.85953587  0.24271578  0.40960392  1
  La3+  La4  1  0.87369693  0.75038521  0.41445367  1
  La3+  La5  1  0.11920753  0.24955555  0.89424228  1
  Ce3+  Ce6  1  0.11912036  0.48619454  0.94319459  1
  Ce3+  Ce7  1  0.74172617  0.36997657  0.55831325  1
  Ce3+  Ce8  1  -0.00984270  0.62645558  0.55355897  1
  Ce3+  Ce9  1  0.11216123  0.24388593  0.44699828  1
  Ce3+  Ce10  1  0.36737515  0.48385349  0.94132084  1
  Ce3+  Ce11  1  0.86919732  0.74085248  0.93920384  1
  Pr3+  Pr12  1  -0.00717363  0.36400359  0.06225114  1
  Pr3+  Pr13  1  0.61511435  0.48587183  0.94259103  1
  Pr3+  Pr14  1  0.86455048  0.49540332  0.43939761  1
  Pr3+  Pr15  1  0.49818671  0.87160864  0.07156149  1
  Pr3+  Pr16  1  -0.00508243  0.11613759  0.04258321  1
  Pr3+  Pr17  1  0.24087809  0.11287064  0.06264265  1
  Pr3+  Pr18  1  0.49182697  0.12444866  0.56045678  1
  Pr3+  Pr19  1  0.12022846  0.74876336  0.43426421  1
  Pr3+  Pr20  1  0.48747595  0.62098761  0.56045861  1
  Pr3+  Pr21  1  0.74268379  0.12130539  0.56241183  1
  Pr3+  Pr22  1  0.61736684  0.74186428  0.93444248  1
  Pr3+  Pr23  1  0.12082824  0.74256398  0.93644547  1
  Pr3+  Pr24  1  0.62048048  -0.00648691  0.93976378  1
  Pr3+  Pr25  1  0.49272526  0.87295013  0.56376136  1
  Pr3+  Pr26  1  0.86423868  0.24179380  0.93429192  1
  Pr3+  Pr27  1  0.48940256  0.37284818  0.55927348  1
  Pr3+  Pr28  1  0.24597993  0.61473313  0.05870314  1
  Pr3+  Pr29  1  0.75543311  0.11174898  0.07622625  1
  Pr3+  Pr30  1  0.11443034  0.49224791  0.44398818  1
  Nd3+  Nd31  1  0.74505703  0.86587269  0.05965480  1
  Nd3+  Nd32  1  -0.01359837  0.37128159  0.56274567  1
  Nd3+  Nd33  1  0.61273983  0.24590956  0.42930920  1
  Nd3+  Nd34  1  0.49859179  0.12012778  0.07225151  1
  Nd3+  Nd35  1  0.36727328  0.74389298  0.94716073  1
  Nd3+  Nd36  1  -0.01837184  0.11915304  0.57127702  1
  Nd3+  Nd37  1  0.24169939  0.87009555  0.06733563  1
  Nd3+  Nd38  1  0.74338779  0.86551549  0.56010204  1
  Nd3+  Nd39  1  0.86851508  0.48966562  0.94052078  1
  Nd3+  Nd40  1  0.86725588  -0.00362809  0.43384499  1
  Nd3+  Nd41  1  0.74165759  0.62444742  0.55220684  1
  Nd3+  Nd42  1  0.23815822  0.87430127  0.56100233  1
  Nd3+  Nd43  1  0.62249419  0.23972834  0.94902966  1
  Nd3+  Nd44  1  0.36683621  0.49707164  0.43455167  1
  Nd3+  Nd45  1  0.23923801  0.12399405  0.56308961  1
  Nd3+  Nd46  1  0.36590129  0.25217275  0.42136147  1
  Nd3+  Nd47  1  0.74347300  0.37472808  0.07323096  1
  Nd3+  Nd48  1  0.37136087  -0.00672284  0.94362140  1
  Nd3+  Nd49  1  0.23949227  0.37205985  0.56246659  1
  Nd3+  Nd50  1  0.23760055  0.62343321  0.55898692  1
  Sm3+  Sm51  1  0.61432144  0.74894939  0.43967380  1
  Sm3+  Sm52  1  0.11632296  0.00156010  0.44517765  1
  Sm3+  Sm53  1  0.24439823  0.35520590  0.06765960  1
  Sm3+  Sm54  1  0.36708224  0.74894606  0.44906326  1
  Sm3+  Sm55  1  0.36714650  -0.00091604  0.44883377  1
  Sm3+  Sm56  1  -0.00710469  0.86765487  0.05169182  1
  Sm3+  Sm57  1  0.74194449  0.61715283  0.05706410  1
  Sm3+  Sm58  1  -0.00431362  0.61645123  0.05642287  1
  Sm3+  Sm59  1  0.36522202  0.23717438  0.94541166  1
  Sm3+  Sm60  1  0.61662036  -0.00146003  0.44323446  1
  Sm3+  Sm61  1  0.61708818  0.49733369  0.44413881  1
  Sm3+  Sm62  1  -0.00976106  0.87177696  0.55789718  1
  Sm3+  Sm63  1  0.49307083  0.61825352  0.05515906  1
  Bi2+  Bi64  1  0.01186780  0.12762678  0.30663359  1
  Bi2+  Bi65  1  -0.01900813  0.12473023  0.77183419  1
  Bi2+  Bi66  1  0.01312163  0.39377524  0.30089759  1
  Bi2+  Bi67  1  -0.00216771  0.36804538  0.78582418  1
  Bi2+  Bi68  1  -0.01560131  0.65259825  0.26441159  1
  Bi2+  Bi69  1  0.02712349  0.60515521  0.80850426  1
  Bi2+  Bi70  1  0.00268078  0.87699679  0.28589841  1
  Bi2+  Bi71  1  0.01371323  0.79109181  0.77553533  1
  Bi2+  Bi72  1  0.28874069  0.12691494  0.30061920  1
  Bi2+  Bi73  1  0.27181375  0.11488475  0.78706823  1
  Bi2+  Bi74  1  0.24972173  0.38010327  0.27108193  1
  Bi2+  Bi75  1  0.25686690  0.45322279  0.75650030  1
  Bi2+  Bi76  1  0.26168465  0.65619055  0.29388501  1
  Bi2+  Bi77  1  0.22013411  0.63483168  0.79292667  1
  Bi2+  Bi78  1  0.25925976  0.85185896  0.28691652  1
  Bi2+  Bi79  1  0.27064812  0.85882490  0.78776493  1
  Bi2+  Bi80  1  0.48676227  0.08731583  0.29518924  1
  Bi2+  Bi81  1  0.51570128  0.11619534  0.84635028  1
  Bi2+  Bi82  1  0.48850850  0.38285533  0.29427549  1
  Bi2+  Bi83  1  0.54797423  0.37301370  0.81891553  1
  Bi2+  Bi84  1  0.45904438  0.64427212  0.28165865  1
  Bi2+  Bi85  1  0.48860943  0.55827365  0.79009615  1
  Bi2+  Bi86  1  0.53376241  0.82742864  0.27638441  1
  Bi2+  Bi87  1  0.53293613  0.92312596  0.82016084  1
  Bi2+  Bi88  1  0.72951634  0.12528309  0.28382335  1
  Bi2+  Bi89  1  0.70062017  0.13673316  0.78779460  1
  Bi2+  Bi90  1  0.72706671  0.42355979  0.29702258  1
  Bi2+  Bi91  1  0.73906374  0.38029828  0.79102060  1
  Bi2+  Bi92  1  0.79274373  0.66639825  0.29470961  1
  Bi2+  Bi93  1  0.76199797  0.68069895  0.79422669  1
  Bi2+  Bi94  1  0.76003059  0.85820005  0.27624231  1
  Bi2+  Bi95  1  0.72427487  0.87649430  0.78917111  1
  Bi2+  Bi96  1  0.16494552  0.00784433  0.23709158  1
  Bi2+  Bi97  1  0.13990388  -0.00459361  0.69417928  1
  Bi2+  Bi98  1  0.14236359  0.22301206  0.23296348  1
  Bi2+  Bi99  1  0.15539721  0.25613793  0.68675908  1
  Bi2+  Bi100  1  0.12218619  0.51336966  0.23644812  1
  Bi2+  Bi101  1  0.08767020  0.51269801  0.70804901  1
  Bi2+  Bi102  1  0.21963949  0.75460540  0.19137363  1
  Bi2+  Bi103  1  0.16700584  0.73881987  0.69603070  1
  Bi2+  Bi104  1  0.36450390  -0.02067911  0.21109900  1
  Bi2+  Bi105  1  0.44080351  0.03356438  0.74306728  1
  Bi2+  Bi106  1  0.35091397  0.24230392  0.21215744  1
  Bi2+  Bi107  1  0.41673574  0.24781909  0.77998138  1
  Bi2+  Bi108  1  0.36112645  0.53488580  0.20687394  1
  Bi2+  Bi109  1  0.39857264  0.50596548  0.68456159  1
  Bi2+  Bi110  1  0.41385376  0.78696390  0.18519286  1
  Bi2+  Bi111  1  0.38580216  0.71603793  0.75191595  1
  Bi2+  Bi112  1  0.63336887  -0.05112893  0.20578529  1
  Bi2+  Bi113  1  0.62173554  -0.01374954  0.70784904  1
  Bi2+  Bi114  1  0.61282680  0.24026246  0.22919478  1
  Bi2+  Bi115  1  0.60634267  0.24589552  0.70991102  1
  Bi2+  Bi116  1  0.65440101  0.60839005  0.22321370  1
  Bi2+  Bi117  1  0.61170635  0.47115090  0.71350130  1
  Bi2+  Bi118  1  0.62274471  0.76488028  0.16083702  1
  Bi2+  Bi119  1  0.61661274  0.73874525  0.70425756  1
  Bi2+  Bi120  1  0.90657073  -0.01056603  0.20162927  1
  Bi2+  Bi121  1  0.87404731  -0.02159369  0.71033357  1
  Bi2+  Bi122  1  0.89035030  0.24463498  0.20123266  1
  Bi2+  Bi123  1  0.80220974  0.24750660  0.70826234  1
  Bi2+  Bi124  1  0.88262986  0.48846677  0.19394040  1
  Bi2+  Bi125  1  0.87144999  0.54107169  0.74564253  1
  Bi2+  Bi126  1  0.86897402  0.75886866  0.19638168  1
  Bi2+  Bi127  1  0.88681298  0.72288979  0.70128066  1
  S2-  S128  1  -0.04299807  0.11208569  0.14329215  1
  S2-  S129  1  0.05022873  0.13316297  0.66482499  1
  S2-  S130  1  -0.00406494  0.36538849  0.16428539  1
  S2-  S131  1  0.02860565  0.37216572  0.66039273  1
  S2-  S132  1  -0.03226715  0.61778278  0.15337883  1
  S2-  S133  1  0.02845168  0.65132767  0.64745415  1
  S2-  S134  1  -0.01098270  0.86452002  0.15155069  1
  S2-  S135  1  0.00131275  0.91394101  0.65456625  1
  S2-  S136  1  0.21960680  0.22216537  0.14303266  1
  S2-  S137  1  0.25653062  0.11673864  0.66267760  1
  S2-  S138  1  0.33451070  0.39127391  0.15112460  1
  S2-  S139  1  0.28196212  0.37265068  0.65890872  1
  S2-  S140  1  0.20899734  0.58993773  0.15594777  1
  S2-  S141  1  0.28950137  0.62658353  0.65319539  1
  S2-  S142  1  0.23180628  0.98891383  0.14249658  1
  S2-  S143  1  0.25162072  0.87414802  0.66070870  1
  S2-  S144  1  0.49425653  0.21983975  0.15569480  1
  S2-  S145  1  0.52239977  0.11316157  0.65849794  1
  S2-  S146  1  0.56449132  0.39387924  0.20812964  1
  S2-  S147  1  0.50988742  0.36725085  0.65931941  1
  S2-  S148  1  0.48727349  0.55750387  0.14616647  1
  S2-  S149  1  0.53675854  0.62287707  0.65729666  1
  S2-  S150  1  0.50324935  0.99736093  0.14616867  1
  S2-  S151  1  0.52050334  0.85482632  0.66250800  1
  S2-  S152  1  0.73940923  0.15958333  0.17692041  1
  S2-  S153  1  0.84757300  0.11181231  0.64319870  1
  S2-  S154  1  0.78295609  0.35231096  0.17180359  1
  S2-  S155  1  0.77841113  0.38710151  0.65256269  1
  S2-  S156  1  0.74071559  0.53978776  0.14494468  1
  S2-  S157  1  0.75042582  0.68852642  0.64401903  1
  S2-  S158  1  0.77278594  0.96688457  0.13915395  1
  S2-  S159  1  0.75759033  0.91397802  0.65624458  1
  S2-  S160  1  0.09397506  -0.00899062  0.34799563  1
  S2-  S161  1  0.12144973  0.03557355  0.79593720  1
  S2-  S162  1  0.11368720  0.24982600  0.35004180  1
  S2-  S163  1  0.11838776  0.24545994  0.78123479  1
  S2-  S164  1  0.12000554  0.50683418  0.34483407  1
  S2-  S165  1  0.11542052  0.41390959  0.85504368  1
  S2-  S166  1  0.02357934  0.74504849  0.35012858  1
  S2-  S167  1  0.13036249  0.83235703  0.84936932  1
  S2-  S168  1  0.37880154  -0.00179713  0.35130173  1
  S2-  S169  1  0.29326866  -0.01290517  0.85420816  1
  S2-  S170  1  0.49406619  0.23983649  0.35222349  1
  S2-  S171  1  0.28841169  0.24369357  0.85595499  1
  S2-  S172  1  0.34776043  0.39272270  0.35611576  1
  S2-  S173  1  0.35822700  0.48290661  0.84273632  1
  S2-  S174  1  0.37434386  0.75543754  0.35188441  1
  S2-  S175  1  0.37657813  0.76862565  0.84925487  1
  S2-  S176  1  0.62243605  0.03609094  0.34663925  1
  S2-  S177  1  0.72728071  0.00205095  0.85768955  1
  S2-  S178  1  0.71304518  0.26813497  0.34646957  1
  S2-  S179  1  0.72693721  0.24660834  0.86588126  1
  S2-  S180  1  0.60262105  0.49045921  0.34577074  1
  S2-  S181  1  0.64518825  0.51461628  0.84500968  1
  S2-  S182  1  0.64511485  0.76763434  0.34412606  1
  S2-  S183  1  0.60943861  0.76000890  0.83431517  1
  S2-  S184  1  0.85775178  0.09565188  0.35099421  1
  S2-  S185  1  0.93228825  0.00077981  0.82216709  1
  S2-  S186  1  0.90967924  0.27030502  0.30722813  1
  S2-  S187  1  0.95489062  0.24024837  0.84653950  1
  S2-  S188  1  0.86740133  0.46994856  0.33929063  1
  S2-  S189  1  0.87025511  0.44550318  0.84415872  1
  S2-  S190  1  0.87249797  0.88881572  0.35230541  1
  S2-  S191  1  0.87185924  0.78702281  0.84513913  1
  S2-  S192  1  -0.01032550  0.12074442  0.45772240  1
  S2-  S193  1  0.00527874  0.11256803  0.93729249  1
  S2-  S194  1  -0.01414308  0.36768998  0.45316976  1
  S2-  S195  1  -0.00823651  0.36543734  0.95502465  1
  S2-  S196  1  -0.00842194  0.62040027  0.44816301  1
  S2-  S197  1  -0.00490745  0.61566413  0.95124028  1
  S2-  S198  1  -0.00201505  0.87470064  0.45456580  1
  S2-  S199  1  -0.00396292  0.86700413  0.94675440  1
  S2-  S200  1  0.24430510  0.12312951  0.45439938  1
  S2-  S201  1  0.24163334  0.11334539  0.95358433  1
  S2-  S202  1  0.23978709  0.36852341  0.45634038  1
  S2-  S203  1  0.24341481  0.36295150  0.96056301  1
  S2-  S204  1  0.24363217  0.62202193  0.45121603  1
  S2-  S205  1  0.24464354  0.61569783  0.95066242  1
  S2-  S206  1  0.24320207  0.87542919  0.45297058  1
  S2-  S207  1  0.24446628  0.86758513  0.96016776  1
  S2-  S208  1  0.48911337  0.12051077  0.45471095  1
  S2-  S209  1  0.49424613  0.11786760  0.96498771  1
  S2-  S210  1  0.49287664  0.37500180  0.45372852  1
  S2-  S211  1  0.49165114  0.35868902  0.94923649  1
  S2-  S212  1  0.49095310  0.62271949  0.45121610  1
  S2-  S213  1  0.49068744  0.61630443  0.94950232  1
  S2-  S214  1  0.49160593  0.87386999  0.45466473  1
  S2-  S215  1  0.49439499  0.86644078  0.96014136  1
  S2-  S216  1  0.73664867  0.12240377  0.45561628  1
  S2-  S217  1  0.74637965  0.11565275  0.96482279  1
  S2-  S218  1  0.73868774  0.37286410  0.45223681  1
  S2-  S219  1  0.74442357  0.37099140  0.96385074  1
  S2-  S220  1  0.73964434  0.62516831  0.44537607  1
  S2-  S221  1  0.74284361  0.61525852  0.95177171  1
  S2-  S222  1  0.73646206  0.87172607  0.45218421  1
  S2-  S223  1  0.74318831  0.86172524  0.95338559  1
  S2-  S224  1  0.11363675  -0.01293673  0.04261596  1
  S2-  S225  1  0.11380431  -0.00085445  0.54932427  1
  S2-  S226  1  0.11469786  0.24262478  0.04416978  1
  S2-  S227  1  0.11292313  0.24667562  0.55215706  1
  S2-  S228  1  0.11888710  0.48952353  0.05051815  1
  S2-  S229  1  0.11482128  0.49674349  0.55082623  1
  S2-  S230  1  0.11803709  0.74202543  0.04583047  1
  S2-  S231  1  0.11669313  0.75059981  0.54209549  1
  S2-  S232  1  0.37089566  -0.00961207  0.04784430  1
  S2-  S233  1  0.36585814  -0.00191110  0.55419155  1
  S2-  S234  1  0.37104142  0.24043307  0.04840417  1
  S2-  S235  1  0.36496485  0.24737624  0.54422129  1
  S2-  S236  1  0.37101398  0.49037774  0.04537686  1
  S2-  S237  1  0.36277874  0.49727165  0.54132415  1
  S2-  S238  1  0.36970015  0.74359448  0.05271997  1
  S2-  S239  1  0.36450276  0.74965155  0.55286069  1
  S2-  S240  1  0.62463287  -0.00665543  0.04619851  1
  S2-  S241  1  0.61828748  -0.00411514  0.54840757  1
  S2-  S242  1  0.62407567  0.24829022  0.05636903  1
  S2-  S243  1  0.61632331  0.24738039  0.54477472  1
  S2-  S244  1  0.61333383  0.49169878  0.04888699  1
  S2-  S245  1  0.61710245  0.49913896  0.54910735  1
  S2-  S246  1  0.61837899  0.73914375  0.04144235  1
  S2-  S247  1  0.61356690  0.74624080  0.54400081  1
  S2-  S248  1  0.87255978  -0.01332155  0.03249159  1
  S2-  S249  1  0.86572123  -0.00964920  0.54079260  1
  S2-  S250  1  0.86559047  0.24425413  0.04567781  1
  S2-  S251  1  0.86621220  0.24777710  0.54392894  1
  S2-  S252  1  0.87083745  0.49617505  0.04630291  1
  S2-  S253  1  0.86628213  0.50026980  0.54708495  1
  S2-  S254  1  0.86872537  0.73836868  0.04613320  1
  S2-  S255  1  0.86862984  0.74974344  0.53507896  1
