# generated using pymatgen
data_La6Ce6Pr19Nd20Sm13(BiS2)64
_symmetry_space_group_name_H-M   'P 1'
_cell_length_a   16.16025218
_cell_length_b   16.16932041
_cell_length_c   27.14722444
_cell_angle_alpha   90.11166271
_cell_angle_beta   90.09950460
_cell_angle_gamma   89.96272015
_symmetry_Int_Tables_number   1
_chemical_formula_structural   La6Ce6Pr19Nd20Sm13(BiS2)64
_chemical_formula_sum   'La6 Ce6 Pr19 Nd20 Sm13 Bi64 S128'
_cell_volume   7093.55211040
_cell_formula_units_Z   1
loop_
 _symmetry_equiv_pos_site_id
 _symmetry_equiv_pos_as_xyz
  1  'x, y, z'
loop_
 _atom_type_symbol
 _atom_type_oxidation_number
  La3+  3.0
  Ce3+  3.0
  Pr3+  3.0
  Nd3+  3.0
  Sm3+  3.0
  Bi2+  2.0
  S2-  -2.0
loop_
 _atom_site_type_symbol
 _atom_site_label
 _atom_site_symmetry_multiplicity
 _atom_site_fract_x
 _atom_site_fract_y
 _atom_site_fract_z
 _atom_site_occupancy
  La3+  La0  1  0.37137357  0.00903168  0.43098386  1
  La3+  La1  1  0.24101345  0.86306804  0.60878854  1
  La3+  La2  1  0.00464167  0.62624275  0.10845904  1
  La3+  La3  1  0.00298157  0.35925212  0.10172949  1
  La3+  La4  1  0.37435155  0.76315279  0.43611363  1
  La3+  La5  1  0.62585133  0.73830098  0.91965504  1
  Ce3+  Ce6  1  0.75355426  0.12275087  0.05172302  1
  Ce3+  Ce7  1  0.49865148  0.62515839  0.06021092  1
  Ce3+  Ce8  1  0.12758847  -0.00650188  0.94140346  1
  Ce3+  Ce9  1  0.24672156  0.12622007  0.56002660  1
  Ce3+  Ce10  1  0.12126395  0.50831678  0.43283095  1
  Ce3+  Ce11  1  0.37577956  0.25408084  0.43503018  1
  Pr3+  Pr12  1  0.62652899  -0.00309641  0.93046714  1
  Pr3+  Pr13  1  0.25461449  0.12192251  0.05929642  1
  Pr3+  Pr14  1  0.62683632  0.49628308  0.93734050  1
  Pr3+  Pr15  1  -0.00363122  0.13149496  0.55307588  1
  Pr3+  Pr16  1  0.25582432  0.62023946  0.06636654  1
  Pr3+  Pr17  1  0.49777696  0.88639255  0.57459003  1
  Pr3+  Pr18  1  0.11722496  0.00548477  0.42797384  1
  Pr3+  Pr19  1  0.37403827  0.50724146  0.44219492  1
  Pr3+  Pr20  1  0.49863063  0.63366411  0.56698753  1
  Pr3+  Pr21  1  0.37666797  0.49390182  0.93258400  1
  Pr3+  Pr22  1  0.75133698  0.87021001  0.05521376  1
  Pr3+  Pr23  1  0.12365845  0.49496634  0.95022820  1
  Pr3+  Pr24  1  0.87755913  0.24782771  0.93767353  1
  Pr3+  Pr25  1  0.75501289  0.37422971  0.06288138  1
  Pr3+  Pr26  1  0.36665929  0.73701443  0.91907390  1
  Pr3+  Pr27  1  0.87758413  0.74301879  0.93997472  1
  Pr3+  Pr28  1  -0.00323827  0.63296097  0.55476529  1
  Pr3+  Pr29  1  0.75242211  0.88234895  0.60074616  1
  Pr3+  Pr30  1  0.85470979  0.51166712  0.40499184  1
  Nd3+  Nd31  1  0.49816895  0.38136989  0.56061424  1
  Nd3+  Nd32  1  0.87991305  0.49668892  0.95240623  1
  Nd3+  Nd33  1  0.24526379  0.62166871  0.56609673  1
  Nd3+  Nd34  1  0.26048900  0.87025544  0.06059005  1
  Nd3+  Nd35  1  0.12100729  0.26071942  0.43804142  1
  Nd3+  Nd36  1  0.13048437  0.75418894  0.43272805  1
  Nd3+  Nd37  1  0.37597233  -0.00479328  0.92883043  1
  Nd3+  Nd38  1  0.12590458  0.24516904  0.93980239  1
  Nd3+  Nd39  1  0.12557768  0.74221434  0.94174018  1
  Nd3+  Nd40  1  0.24575363  0.38054420  0.56112991  1
  Nd3+  Nd41  1  0.49528323  0.13249579  0.56224302  1
  Nd3+  Nd42  1  0.87136089  0.75633379  0.43683958  1
  Nd3+  Nd43  1  0.37666504  0.24563339  0.94056179  1
  Nd3+  Nd44  1  0.74957393  0.13293316  0.56434407  1
  Nd3+  Nd45  1  0.00529204  0.86818626  0.06210529  1
  Nd3+  Nd46  1  0.75090455  0.62945094  0.06938280  1
  Nd3+  Nd47  1  0.00232340  0.88190177  0.55558717  1
  Nd3+  Nd48  1  0.62739781  0.24725755  0.93976292  1
  Nd3+  Nd49  1  0.50283559  0.12125086  0.05657412  1
  Nd3+  Nd50  1  0.86929543  0.26120799  0.43403569  1
  Sm3+  Sm51  1  0.62283140  0.50953918  0.44439569  1
  Sm3+  Sm52  1  0.24864740  0.37185548  0.05819946  1
  Sm3+  Sm53  1  0.74903397  0.63540696  0.56362715  1
  Sm3+  Sm54  1  0.62527576  0.76079154  0.44909685  1
  Sm3+  Sm55  1  0.87244355  0.00677395  0.43764189  1
  Sm3+  Sm56  1  0.50245394  0.37449630  0.05720298  1
  Sm3+  Sm57  1  0.74869046  0.38196900  0.56484001  1
  Sm3+  Sm58  1  0.00321357  0.12191869  0.05558090  1
  Sm3+  Sm59  1  0.87836369  -0.00665771  0.94318717  1
  Sm3+  Sm60  1  0.62682677  0.25927820  0.44594341  1
  Sm3+  Sm61  1  0.62507099  0.00678993  0.44619368  1
  Sm3+  Sm62  1  0.50027236  0.87013788  0.04292947  1
  Sm3+  Sm63  1  -0.00728943  0.38555106  0.54775105  1
  Bi2+  Bi64  1  -0.05578123  0.11031411  0.28134703  1
  Bi2+  Bi65  1  -0.01450418  0.15439318  0.75556133  1
  Bi2+  Bi66  1  -0.01544654  0.31958774  0.29781908  1
  Bi2+  Bi67  1  -0.00343805  0.34643774  0.79019884  1
  Bi2+  Bi68  1  0.01703264  0.64122210  0.30999743  1
  Bi2+  Bi69  1  -0.01602861  0.60384544  0.80042059  1
  Bi2+  Bi70  1  -0.01270040  0.89154336  0.27424694  1
  Bi2+  Bi71  1  0.00064605  0.89141713  0.79867676  1
  Bi2+  Bi72  1  0.26556828  0.17437330  0.29120618  1
  Bi2+  Bi73  1  0.22551948  0.17732497  0.77071446  1
  Bi2+  Bi74  1  0.30400282  0.37388239  0.27854027  1
  Bi2+  Bi75  1  0.26395978  0.36691838  0.79752582  1
  Bi2+  Bi76  1  0.28255604  0.61282250  0.28531443  1
  Bi2+  Bi77  1  0.22536609  0.60444575  0.79257914  1
  Bi2+  Bi78  1  0.25429173  0.86873136  0.30253483  1
  Bi2+  Bi79  1  0.25015937  0.89916869  0.81657239  1
  Bi2+  Bi80  1  0.51184963  0.13097124  0.28585170  1
  Bi2+  Bi81  1  0.49100155  0.21686241  0.77924326  1
  Bi2+  Bi82  1  0.49579862  0.35565099  0.29757422  1
  Bi2+  Bi83  1  0.51862630  0.39136491  0.83516690  1
  Bi2+  Bi84  1  0.51180953  0.63010913  0.28831371  1
  Bi2+  Bi85  1  0.50319012  0.55804479  0.78563260  1
  Bi2+  Bi86  1  0.51972296  0.87884478  0.28583053  1
  Bi2+  Bi87  1  0.50224841  0.90760294  0.78915563  1
  Bi2+  Bi88  1  0.74578576  0.05954019  0.29921831  1
  Bi2+  Bi89  1  0.74848126  0.19264810  0.77489671  1
  Bi2+  Bi90  1  0.69627609  0.38216990  0.28653404  1
  Bi2+  Bi91  1  0.71035859  0.38383769  0.79849924  1
  Bi2+  Bi92  1  0.71101871  0.66279374  0.28899614  1
  Bi2+  Bi93  1  0.76181302  0.57586211  0.78098214  1
  Bi2+  Bi94  1  0.78822252  0.86304976  0.29819305  1
  Bi2+  Bi95  1  0.76131389  0.89124654  0.79669954  1
  Bi2+  Bi96  1  0.11922069  0.03140063  0.24463954  1
  Bi2+  Bi97  1  0.09580916  0.01580656  0.70732981  1
  Bi2+  Bi98  1  0.14001966  0.21710123  0.20710282  1
  Bi2+  Bi99  1  0.19391939  0.27732250  0.67617317  1
  Bi2+  Bi100  1  0.14902213  0.48834141  0.21735586  1
  Bi2+  Bi101  1  0.12312617  0.44817248  0.71373888  1
  Bi2+  Bi102  1  0.14395269  0.76824633  0.21199562  1
  Bi2+  Bi103  1  0.10147970  0.73127164  0.71029239  1
  Bi2+  Bi104  1  0.35649005  -0.01007290  0.19144393  1
  Bi2+  Bi105  1  0.37013859  0.03078126  0.70726218  1
  Bi2+  Bi106  1  0.40708262  0.24503734  0.21092064  1
  Bi2+  Bi107  1  0.38091525  0.23194688  0.68075658  1
  Bi2+  Bi108  1  0.39909402  0.49540423  0.20306599  1
  Bi2+  Bi109  1  0.38998097  0.43502021  0.72479613  1
  Bi2+  Bi110  1  0.42181370  0.75762903  0.21327522  1
  Bi2+  Bi111  1  0.37024206  0.74720954  0.72003581  1
  Bi2+  Bi112  1  0.66108238  -0.05865145  0.21844452  1
  Bi2+  Bi113  1  0.63157747  0.02291373  0.71787473  1
  Bi2+  Bi114  1  0.65866064  0.21411657  0.22672118  1
  Bi2+  Bi115  1  0.61945141  0.28983676  0.70303150  1
  Bi2+  Bi116  1  0.60032491  0.48490063  0.20493512  1
  Bi2+  Bi117  1  0.66711385  0.48035015  0.69754728  1
  Bi2+  Bi118  1  0.59649593  0.67604097  0.18297783  1
  Bi2+  Bi119  1  0.62513326  0.74148208  0.71561971  1
  Bi2+  Bi120  1  0.85312603  -0.01957915  0.20112148  1
  Bi2+  Bi121  1  0.88124119  -0.03773206  0.71004801  1
  Bi2+  Bi122  1  0.84827843  0.21960437  0.19975646  1
  Bi2+  Bi123  1  0.87233042  0.30408932  0.70733310  1
  Bi2+  Bi124  1  0.86979525  0.49382091  0.22451251  1
  Bi2+  Bi125  1  0.91172517  0.51201958  0.70880557  1
  Bi2+  Bi126  1  0.84800257  0.75599549  0.20647689  1
  Bi2+  Bi127  1  0.87062479  0.77369652  0.72711713  1
  S2-  S128  1  0.00049530  0.19629453  0.14459763  1
  S2-  S129  1  0.00266527  0.12305067  0.65379123  1
  S2-  S130  1  0.01279680  0.40064240  0.20313069  1
  S2-  S131  1  -0.00738712  0.38778526  0.64614882  1
  S2-  S132  1  0.01004618  0.59693944  0.21697782  1
  S2-  S133  1  0.01229801  0.63250883  0.65640923  1
  S2-  S134  1  0.00353701  0.79030524  0.15172330  1
  S2-  S135  1  0.07258212  0.86973521  0.64682935  1
  S2-  S136  1  0.22815309  0.09440555  0.15728325  1
  S2-  S137  1  0.23917741  0.03304235  0.64461463  1
  S2-  S138  1  0.19222140  0.35922183  0.15066181  1
  S2-  S139  1  0.23698898  0.48578149  0.64120677  1
  S2-  S140  1  0.16898180  0.62648114  0.15400299  1
  S2-  S141  1  0.24660985  0.69994560  0.65462593  1
  S2-  S142  1  0.23033210  0.87090308  0.16023967  1
  S2-  S143  1  0.23255688  0.85382307  0.72619567  1
  S2-  S144  1  0.45271871  0.10099270  0.15145840  1
  S2-  S145  1  0.51502338  0.06839187  0.65582086  1
  S2-  S146  1  0.50030835  0.36441790  0.15458496  1
  S2-  S147  1  0.50595245  0.45381169  0.65152509  1
  S2-  S148  1  0.38746048  0.62865790  0.13755769  1
  S2-  S149  1  0.50038038  0.67717782  0.66635183  1
  S2-  S150  1  0.44722152  0.87703873  0.13666496  1
  S2-  S151  1  0.39629591  0.88004035  0.65816663  1
  S2-  S152  1  0.72067750  0.12838417  0.14665624  1
  S2-  S153  1  0.76085310  0.03850910  0.64948699  1
  S2-  S154  1  0.83093189  0.36789682  0.15419163  1
  S2-  S155  1  0.75319190  0.26111658  0.63664525  1
  S2-  S156  1  0.84284763  0.60214913  0.15460905  1
  S2-  S157  1  0.76361456  0.72153638  0.65015671  1
  S2-  S158  1  0.72921401  0.77100297  0.13650178  1
  S2-  S159  1  0.61146791  0.87666615  0.66128143  1
  S2-  S160  1  0.20837126  0.01217242  0.33965248  1
  S2-  S161  1  0.12792475  0.00438401  0.84288685  1
  S2-  S162  1  0.12340208  0.25890849  0.33823511  1
  S2-  S163  1  0.12608456  0.26935007  0.84107023  1
  S2-  S164  1  0.15171546  0.53335361  0.33621423  1
  S2-  S165  1  0.12273887  0.52445569  0.84918115  1
  S2-  S166  1  0.07904031  0.79652120  0.33759075  1
  S2-  S167  1  0.19316406  0.74112449  0.84930763  1
  S2-  S168  1  0.39536462  -0.11356983  0.35572826  1
  S2-  S169  1  0.38844285  0.01180083  0.82878035  1
  S2-  S170  1  0.38792159  0.14036518  0.35963855  1
  S2-  S171  1  0.34656457  0.22662444  0.84327790  1
  S2-  S172  1  0.40560910  0.53827582  0.34541299  1
  S2-  S173  1  0.36857472  0.59617786  0.85142458  1
  S2-  S174  1  0.26360854  0.72478912  0.35724420  1
  S2-  S175  1  0.40169573  0.79473515  0.82226870  1
  S2-  S176  1  0.58971825  0.00853994  0.34851710  1
  S2-  S177  1  0.63903249  -0.00234668  0.82915229  1
  S2-  S178  1  0.60196445  0.24992956  0.34862892  1
  S2-  S179  1  0.62207486  0.19418164  0.84561779  1
  S2-  S180  1  0.69816892  0.51060970  0.35580050  1
  S2-  S181  1  0.63160028  0.59720158  0.85485923  1
  S2-  S182  1  0.60007595  0.75424879  0.35076087  1
  S2-  S183  1  0.62928813  0.79164678  0.82036151  1
  S2-  S184  1  0.97779319  0.00462929  0.35942656  1
  S2-  S185  1  0.88988641  -0.01248834  0.84569868  1
  S2-  S186  1  0.83336689  0.30549517  0.34051070  1
  S2-  S187  1  0.88975725  0.22493532  0.83857199  1
  S2-  S188  1  0.94649237  0.48218132  0.32160193  1
  S2-  S189  1  0.87590843  0.50914692  0.85193355  1
  S2-  S190  1  0.85743565  0.66703444  0.35090046  1
  S2-  S191  1  0.92049318  0.74691746  0.84152209  1
  S2-  S192  1  -0.00639228  0.13902716  0.44787191  1
  S2-  S193  1  0.00100343  0.11874555  0.95036125  1
  S2-  S194  1  -0.00879026  0.38785774  0.44281610  1
  S2-  S195  1  0.00197927  0.36925581  0.94877092  1
  S2-  S196  1  -0.00494813  0.63018944  0.44812006  1
  S2-  S197  1  0.00217731  0.62180331  0.95502633  1
  S2-  S198  1  -0.00499339  0.87653076  0.45184785  1
  S2-  S199  1  0.00202273  0.87009908  0.95503008  1
  S2-  S200  1  0.24243368  0.13709477  0.45328973  1
  S2-  S201  1  0.25214807  0.12077095  0.95086577  1
  S2-  S202  1  0.24902886  0.38163160  0.44965744  1
  S2-  S203  1  0.25133325  0.36920450  0.95219464  1
  S2-  S204  1  0.24844099  0.62556403  0.45892288  1
  S2-  S205  1  0.24959909  0.61735827  0.95880720  1
  S2-  S206  1  0.24329374  0.88455914  0.44827928  1
  S2-  S207  1  0.25327871  0.87077711  0.95209636  1
  S2-  S208  1  0.50711924  0.13455592  0.45781083  1
  S2-  S209  1  0.50072090  0.12088034  0.94897826  1
  S2-  S210  1  0.50275787  0.38216689  0.45311087  1
  S2-  S211  1  0.50194369  0.36941638  0.95396755  1
  S2-  S212  1  0.50271262  0.63379359  0.45764552  1
  S2-  S213  1  0.49829360  0.61874879  0.95352575  1
  S2-  S214  1  0.50585514  0.88400061  0.46260012  1
  S2-  S215  1  0.50060281  0.86957105  0.93838225  1
  S2-  S216  1  0.74950731  0.13229589  0.45263657  1
  S2-  S217  1  0.75430621  0.11875006  0.94609844  1
  S2-  S218  1  0.74690428  0.38591183  0.45945642  1
  S2-  S219  1  0.75150927  0.37168444  0.95391990  1
  S2-  S220  1  0.74537960  0.63324409  0.45982265  1
  S2-  S221  1  0.75406245  0.61980659  0.96017170  1
  S2-  S222  1  0.74905601  0.88390577  0.44328849  1
  S2-  S223  1  0.75171214  0.87062499  0.94754472  1
  S2-  S224  1  0.12685239  -0.00396989  0.04933215  1
  S2-  S225  1  0.11813178  0.00907593  0.53750110  1
  S2-  S226  1  0.12642773  0.24582408  0.04515986  1
  S2-  S227  1  0.11817864  0.26074782  0.54413826  1
  S2-  S228  1  0.12065247  0.49155733  0.05629764  1
  S2-  S229  1  0.11722806  0.50326578  0.53971452  1
  S2-  S230  1  0.13108219  0.74803629  0.04763946  1
  S2-  S231  1  0.12552316  0.75416205  0.54203981  1
  S2-  S232  1  0.37818768  -0.00213267  0.03589054  1
  S2-  S233  1  0.37607061  0.01056703  0.54232857  1
  S2-  S234  1  0.37790550  0.25031270  0.04804029  1
  S2-  S235  1  0.37242762  0.25826466  0.54263193  1
  S2-  S236  1  0.37594101  0.48923595  0.04177460  1
  S2-  S237  1  0.37669753  0.50552617  0.54775182  1
  S2-  S238  1  0.37774411  0.74860209  0.03258681  1
  S2-  S239  1  0.37171687  0.75520738  0.54764993  1
  S2-  S240  1  0.62481578  -0.00524876  0.04086756  1
  S2-  S241  1  0.62874564  0.00654324  0.54939656  1
  S2-  S242  1  0.62567721  0.24919230  0.04760411  1
  S2-  S243  1  0.62079513  0.25795201  0.54832346  1
  S2-  S244  1  0.62729680  0.49841106  0.04904107  1
  S2-  S245  1  0.62725267  0.50809609  0.54900498  1
  S2-  S246  1  0.62178382  0.74854021  0.03212676  1
  S2-  S247  1  0.62667847  0.75899827  0.55233241  1
  S2-  S248  1  0.88024798  -0.00412624  0.04891866  1
  S2-  S249  1  0.87292883  0.00219935  0.54255306  1
  S2-  S250  1  0.87933952  0.24684377  0.04411157  1
  S2-  S251  1  0.87396286  0.26050066  0.54045616  1
  S2-  S252  1  0.88637627  0.49424566  0.05580522  1
  S2-  S253  1  0.86779993  0.50761672  0.55308624  1
  S2-  S254  1  0.88112708  0.74559654  0.04608099  1
  S2-  S255  1  0.87157150  0.76061905  0.54508262  1
