# generated using pymatgen
data_La6Ce6Pr19Nd20Sm13(BiS2)64
_symmetry_space_group_name_H-M   'P 1'
_cell_length_a   16.03794135
_cell_length_b   16.12683243
_cell_length_c   27.36898559
_cell_angle_alpha   90.13267441
_cell_angle_beta   90.55869663
_cell_angle_gamma   89.95211336
_symmetry_Int_Tables_number   1
_chemical_formula_structural   La6Ce6Pr19Nd20Sm13(BiS2)64
_chemical_formula_sum   'La6 Ce6 Pr19 Nd20 Sm13 Bi64 S128'
_cell_volume   7078.38922335
_cell_formula_units_Z   1
loop_
 _symmetry_equiv_pos_site_id
 _symmetry_equiv_pos_as_xyz
  1  'x, y, z'
loop_
 _atom_type_symbol
 _atom_type_oxidation_number
  La3+  3.0
  Ce3+  3.0
  Pr3+  3.0
  Nd3+  3.0
  Sm3+  3.0
  Bi2+  2.0
  S2-  -2.0
loop_
 _atom_site_type_symbol
 _atom_site_label
 _atom_site_symmetry_multiplicity
 _atom_site_fract_x
 _atom_site_fract_y
 _atom_site_fract_z
 _atom_site_occupancy
  La3+  La0  1  0.26711964  0.88758105  0.12435505  1
  La3+  La1  1  0.22593821  0.63193632  0.08167972  1
  La3+  La2  1  -0.01175372  0.87984101  0.06419498  1
  La3+  La3  1  0.86425138  0.50006616  0.42141159  1
  La3+  La4  1  0.22466991  0.38075770  0.07794214  1
  La3+  La5  1  0.25155935  0.39026356  0.58576441  1
  Ce3+  Ce6  1  -0.01537859  0.63296833  0.56420519  1
  Ce3+  Ce7  1  0.61133003  0.51307109  0.42870900  1
  Ce3+  Ce8  1  0.73826891  0.88214920  0.06819616  1
  Ce3+  Ce9  1  0.35949875  0.00998228  0.42843369  1
  Ce3+  Ce10  1  0.74162246  0.39156943  0.56236272  1
  Ce3+  Ce11  1  0.85492157  0.25528539  0.92818347  1
  Pr3+  Pr12  1  0.48087609  0.37583628  0.06589690  1
  Pr3+  Pr13  1  0.24946755  0.63504742  0.57222102  1
  Pr3+  Pr14  1  0.11216248  0.00947348  0.43383444  1
  Pr3+  Pr15  1  0.61504527  0.26089230  0.44130233  1
  Pr3+  Pr16  1  0.85233665  -0.00047375  0.92571555  1
  Pr3+  Pr17  1  0.47864399  0.12421047  0.05278496  1
  Pr3+  Pr18  1  0.48110544  0.62952065  0.07138587  1
  Pr3+  Pr19  1  0.11262583  0.26729053  0.45539022  1
  Pr3+  Pr20  1  0.22496337  0.12160222  0.05597471  1
  Pr3+  Pr21  1  0.60127853  0.25434486  0.93982037  1
  Pr3+  Pr22  1  0.73829235  0.13205871  0.56429420  1
  Pr3+  Pr23  1  0.61099428  0.00954419  0.42718401  1
  Pr3+  Pr24  1  -0.01354435  0.39485990  0.58764718  1
  Pr3+  Pr25  1  0.48853363  0.88116984  0.06358301  1
  Pr3+  Pr26  1  0.35910386  0.51276431  0.43039988  1
  Pr3+  Pr27  1  0.86952182  0.76122637  0.43051333  1
  Pr3+  Pr28  1  0.35036915  -0.00310144  0.92640599  1
  Pr3+  Pr29  1  0.49374284  0.63892896  0.55778198  1
  Pr3+  Pr30  1  -0.02097714  0.37596423  0.05897492  1
  Nd3+  Nd31  1  0.24422660  0.88710599  0.56499885  1
  Nd3+  Nd32  1  0.35865042  0.26387742  0.43765398  1
  Nd3+  Nd33  1  0.10492164  0.50394017  0.93368785  1
  Nd3+  Nd34  1  0.73868500  0.62486231  0.07323338  1
  Nd3+  Nd35  1  0.24363693  0.13676909  0.56030908  1
  Nd3+  Nd36  1  0.35859506  0.75944749  0.43096726  1
  Nd3+  Nd37  1  0.10344294  0.74629506  0.93924657  1
  Nd3+  Nd38  1  0.11466769  0.75941982  0.44124473  1
  Nd3+  Nd39  1  0.35091395  0.25503610  0.94402512  1
  Nd3+  Nd40  1  0.85277619  0.50445214  0.93166320  1
  Nd3+  Nd41  1  0.60391189  -0.00124369  0.92590305  1
  Nd3+  Nd42  1  0.85062055  0.75191897  0.94230973  1
  Nd3+  Nd43  1  0.10900464  0.26018819  0.92445858  1
  Nd3+  Nd44  1  0.00173538  0.88835903  0.57048351  1
  Nd3+  Nd45  1  0.11450703  0.50995101  0.44471063  1
  Nd3+  Nd46  1  0.61488792  0.76216447  0.43766747  1
  Nd3+  Nd47  1  0.60510367  0.75045413  0.95195669  1
  Nd3+  Nd48  1  0.75455020  0.88328573  0.56388589  1
  Nd3+  Nd49  1  0.86361003  0.01090007  0.43553070  1
  Nd3+  Nd50  1  0.86576758  0.26397655  0.44901712  1
  Sm3+  Sm51  1  0.10161456  0.00045461  0.92693621  1
  Sm3+  Sm52  1  0.73608133  0.37655138  0.05977344  1
  Sm3+  Sm53  1  -0.01768974  0.62540787  0.06255151  1
  Sm3+  Sm54  1  0.35178706  0.75340582  0.95353368  1
  Sm3+  Sm55  1  0.49402861  0.88878543  0.55221149  1
  Sm3+  Sm56  1  0.73302596  0.12726333  0.04718934  1
  Sm3+  Sm57  1  0.49050246  0.13477686  0.54839228  1
  Sm3+  Sm58  1  0.49227951  0.38899783  0.55136696  1
  Sm3+  Sm59  1  0.60236227  0.50316334  0.95007182  1
  Sm3+  Sm60  1  0.35195114  0.50526054  0.94950281  1
  Sm3+  Sm61  1  0.74232651  0.63587350  0.55059972  1
  Sm3+  Sm62  1  -0.00793903  0.13741960  0.56484844  1
  Sm3+  Sm63  1  -0.01977183  0.12893598  0.04470693  1
  Bi2+  Bi64  1  -0.07722306  0.12186377  0.28398962  1
  Bi2+  Bi65  1  -0.01051397  0.09491470  0.76738410  1
  Bi2+  Bi66  1  -0.00202666  0.36714342  0.30177016  1
  Bi2+  Bi67  1  -0.00705600  0.33740449  0.79330290  1
  Bi2+  Bi68  1  0.04125704  0.63673123  0.29030711  1
  Bi2+  Bi69  1  -0.00578204  0.60364076  0.79477803  1
  Bi2+  Bi70  1  0.05941988  0.89645319  0.30293084  1
  Bi2+  Bi71  1  -0.03202995  0.84485825  0.80049912  1
  Bi2+  Bi72  1  0.24005522  0.12742527  0.24077882  1
  Bi2+  Bi73  1  0.26114028  0.10249426  0.78593765  1
  Bi2+  Bi74  1  0.25221499  0.36199555  0.30597288  1
  Bi2+  Bi75  1  0.25506437  0.35751079  0.79292135  1
  Bi2+  Bi76  1  0.31046736  0.62316054  0.30620034  1
  Bi2+  Bi77  1  0.29668677  0.60321110  0.78958965  1
  Bi2+  Bi78  1  0.31845091  0.88469716  0.31317420  1
  Bi2+  Bi79  1  0.38074784  0.86305869  0.78981195  1
  Bi2+  Bi80  1  0.48887574  0.19720370  0.27811955  1
  Bi2+  Bi81  1  0.45605074  0.08681696  0.78147068  1
  Bi2+  Bi82  1  0.56485655  0.37532676  0.25454547  1
  Bi2+  Bi83  1  0.51879921  0.36388661  0.78742043  1
  Bi2+  Bi84  1  0.64910382  0.60946815  0.27727632  1
  Bi2+  Bi85  1  0.49424002  0.63055534  0.79790311  1
  Bi2+  Bi86  1  0.58916649  0.91772318  0.29536718  1
  Bi2+  Bi87  1  0.52875435  0.78449845  0.72694846  1
  Bi2+  Bi88  1  0.72658349  0.14232971  0.29587525  1
  Bi2+  Bi89  1  0.66990227  0.11098768  0.78269183  1
  Bi2+  Bi90  1  0.76420186  0.34037314  0.25008044  1
  Bi2+  Bi91  1  0.70305908  0.43993431  0.78539328  1
  Bi2+  Bi92  1  0.84390476  0.60463798  0.30114104  1
  Bi2+  Bi93  1  0.72206654  0.63542343  0.78479270  1
  Bi2+  Bi94  1  0.79840198  0.83127258  0.29666793  1
  Bi2+  Bi95  1  0.69788488  0.85100007  0.78522986  1
  Bi2+  Bi96  1  0.01288957  -0.00748462  0.21352582  1
  Bi2+  Bi97  1  0.11604639  -0.05961954  0.74115998  1
  Bi2+  Bi98  1  0.11480602  0.27598709  0.22284990  1
  Bi2+  Bi99  1  0.12515636  0.19137463  0.69838054  1
  Bi2+  Bi100  1  0.12714219  0.50927326  0.21084523  1
  Bi2+  Bi101  1  0.11312333  0.47870207  0.71273212  1
  Bi2+  Bi102  1  0.13850652  0.75678785  0.21707307  1
  Bi2+  Bi103  1  0.12451579  0.74277234  0.75972185  1
  Bi2+  Bi104  1  0.41426956  0.04912062  0.21566676  1
  Bi2+  Bi105  1  0.29781322  -0.06699060  0.69372802  1
  Bi2+  Bi106  1  0.31287239  0.29527963  0.20309713  1
  Bi2+  Bi107  1  0.38590244  0.23740908  0.69121380  1
  Bi2+  Bi108  1  0.39650571  0.50172046  0.23131945  1
  Bi2+  Bi109  1  0.45484990  0.51254261  0.70861615  1
  Bi2+  Bi110  1  0.43248117  0.74516053  0.22391855  1
  Bi2+  Bi111  1  0.28997477  0.73037787  0.70028773  1
  Bi2+  Bi112  1  0.62344699  -0.08431868  0.18548109  1
  Bi2+  Bi113  1  0.56123304  -0.00439694  0.70437044  1
  Bi2+  Bi114  1  0.64875617  0.20615740  0.19569444  1
  Bi2+  Bi115  1  0.60467705  0.26008974  0.70258164  1
  Bi2+  Bi116  1  0.68532568  0.49126209  0.18641375  1
  Bi2+  Bi117  1  0.63255180  0.45305566  0.67325023  1
  Bi2+  Bi118  1  0.69732962  0.73594028  0.19471105  1
  Bi2+  Bi119  1  0.64193235  0.64958112  0.67296953  1
  Bi2+  Bi120  1  0.80434290  -0.01600286  0.21915192  1
  Bi2+  Bi121  1  0.81750755  -0.02089832  0.70507816  1
  Bi2+  Bi122  1  0.90935094  0.21286564  0.18421351  1
  Bi2+  Bi123  1  0.78823526  0.24612472  0.73493783  1
  Bi2+  Bi124  1  0.88253230  0.48366384  0.20894523  1
  Bi2+  Bi125  1  0.85443213  0.51291342  0.70808280  1
  Bi2+  Bi126  1  0.89721189  0.73486839  0.21785255  1
  Bi2+  Bi127  1  0.84285174  0.76239162  0.72443484  1
  S2-  S128  1  0.02692835  0.11673626  0.13993049  1
  S2-  S129  1  0.01190633  0.09187158  0.65912603  1
  S2-  S130  1  0.08428932  0.37788912  0.14241238  1
  S2-  S131  1  0.02651085  0.32747990  0.68571085  1
  S2-  S132  1  0.08433379  0.62715477  0.14682106  1
  S2-  S133  1  -0.00075659  0.54435560  0.65062347  1
  S2-  S134  1  0.09456927  0.87780534  0.14611233  1
  S2-  S135  1  -0.11220904  0.86668364  0.64394627  1
  S2-  S136  1  0.26542863  0.06259849  0.14874601  1
  S2-  S137  1  0.27521264  0.11373223  0.65738157  1
  S2-  S138  1  0.26130332  0.50160095  0.15578504  1
  S2-  S139  1  0.24364009  0.32348485  0.68812311  1
  S2-  S140  1  0.28454329  0.72341974  0.16812185  1
  S2-  S141  1  0.22211146  0.52541148  0.65216700  1
  S2-  S142  1  0.23942254  0.89342320  0.23222570  1
  S2-  S143  1  0.13146532  0.89598319  0.64253889  1
  S2-  S144  1  0.50155532  0.13483674  0.15183631  1
  S2-  S145  1  0.51218548  0.13696991  0.64520989  1
  S2-  S146  1  0.46038491  0.37552382  0.16532318  1
  S2-  S147  1  0.41560007  0.38471484  0.63884241  1
  S2-  S148  1  0.48316549  0.62052888  0.17295030  1
  S2-  S149  1  0.39660315  0.64165560  0.64077617  1
  S2-  S150  1  0.43852128  0.88823858  0.16029183  1
  S2-  S151  1  0.45148942  0.89047362  0.64697420  1
  S2-  S152  1  0.77183266  0.12291613  0.14323923  1
  S2-  S153  1  0.79218509  0.12836875  0.66040122  1
  S2-  S154  1  0.85362611  0.35939016  0.13259019  1
  S2-  S155  1  0.83439333  0.39129032  0.64573712  1
  S2-  S156  1  0.87016829  0.61583147  0.14091812  1
  S2-  S157  1  0.81526168  0.64484284  0.64083789  1
  S2-  S158  1  0.85850268  0.89465164  0.13832553  1
  S2-  S159  1  0.68244440  0.92203222  0.65162745  1
  S2-  S160  1  0.23424983  0.00775517  0.35784612  1
  S2-  S161  1  0.22123319  -0.00207377  0.85281195  1
  S2-  S162  1  0.12144832  0.27907822  0.35502583  1
  S2-  S163  1  0.07830237  0.19873401  0.82670266  1
  S2-  S164  1  0.22522051  0.51094892  0.36183391  1
  S2-  S165  1  0.12419862  0.39121353  0.85416230  1
  S2-  S166  1  0.22628646  0.75647422  0.36079354  1
  S2-  S167  1  0.11711008  0.62964622  0.86234801  1
  S2-  S168  1  0.48161367  0.00136584  0.35029192  1
  S2-  S169  1  0.47814759  -0.02723751  0.85376990  1
  S2-  S170  1  0.35948102  0.24200761  0.33876237  1
  S2-  S171  1  0.32219199  0.24186340  0.84575390  1
  S2-  S172  1  0.43824115  0.51746688  0.33725117  1
  S2-  S173  1  0.33265158  0.47690123  0.85249436  1
  S2-  S174  1  0.43124533  0.75057234  0.33337097  1
  S2-  S175  1  0.36860539  0.73000049  0.85541368  1
  S2-  S176  1  0.73865490  0.01025141  0.35849225  1
  S2-  S177  1  0.72607886  -0.01331007  0.85239927  1
  S2-  S178  1  0.61556477  0.26792609  0.34193091  1
  S2-  S179  1  0.59328267  0.23612471  0.84072743  1
  S2-  S180  1  0.71723767  0.50972304  0.35260771  1
  S2-  S181  1  0.57439050  0.49789263  0.85372735  1
  S2-  S182  1  0.65581182  0.77088598  0.34085948  1
  S2-  S183  1  0.63869431  0.74576511  0.85511643  1
  S2-  S184  1  0.98354210  0.01218380  0.36122421  1
  S2-  S185  1  0.97309648  0.00141167  0.85161502  1
  S2-  S186  1  0.87201594  0.33785004  0.35913327  1
  S2-  S187  1  0.86135789  0.25111388  0.83053689  1
  S2-  S188  1  1.00886479  0.51023569  0.35959355  1
  S2-  S189  1  0.91871189  0.47572635  0.84107643  1
  S2-  S190  1  1.00150541  0.77078937  0.36024246  1
  S2-  S191  1  0.88397453  0.71240172  0.84753053  1
  S2-  S192  1  -0.01159061  0.13986900  0.45994104  1
  S2-  S193  1  -0.01779254  0.13417026  0.94292231  1
  S2-  S194  1  -0.01185026  0.38679354  0.47031905  1
  S2-  S195  1  -0.02305498  0.37777161  0.95113772  1
  S2-  S196  1  -0.01217785  0.63500401  0.45913330  1
  S2-  S197  1  -0.02696458  0.62472980  0.95768409  1
  S2-  S198  1  -0.01068584  0.88683439  0.46452325  1
  S2-  S199  1  -0.02089528  0.87135167  0.95173206  1
  S2-  S200  1  0.23771080  0.13964488  0.45524887  1
  S2-  S201  1  0.22784282  0.12998762  0.94995156  1
  S2-  S202  1  0.24196265  0.38572734  0.46731639  1
  S2-  S203  1  0.23229660  0.38040987  0.96341850  1
  S2-  S204  1  0.23860232  0.63664270  0.46451391  1
  S2-  S205  1  0.23512016  0.62744188  0.96553208  1
  S2-  S206  1  0.23808601  0.88610291  0.46140738  1
  S2-  S207  1  0.22681736  0.86941257  0.94573546  1
  S2-  S208  1  0.48687544  0.13888331  0.44584670  1
  S2-  S209  1  0.47640290  0.12671238  0.94731176  1
  S2-  S210  1  0.48824234  0.38561879  0.44673458  1
  S2-  S211  1  0.47729685  0.38024305  0.95822967  1
  S2-  S212  1  0.48961590  0.63883694  0.45034979  1
  S2-  S213  1  0.47944420  0.62656573  0.96364269  1
  S2-  S214  1  0.48786982  0.88226130  0.44975245  1
  S2-  S215  1  0.48099847  0.87279146  0.95764737  1
  S2-  S216  1  0.74177594  0.13840295  0.45711386  1
  S2-  S217  1  0.72764405  0.13043904  0.94379055  1
  S2-  S218  1  0.73551197  0.38626715  0.45728105  1
  S2-  S219  1  0.72734306  0.38004172  0.95176092  1
  S2-  S220  1  0.74153661  0.63906845  0.44775042  1
  S2-  S221  1  0.72791107  0.62341045  0.95998040  1
  S2-  S222  1  0.74251737  0.88321507  0.45633924  1
  S2-  S223  1  0.72739020  0.87686448  0.95980570  1
  S2-  S224  1  0.10040274  0.00629841  0.03098137  1
  S2-  S225  1  0.11814678  0.01744555  0.54256093  1
  S2-  S226  1  0.10568093  0.25140318  0.03746372  1
  S2-  S227  1  0.11697088  0.26325268  0.56177062  1
  S2-  S228  1  0.10377887  0.50290213  0.04042738  1
  S2-  S229  1  0.11551842  0.50981216  0.54976446  1
  S2-  S230  1  0.10149996  0.74697783  0.04218249  1
  S2-  S231  1  0.11763100  0.75485132  0.55074300  1
  S2-  S232  1  0.35509053  -0.00301835  0.04145840  1
  S2-  S233  1  0.36798462  0.01148941  0.54054959  1
  S2-  S234  1  0.35284547  0.25198421  0.05070899  1
  S2-  S235  1  0.36952925  0.25969897  0.54352832  1
  S2-  S236  1  0.35983787  0.50348430  0.05286431  1
  S2-  S237  1  0.37123809  0.51174803  0.53924448  1
  S2-  S238  1  0.35868962  0.75777414  0.05625641  1
  S2-  S239  1  0.36799469  0.76743064  0.53996415  1
  S2-  S240  1  0.60973444  0.00550609  0.04052858  1
  S2-  S241  1  0.61499170  0.01071413  0.53723900  1
  S2-  S242  1  0.60906364  0.25344047  0.04666769  1
  S2-  S243  1  0.61472707  0.26206224  0.54787106  1
  S2-  S244  1  0.60902773  0.50114707  0.05409533  1
  S2-  S245  1  0.61544147  0.51347411  0.53697113  1
  S2-  S246  1  0.61194694  0.75025345  0.05755263  1
  S2-  S247  1  0.61969037  0.76547776  0.54442738  1
  S2-  S248  1  0.85688468  0.00742094  0.03303301  1
  S2-  S249  1  0.87053523  0.01446587  0.54564438  1
  S2-  S250  1  0.85294471  0.24987206  0.03268242  1
  S2-  S251  1  0.86661527  0.25727705  0.55381560  1
  S2-  S252  1  0.85235285  0.50108344  0.03836952  1
  S2-  S253  1  0.86157373  0.51211243  0.53860498  1
  S2-  S254  1  0.85493613  0.75112076  0.04588490  1
  S2-  S255  1  0.86859972  0.75813846  0.53742639  1
