# generated using pymatgen
data_La6Ce6Pr19Nd20Sm13(BiS2)64
_symmetry_space_group_name_H-M   'P 1'
_cell_length_a   16.18032929
_cell_length_b   16.19926067
_cell_length_c   27.12787622
_cell_angle_alpha   89.85957128
_cell_angle_beta   89.99870935
_cell_angle_gamma   90.02752671
_symmetry_Int_Tables_number   1
_chemical_formula_structural   La6Ce6Pr19Nd20Sm13(BiS2)64
_chemical_formula_sum   'La6 Ce6 Pr19 Nd20 Sm13 Bi64 S128'
_cell_volume   7110.44841737
_cell_formula_units_Z   1
loop_
 _symmetry_equiv_pos_site_id
 _symmetry_equiv_pos_as_xyz
  1  'x, y, z'
loop_
 _atom_type_symbol
 _atom_type_oxidation_number
  La3+  3.0
  Ce3+  3.0
  Pr3+  3.0
  Nd3+  3.0
  Sm3+  3.0
  Bi2+  2.0
  S2-  -2.0
loop_
 _atom_site_type_symbol
 _atom_site_label
 _atom_site_symmetry_multiplicity
 _atom_site_fract_x
 _atom_site_fract_y
 _atom_site_fract_z
 _atom_site_occupancy
  La3+  La0  1  -0.00824481  0.87751193  0.09339455  1
  La3+  La1  1  0.37266147  0.50903878  0.88927513  1
  La3+  La2  1  0.87559961  0.49403909  0.41535831  1
  La3+  La3  1  0.25022014  0.60906620  0.07499724  1
  La3+  La4  1  0.75782017  0.36914759  0.08945367  1
  La3+  La5  1  0.50179454  0.60537549  0.06630760  1
  Ce3+  Ce6  1  0.25661730  0.87101931  0.55467195  1
  Ce3+  Ce7  1  0.61885780  0.73862320  0.93607856  1
  Ce3+  Ce8  1  0.62871650  0.24961506  0.44265280  1
  Ce3+  Ce9  1  0.87805305  0.74256388  0.94308399  1
  Ce3+  Ce10  1  0.00242579  0.62204427  0.54859834  1
  Ce3+  Ce11  1  0.50488084  0.37767459  0.56378676  1
  Pr3+  Pr12  1  0.87504762  -0.01038551  0.93506278  1
  Pr3+  Pr13  1  0.74945698  0.11581588  0.07044549  1
  Pr3+  Pr14  1  0.12979598  -0.00167377  0.43231914  1
  Pr3+  Pr15  1  0.37914031  0.50340092  0.44238314  1
  Pr3+  Pr16  1  0.00439259  0.87571375  0.56492177  1
  Pr3+  Pr17  1  0.51011592  0.62306629  0.58846861  1
  Pr3+  Pr18  1  0.50214892  0.88055449  0.57332240  1
  Pr3+  Pr19  1  0.62829960  -0.00014189  0.44779110  1
  Pr3+  Pr20  1  0.36875756  0.74782620  0.94391227  1
  Pr3+  Pr21  1  0.12596285  0.75524979  0.42734682  1
  Pr3+  Pr22  1  0.12658825  0.24247822  0.93726792  1
  Pr3+  Pr23  1  0.62884774  0.24282234  0.94125321  1
  Pr3+  Pr24  1  0.39426876  0.75187705  0.40863559  1
  Pr3+  Pr25  1  0.75062666  0.86552839  0.05604091  1
  Pr3+  Pr26  1  0.62906741  0.48769109  0.93100295  1
  Pr3+  Pr27  1  0.75071538  0.61503186  0.05617223  1
  Pr3+  Pr28  1  0.25274004  0.12194920  0.55601988  1
  Pr3+  Pr29  1  0.25547187  0.87457719  0.08714623  1
  Pr3+  Pr30  1  0.12695607  0.74279413  0.96106085  1
  Nd3+  Nd31  1  0.12756327  -0.01281560  0.94251497  1
  Nd3+  Nd32  1  0.25236466  0.37511411  0.55612595  1
  Nd3+  Nd33  1  0.25133523  0.11726924  0.06045542  1
  Nd3+  Nd34  1  0.13324685  0.50532146  0.43190448  1
  Nd3+  Nd35  1  0.62390856  0.50261397  0.43916380  1
  Nd3+  Nd36  1  0.75442426  0.87269415  0.56058427  1
  Nd3+  Nd37  1  0.87387907  0.49221702  0.93403446  1
  Nd3+  Nd38  1  0.38223060  -0.00121701  0.43428263  1
  Nd3+  Nd39  1  0.37413087  0.24820023  0.93362266  1
  Nd3+  Nd40  1  -0.00277990  0.61370018  0.06979064  1
  Nd3+  Nd41  1  0.49853002  0.86282790  0.06173130  1
  Nd3+  Nd42  1  0.25025460  0.36338134  0.06555821  1
  Nd3+  Nd43  1  0.75625578  0.61391500  0.57076377  1
  Nd3+  Nd44  1  0.12974743  0.49319876  0.94547004  1
  Nd3+  Nd45  1  0.87658884  0.74821145  0.44080945  1
  Nd3+  Nd46  1  0.75701901  0.12761483  0.56529864  1
  Nd3+  Nd47  1  0.50452876  0.12498376  0.56644627  1
  Nd3+  Nd48  1  0.13004110  0.24978615  0.43774323  1
  Nd3+  Nd49  1  0.25312646  0.62872613  0.55801266  1
  Nd3+  Nd50  1  0.75613228  0.37395679  0.55893574  1
  Sm3+  Sm51  1  0.49970496  0.11655999  0.05292052  1
  Sm3+  Sm52  1  0.00522830  0.12441867  0.55215146  1
  Sm3+  Sm53  1  0.87850075  0.25267384  0.43843157  1
  Sm3+  Sm54  1  0.37948709  0.24995964  0.44668796  1
  Sm3+  Sm55  1  0.37577020  -0.00815325  0.94012811  1
  Sm3+  Sm56  1  -0.00059337  0.36340819  0.05659111  1
  Sm3+  Sm57  1  0.87680755  0.00035107  0.44451333  1
  Sm3+  Sm58  1  0.87318599  0.24102540  0.94563118  1
  Sm3+  Sm59  1  0.62436964  -0.00764028  0.94402119  1
  Sm3+  Sm60  1  0.49947454  0.36347058  0.05737141  1
  Sm3+  Sm61  1  0.00512663  0.37684571  0.55212156  1
  Sm3+  Sm62  1  0.00089347  0.11468504  0.05461756  1
  Sm3+  Sm63  1  0.62881449  0.74794420  0.44940357  1
  Bi2+  Bi64  1  -0.02888718  0.11015531  0.29773942  1
  Bi2+  Bi65  1  -0.01016611  0.17719770  0.73790461  1
  Bi2+  Bi66  1  0.00899866  0.30075850  0.27068412  1
  Bi2+  Bi67  1  -0.02627463  0.38710953  0.75749309  1
  Bi2+  Bi68  1  0.01779424  0.62776183  0.29402482  1
  Bi2+  Bi69  1  -0.01046003  0.59391878  0.79587137  1
  Bi2+  Bi70  1  0.00976721  0.92104723  0.27300188  1
  Bi2+  Bi71  1  -0.01385642  0.88349565  0.81656449  1
  Bi2+  Bi72  1  0.23692035  0.13694591  0.30319546  1
  Bi2+  Bi73  1  0.28823015  0.16865854  0.79836732  1
  Bi2+  Bi74  1  0.27872062  0.34977330  0.28118059  1
  Bi2+  Bi75  1  0.23322332  0.36226016  0.79138772  1
  Bi2+  Bi76  1  0.25986282  0.54474284  0.30685163  1
  Bi2+  Bi77  1  0.22791805  0.65162068  0.80032718  1
  Bi2+  Bi78  1  0.24484797  0.95119915  0.30091889  1
  Bi2+  Bi79  1  0.22344481  0.91437720  0.78997885  1
  Bi2+  Bi80  1  0.43554253  0.12706361  0.30920769  1
  Bi2+  Bi81  1  0.47273816  0.11087276  0.80766437  1
  Bi2+  Bi82  1  0.46219579  0.35974057  0.22671763  1
  Bi2+  Bi83  1  0.52219082  0.35944683  0.78104037  1
  Bi2+  Bi84  1  0.51015896  0.60376157  0.30355647  1
  Bi2+  Bi85  1  0.50323988  0.63705139  0.78822155  1
  Bi2+  Bi86  1  0.50744616  0.95825740  0.27928635  1
  Bi2+  Bi87  1  0.48578905  0.92218499  0.79215979  1
  Bi2+  Bi88  1  0.72324517  0.13746449  0.29482922  1
  Bi2+  Bi89  1  0.73027159  0.18060345  0.79314039  1
  Bi2+  Bi90  1  0.74108824  0.38167943  0.29359746  1
  Bi2+  Bi91  1  0.79279505  0.36751431  0.78948968  1
  Bi2+  Bi92  1  0.76753664  0.66242417  0.32107947  1
  Bi2+  Bi93  1  0.79570110  0.61154611  0.78289626  1
  Bi2+  Bi94  1  0.75340784  0.91674479  0.29082490  1
  Bi2+  Bi95  1  0.76775793  0.88841569  0.76829946  1
  Bi2+  Bi96  1  0.11430120  0.06878335  0.21998551  1
  Bi2+  Bi97  1  0.13342197  0.02397553  0.71267984  1
  Bi2+  Bi98  1  0.11820130  0.25502443  0.16900251  1
  Bi2+  Bi99  1  0.14539447  0.26840494  0.69549846  1
  Bi2+  Bi100  1  0.12564119  0.43311450  0.21850246  1
  Bi2+  Bi101  1  0.10156252  0.50415557  0.71218467  1
  Bi2+  Bi102  1  0.15202935  0.72854019  0.22552558  1
  Bi2+  Bi103  1  0.08216163  0.76639625  0.74707343  1
  Bi2+  Bi104  1  0.37552718  0.03766477  0.20340234  1
  Bi2+  Bi105  1  0.35269302  0.02050674  0.70961547  1
  Bi2+  Bi106  1  0.31285764  0.25436881  0.17954982  1
  Bi2+  Bi107  1  0.42281952  0.22690569  0.71518164  1
  Bi2+  Bi108  1  0.38110114  0.52402029  0.19446012  1
  Bi2+  Bi109  1  0.34773049  0.51419093  0.68522348  1
  Bi2+  Bi110  1  0.39857096  0.76892367  0.21524830  1
  Bi2+  Bi111  1  0.35279843  0.77450716  0.69794505  1
  Bi2+  Bi112  1  0.64781654  0.02126923  0.20213694  1
  Bi2+  Bi113  1  0.60896836  0.06011198  0.71908813  1
  Bi2+  Bi114  1  0.58637970  0.20754918  0.22274843  1
  Bi2+  Bi115  1  0.61327276  0.25302029  0.69061732  1
  Bi2+  Bi116  1  0.63276293  0.56114103  0.20121950  1
  Bi2+  Bi117  1  0.64913704  0.50750400  0.70900273  1
  Bi2+  Bi118  1  0.62936052  0.76983151  0.26369156  1
  Bi2+  Bi119  1  0.63609049  0.77281306  0.72481609  1
  Bi2+  Bi120  1  0.83828604  0.02160597  0.18993306  1
  Bi2+  Bi121  1  0.89589911  0.01038244  0.72116383  1
  Bi2+  Bi122  1  0.86156994  0.20960688  0.21693876  1
  Bi2+  Bi123  1  0.81026812  0.23191982  0.68841978  1
  Bi2+  Bi124  1  0.88587424  0.51578394  0.20073292  1
  Bi2+  Bi125  1  0.89607787  0.56730990  0.68615647  1
  Bi2+  Bi126  1  0.81662066  0.76058975  0.22733576  1
  Bi2+  Bi127  1  0.88107875  0.76200297  0.70629761  1
  S2-  S128  1  -0.00764241  0.03735229  0.14218631  1
  S2-  S129  1  0.01160754  0.07154417  0.64573671  1
  S2-  S130  1  -0.07958596  0.39618600  0.14209663  1
  S2-  S131  1  0.02119565  0.37056376  0.65065254  1
  S2-  S132  1  0.01680426  0.60942938  0.17061476  1
  S2-  S133  1  0.04802396  0.61270094  0.64184439  1
  S2-  S134  1  0.04717114  0.83600144  0.19041565  1
  S2-  S135  1  0.01298643  0.84500871  0.66454004  1
  S2-  S136  1  0.24343340  0.02508998  0.14432597  1
  S2-  S137  1  0.23404830  0.12653035  0.65620004  1
  S2-  S138  1  0.23875491  0.46876417  0.14787888  1
  S2-  S139  1  0.26361584  0.36384335  0.65556253  1
  S2-  S140  1  0.28620593  0.65501204  0.17229716  1
  S2-  S141  1  0.25444460  0.65283634  0.65788967  1
  S2-  S142  1  0.25655813  0.84100423  0.19174877  1
  S2-  S143  1  0.25837134  0.89869677  0.65186465  1
  S2-  S144  1  0.48928022  0.13921948  0.14998531  1
  S2-  S145  1  0.49507308  0.01999390  0.64558005  1
  S2-  S146  1  0.52312290  0.45488242  0.14175494  1
  S2-  S147  1  0.50714692  0.46261514  0.64939411  1
  S2-  S148  1  0.51570026  0.67488578  0.15932414  1
  S2-  S149  1  0.44923559  0.64347502  0.68573800  1
  S2-  S150  1  0.44872858  0.89242110  0.15499067  1
  S2-  S151  1  0.51078177  0.82308355  0.67009493  1
  S2-  S152  1  0.73732530  0.22763122  0.14826150  1
  S2-  S153  1  0.76354347  0.06734943  0.65951959  1
  S2-  S154  1  0.72698593  0.43063729  0.19048571  1
  S2-  S155  1  0.76525320  0.46716526  0.64238594  1
  S2-  S156  1  0.77100082  0.63303185  0.15625521  1
  S2-  S157  1  0.65468850  0.64060747  0.65261752  1
  S2-  S158  1  0.83594445  0.86172965  0.14420712  1
  S2-  S159  1  0.74673811  0.85174181  0.65957027  1
  S2-  S160  1  0.11671869  -0.11213538  0.35489408  1
  S2-  S161  1  0.10323981  0.00036333  0.84286121  1
  S2-  S162  1  0.13773151  0.26753318  0.33906160  1
  S2-  S163  1  0.14400837  0.24396003  0.83706328  1
  S2-  S164  1  0.09123230  0.49212732  0.33531181  1
  S2-  S165  1  0.19732043  0.50020486  0.85473481  1
  S2-  S166  1  0.15583298  0.68710540  0.33329560  1
  S2-  S167  1  0.15939568  0.75465055  0.86114223  1
  S2-  S168  1  0.38970056  -0.09967559  0.35156760  1
  S2-  S169  1  0.35059550  -0.10257795  0.85984246  1
  S2-  S170  1  0.39546630  0.27394622  0.35020003  1
  S2-  S171  1  0.37472214  0.34414547  0.85032671  1
  S2-  S172  1  0.41563137  0.49080951  0.34394423  1
  S2-  S173  1  0.35687123  0.52483469  0.77929463  1
  S2-  S174  1  0.36233204  0.68820790  0.31220911  1
  S2-  S175  1  0.37369783  0.67885517  0.85171891  1
  S2-  S176  1  0.63225026  0.01293273  0.34832759  1
  S2-  S177  1  0.60843179  -0.00965054  0.84621129  1
  S2-  S178  1  0.64985890  0.27509668  0.34518196  1
  S2-  S179  1  0.62717786  0.29830335  0.84450888  1
  S2-  S180  1  0.65593692  0.50486461  0.33967026  1
  S2-  S181  1  0.53680859  0.50257598  0.84496863  1
  S2-  S182  1  0.55342670  0.74470131  0.36123280  1
  S2-  S183  1  0.61199795  0.73848210  0.83560694  1
  S2-  S184  1  0.88783642  -0.02456897  0.34787213  1
  S2-  S185  1  0.85986489  -0.00554732  0.83386363  1
  S2-  S186  1  0.87032226  0.34285172  0.35440264  1
  S2-  S187  1  0.86842599  0.23466425  0.84765292  1
  S2-  S188  1  0.87243573  0.53387101  0.31241533  1
  S2-  S189  1  0.76072662  0.49229261  0.85710899  1
  S2-  S190  1  0.91914094  0.74516822  0.34415385  1
  S2-  S191  1  0.89729551  0.73299417  0.84652639  1
  S2-  S192  1  0.00144653  0.12583181  0.44677232  1
  S2-  S193  1  -0.00001945  0.11657321  0.94927508  1
  S2-  S194  1  0.00799531  0.37468171  0.44768994  1
  S2-  S195  1  -0.00184629  0.36643510  0.94991491  1
  S2-  S196  1  0.00208411  0.62205240  0.44297445  1
  S2-  S197  1  0.00084099  0.61490033  0.95852113  1
  S2-  S198  1  -0.00309115  0.87679250  0.45699093  1
  S2-  S199  1  0.00081972  0.86789576  0.95734731  1
  S2-  S200  1  0.25631816  0.12386936  0.44842386  1
  S2-  S201  1  0.25213514  0.11560392  0.95177001  1
  S2-  S202  1  0.25424145  0.37428060  0.44891490  1
  S2-  S203  1  0.24803575  0.36512213  0.95863031  1
  S2-  S204  1  0.25765961  0.63234843  0.44933846  1
  S2-  S205  1  0.25003672  0.61618407  0.96497617  1
  S2-  S206  1  0.25963772  0.87130418  0.45007180  1
  S2-  S207  1  0.24981872  0.87142822  0.97136517  1
  S2-  S208  1  0.50267292  0.12569513  0.45795981  1
  S2-  S209  1  0.49897746  0.11724088  0.94881198  1
  S2-  S210  1  0.50283431  0.37421675  0.45606046  1
  S2-  S211  1  0.50215802  0.36509322  0.95453152  1
  S2-  S212  1  0.50291730  0.62675539  0.45973400  1
  S2-  S213  1  0.49780391  0.61584528  0.95603179  1
  S2-  S214  1  0.50636063  0.87378216  0.46225434  1
  S2-  S215  1  0.50111461  0.87031401  0.95433811  1
  S2-  S216  1  0.75766663  0.12692373  0.45572552  1
  S2-  S217  1  0.75015062  0.11475402  0.95642543  1
  S2-  S218  1  0.75103917  0.37581593  0.45444400  1
  S2-  S219  1  0.75626404  0.36369014  0.95876905  1
  S2-  S220  1  0.75249630  0.62282741  0.45644576  1
  S2-  S221  1  0.75043502  0.62133430  0.95059461  1
  S2-  S222  1  0.75381322  0.87372363  0.45326278  1
  S2-  S223  1  0.74637614  0.86636233  0.94783553  1
  S2-  S224  1  0.12342286  -0.00988002  0.04771122  1
  S2-  S225  1  0.12759837  -0.00102226  0.54006317  1
  S2-  S226  1  0.12332447  0.23916776  0.04378668  1
  S2-  S227  1  0.12661652  0.24904373  0.54425539  1
  S2-  S228  1  0.11754496  0.48667329  0.05120542  1
  S2-  S229  1  0.13058985  0.49835104  0.53972186  1
  S2-  S230  1  0.12187175  0.74419115  0.06765714  1
  S2-  S231  1  0.12690275  0.75123804  0.53972320  1
  S2-  S232  1  0.37873168  -0.00582732  0.04416652  1
  S2-  S233  1  0.37736926  0.00139365  0.54141845  1
  S2-  S234  1  0.37658128  0.24045854  0.04133471  1
  S2-  S235  1  0.37908800  0.24903410  0.55243531  1
  S2-  S236  1  0.37526212  0.48318260  0.05076838  1
  S2-  S237  1  0.37622286  0.50158683  0.54910404  1
  S2-  S238  1  0.37308942  0.74215591  0.05351094  1
  S2-  S239  1  0.38322572  0.74777383  0.55644665  1
  S2-  S240  1  0.62335889  -0.00818238  0.05000538  1
  S2-  S241  1  0.63479222  0.00212554  0.55274723  1
  S2-  S242  1  0.62328331  0.24124920  0.04767526  1
  S2-  S243  1  0.62959512  0.24945066  0.55019072  1
  S2-  S244  1  0.63393938  0.48359040  0.04226758  1
  S2-  S245  1  0.62920273  0.49937850  0.54460310  1
  S2-  S246  1  0.62568843  0.74127811  0.04574777  1
  S2-  S247  1  0.62919618  0.75044549  0.55157989  1
  S2-  S248  1  0.87233951  -0.00532886  0.04130917  1
  S2-  S249  1  0.87891956  0.00091794  0.54869016  1
  S2-  S250  1  0.87825693  0.23754669  0.05023831  1
  S2-  S251  1  0.88363323  0.25036114  0.54448084  1
  S2-  S252  1  0.87640877  0.49217790  0.04061712  1
  S2-  S253  1  0.88147459  0.49569723  0.53411633  1
  S2-  S254  1  0.87932506  0.74007246  0.04901884  1
  S2-  S255  1  0.87640985  0.74673786  0.54905814  1
