# generated using pymatgen
data_La6Ce6Pr19Nd20Sm13(BiS2)64
_symmetry_space_group_name_H-M   'P 1'
_cell_length_a   16.11640323
_cell_length_b   16.16944213
_cell_length_c   27.28184421
_cell_angle_alpha   89.79494043
_cell_angle_beta   90.08256370
_cell_angle_gamma   89.97781567
_symmetry_Int_Tables_number   1
_chemical_formula_structural   La6Ce6Pr19Nd20Sm13(BiS2)64
_chemical_formula_sum   'La6 Ce6 Pr19 Nd20 Sm13 Bi64 S128'
_cell_volume   7109.41096838
_cell_formula_units_Z   1
loop_
 _symmetry_equiv_pos_site_id
 _symmetry_equiv_pos_as_xyz
  1  'x, y, z'
loop_
 _atom_type_symbol
 _atom_type_oxidation_number
  La3+  3.0
  Ce3+  3.0
  Pr3+  3.0
  Nd3+  3.0
  Sm3+  3.0
  Bi2+  2.0
  S2-  -2.0
loop_
 _atom_site_type_symbol
 _atom_site_label
 _atom_site_symmetry_multiplicity
 _atom_site_fract_x
 _atom_site_fract_y
 _atom_site_fract_z
 _atom_site_occupancy
  La3+  La0  1  0.61085530  0.26383849  0.40239992  1
  La3+  La1  1  0.65001467  0.48569983  0.90665472  1
  La3+  La2  1  0.88954612  0.00631026  0.93128151  1
  La3+  La3  1  0.62930091  0.75274374  0.90353508  1
  La3+  La4  1  0.61482932  0.00062317  0.41083375  1
  La3+  La5  1  0.24285992  0.12586848  0.56818728  1
  Ce3+  Ce6  1  0.12568834  0.50224457  0.44206412  1
  Ce3+  Ce7  1  0.74452249  0.63002264  0.55907386  1
  Ce3+  Ce8  1  0.88400539  0.49993503  0.94458708  1
  Ce3+  Ce9  1  0.39018849  0.49443163  0.92829717  1
  Ce3+  Ce10  1  0.50150314  0.37810220  0.56756461  1
  Ce3+  Ce11  1  0.24813373  0.87587784  0.56078853  1
  Pr3+  Pr12  1  0.87314846  0.75343566  0.44004571  1
  Pr3+  Pr13  1  0.76216664  0.37047810  0.07228208  1
  Pr3+  Pr14  1  0.26252325  0.62032553  0.04564353  1
  Pr3+  Pr15  1  0.37353953  0.75418745  0.44043286  1
  Pr3+  Pr16  1  -0.00192301  0.37539803  0.55887476  1
  Pr3+  Pr17  1  0.12529249  0.00353565  0.43756608  1
  Pr3+  Pr18  1  0.02158021  0.86980893  0.06512322  1
  Pr3+  Pr19  1  0.63810522  -0.00192915  0.94108923  1
  Pr3+  Pr20  1  -0.00306023  0.62603481  0.55959880  1
  Pr3+  Pr21  1  0.50370050  0.12620610  0.56479009  1
  Pr3+  Pr22  1  0.51243173  0.37490122  0.06604203  1
  Pr3+  Pr23  1  0.86930469  0.50194161  0.44251968  1
  Pr3+  Pr24  1  0.38696630  0.74751203  0.93353589  1
  Pr3+  Pr25  1  0.87268518  0.25412979  0.42965211  1
  Pr3+  Pr26  1  0.39003615  0.24918926  0.95144138  1
  Pr3+  Pr27  1  0.01786464  0.11939089  0.07120363  1
  Pr3+  Pr28  1  0.01681750  0.62323256  0.05708151  1
  Pr3+  Pr29  1  0.13334614  0.49658251  0.93471787  1
  Pr3+  Pr30  1  0.87997126  0.00188225  0.41930548  1
  Nd3+  Nd31  1  0.12754802  0.25425787  0.43728811  1
  Nd3+  Nd32  1  0.13012764  0.75011864  0.92592789  1
  Nd3+  Nd33  1  0.63907723  0.24792766  0.94958214  1
  Nd3+  Nd34  1  0.61476122  0.75514951  0.43099538  1
  Nd3+  Nd35  1  0.51555986  0.86786824  0.06211113  1
  Nd3+  Nd36  1  0.61868409  0.50473862  0.44400170  1
  Nd3+  Nd37  1  0.49651202  0.64067422  0.57569236  1
  Nd3+  Nd38  1  0.13764055  0.24864378  0.94510414  1
  Nd3+  Nd39  1  0.76737248  0.86716363  0.06455239  1
  Nd3+  Nd40  1  -0.00452497  0.87964188  0.56452141  1
  Nd3+  Nd41  1  0.38905153  -0.00103044  0.95216749  1
  Nd3+  Nd42  1  0.51643323  0.62123114  0.04549975  1
  Nd3+  Nd43  1  0.26361093  0.37397561  0.05885568  1
  Nd3+  Nd44  1  0.77208891  0.10798342  0.08460513  1
  Nd3+  Nd45  1  0.24739503  0.62718842  0.56344311  1
  Nd3+  Nd46  1  0.51565556  0.11845624  0.07166502  1
  Nd3+  Nd47  1  0.13784473  0.00002319  0.93482743  1
  Nd3+  Nd48  1  0.76274243  0.62689142  0.05873359  1
  Nd3+  Nd49  1  0.51092925  0.88711305  0.57041135  1
  Nd3+  Nd50  1  0.88309282  0.75692175  0.92801438  1
  Sm3+  Sm51  1  0.25933162  0.12098953  0.06422101  1
  Sm3+  Sm52  1  0.75006767  0.88303233  0.54972814  1
  Sm3+  Sm53  1  0.37550139  0.50227548  0.45426129  1
  Sm3+  Sm54  1  0.12410348  0.75249485  0.44853926  1
  Sm3+  Sm55  1  0.26195975  0.86847770  0.05356193  1
  Sm3+  Sm56  1  0.37569803  0.00436572  0.44743703  1
  Sm3+  Sm57  1  0.74515451  0.37605542  0.55557143  1
  Sm3+  Sm58  1  0.24958891  0.37656869  0.56192799  1
  Sm3+  Sm59  1  0.37721586  0.25197247  0.44993545  1
  Sm3+  Sm60  1  0.74766126  0.12915165  0.53886880  1
  Sm3+  Sm61  1  0.88389178  0.24394117  0.94875976  1
  Sm3+  Sm62  1  -0.00871121  0.12828294  0.55427922  1
  Sm3+  Sm63  1  0.01052186  0.37029680  0.05604995  1
  Bi2+  Bi64  1  0.05838626  0.11273155  0.28031601  1
  Bi2+  Bi65  1  -0.02156192  0.15136340  0.78532076  1
  Bi2+  Bi66  1  0.01526320  0.40080421  0.24827624  1
  Bi2+  Bi67  1  0.01840957  0.35807583  0.79204017  1
  Bi2+  Bi68  1  0.05735118  0.58576384  0.28044263  1
  Bi2+  Bi69  1  0.00058231  0.62396807  0.77726538  1
  Bi2+  Bi70  1  -0.00088562  0.84921578  0.29857956  1
  Bi2+  Bi71  1  0.00517159  0.87905947  0.79344680  1
  Bi2+  Bi72  1  0.25486907  0.12101303  0.30854863  1
  Bi2+  Bi73  1  0.25377850  0.18520276  0.79909289  1
  Bi2+  Bi74  1  0.21292230  0.33659231  0.30700587  1
  Bi2+  Bi75  1  0.21297099  0.37686884  0.77031608  1
  Bi2+  Bi76  1  0.25631690  0.72265708  0.29714483  1
  Bi2+  Bi77  1  0.20703930  0.64803002  0.76647246  1
  Bi2+  Bi78  1  0.25387603  0.91891981  0.31236875  1
  Bi2+  Bi79  1  0.21186114  0.82771821  0.81207648  1
  Bi2+  Bi80  1  0.46110761  0.12128137  0.28866198  1
  Bi2+  Bi81  1  0.53441551  0.11594765  0.81206874  1
  Bi2+  Bi82  1  0.46930324  0.39532145  0.29744009  1
  Bi2+  Bi83  1  0.50479505  0.31424185  0.79450640  1
  Bi2+  Bi84  1  0.53581178  0.62577862  0.29398234  1
  Bi2+  Bi85  1  0.48013497  0.62779652  0.77832906  1
  Bi2+  Bi86  1  0.45195444  0.86987308  0.29189006  1
  Bi2+  Bi87  1  0.50200556  0.90534680  0.78883954  1
  Bi2+  Bi88  1  0.77189027  0.13684505  0.28749688  1
  Bi2+  Bi89  1  0.73054814  0.09962283  0.80300647  1
  Bi2+  Bi90  1  0.75799385  0.39621473  0.29651489  1
  Bi2+  Bi91  1  0.74697556  0.29070668  0.77289301  1
  Bi2+  Bi92  1  0.73876393  0.60937671  0.28714183  1
  Bi2+  Bi93  1  0.74926718  0.60624043  0.77903231  1
  Bi2+  Bi94  1  0.72971342  0.81080844  0.27746364  1
  Bi2+  Bi95  1  0.75924790  0.85050548  0.78570701  1
  Bi2+  Bi96  1  0.14761797  -0.02670065  0.21607378  1
  Bi2+  Bi97  1  0.13808663  0.03150435  0.77135655  1
  Bi2+  Bi98  1  0.17173913  0.22764634  0.21158674  1
  Bi2+  Bi99  1  0.12959026  0.26307018  0.68536628  1
  Bi2+  Bi100  1  0.18382045  0.49297956  0.20659713  1
  Bi2+  Bi101  1  0.11508091  0.51865083  0.69120590  1
  Bi2+  Bi102  1  0.13213188  0.72709923  0.20028451  1
  Bi2+  Bi103  1  0.11847820  0.79752807  0.69951863  1
  Bi2+  Bi104  1  0.34210770  0.01094511  0.22123736  1
  Bi2+  Bi105  1  0.32479093  -0.02966836  0.76136542  1
  Bi2+  Bi106  1  0.35343927  0.28885700  0.22862237  1
  Bi2+  Bi107  1  0.40393033  0.16581553  0.72204990  1
  Bi2+  Bi108  1  0.35222897  0.56282932  0.25746623  1
  Bi2+  Bi109  1  0.38318819  0.43017129  0.73315336  1
  Bi2+  Bi110  1  0.39468239  0.74215139  0.21240423  1
  Bi2+  Bi111  1  0.31744237  0.78075113  0.70072085  1
  Bi2+  Bi112  1  0.61704912  0.01400200  0.20704965  1
  Bi2+  Bi113  1  0.62556588  0.00269790  0.70567480  1
  Bi2+  Bi114  1  0.61495320  0.27606160  0.20077697  1
  Bi2+  Bi115  1  0.60086710  0.20206646  0.70996944  1
  Bi2+  Bi116  1  0.61514428  0.54408712  0.20252017  1
  Bi2+  Bi117  1  0.63796005  0.47376703  0.69531143  1
  Bi2+  Bi118  1  0.60324426  0.74735172  0.19388720  1
  Bi2+  Bi119  1  0.62417447  0.73198281  0.67722532  1
  Bi2+  Bi120  1  0.87783007  -0.01545222  0.21595982  1
  Bi2+  Bi121  1  0.85269891  0.02969975  0.71933877  1
  Bi2+  Bi122  1  0.89263070  0.26027232  0.20551273  1
  Bi2+  Bi123  1  0.87549312  0.21727032  0.69115749  1
  Bi2+  Bi124  1  0.88971158  0.54467912  0.21823785  1
  Bi2+  Bi125  1  0.86143766  0.44975608  0.75959715  1
  Bi2+  Bi126  1  0.87708349  0.74434515  0.20914401  1
  Bi2+  Bi127  1  0.91944539  0.76605860  0.70758028  1
  S2-  S128  1  -0.08411209  0.11929037  0.15336008  1
  S2-  S129  1  0.02902169  0.14759099  0.64922281  1
  S2-  S130  1  0.01781988  0.33639583  0.15137712  1
  S2-  S131  1  0.01467994  0.39444623  0.65783500  1
  S2-  S132  1  -0.00706525  0.64060723  0.15524246  1
  S2-  S133  1  -0.01105868  0.61976416  0.65925549  1
  S2-  S134  1  -0.04682087  0.87859820  0.16031383  1
  S2-  S135  1  -0.06511464  0.91403691  0.65458841  1
  S2-  S136  1  0.15203069  0.10579136  0.14049729  1
  S2-  S137  1  0.25975398  0.15311677  0.66643880  1
  S2-  S138  1  0.29835363  0.40043137  0.15425403  1
  S2-  S139  1  0.26092654  0.38311180  0.65987197  1
  S2-  S140  1  0.21994971  0.62982456  0.14300809  1
  S2-  S141  1  0.25823653  0.62328782  0.66276116  1
  S2-  S142  1  0.17105038  0.85930328  0.13625059  1
  S2-  S143  1  0.22171764  0.91485318  0.65392549  1
  S2-  S144  1  0.51023763  0.14371075  0.16983555  1
  S2-  S145  1  0.50098123  0.01487660  0.64326092  1
  S2-  S146  1  0.52789874  0.40908442  0.16462135  1
  S2-  S147  1  0.50278018  0.37655897  0.66552011  1
  S2-  S148  1  0.48987062  0.63878369  0.14390934  1
  S2-  S149  1  0.50944351  0.59109315  0.67376792  1
  S2-  S150  1  0.53098365  0.90293071  0.15965564  1
  S2-  S151  1  0.46912441  0.77953796  0.64418653  1
  S2-  S152  1  0.71702675  0.15298486  0.17912858  1
  S2-  S153  1  0.77540312  0.11472639  0.63619816  1
  S2-  S154  1  0.76415114  0.36231938  0.17381651  1
  S2-  S155  1  0.74465367  0.37827754  0.65355414  1
  S2-  S156  1  0.75794601  0.73735850  0.13757757  1
  S2-  S157  1  0.74124200  0.60768717  0.65704701  1
  S2-  S158  1  0.75202737  0.96429170  0.14953776  1
  S2-  S159  1  0.68407475  0.87661869  0.64054530  1
  S2-  S160  1  0.02481703  -0.00662542  0.35597346  1
  S2-  S161  1  0.03292470  0.01470478  0.85718500  1
  S2-  S162  1  0.07340926  0.25154951  0.34383148  1
  S2-  S163  1  0.10101162  0.23223022  0.84966802  1
  S2-  S164  1  0.14811066  0.49022682  0.34652251  1
  S2-  S165  1  0.06800817  0.50254070  0.84224607  1
  S2-  S166  1  0.10110702  0.75730055  0.35150997  1
  S2-  S167  1  0.00843195  0.73566729  0.85424916  1
  S2-  S168  1  0.45307101  -0.00403663  0.36040876  1
  S2-  S169  1  0.40572634  0.01009403  0.85449451  1
  S2-  S170  1  0.44903823  0.25432257  0.35981361  1
  S2-  S171  1  0.37122031  0.27746355  0.85358754  1
  S2-  S172  1  0.38805088  0.49777907  0.35659129  1
  S2-  S173  1  0.37887878  0.52373171  0.83099618  1
  S2-  S174  1  0.47799996  0.73671100  0.36131015  1
  S2-  S175  1  0.46589183  0.76047247  0.84523369  1
  S2-  S176  1  0.62304596  0.06546100  0.31144518  1
  S2-  S177  1  0.63686537  -0.09141986  0.85320190  1
  S2-  S178  1  0.65229821  0.26136629  0.30123334  1
  S2-  S179  1  0.64722758  0.32536345  0.85991092  1
  S2-  S180  1  0.61378143  0.43034245  0.35454487  1
  S2-  S181  1  0.60040257  0.53311474  0.81165450  1
  S2-  S182  1  0.63905700  0.85855373  0.35078746  1
  S2-  S183  1  0.62777949  0.73270425  0.77474740  1
  S2-  S184  1  0.82862856  -0.00352645  0.32070229  1
  S2-  S185  1  0.86295714  -0.10275322  0.85304312  1
  S2-  S186  1  0.85740736  0.27309943  0.33000054  1
  S2-  S187  1  0.86470711  0.15485380  0.86555947  1
  S2-  S188  1  0.85995584  0.50809799  0.34324937  1
  S2-  S189  1  0.81136600  0.48769195  0.85623865  1
  S2-  S190  1  0.87738073  0.76664081  0.33968370  1
  S2-  S191  1  0.77637679  0.71554083  0.85055168  1
  S2-  S192  1  -0.00077347  0.13178863  0.45028105  1
  S2-  S193  1  0.01493451  0.12839188  0.96379295  1
  S2-  S194  1  -0.00114803  0.37784004  0.45064239  1
  S2-  S195  1  0.00699568  0.36908190  0.95179960  1
  S2-  S196  1  -0.00042128  0.62731271  0.45204162  1
  S2-  S197  1  0.00938856  0.62045393  0.95214667  1
  S2-  S198  1  0.00080903  0.87463612  0.45745992  1
  S2-  S199  1  0.01683366  0.87523416  0.95577863  1
  S2-  S200  1  0.25126857  0.12878561  0.45693291  1
  S2-  S201  1  0.26241587  0.12343015  0.95868054  1
  S2-  S202  1  0.25354812  0.37648999  0.45694009  1
  S2-  S203  1  0.26135587  0.37473154  0.95152326  1
  S2-  S204  1  0.24936324  0.62740866  0.45572098  1
  S2-  S205  1  0.25871673  0.62340243  0.93856587  1
  S2-  S206  1  0.24865326  0.87856814  0.45377141  1
  S2-  S207  1  0.26275771  0.87491674  0.94877263  1
  S2-  S208  1  0.49998248  0.12970271  0.45781624  1
  S2-  S209  1  0.51314473  0.12340393  0.96363207  1
  S2-  S210  1  0.49743199  0.37767199  0.46188390  1
  S2-  S211  1  0.51568335  0.37587204  0.95773878  1
  S2-  S212  1  0.49605674  0.62553832  0.46640099  1
  S2-  S213  1  0.51814105  0.61729827  0.93996850  1
  S2-  S214  1  0.49600625  0.87913063  0.46281316  1
  S2-  S215  1  0.50993830  0.87276556  0.95607488  1
  S2-  S216  1  0.74211428  0.13194040  0.43384783  1
  S2-  S217  1  0.75824267  0.12283028  0.96853448  1
  S2-  S218  1  0.74301656  0.37434264  0.45057064  1
  S2-  S219  1  0.76423533  0.36987934  0.96449474  1
  S2-  S220  1  0.74353102  0.63016345  0.45001781  1
  S2-  S221  1  0.75477688  0.61757971  0.95533497  1
  S2-  S222  1  0.75264199  0.88181827  0.44728951  1
  S2-  S223  1  0.75680008  0.87131854  0.95834438  1
  S2-  S224  1  0.14322813  -0.00476348  0.03908736  1
  S2-  S225  1  0.11677864  0.00453121  0.54545659  1
  S2-  S226  1  0.14007904  0.25107777  0.04950381  1
  S2-  S227  1  0.12392510  0.25357411  0.54431318  1
  S2-  S228  1  0.13533291  0.49233674  0.04283081  1
  S2-  S229  1  0.12569207  0.50030431  0.54860058  1
  S2-  S230  1  0.14036284  0.74574269  0.03195981  1
  S2-  S231  1  0.12079372  0.75241995  0.55287475  1
  S2-  S232  1  0.38356926  -0.00448895  0.05822675  1
  S2-  S233  1  0.37028393  0.00362889  0.54949449  1
  S2-  S234  1  0.38604400  0.24402549  0.05848243  1
  S2-  S235  1  0.37415069  0.25160372  0.55484068  1
  S2-  S236  1  0.38836051  0.49740803  0.03814236  1
  S2-  S237  1  0.37364384  0.50347134  0.55890945  1
  S2-  S238  1  0.38664821  0.74735614  0.04124900  1
  S2-  S239  1  0.36750749  0.75250015  0.54527462  1
  S2-  S240  1  0.63500837  -0.00377093  0.04841305  1
  S2-  S241  1  0.63060248  0.00684444  0.53373833  1
  S2-  S242  1  0.63657471  0.24547273  0.05688289  1
  S2-  S243  1  0.62641958  0.25166142  0.55201932  1
  S2-  S244  1  0.64045151  0.49907229  0.05420879  1
  S2-  S245  1  0.62228987  0.50389631  0.55029221  1
  S2-  S246  1  0.63411620  0.74715958  0.04046464  1
  S2-  S247  1  0.62532566  0.75596193  0.53948569  1
  S2-  S248  1  0.89341666  -0.00699294  0.04414492  1
  S2-  S249  1  0.87365917  0.00513052  0.53255867  1
  S2-  S250  1  0.88654810  0.24641911  0.05185067  1
  S2-  S251  1  0.87152949  0.25446130  0.53823835  1
  S2-  S252  1  0.88813778  0.49699264  0.05322615  1
  S2-  S253  1  0.86999244  0.50069035  0.54934511  1
  S2-  S254  1  0.89354592  0.74694254  0.03898497  1
  S2-  S255  1  0.87193519  0.75409624  0.54775092  1
