# generated using pymatgen
data_La6Ce6Pr19Nd20Sm13(BiS2)64
_symmetry_space_group_name_H-M   'P 1'
_cell_length_a   16.14347649
_cell_length_b   16.08177741
_cell_length_c   27.32860969
_cell_angle_alpha   90.01788265
_cell_angle_beta   89.87460547
_cell_angle_gamma   90.03115944
_symmetry_Int_Tables_number   1
_chemical_formula_structural   La6Ce6Pr19Nd20Sm13(BiS2)64
_chemical_formula_sum   'La6 Ce6 Pr19 Nd20 Sm13 Bi64 S128'
_cell_volume   7094.92036307
_cell_formula_units_Z   1
loop_
 _symmetry_equiv_pos_site_id
 _symmetry_equiv_pos_as_xyz
  1  'x, y, z'
loop_
 _atom_type_symbol
 _atom_type_oxidation_number
  La3+  3.0
  Ce3+  3.0
  Pr3+  3.0
  Nd3+  3.0
  Sm3+  3.0
  Bi2+  2.0
  S2-  -2.0
loop_
 _atom_site_type_symbol
 _atom_site_label
 _atom_site_symmetry_multiplicity
 _atom_site_fract_x
 _atom_site_fract_y
 _atom_site_fract_z
 _atom_site_occupancy
  La3+  La0  1  0.62470921  -0.01074102  0.43177982  1
  La3+  La1  1  0.25535403  0.38306825  0.09384073  1
  La3+  La2  1  0.37174140  0.23395911  0.40164137  1
  La3+  La3  1  0.23061924  0.88455104  0.61423345  1
  La3+  La4  1  0.63674461  0.50728622  0.41083236  1
  La3+  La5  1  0.37106937  0.49642688  0.41569494  1
  Ce3+  Ce6  1  0.49298022  0.86600739  0.57172899  1
  Ce3+  Ce7  1  0.87536722  0.75224903  0.93813046  1
  Ce3+  Ce8  1  0.13196511  0.75352337  0.94409376  1
  Ce3+  Ce9  1  0.13143227  0.25758874  0.94462720  1
  Ce3+  Ce10  1  0.62721725  0.24288418  0.43216205  1
  Ce3+  Ce11  1  0.87718684  0.49232371  0.44011576  1
  Pr3+  Pr12  1  0.00648288  0.38271098  0.07528286  1
  Pr3+  Pr13  1  0.49760721  0.12053201  0.55321495  1
  Pr3+  Pr14  1  0.75081827  0.36921943  0.55638034  1
  Pr3+  Pr15  1  0.00410585  0.88104426  0.05398124  1
  Pr3+  Pr16  1  0.37920232  0.25619879  0.94546403  1
  Pr3+  Pr17  1  0.75379043  0.88227228  0.06011761  1
  Pr3+  Pr18  1  0.62981097  0.25336385  0.92996113  1
  Pr3+  Pr19  1  0.63371355  0.74643358  0.92153212  1
  Pr3+  Pr20  1  0.74275382  0.87690451  0.57928869  1
  Pr3+  Pr21  1  0.87666190  0.23535230  0.43240758  1
  Pr3+  Pr22  1  0.38465326  0.76502615  0.92366542  1
  Pr3+  Pr23  1  0.12876340  0.24117792  0.43522597  1
  Pr3+  Pr24  1  0.00322977  0.62965076  0.06535476  1
  Pr3+  Pr25  1  0.00425250  0.11768066  0.56340453  1
  Pr3+  Pr26  1  0.75287873  0.38020813  0.06234139  1
  Pr3+  Pr27  1  0.50899116  0.87991082  0.06137756  1
  Pr3+  Pr28  1  0.37883376  0.74089306  0.44175088  1
  Pr3+  Pr29  1  0.50069641  0.60491016  0.56683845  1
  Pr3+  Pr30  1  0.25670217  0.87858004  0.07219304  1
  Nd3+  Nd31  1  0.12664728  0.49755739  0.43113086  1
  Nd3+  Nd32  1  0.38148093  0.50869684  0.94257186  1
  Nd3+  Nd33  1  0.25169947  0.62181928  0.56493085  1
  Nd3+  Nd34  1  0.87982160  0.00653051  0.93961044  1
  Nd3+  Nd35  1  0.25877031  0.63331956  0.06584992  1
  Nd3+  Nd36  1  0.12672061  0.74590571  0.44017707  1
  Nd3+  Nd37  1  0.62866860  0.00784837  0.93562010  1
  Nd3+  Nd38  1  0.74911817  0.60966657  0.57371586  1
  Nd3+  Nd39  1  0.50578062  0.63050873  0.05948353  1
  Nd3+  Nd40  1  0.87458040  -0.01180373  0.43441081  1
  Nd3+  Nd41  1  0.88413745  0.49883581  0.93677055  1
  Nd3+  Nd42  1  0.13291431  0.50802009  0.94550664  1
  Nd3+  Nd43  1  0.00821080  0.13092673  0.06194538  1
  Nd3+  Nd44  1  0.37598328  -0.01033615  0.44200443  1
  Nd3+  Nd45  1  0.88503170  0.25337765  0.94752300  1
  Nd3+  Nd46  1  0.13256400  0.00263891  0.94063016  1
  Nd3+  Nd47  1  0.00443290  0.62195409  0.55739917  1
  Nd3+  Nd48  1  0.63730683  0.49831429  0.92632204  1
  Nd3+  Nd49  1  0.87340977  0.74439014  0.44946967  1
  Nd3+  Nd50  1  0.75176095  0.62824710  0.06072703  1
  Sm3+  Sm51  1  0.50391345  0.13194189  0.06184577  1
  Sm3+  Sm52  1  0.37909566  0.00459040  0.94668020  1
  Sm3+  Sm53  1  0.00302998  0.36795703  0.55215638  1
  Sm3+  Sm54  1  0.12999268  -0.00587834  0.44315586  1
  Sm3+  Sm55  1  0.50069666  0.37215398  0.53785784  1
  Sm3+  Sm56  1  0.25373709  0.37461519  0.55440391  1
  Sm3+  Sm57  1  0.75300884  0.13231171  0.05865660  1
  Sm3+  Sm58  1  0.74891717  0.11904900  0.55672868  1
  Sm3+  Sm59  1  0.25632396  0.13085497  0.05943883  1
  Sm3+  Sm60  1  0.50587520  0.38145651  0.06176296  1
  Sm3+  Sm61  1  0.25374089  0.12496032  0.56049135  1
  Sm3+  Sm62  1  -0.00069943  0.87090952  0.55621281  1
  Sm3+  Sm63  1  0.62618852  0.74135981  0.45601868  1
  Bi2+  Bi64  1  -0.00289599  -0.00927549  0.28204153  1
  Bi2+  Bi65  1  -0.03926612  0.17506595  0.79726052  1
  Bi2+  Bi66  1  0.04475556  0.36452539  0.29042104  1
  Bi2+  Bi67  1  0.01533693  0.38476410  0.79067552  1
  Bi2+  Bi68  1  -0.02329012  0.55085691  0.29298178  1
  Bi2+  Bi69  1  -0.07335660  0.63276867  0.74395606  1
  Bi2+  Bi70  1  0.01603568  0.79898570  0.30207633  1
  Bi2+  Bi71  1  -0.05171894  0.82608465  0.77828303  1
  Bi2+  Bi72  1  0.24202295  0.09696457  0.28921685  1
  Bi2+  Bi73  1  0.22242582  0.13790153  0.80089170  1
  Bi2+  Bi74  1  0.27414124  0.36838860  0.28328314  1
  Bi2+  Bi75  1  0.28118988  0.37858765  0.76165336  1
  Bi2+  Bi76  1  0.24019315  0.63111799  0.28527272  1
  Bi2+  Bi77  1  0.21776402  0.59670764  0.80910522  1
  Bi2+  Bi78  1  0.25251006  0.86847515  0.28909091  1
  Bi2+  Bi79  1  0.20476645  0.86394727  0.82127616  1
  Bi2+  Bi80  1  0.49845591  0.01840145  0.28199546  1
  Bi2+  Bi81  1  0.51475496  0.22795965  0.80001102  1
  Bi2+  Bi82  1  0.54029543  0.35110370  0.27605617  1
  Bi2+  Bi83  1  0.49250489  0.37549911  0.72473566  1
  Bi2+  Bi84  1  0.50937684  0.64828962  0.29658226  1
  Bi2+  Bi85  1  0.46990892  0.63167223  0.80364176  1
  Bi2+  Bi86  1  0.44740892  0.85191291  0.33014498  1
  Bi2+  Bi87  1  0.47541976  0.98545750  0.78984490  1
  Bi2+  Bi88  1  0.82868926  0.09048873  0.25714685  1
  Bi2+  Bi89  1  0.74084332  0.11596874  0.78438965  1
  Bi2+  Bi90  1  0.78621943  0.37511445  0.29642767  1
  Bi2+  Bi91  1  0.74601904  0.37145573  0.79418498  1
  Bi2+  Bi92  1  0.82041631  0.66708943  0.29254032  1
  Bi2+  Bi93  1  0.74346567  0.62859691  0.78540917  1
  Bi2+  Bi94  1  0.74230035  0.94323369  0.31621173  1
  Bi2+  Bi95  1  0.74747423  0.88899753  0.78983633  1
  Bi2+  Bi96  1  0.14809983  -0.06452242  0.19450378  1
  Bi2+  Bi97  1  0.09699389  0.01059867  0.71056056  1
  Bi2+  Bi98  1  0.11265145  0.20825323  0.21741258  1
  Bi2+  Bi99  1  0.12926817  0.26973064  0.71271929  1
  Bi2+  Bi100  1  0.12047569  0.49414952  0.21398187  1
  Bi2+  Bi101  1  0.13452899  0.47414619  0.70648367  1
  Bi2+  Bi102  1  0.12991581  0.73835203  0.20786588  1
  Bi2+  Bi103  1  0.09561824  0.73537167  0.71232047  1
  Bi2+  Bi104  1  0.34201124  -0.03439724  0.19935968  1
  Bi2+  Bi105  1  0.37637572  0.11801612  0.72974634  1
  Bi2+  Bi106  1  0.38863630  0.19023899  0.20974351  1
  Bi2+  Bi107  1  0.30859619  0.26912036  0.66734824  1
  Bi2+  Bi108  1  0.40467067  0.51016823  0.19707875  1
  Bi2+  Bi109  1  0.37675512  0.53182969  0.70200785  1
  Bi2+  Bi110  1  0.37621211  0.76584259  0.22203698  1
  Bi2+  Bi111  1  0.35781578  0.77151873  0.71564593  1
  Bi2+  Bi112  1  0.61215180  -0.01133048  0.18884506  1
  Bi2+  Bi113  1  0.61006936  0.02270990  0.70107793  1
  Bi2+  Bi114  1  0.70998598  0.23067438  0.21890426  1
  Bi2+  Bi115  1  0.64958582  0.24730854  0.70766059  1
  Bi2+  Bi116  1  0.64173259  0.52878546  0.20063273  1
  Bi2+  Bi117  1  0.62468207  0.52047846  0.69893316  1
  Bi2+  Bi118  1  0.62603221  0.80253725  0.28613462  1
  Bi2+  Bi119  1  0.57417172  0.83521834  0.75155994  1
  Bi2+  Bi120  1  0.85515531  -0.11600811  0.21331119  1
  Bi2+  Bi121  1  0.86919561  -0.02973217  0.70982535  1
  Bi2+  Bi122  1  0.92264666  0.26723663  0.20650123  1
  Bi2+  Bi123  1  0.84459969  0.23164535  0.70813839  1
  Bi2+  Bi124  1  0.87243332  0.45694446  0.20426340  1
  Bi2+  Bi125  1  0.87947977  0.42540382  0.71015986  1
  Bi2+  Bi126  1  0.93574301  0.70569405  0.20207126  1
  Bi2+  Bi127  1  0.82101152  0.78145840  0.69334180  1
  S2-  S128  1  -0.00072162  0.13013234  0.16062947  1
  S2-  S129  1  -0.01580133  0.09328214  0.66245574  1
  S2-  S130  1  0.11694932  0.34984025  0.15406653  1
  S2-  S131  1  0.02001121  0.36878299  0.64936935  1
  S2-  S132  1  -0.00657291  0.51970579  0.14341641  1
  S2-  S133  1  0.03053556  0.61164541  0.65506933  1
  S2-  S134  1  -0.00992738  0.90717347  0.15210712  1
  S2-  S135  1  0.05795764  0.87087412  0.64851844  1
  S2-  S136  1  0.24736164  0.14627258  0.15649394  1
  S2-  S137  1  0.21193055  0.05629854  0.64733280  1
  S2-  S138  1  0.33496279  0.34757926  0.18423416  1
  S2-  S139  1  0.25401783  0.48832302  0.63147529  1
  S2-  S140  1  0.26020949  0.53464704  0.15042411  1
  S2-  S141  1  0.23656033  0.71602840  0.65264491  1
  S2-  S142  1  0.27216369  0.75182453  0.14207854  1
  S2-  S143  1  0.23078570  0.89163606  0.72877454  1
  S2-  S144  1  0.52132195  0.14190495  0.15931080  1
  S2-  S145  1  0.49708995  0.12268702  0.65397738  1
  S2-  S146  1  0.52193614  0.41318543  0.15861897  1
  S2-  S147  1  0.50887714  0.45118952  0.62682547  1
  S2-  S148  1  0.51883363  0.62927681  0.15979866  1
  S2-  S149  1  0.46196199  0.66062951  0.66567077  1
  S2-  S150  1  0.48449120  0.88106189  0.16079213  1
  S2-  S151  1  0.39299723  0.88583760  0.65171815  1
  S2-  S152  1  0.74573752  0.09905434  0.15475218  1
  S2-  S153  1  0.75623763  0.02620847  0.63908928  1
  S2-  S154  1  0.72650665  0.37483446  0.16174422  1
  S2-  S155  1  0.75331831  0.46805316  0.63977024  1
  S2-  S156  1  0.75215109  0.62014951  0.16047642  1
  S2-  S157  1  0.69379742  0.65760189  0.66833775  1
  S2-  S158  1  0.70474490  0.86482088  0.15540077  1
  S2-  S159  1  0.60698571  0.87334129  0.64779077  1
  S2-  S160  1  0.11560122  0.03985819  0.34809718  1
  S2-  S161  1  0.12304362  0.00643177  0.84045597  1
  S2-  S162  1  0.21960076  0.24204002  0.34835010  1
  S2-  S163  1  0.11278129  0.23710149  0.84817530  1
  S2-  S164  1  0.22136199  0.48114021  0.34901164  1
  S2-  S165  1  0.08488944  0.49481651  0.85011805  1
  S2-  S166  1  0.11935287  0.67672285  0.34849346  1
  S2-  S167  1  0.11274064  0.71721412  0.84851424  1
  S2-  S168  1  0.36326975  0.06636710  0.35222552  1
  S2-  S169  1  0.35526358  -0.06585741  0.85888873  1
  S2-  S170  1  0.44657562  0.23391534  0.30694369  1
  S2-  S171  1  0.36926284  0.20364972  0.84962997  1
  S2-  S172  1  0.40997842  0.43285592  0.31825351  1
  S2-  S173  1  0.36259024  0.50927747  0.84330649  1
  S2-  S174  1  0.37194343  0.64521038  0.35553103  1
  S2-  S175  1  0.32198422  0.71933189  0.82939563  1
  S2-  S176  1  0.62781365  0.06749614  0.34133080  1
  S2-  S177  1  0.62765332  0.12034620  0.85846097  1
  S2-  S178  1  0.66315055  0.28369348  0.33877750  1
  S2-  S179  1  0.61480707  0.37163542  0.85484906  1
  S2-  S180  1  0.60450207  0.50444517  0.30644743  1
  S2-  S181  1  0.61133999  0.60073771  0.84630702  1
  S2-  S182  1  0.64258101  0.68549770  0.36349234  1
  S2-  S183  1  0.51682074  0.77709300  0.84929454  1
  S2-  S184  1  0.88395183  0.08908413  0.35436505  1
  S2-  S185  1  0.87895681  0.05425976  0.84455509  1
  S2-  S186  1  0.91499328  0.29877998  0.34148443  1
  S2-  S187  1  0.87993575  0.29812568  0.85210577  1
  S2-  S188  1  0.79664536  0.52304316  0.35652760  1
  S2-  S189  1  0.80019514  0.50835965  0.85040355  1
  S2-  S190  1  0.86390545  0.79862817  0.35502478  1
  S2-  S191  1  0.77549508  0.75498374  0.85776470  1
  S2-  S192  1  0.00437915  0.11665728  0.45680463  1
  S2-  S193  1  0.00806951  0.12720040  0.95565175  1
  S2-  S194  1  0.00450385  0.36798677  0.44859880  1
  S2-  S195  1  0.00719299  0.38043817  0.96325438  1
  S2-  S196  1  -0.00064856  0.62030544  0.45151730  1
  S2-  S197  1  0.00176981  0.62947733  0.95769018  1
  S2-  S198  1  0.00271934  0.87152611  0.45206958  1
  S2-  S199  1  0.00249048  0.87927565  0.94685090  1
  S2-  S200  1  0.25218852  0.11788700  0.45727767  1
  S2-  S201  1  0.25522469  0.12688566  0.95524093  1
  S2-  S202  1  0.25177090  0.36605535  0.45156442  1
  S2-  S203  1  0.25634844  0.38267223  0.94921412  1
  S2-  S204  1  0.24575429  0.62065524  0.45776065  1
  S2-  S205  1  0.25839627  0.63313449  0.95732970  1
  S2-  S206  1  0.24997618  0.86889064  0.44156928  1
  S2-  S207  1  0.25471736  0.87995446  0.96373877  1
  S2-  S208  1  0.49894271  0.12191306  0.44715393  1
  S2-  S209  1  0.50179597  0.12928892  0.95740524  1
  S2-  S210  1  0.50268673  0.36802418  0.43473979  1
  S2-  S211  1  0.50385757  0.38074546  0.95708744  1
  S2-  S212  1  0.50617384  0.61513559  0.45450367  1
  S2-  S213  1  0.50563070  0.63081494  0.95341114  1
  S2-  S214  1  0.50250863  0.86631785  0.46147219  1
  S2-  S215  1  0.50828670  0.88598792  0.95511937  1
  S2-  S216  1  0.75026847  0.11659953  0.45391010  1
  S2-  S217  1  0.75732212  0.13229612  0.95545121  1
  S2-  S218  1  0.75431676  0.36600201  0.45032901  1
  S2-  S219  1  0.75766233  0.37530341  0.95722243  1
  S2-  S220  1  0.75517500  0.62090960  0.46549350  1
  S2-  S221  1  0.75608105  0.62438529  0.95621775  1
  S2-  S222  1  0.74912563  0.86794821  0.46393727  1
  S2-  S223  1  0.75286805  0.88534068  0.95312726  1
  S2-  S224  1  0.13268092  0.00624044  0.04834808  1
  S2-  S225  1  0.12683645  -0.00792028  0.54474730  1
  S2-  S226  1  0.13398976  0.25456484  0.04911357  1
  S2-  S227  1  0.12812531  0.24568337  0.54519525  1
  S2-  S228  1  0.13431011  0.50666925  0.04933477  1
  S2-  S229  1  0.12174946  0.49326077  0.53782383  1
  S2-  S230  1  0.12704103  0.75522679  0.05006612  1
  S2-  S231  1  0.12476703  0.74985283  0.54484815  1
  S2-  S232  1  0.38081971  0.00680144  0.05167847  1
  S2-  S233  1  0.36988857  -0.00230054  0.54658353  1
  S2-  S234  1  0.37988197  0.25729269  0.05294320  1
  S2-  S235  1  0.37635306  0.25009463  0.54090892  1
  S2-  S236  1  0.38236354  0.50265243  0.04869179  1
  S2-  S237  1  0.37598300  0.49120357  0.52869863  1
  S2-  S238  1  0.38526695  0.75764749  0.03986867  1
  S2-  S239  1  0.38099199  0.73519416  0.54642548  1
  S2-  S240  1  0.62929425  0.01071148  0.04287397  1
  S2-  S241  1  0.62306628  -0.00149621  0.54051903  1
  S2-  S242  1  0.62728246  0.25427630  0.04728410  1
  S2-  S243  1  0.62556590  0.24501306  0.54252110  1
  S2-  S244  1  0.62837912  0.50345567  0.04303492  1
  S2-  S245  1  0.62983126  0.49097449  0.53000710  1
  S2-  S246  1  0.63144548  0.75386060  0.04257576  1
  S2-  S247  1  0.62622568  0.73748841  0.55611281  1
  S2-  S248  1  0.87824215  0.00953480  0.04679586  1
  S2-  S249  1  0.87767489  -0.00503789  0.54171621  1
  S2-  S250  1  0.88073538  0.25419063  0.05424405  1
  S2-  S251  1  0.87706055  0.24232378  0.54539663  1
  S2-  S252  1  0.87646731  0.50428866  0.04374379  1
  S2-  S253  1  0.88347857  0.49343102  0.54571734  1
  S2-  S254  1  0.87722484  0.75467952  0.04688235  1
  S2-  S255  1  0.87435887  0.74551412  0.55614539  1
