# generated using pymatgen
data_La6Ce6Pr19Nd20Sm13(BiS2)64
_symmetry_space_group_name_H-M   'P 1'
_cell_length_a   16.13065721
_cell_length_b   16.11289819
_cell_length_c   27.24486648
_cell_angle_alpha   89.73931624
_cell_angle_beta   90.26820617
_cell_angle_gamma   90.01657288
_symmetry_Int_Tables_number   1
_chemical_formula_structural   La6Ce6Pr19Nd20Sm13(BiS2)64
_chemical_formula_sum   'La6 Ce6 Pr19 Nd20 Sm13 Bi64 S128'
_cell_volume   7081.10672721
_cell_formula_units_Z   1
loop_
 _symmetry_equiv_pos_site_id
 _symmetry_equiv_pos_as_xyz
  1  'x, y, z'
loop_
 _atom_type_symbol
 _atom_type_oxidation_number
  La3+  3.0
  Ce3+  3.0
  Pr3+  3.0
  Nd3+  3.0
  Sm3+  3.0
  Bi2+  2.0
  S2-  -2.0
loop_
 _atom_site_type_symbol
 _atom_site_label
 _atom_site_symmetry_multiplicity
 _atom_site_fract_x
 _atom_site_fract_y
 _atom_site_fract_z
 _atom_site_occupancy
  La3+  La0  1  0.37590736  0.00417509  0.40517000  1
  La3+  La1  1  0.23552701  0.40107116  0.09732122  1
  La3+  La2  1  0.85728362  0.76602443  0.91340514  1
  La3+  La3  1  0.37360861  0.74768664  0.43660105  1
  La3+  La4  1  0.00761873  0.36898982  0.57435958  1
  La3+  La5  1  0.87718945  0.49776023  0.39699012  1
  Ce3+  Ce6  1  0.36467706  0.75880907  0.94068163  1
  Ce3+  Ce7  1  0.12371597  0.24697147  0.43716920  1
  Ce3+  Ce8  1  -0.00926928  0.87660132  0.06002779  1
  Ce3+  Ce9  1  0.11346597  0.26365943  0.94889309  1
  Ce3+  Ce10  1  0.63024923  0.49391609  0.44582776  1
  Ce3+  Ce11  1  0.86098979  0.00409174  0.94216377  1
  Pr3+  Pr12  1  0.37571344  0.49223993  0.43226569  1
  Pr3+  Pr13  1  0.36325297  0.00903110  0.94831697  1
  Pr3+  Pr14  1  0.73477290  0.39045344  0.07033727  1
  Pr3+  Pr15  1  -0.01897377  0.38411284  0.06324640  1
  Pr3+  Pr16  1  0.10229443  0.50443958  0.91548405  1
  Pr3+  Pr17  1  0.62476632  0.74676169  0.44732997  1
  Pr3+  Pr18  1  0.75571792  0.36830408  0.56222870  1
  Pr3+  Pr19  1  0.23642228  0.13540232  0.06774583  1
  Pr3+  Pr20  1  -0.01294758  0.13584439  0.05890726  1
  Pr3+  Pr21  1  0.01158896  0.86005772  0.58059282  1
  Pr3+  Pr22  1  0.50042400  0.36774326  0.57350110  1
  Pr3+  Pr23  1  0.73628428  0.63744675  0.06052619  1
  Pr3+  Pr24  1  0.12226316  0.76743334  0.91464008  1
  Pr3+  Pr25  1  0.87833171  0.74769882  0.43855167  1
  Pr3+  Pr26  1  0.73671690  0.13207690  0.05884496  1
  Pr3+  Pr27  1  0.49858178  0.87114190  0.56652039  1
  Pr3+  Pr28  1  0.85436453  0.50998183  0.93232969  1
  Pr3+  Pr29  1  0.00484306  0.61264785  0.56641154  1
  Pr3+  Pr30  1  0.73980880  0.87869442  0.06971061  1
  Nd3+  Nd31  1  0.48402823  0.13507735  0.06524347  1
  Nd3+  Nd32  1  0.35993987  0.26081045  0.94100253  1
  Nd3+  Nd33  1  0.87955081  -0.00627269  0.44049152  1
  Nd3+  Nd34  1  0.87721141  0.24857003  0.43545367  1
  Nd3+  Nd35  1  0.50251204  0.61763095  0.55831146  1
  Nd3+  Nd36  1  0.62711829  0.24573808  0.44528636  1
  Nd3+  Nd37  1  0.11296456  0.00836958  0.94185696  1
  Nd3+  Nd38  1  0.36358515  0.50825931  0.92946312  1
  Nd3+  Nd39  1  0.25624046  0.86937041  0.56588791  1
  Nd3+  Nd40  1  0.47866174  0.87799693  0.08005047  1
  Nd3+  Nd41  1  0.12691414  -0.00460303  0.43916574  1
  Nd3+  Nd42  1  0.85797157  0.25921213  0.93443040  1
  Nd3+  Nd43  1  -0.01035370  0.63195612  0.04201287  1
  Nd3+  Nd44  1  0.00542068  0.11954343  0.56550257  1
  Nd3+  Nd45  1  0.12930881  0.48862735  0.42998940  1
  Nd3+  Nd46  1  0.12443243  0.74447617  0.44328952  1
  Nd3+  Nd47  1  0.48252005  0.62935265  0.05955914  1
  Nd3+  Nd48  1  0.48484659  0.38573401  0.05923840  1
  Nd3+  Nd49  1  0.23121031  0.87579928  0.06849141  1
  Nd3+  Nd50  1  0.61428266  0.50979745  0.92921450  1
  Sm3+  Sm51  1  0.23168947  0.62585566  0.04121527  1
  Sm3+  Sm52  1  0.25395842  0.11754144  0.55392165  1
  Sm3+  Sm53  1  0.50086973  0.11734929  0.55435058  1
  Sm3+  Sm54  1  0.75465606  0.11798477  0.55928602  1
  Sm3+  Sm55  1  0.37892766  0.24613995  0.43821866  1
  Sm3+  Sm56  1  0.75683094  0.61805564  0.56100899  1
  Sm3+  Sm57  1  0.61158402  0.25932939  0.94766417  1
  Sm3+  Sm58  1  0.61111212  0.76153389  0.94149595  1
  Sm3+  Sm59  1  0.62525301  -0.00496162  0.44938144  1
  Sm3+  Sm60  1  0.75637415  0.86799777  0.56324999  1
  Sm3+  Sm61  1  0.25474152  0.36777262  0.56072139  1
  Sm3+  Sm62  1  0.25476545  0.61531650  0.56009576  1
  Sm3+  Sm63  1  0.60942888  0.00521913  0.95369769  1
  Bi2+  Bi64  1  0.04753756  0.11625152  0.33228784  1
  Bi2+  Bi65  1  0.02994874  0.10970227  0.77949249  1
  Bi2+  Bi66  1  0.00735965  0.38373885  0.28924702  1
  Bi2+  Bi67  1  0.01859549  0.36206543  0.80126656  1
  Bi2+  Bi68  1  -0.02389037  0.64410264  0.28201140  1
  Bi2+  Bi69  1  -0.01121590  0.60146406  0.77345270  1
  Bi2+  Bi70  1  0.01457942  0.91326223  0.30438921  1
  Bi2+  Bi71  1  -0.00221489  0.85557095  0.79470831  1
  Bi2+  Bi72  1  0.23555635  0.12760542  0.29769161  1
  Bi2+  Bi73  1  0.29260146  0.09508855  0.79948360  1
  Bi2+  Bi74  1  0.27011043  0.39164402  0.29356977  1
  Bi2+  Bi75  1  0.26460739  0.28693648  0.78811375  1
  Bi2+  Bi76  1  0.32917605  0.62213604  0.27855629  1
  Bi2+  Bi77  1  0.32367095  0.62846291  0.79095134  1
  Bi2+  Bi78  1  0.27159293  0.84412388  0.29920312  1
  Bi2+  Bi79  1  0.25237156  0.89378274  0.78942902  1
  Bi2+  Bi80  1  0.57633348  0.14563983  0.29055200  1
  Bi2+  Bi81  1  0.55249363  0.18022334  0.77744821  1
  Bi2+  Bi82  1  0.44829668  0.36610337  0.33133905  1
  Bi2+  Bi83  1  0.52727454  0.45483311  0.80180731  1
  Bi2+  Bi84  1  0.51091649  0.53922102  0.28714006  1
  Bi2+  Bi85  1  0.49834909  0.65956852  0.83945946  1
  Bi2+  Bi86  1  0.53545264  0.86046908  0.29815772  1
  Bi2+  Bi87  1  0.50910503  0.88276882  0.79887643  1
  Bi2+  Bi88  1  0.85770775  0.12061249  0.31335710  1
  Bi2+  Bi89  1  0.73229000  0.10211772  0.76559091  1
  Bi2+  Bi90  1  0.67324924  0.37207307  0.28526665  1
  Bi2+  Bi91  1  0.73361442  0.36865764  0.79358571  1
  Bi2+  Bi92  1  0.70258498  0.63160461  0.28762535  1
  Bi2+  Bi93  1  0.66713172  0.63514067  0.78770892  1
  Bi2+  Bi94  1  0.81898026  0.83640640  0.27011006  1
  Bi2+  Bi95  1  0.72635304  0.90583778  0.79632786  1
  Bi2+  Bi96  1  0.10283082  0.02422922  0.22986129  1
  Bi2+  Bi97  1  0.15241050  0.00846274  0.71455159  1
  Bi2+  Bi98  1  0.14168344  0.21386165  0.21048095  1
  Bi2+  Bi99  1  0.13039134  0.23122558  0.70908919  1
  Bi2+  Bi100  1  0.12320003  0.53760095  0.20391079  1
  Bi2+  Bi101  1  0.13544018  0.48875919  0.70734493  1
  Bi2+  Bi102  1  0.11541222  0.78077857  0.23805145  1
  Bi2+  Bi103  1  0.13784823  0.73845846  0.70807042  1
  Bi2+  Bi104  1  0.40055492  0.01726900  0.20269704  1
  Bi2+  Bi105  1  0.37687703  -0.00733427  0.71065761  1
  Bi2+  Bi106  1  0.45874290  0.27075076  0.22990178  1
  Bi2+  Bi107  1  0.40900062  0.25366804  0.70992599  1
  Bi2+  Bi108  1  0.40570507  0.53186460  0.18740913  1
  Bi2+  Bi109  1  0.38250958  0.48528031  0.72057213  1
  Bi2+  Bi110  1  0.42551795  0.76840928  0.20761768  1
  Bi2+  Bi111  1  0.41638165  0.75042541  0.71829037  1
  Bi2+  Bi112  1  0.71683210  0.00982799  0.26588589  1
  Bi2+  Bi113  1  0.57399776  0.00963601  0.71043457  1
  Bi2+  Bi114  1  0.64994137  0.24428190  0.19763363  1
  Bi2+  Bi115  1  0.59076546  0.33030347  0.69933165  1
  Bi2+  Bi116  1  0.59185350  0.43520028  0.18850528  1
  Bi2+  Bi117  1  0.59131759  0.52688150  0.70119772  1
  Bi2+  Bi118  1  0.64511694  0.76800011  0.21050970  1
  Bi2+  Bi119  1  0.60514880  0.79441096  0.71184495  1
  Bi2+  Bi120  1  0.84317821  -0.04057092  0.18173620  1
  Bi2+  Bi121  1  0.89249421  0.04087556  0.70981802  1
  Bi2+  Bi122  1  0.87021218  0.22381057  0.21680657  1
  Bi2+  Bi123  1  0.87083221  0.23856515  0.71237471  1
  Bi2+  Bi124  1  0.88547972  0.50818620  0.17299452  1
  Bi2+  Bi125  1  0.85785005  0.49376912  0.71405013  1
  Bi2+  Bi126  1  0.93992284  0.79003470  0.17951266  1
  Bi2+  Bi127  1  0.85874417  0.75895763  0.70346940  1
  S2-  S128  1  -0.00204489  0.16038899  0.15846463  1
  S2-  S129  1  -0.01032878  0.22994418  0.64242942  1
  S2-  S130  1  0.04343055  0.42278561  0.15509139  1
  S2-  S131  1  -0.00721420  0.49457110  0.65032021  1
  S2-  S132  1  0.00505306  0.63155126  0.14363785  1
  S2-  S133  1  0.00094611  0.71246718  0.65182810  1
  S2-  S134  1  0.10079606  0.85289147  0.13661670  1
  S2-  S135  1  -0.05603791  0.89996722  0.67233229  1
  S2-  S136  1  0.28115289  0.12776884  0.16536452  1
  S2-  S137  1  0.22500626  0.12779162  0.65161000  1
  S2-  S138  1  0.21335760  0.36790385  0.19983297  1
  S2-  S139  1  0.15446461  0.36939978  0.64194010  1
  S2-  S140  1  0.23753774  0.56901667  0.13573607  1
  S2-  S141  1  0.21807659  0.61602652  0.65765479  1
  S2-  S142  1  0.33516746  0.88017087  0.15056653  1
  S2-  S143  1  0.15414429  0.86720861  0.64759873  1
  S2-  S144  1  0.50110408  0.13136430  0.16420063  1
  S2-  S145  1  0.47088500  0.11267400  0.65068568  1
  S2-  S146  1  0.39707343  0.37393160  0.14577552  1
  S2-  S147  1  0.36883719  0.37652439  0.64004929  1
  S2-  S148  1  0.52503331  0.66413189  0.15466213  1
  S2-  S149  1  0.45576974  0.60983442  0.65390935  1
  S2-  S150  1  0.54231392  0.90589528  0.17363210  1
  S2-  S151  1  0.37992969  0.86462113  0.64171903  1
  S2-  S152  1  0.76217666  0.12120737  0.15764952  1
  S2-  S153  1  0.75695242  0.12911801  0.65728191  1
  S2-  S154  1  0.85160478  0.34922234  0.14440115  1
  S2-  S155  1  0.80039431  0.36755035  0.66074268  1
  S2-  S156  1  0.72532456  0.52522988  0.14015578  1
  S2-  S157  1  0.78217238  0.62361124  0.65973500  1
  S2-  S158  1  0.76075156  0.75083923  0.13874976  1
  S2-  S159  1  0.73911585  0.85922893  0.66102001  1
  S2-  S160  1  0.22294665  -0.02583200  0.35540851  1
  S2-  S161  1  0.11075793  -0.08059737  0.85543159  1
  S2-  S162  1  0.13723235  0.33875113  0.35338463  1
  S2-  S163  1  0.12008441  0.24855656  0.85122057  1
  S2-  S164  1  0.03380988  0.52322840  0.34768531  1
  S2-  S165  1  0.13964909  0.47837168  0.81373071  1
  S2-  S166  1  0.15128752  0.74747102  0.34321001  1
  S2-  S167  1  0.09270907  0.71303555  0.81439204  1
  S2-  S168  1  0.40955160  -0.03634527  0.30209544  1
  S2-  S169  1  0.37852984  -0.02979958  0.85140887  1
  S2-  S170  1  0.37275758  0.15949334  0.35258718  1
  S2-  S171  1  0.39397994  0.22398997  0.84611880  1
  S2-  S172  1  0.25976319  0.52503212  0.35690590  1
  S2-  S173  1  0.36132293  0.46597749  0.83201659  1
  S2-  S174  1  0.41153988  0.74741575  0.33870737  1
  S2-  S175  1  0.28134141  0.76732329  0.85572209  1
  S2-  S176  1  0.60837376  -0.00944848  0.35207135  1
  S2-  S177  1  0.61430719  -0.01081797  0.85605189  1
  S2-  S178  1  0.67571278  0.24025049  0.34930641  1
  S2-  S179  1  0.63762721  0.27433578  0.85127338  1
  S2-  S180  1  0.70724926  0.49684982  0.35772115  1
  S2-  S181  1  0.73360040  0.50892047  0.85481121  1
  S2-  S182  1  0.64863879  0.74557988  0.34734500  1
  S2-  S183  1  0.70275554  0.76697578  0.85725825  1
  S2-  S184  1  0.88398424  -0.12273269  0.36594395  1
  S2-  S185  1  0.87027089  -0.07689626  0.85561493  1
  S2-  S186  1  0.89279411  0.33905406  0.35045828  1
  S2-  S187  1  0.86669177  0.28387106  0.83586335  1
  S2-  S188  1  0.88054910  0.49892948  0.26717921  1
  S2-  S189  1  0.95668411  0.48919200  0.85183214  1
  S2-  S190  1  0.86287084  0.65771628  0.35025115  1
  S2-  S191  1  0.89028585  0.71725664  0.81043230  1
  S2-  S192  1  -0.00048730  0.11981606  0.45957253  1
  S2-  S193  1  -0.01387611  0.13327892  0.95053093  1
  S2-  S194  1  0.00173250  0.36995866  0.45862046  1
  S2-  S195  1  -0.01740021  0.37925284  0.95440870  1
  S2-  S196  1  0.00181410  0.62145168  0.45699281  1
  S2-  S197  1  -0.01366137  0.63988415  0.93723021  1
  S2-  S198  1  0.00772026  0.87217800  0.46615832  1
  S2-  S199  1  -0.01096129  0.88395396  0.95564344  1
  S2-  S200  1  0.25183696  0.12233537  0.45131422  1
  S2-  S201  1  0.23668102  0.13418415  0.95762248  1
  S2-  S202  1  0.25747385  0.36474306  0.45571202  1
  S2-  S203  1  0.23771063  0.38561352  0.93977414  1
  S2-  S204  1  0.25210610  0.62241550  0.45677667  1
  S2-  S205  1  0.23407854  0.62560967  0.93896132  1
  S2-  S206  1  0.25219650  0.87119657  0.45834781  1
  S2-  S207  1  0.23952560  0.88591018  0.96099471  1
  S2-  S208  1  0.50328817  0.11945979  0.45047092  1
  S2-  S209  1  0.48983118  0.13470759  0.95787462  1
  S2-  S210  1  0.50360787  0.36847046  0.46293342  1
  S2-  S211  1  0.48936213  0.38281152  0.95039618  1
  S2-  S212  1  0.50112292  0.61779963  0.45085871  1
  S2-  S213  1  0.48844015  0.63208659  0.95361791  1
  S2-  S214  1  0.49859439  0.87559242  0.45598446  1
  S2-  S215  1  0.48730906  0.88215653  0.96428624  1
  S2-  S216  1  0.75158364  0.11671027  0.45439329  1
  S2-  S217  1  0.73344086  0.13086615  0.95126543  1
  S2-  S218  1  0.75257667  0.36799243  0.45679998  1
  S2-  S219  1  0.73431111  0.38025236  0.96014813  1
  S2-  S220  1  0.75041436  0.62296277  0.45816285  1
  S2-  S221  1  0.73219120  0.63851077  0.95425560  1
  S2-  S222  1  0.74750480  0.87382454  0.45920359  1
  S2-  S223  1  0.73326389  0.88511161  0.96284098  1
  S2-  S224  1  0.11273339  0.01082924  0.04824949  1
  S2-  S225  1  0.12795462  -0.00314434  0.54673632  1
  S2-  S226  1  0.11739900  0.26619417  0.05597775  1
  S2-  S227  1  0.13156910  0.24088798  0.54257048  1
  S2-  S228  1  0.11187695  0.50215324  0.03304664  1
  S2-  S229  1  0.13478863  0.49473295  0.54012189  1
  S2-  S230  1  0.11610502  0.75130472  0.02962715  1
  S2-  S231  1  0.13400993  0.73896639  0.54788818  1
  S2-  S232  1  0.36202006  0.00863112  0.05389519  1
  S2-  S233  1  0.37794120  -0.00176581  0.54259610  1
  S2-  S234  1  0.35898781  0.25991067  0.04713385  1
  S2-  S235  1  0.37917670  0.23945896  0.54324114  1
  S2-  S236  1  0.35953961  0.50466873  0.03662740  1
  S2-  S237  1  0.37893122  0.49506819  0.54065378  1
  S2-  S238  1  0.35659802  0.75071409  0.04755656  1
  S2-  S239  1  0.37837188  0.73986498  0.54457303  1
  S2-  S240  1  0.60943940  0.00568696  0.05849086  1
  S2-  S241  1  0.62852799  -0.00615947  0.55457306  1
  S2-  S242  1  0.60988300  0.25921277  0.05242877  1
  S2-  S243  1  0.62676456  0.24069638  0.55245054  1
  S2-  S244  1  0.60664611  0.50930706  0.03693904  1
  S2-  S245  1  0.62856926  0.49415058  0.55352973  1
  S2-  S246  1  0.60434470  0.76134528  0.04661138  1
  S2-  S247  1  0.62709067  0.74496456  0.55451430  1
  S2-  S248  1  0.86398361  0.00647050  0.04718156  1
  S2-  S249  1  0.87707139  -0.00587124  0.54990778  1
  S2-  S250  1  0.85906753  0.25473779  0.04078983  1
  S2-  S251  1  0.87468964  0.23991937  0.54272955  1
  S2-  S252  1  0.86071028  0.51150022  0.03888348  1
  S2-  S253  1  0.87385018  0.49487585  0.55060511  1
  S2-  S254  1  0.86729967  0.75870005  0.03363755  1
  S2-  S255  1  0.87566057  0.74599956  0.54815065  1
