# generated using pymatgen
data_La6Ce6Pr19Nd20Sm13(BiS2)64
_symmetry_space_group_name_H-M   'P 1'
_cell_length_a   16.08409383
_cell_length_b   16.06150736
_cell_length_c   27.45508228
_cell_angle_alpha   90.07442683
_cell_angle_beta   90.14102424
_cell_angle_gamma   90.04613520
_symmetry_Int_Tables_number   1
_chemical_formula_structural   La6Ce6Pr19Nd20Sm13(BiS2)64
_chemical_formula_sum   'La6 Ce6 Pr19 Nd20 Sm13 Bi64 S128'
_cell_volume   7092.57316977
_cell_formula_units_Z   1
loop_
 _symmetry_equiv_pos_site_id
 _symmetry_equiv_pos_as_xyz
  1  'x, y, z'
loop_
 _atom_type_symbol
 _atom_type_oxidation_number
  La3+  3.0
  Ce3+  3.0
  Pr3+  3.0
  Nd3+  3.0
  Sm3+  3.0
  Bi2+  2.0
  S2-  -2.0
loop_
 _atom_site_type_symbol
 _atom_site_label
 _atom_site_symmetry_multiplicity
 _atom_site_fract_x
 _atom_site_fract_y
 _atom_site_fract_z
 _atom_site_occupancy
  La3+  La0  1  0.49787720  0.62756548  0.60753284  1
  La3+  La1  1  0.37937823  0.74067465  0.42910474  1
  La3+  La2  1  0.26412360  0.59804594  0.07910457  1
  La3+  La3  1  0.75355288  0.10134346  0.10872375  1
  La3+  La4  1  -0.00566244  0.60204378  0.08165041  1
  La3+  La5  1  0.12567553  0.74828669  0.38770840  1
  Ce3+  Ce6  1  -0.00019926  0.61858993  0.55531312  1
  Ce3+  Ce7  1  0.62889016  0.47567248  0.94250571  1
  Ce3+  Ce8  1  0.25196296  0.86193280  0.55372208  1
  Ce3+  Ce9  1  0.63060999  0.72968912  0.93343607  1
  Ce3+  Ce10  1  -0.00149647  0.36952820  0.54818188  1
  Ce3+  Ce11  1  0.75819595  0.60780011  0.04733748  1
  Pr3+  Pr12  1  0.25416044  0.84728784  0.05860426  1
  Pr3+  Pr13  1  0.88767657  -0.00560826  0.91473623  1
  Pr3+  Pr14  1  0.37453847  -0.00827873  0.44194491  1
  Pr3+  Pr15  1  0.13864751  -0.02746176  0.92756354  1
  Pr3+  Pr16  1  0.13214485  0.72112589  0.93431778  1
  Pr3+  Pr17  1  0.86909211  0.48789860  0.42755158  1
  Pr3+  Pr18  1  0.24908493  0.11648615  0.56008934  1
  Pr3+  Pr19  1  0.37561453  0.49708094  0.43844599  1
  Pr3+  Pr20  1  0.49895294  0.36797057  0.56633756  1
  Pr3+  Pr21  1  0.00308458  0.35176399  0.06244100  1
  Pr3+  Pr22  1  0.87926478  0.47351980  0.93374561  1
  Pr3+  Pr23  1  0.87258523  0.74558427  0.43838562  1
  Pr3+  Pr24  1  -0.00183169  0.11878040  0.57231707  1
  Pr3+  Pr25  1  0.87236328  0.23645231  0.43542223  1
  Pr3+  Pr26  1  0.75409738  0.35201754  0.06208218  1
  Pr3+  Pr27  1  0.75132945  0.61491536  0.56878465  1
  Pr3+  Pr28  1  0.50296910  0.10412757  0.06415343  1
  Pr3+  Pr29  1  0.38358263  0.22998593  0.92175377  1
  Pr3+  Pr30  1  0.62489312  0.23647941  0.43577550  1
  Nd3+  Nd31  1  0.51004697  0.60558637  0.06092341  1
  Nd3+  Nd32  1  0.12305384  0.24138467  0.44244043  1
  Nd3+  Nd33  1  0.50240578  0.86660041  0.56027883  1
  Nd3+  Nd34  1  0.00946331  0.09610999  0.06834164  1
  Nd3+  Nd35  1  0.62731083  -0.00741288  0.44138459  1
  Nd3+  Nd36  1  0.50443920  0.34923217  0.06471148  1
  Nd3+  Nd37  1  0.25365765  0.10362677  0.06499551  1
  Nd3+  Nd38  1  0.75132436  0.11376418  0.57489531  1
  Nd3+  Nd39  1  0.88324880  0.72723956  0.92591759  1
  Nd3+  Nd40  1  0.00219894  0.87119591  0.57062133  1
  Nd3+  Nd41  1  0.38181451  -0.02428918  0.94162502  1
  Nd3+  Nd42  1  0.50183033  0.12133960  0.56791644  1
  Nd3+  Nd43  1  0.37384795  0.24269012  0.43995231  1
  Nd3+  Nd44  1  0.25348358  0.61806133  0.55949509  1
  Nd3+  Nd45  1  0.75009527  0.37061081  0.56455038  1
  Nd3+  Nd46  1  0.12943005  0.48279754  0.94272133  1
  Nd3+  Nd47  1  0.12199181  -0.00960447  0.43891914  1
  Nd3+  Nd48  1  0.87342583  -0.00903159  0.44473224  1
  Nd3+  Nd49  1  0.62316490  0.49188150  0.44498376  1
  Nd3+  Nd50  1  0.75456188  0.85959225  0.58125470  1
  Sm3+  Sm51  1  0.50793046  0.85556641  0.05282573  1
  Sm3+  Sm52  1  0.87961175  0.22429479  0.94937013  1
  Sm3+  Sm53  1  0.12386101  0.50091106  0.43764754  1
  Sm3+  Sm54  1  0.38211673  0.47807158  0.93675979  1
  Sm3+  Sm55  1  0.63245316  -0.01998360  0.94129316  1
  Sm3+  Sm56  1  0.62709827  0.22394367  0.94365857  1
  Sm3+  Sm57  1  0.00511175  0.85494057  0.04519377  1
  Sm3+  Sm58  1  0.62257378  0.74044152  0.44323345  1
  Sm3+  Sm59  1  0.37968627  0.71850908  0.93366850  1
  Sm3+  Sm60  1  0.13169826  0.22669958  0.94679369  1
  Sm3+  Sm61  1  0.25890043  0.35438560  0.05940938  1
  Sm3+  Sm62  1  0.76088362  0.86351715  0.04942434  1
  Sm3+  Sm63  1  0.25015379  0.37069439  0.55247726  1
  Bi2+  Bi64  1  -0.00951624  0.15191235  0.29476487  1
  Bi2+  Bi65  1  -0.00336607  0.16026496  0.78783574  1
  Bi2+  Bi66  1  0.05534487  0.35383497  0.28668323  1
  Bi2+  Bi67  1  0.02249137  0.36345802  0.78483898  1
  Bi2+  Bi68  1  -0.00507934  0.62537617  0.28015362  1
  Bi2+  Bi69  1  0.01698557  0.63595656  0.79419972  1
  Bi2+  Bi70  1  -0.10907549  0.90360669  0.32150745  1
  Bi2+  Bi71  1  0.00173672  0.88374484  0.79747971  1
  Bi2+  Bi72  1  0.24989852  0.11963976  0.28732615  1
  Bi2+  Bi73  1  0.26164979  0.20004475  0.80296565  1
  Bi2+  Bi74  1  0.25079607  0.38249855  0.26909711  1
  Bi2+  Bi75  1  0.21376546  0.40465512  0.75284081  1
  Bi2+  Bi76  1  0.25024218  0.62635365  0.28507570  1
  Bi2+  Bi77  1  0.25996446  0.68710767  0.80574129  1
  Bi2+  Bi78  1  0.27973059  0.92325957  0.29022780  1
  Bi2+  Bi79  1  0.24705760  0.93368385  0.78572422  1
  Bi2+  Bi80  1  0.49850938  0.11282629  0.28702620  1
  Bi2+  Bi81  1  0.44681680  0.12742165  0.78922236  1
  Bi2+  Bi82  1  0.43437222  0.29887882  0.25719971  1
  Bi2+  Bi83  1  0.49665588  0.36558849  0.79709781  1
  Bi2+  Bi84  1  0.49812949  0.60964748  0.28836371  1
  Bi2+  Bi85  1  0.50868568  0.63355859  0.80359148  1
  Bi2+  Bi86  1  0.53109784  0.86034215  0.28804619  1
  Bi2+  Bi87  1  0.51274682  0.88361253  0.79428275  1
  Bi2+  Bi88  1  0.74357498  0.19136483  0.31100247  1
  Bi2+  Bi89  1  0.72594737  0.19321314  0.80172725  1
  Bi2+  Bi90  1  0.73447669  0.42009624  0.30116279  1
  Bi2+  Bi91  1  0.81792472  0.36435115  0.82062856  1
  Bi2+  Bi92  1  0.73310301  0.66359612  0.31022306  1
  Bi2+  Bi93  1  0.75947857  0.53397691  0.77737033  1
  Bi2+  Bi94  1  0.70712672  0.86146203  0.34478970  1
  Bi2+  Bi95  1  0.71576146  1.00358713  0.76552956  1
  Bi2+  Bi96  1  0.10012578  0.00300729  0.25900618  1
  Bi2+  Bi97  1  0.14718136  0.07524711  0.72774082  1
  Bi2+  Bi98  1  0.18686937  0.23338069  0.18763719  1
  Bi2+  Bi99  1  0.09470824  0.25631714  0.69469796  1
  Bi2+  Bi100  1  0.11381971  0.47886072  0.20513203  1
  Bi2+  Bi101  1  0.09313697  0.54180715  0.70958730  1
  Bi2+  Bi102  1  0.11580771  0.79180581  0.18727944  1
  Bi2+  Bi103  1  0.15613040  0.79156258  0.72428579  1
  Bi2+  Bi104  1  0.37468911  0.05251155  0.20732607  1
  Bi2+  Bi105  1  0.40216038  -0.01707741  0.71303419  1
  Bi2+  Bi106  1  0.37689390  0.22511879  0.14986657  1
  Bi2+  Bi107  1  0.36829558  0.25069793  0.71264015  1
  Bi2+  Bi108  1  0.39411902  0.47132432  0.20341190  1
  Bi2+  Bi109  1  0.36551656  0.49889511  0.71103342  1
  Bi2+  Bi110  1  0.37146713  0.76605165  0.18998803  1
  Bi2+  Bi111  1  0.35489152  0.77315550  0.70864521  1
  Bi2+  Bi112  1  0.63136099  -0.04149981  0.20850847  1
  Bi2+  Bi113  1  0.57724992  0.04943861  0.68548722  1
  Bi2+  Bi114  1  0.62380182  0.26272710  0.19685880  1
  Bi2+  Bi115  1  0.64825998  0.23494389  0.69522161  1
  Bi2+  Bi116  1  0.65114312  0.56173990  0.21598923  1
  Bi2+  Bi117  1  0.63319100  0.42462993  0.71804353  1
  Bi2+  Bi118  1  0.62384503  0.75442986  0.20404912  1
  Bi2+  Bi119  1  0.62599966  0.78589576  0.72274236  1
  Bi2+  Bi120  1  0.90216902  -0.03695030  0.21288756  1
  Bi2+  Bi121  1  0.89749382  0.00192581  0.69693679  1
  Bi2+  Bi122  1  0.99346311  0.24620985  0.19679990  1
  Bi2+  Bi123  1  0.84352404  0.26645163  0.71824103  1
  Bi2+  Bi124  1  0.83391359  0.49534179  0.19919455  1
  Bi2+  Bi125  1  0.89583820  0.48143912  0.70025037  1
  Bi2+  Bi126  1  0.81605287  0.78542583  0.23873023  1
  Bi2+  Bi127  1  0.86693404  0.73058033  0.71662226  1
  S2-  S128  1  -0.08587621  0.10056027  0.15203980  1
  S2-  S129  1  0.03472440  -0.00128711  0.64686613  1
  S2-  S130  1  -0.01670315  0.45072917  0.14476863  1
  S2-  S131  1  -0.00713021  0.36271419  0.64441010  1
  S2-  S132  1  0.03320770  0.64874156  0.17883782  1
  S2-  S133  1  -0.03475241  0.62838796  0.65249857  1
  S2-  S134  1  -0.01429853  0.87073944  0.14223544  1
  S2-  S135  1  -0.10306056  0.84615457  0.65149491  1
  S2-  S136  1  0.13997142  0.09097519  0.13921326  1
  S2-  S137  1  0.24727838  0.15124070  0.65791919  1
  S2-  S138  1  0.25207246  0.45199319  0.14128557  1
  S2-  S139  1  0.26238622  0.39973775  0.64844360  1
  S2-  S140  1  0.24155079  0.67304730  0.17225470  1
  S2-  S141  1  0.33378840  0.62631224  0.64932570  1
  S2-  S142  1  0.26478982  0.88175624  0.15707260  1
  S2-  S143  1  0.25143703  0.87501077  0.65102314  1
  S2-  S144  1  0.59095825  0.10471401  0.15141826  1
  S2-  S145  1  0.48694728  0.24215938  0.64047591  1
  S2-  S146  1  0.53311495  0.40335096  0.15776348  1
  S2-  S147  1  0.49823490  0.46606712  0.65141480  1
  S2-  S148  1  0.42226861  0.61452485  0.14518885  1
  S2-  S149  1  0.55505902  0.63445436  0.71286953  1
  S2-  S150  1  0.50582438  0.86223899  0.15043242  1
  S2-  S151  1  0.50308825  0.79543750  0.65038942  1
  S2-  S152  1  0.74520915  0.15763184  0.21787498  1
  S2-  S153  1  0.87588494  0.14861103  0.64615534  1
  S2-  S154  1  0.76185706  0.34872321  0.16204782  1
  S2-  S155  1  0.75285052  0.48380893  0.64232554  1
  S2-  S156  1  0.83211496  0.62184816  0.13384641  1
  S2-  S157  1  0.73607857  0.72333504  0.65182266  1
  S2-  S158  1  0.75334155  0.93257156  0.14147004  1
  S2-  S159  1  0.73824898  0.98809662  0.65025245  1
  S2-  S160  1  0.12407205  -0.07851282  0.34839851  1
  S2-  S161  1  0.03724558  0.01458964  0.85007577  1
  S2-  S162  1  0.13027839  0.21437853  0.34571977  1
  S2-  S163  1  0.11981929  0.25310857  0.85009226  1
  S2-  S164  1  0.12080247  0.57276841  0.34858097  1
  S2-  S165  1  0.14009888  0.58966704  0.86267492  1
  S2-  S166  1  0.11674949  0.74024669  0.27937029  1
  S2-  S167  1  0.14558664  0.83255898  0.85277813  1
  S2-  S168  1  0.41032090  -0.04304178  0.34584969  1
  S2-  S169  1  0.32633787  0.03407743  0.85411223  1
  S2-  S170  1  0.39594482  0.20086073  0.34567461  1
  S2-  S171  1  0.36816907  0.36963090  0.85750913  1
  S2-  S172  1  0.37275141  0.53820510  0.34006977  1
  S2-  S173  1  0.36547347  0.59179721  0.86127621  1
  S2-  S174  1  0.28703790  0.74938153  0.34207087  1
  S2-  S175  1  0.38592701  0.79269702  0.84274886  1
  S2-  S176  1  0.62251100  0.10093719  0.36186895  1
  S2-  S177  1  0.59864757  -0.00400032  0.84530883  1
  S2-  S178  1  0.62919255  0.31233768  0.34118752  1
  S2-  S179  1  0.53171890  0.22842967  0.85979530  1
  S2-  S180  1  0.61769719  0.53125879  0.34748166  1
  S2-  S181  1  0.58234156  0.49575517  0.84950517  1
  S2-  S182  1  0.51541877  0.73620733  0.35833920  1
  S2-  S183  1  0.63225736  0.74224619  0.83459343  1
  S2-  S184  1  0.86630249  0.10173093  0.36507509  1
  S2-  S185  1  0.84014230  -0.05801003  0.81966172  1
  S2-  S186  1  0.84681627  0.33591756  0.35097260  1
  S2-  S187  1  0.87667583  0.15350551  0.85977517  1
  S2-  S188  1  0.86116683  0.55142717  0.33317403  1
  S2-  S189  1  0.89928691  0.53729515  0.84111879  1
  S2-  S190  1  0.95876410  0.74604215  0.35073131  1
  S2-  S191  1  0.89346246  0.74614423  0.82522544  1
  S2-  S192  1  0.00226448  0.11614470  0.46195884  1
  S2-  S193  1  0.00985460  0.10726397  0.96100937  1
  S2-  S194  1  0.00319987  0.37009444  0.44303175  1
  S2-  S195  1  0.00523152  0.35057091  0.95413153  1
  S2-  S196  1  -0.00357015  0.61508269  0.45142374  1
  S2-  S197  1  -0.00064819  0.60292277  0.95767021  1
  S2-  S198  1  0.00024103  0.86826966  0.46048773  1
  S2-  S199  1  0.00364920  0.85295979  0.94308547  1
  S2-  S200  1  0.24877693  0.11673068  0.45217379  1
  S2-  S201  1  0.25413892  0.10571172  0.95810503  1
  S2-  S202  1  0.24669384  0.36991242  0.44570076  1
  S2-  S203  1  0.25113684  0.35584917  0.95646658  1
  S2-  S204  1  0.24658654  0.62068639  0.45403907  1
  S2-  S205  1  0.25796969  0.60025296  0.96728677  1
  S2-  S206  1  0.24788568  0.86545933  0.45024365  1
  S2-  S207  1  0.26198269  0.84697336  0.95281843  1
  S2-  S208  1  0.49617669  0.11799339  0.46238044  1
  S2-  S209  1  0.50385155  0.10014305  0.95707866  1
  S2-  S210  1  0.49779178  0.36600005  0.45329720  1
  S2-  S211  1  0.50636291  0.35332901  0.95877854  1
  S2-  S212  1  0.50207737  0.61582618  0.45513874  1
  S2-  S213  1  0.50936113  0.60416851  0.95660688  1
  S2-  S214  1  0.50276167  0.86993546  0.45652449  1
  S2-  S215  1  0.50722339  0.85345865  0.94940349  1
  S2-  S216  1  0.74889059  0.11525812  0.46772409  1
  S2-  S217  1  0.75012385  0.10384438  0.94903218  1
  S2-  S218  1  0.74670028  0.36592903  0.45925502  1
  S2-  S219  1  0.75227454  0.34655476  0.95422897  1
  S2-  S220  1  0.74786608  0.61845804  0.45583857  1
  S2-  S221  1  0.75516943  0.60331303  0.94167947  1
  S2-  S222  1  0.74800702  0.86791816  0.46711074  1
  S2-  S223  1  0.75797153  0.85676654  0.94376503  1
  S2-  S224  1  0.13320138  -0.02682707  0.03570388  1
  S2-  S225  1  0.12920686  -0.00886584  0.54347292  1
  S2-  S226  1  0.13259485  0.23399475  0.04864337  1
  S2-  S227  1  0.12594111  0.24452557  0.54741514  1
  S2-  S228  1  0.12648825  0.47878042  0.04586736  1
  S2-  S229  1  0.12668594  0.49378521  0.54331071  1
  S2-  S230  1  0.12561732  0.72414702  0.04713892  1
  S2-  S231  1  0.12537361  0.74106102  0.56179730  1
  S2-  S232  1  0.37963396  -0.02276527  0.04744042  1
  S2-  S233  1  0.37764970  -0.00635752  0.55016004  1
  S2-  S234  1  0.37808264  0.22931744  0.03449241  1
  S2-  S235  1  0.36938964  0.24479239  0.54358927  1
  S2-  S236  1  0.38797973  0.47498141  0.04249403  1
  S2-  S237  1  0.37391897  0.49177211  0.54344329  1
  S2-  S238  1  0.38613644  0.73078856  0.04095167  1
  S2-  S239  1  0.37962164  0.74049475  0.54283068  1
  S2-  S240  1  0.63022028  -0.01938688  0.04362203  1
  S2-  S241  1  0.62247930  -0.00666500  0.54706984  1
  S2-  S242  1  0.63247593  0.22470226  0.04784007  1
  S2-  S243  1  0.62947054  0.24257712  0.54661079  1
  S2-  S244  1  0.63253894  0.48017973  0.04877301  1
  S2-  S245  1  0.62030682  0.49603095  0.54868525  1
  S2-  S246  1  0.63426059  0.73503851  0.04315160  1
  S2-  S247  1  0.62283924  0.73891634  0.54699648  1
  S2-  S248  1  0.88385206  -0.02034894  0.03565475  1
  S2-  S249  1  0.87504140  -0.00827043  0.54819954  1
  S2-  S250  1  0.87645906  0.22388038  0.05225648  1
  S2-  S251  1  0.87312829  0.24697990  0.54215828  1
  S2-  S252  1  0.87618778  0.47632153  0.03883896  1
  S2-  S253  1  0.87525437  0.49255676  0.53688362  1
  S2-  S254  1  0.87930570  0.73590872  0.03356465  1
  S2-  S255  1  0.87604983  0.74116466  0.54442433  1
