# generated using pymatgen
data_La6Ce6Pr19Nd20Sm13(BiS2)64
_symmetry_space_group_name_H-M   'P 1'
_cell_length_a   16.17198757
_cell_length_b   16.17442116
_cell_length_c   27.14709114
_cell_angle_alpha   89.92900067
_cell_angle_beta   90.15035979
_cell_angle_gamma   90.06180505
_symmetry_Int_Tables_number   1
_chemical_formula_structural   La6Ce6Pr19Nd20Sm13(BiS2)64
_chemical_formula_sum   'La6 Ce6 Pr19 Nd20 Sm13 Bi64 S128'
_cell_volume   7100.89951554
_cell_formula_units_Z   1
loop_
 _symmetry_equiv_pos_site_id
 _symmetry_equiv_pos_as_xyz
  1  'x, y, z'
loop_
 _atom_type_symbol
 _atom_type_oxidation_number
  La3+  3.0
  Ce3+  3.0
  Pr3+  3.0
  Nd3+  3.0
  Sm3+  3.0
  Bi2+  2.0
  S2-  -2.0
loop_
 _atom_site_type_symbol
 _atom_site_label
 _atom_site_symmetry_multiplicity
 _atom_site_fract_x
 _atom_site_fract_y
 _atom_site_fract_z
 _atom_site_occupancy
  La3+  La0  1  0.36918076  0.49508536  0.92209093  1
  La3+  La1  1  0.12195653  0.50320927  0.38952448  1
  La3+  La2  1  0.61823618  0.74037881  0.42786307  1
  La3+  La3  1  0.37280364  0.23623678  0.92261647  1
  La3+  La4  1  0.74947377  0.85458916  0.57233459  1
  La3+  La5  1  0.01031539  0.63392573  0.08778141  1
  Ce3+  Ce6  1  0.25497960  0.61912832  0.06386893  1
  Ce3+  Ce7  1  -0.00312388  0.60898111  0.55585450  1
  Ce3+  Ce8  1  -0.00155582  0.86283320  0.55536024  1
  Ce3+  Ce9  1  0.86898830  -0.01405218  0.44269608  1
  Ce3+  Ce10  1  0.50217040  0.37148144  0.05269288  1
  Ce3+  Ce11  1  0.75527699  0.11942552  0.05747682  1
  Pr3+  Pr12  1  0.12791538  0.74408899  0.94078021  1
  Pr3+  Pr13  1  0.12297896  -0.00968323  0.42451306  1
  Pr3+  Pr14  1  0.12576022  0.49398401  0.94681391  1
  Pr3+  Pr15  1  0.50816180  0.86701016  0.05849109  1
  Pr3+  Pr16  1  0.61999273  0.48580260  0.41653268  1
  Pr3+  Pr17  1  0.88018261  0.73465556  0.93253955  1
  Pr3+  Pr18  1  0.86711660  0.48569148  0.43174831  1
  Pr3+  Pr19  1  0.36622007  0.73550546  0.44284719  1
  Pr3+  Pr20  1  0.01582190  0.36197799  0.08518584  1
  Pr3+  Pr21  1  0.36870734  0.23542188  0.43848562  1
  Pr3+  Pr22  1  0.26384996  0.12022038  0.07023215  1
  Pr3+  Pr23  1  0.63201006  -0.00456924  0.93744484  1
  Pr3+  Pr24  1  0.24602508  0.60225802  0.57195995  1
  Pr3+  Pr25  1  0.37907428  0.74292303  0.94068346  1
  Pr3+  Pr26  1  0.74730914  0.36635880  0.56402518  1
  Pr3+  Pr27  1  0.74317031  0.60840401  0.56199449  1
  Pr3+  Pr28  1  0.74590673  0.10970266  0.55736105  1
  Pr3+  Pr29  1  0.12780645  -0.00306471  0.94346369  1
  Pr3+  Pr30  1  0.75626124  0.37043571  0.07269841  1
  Nd3+  Nd31  1  0.87165739  0.73512825  0.43563138  1
  Nd3+  Nd32  1  0.38031237  -0.00562899  0.94151325  1
  Nd3+  Nd33  1  0.12162331  0.73599074  0.44500274  1
  Nd3+  Nd34  1  0.36630434  0.48565202  0.44025360  1
  Nd3+  Nd35  1  0.49603733  0.85899560  0.56299311  1
  Nd3+  Nd36  1  0.61918503  -0.01591052  0.43372993  1
  Nd3+  Nd37  1  0.87959209  -0.00420584  0.93636307  1
  Nd3+  Nd38  1  0.86928192  0.23856806  0.43757027  1
  Nd3+  Nd39  1  0.61928069  0.23928003  0.43825483  1
  Nd3+  Nd40  1  -0.00227775  0.36137604  0.55324180  1
  Nd3+  Nd41  1  0.50463112  0.61759791  0.05493092  1
  Nd3+  Nd42  1  0.49494686  0.36214500  0.56226566  1
  Nd3+  Nd43  1  0.62922265  0.24863629  0.94414734  1
  Nd3+  Nd44  1  0.00868261  0.11744533  0.06989041  1
  Nd3+  Nd45  1  0.24292184  0.11415520  0.56803868  1
  Nd3+  Nd46  1  0.63177524  0.74142987  0.93738289  1
  Nd3+  Nd47  1  0.12205538  0.24090520  0.42858727  1
  Nd3+  Nd48  1  0.88002904  0.49530082  0.95475508  1
  Nd3+  Nd49  1  0.24662839  0.86279086  0.55989307  1
  Nd3+  Nd50  1  0.49927227  0.11195902  0.55926239  1
  Sm3+  Sm51  1  0.62943344  0.49277785  0.94556468  1
  Sm3+  Sm52  1  0.75446252  0.62150780  0.06907042  1
  Sm3+  Sm53  1  0.50511277  0.12075155  0.06041023  1
  Sm3+  Sm54  1  0.87964625  0.24780938  0.95167437  1
  Sm3+  Sm55  1  0.75500206  0.86920460  0.05270357  1
  Sm3+  Sm56  1  0.36934513  -0.01114968  0.45200176  1
  Sm3+  Sm57  1  0.25625164  0.87077795  0.05354572  1
  Sm3+  Sm58  1  0.26107924  0.36875933  0.06015190  1
  Sm3+  Sm59  1  0.00278714  0.87154252  0.05721263  1
  Sm3+  Sm60  1  0.12624185  0.24440299  0.94854750  1
  Sm3+  Sm61  1  -0.00295374  0.11186027  0.54888316  1
  Sm3+  Sm62  1  0.49667089  0.61102058  0.55226935  1
  Sm3+  Sm63  1  0.24372491  0.35804852  0.56143856  1
  Bi2+  Bi64  1  0.00207115  0.06714370  0.29024532  1
  Bi2+  Bi65  1  -0.01386127  0.14255581  0.75454425  1
  Bi2+  Bi66  1  -0.00694773  0.37675626  0.28743379  1
  Bi2+  Bi67  1  -0.02322881  0.40519997  0.80198293  1
  Bi2+  Bi68  1  -0.00248850  0.64689497  0.29062650  1
  Bi2+  Bi69  1  0.00493184  0.59202344  0.75787804  1
  Bi2+  Bi70  1  0.03979169  0.86968437  0.30405242  1
  Bi2+  Bi71  1  0.02697000  0.92912750  0.75334909  1
  Bi2+  Bi72  1  0.27594128  0.10474081  0.29510381  1
  Bi2+  Bi73  1  0.22205229  0.10318459  0.80528449  1
  Bi2+  Bi74  1  0.31112277  0.38077842  0.27409618  1
  Bi2+  Bi75  1  0.24739175  0.37532320  0.79348677  1
  Bi2+  Bi76  1  0.29276131  0.65867365  0.29637694  1
  Bi2+  Bi77  1  0.24165585  0.64219255  0.79907988  1
  Bi2+  Bi78  1  0.22970317  0.90528914  0.30988139  1
  Bi2+  Bi79  1  0.21778970  0.90615872  0.79403916  1
  Bi2+  Bi80  1  0.54701220  0.11301810  0.30653224  1
  Bi2+  Bi81  1  0.48841079  0.07394690  0.77930501  1
  Bi2+  Bi82  1  0.48878431  0.44130876  0.30200940  1
  Bi2+  Bi83  1  0.52139515  0.36936256  0.79826008  1
  Bi2+  Bi84  1  0.48993907  0.63313082  0.27634558  1
  Bi2+  Bi85  1  0.50343549  0.61083669  0.75905300  1
  Bi2+  Bi86  1  0.49346956  0.89334691  0.29516926  1
  Bi2+  Bi87  1  0.48676669  0.88242999  0.76719294  1
  Bi2+  Bi88  1  0.74000387  0.12225251  0.30178598  1
  Bi2+  Bi89  1  0.79847468  0.14786724  0.79215112  1
  Bi2+  Bi90  1  0.73309786  0.35159694  0.28957228  1
  Bi2+  Bi91  1  0.78464979  0.39509349  0.81939821  1
  Bi2+  Bi92  1  0.74776427  0.62050551  0.28346814  1
  Bi2+  Bi93  1  0.77285998  0.64753410  0.81058542  1
  Bi2+  Bi94  1  0.74087784  0.92785367  0.27755440  1
  Bi2+  Bi95  1  0.73234710  0.88823019  0.79966156  1
  Bi2+  Bi96  1  0.13566858  -0.01319990  0.21310361  1
  Bi2+  Bi97  1  0.13802712  0.03836295  0.68327290  1
  Bi2+  Bi98  1  0.13008667  0.24384824  0.21721059  1
  Bi2+  Bi99  1  0.15577167  0.23976986  0.72824546  1
  Bi2+  Bi100  1  0.11763495  0.49824072  0.18685114  1
  Bi2+  Bi101  1  0.11426981  0.44408970  0.71756744  1
  Bi2+  Bi102  1  0.13813174  0.78499375  0.21003708  1
  Bi2+  Bi103  1  0.12071694  0.76041105  0.73901862  1
  Bi2+  Bi104  1  0.42421239  0.03160829  0.22236755  1
  Bi2+  Bi105  1  0.32592935  0.01064727  0.71518125  1
  Bi2+  Bi106  1  0.42436227  0.25274089  0.21528404  1
  Bi2+  Bi107  1  0.38164610  0.24731089  0.70285266  1
  Bi2+  Bi108  1  0.35779379  0.53877732  0.21097915  1
  Bi2+  Bi109  1  0.36844025  0.50704572  0.70040831  1
  Bi2+  Bi110  1  0.35554492  0.81767111  0.22274632  1
  Bi2+  Bi111  1  0.37793403  0.76321428  0.70849253  1
  Bi2+  Bi112  1  0.62402039  0.02801416  0.20328017  1
  Bi2+  Bi113  1  0.61284038  0.02947742  0.69763777  1
  Bi2+  Bi114  1  0.61549446  0.22404566  0.21634772  1
  Bi2+  Bi115  1  0.67295199  0.27876279  0.74491317  1
  Bi2+  Bi116  1  0.57331394  0.47596984  0.20115507  1
  Bi2+  Bi117  1  0.65845623  0.48533041  0.73622229  1
  Bi2+  Bi118  1  0.62961719  0.76086721  0.19199987  1
  Bi2+  Bi119  1  0.61729737  0.73865199  0.70472648  1
  Bi2+  Bi120  1  0.94434556  0.00462316  0.17812418  1
  Bi2+  Bi121  1  0.85431163  0.03184241  0.69258834  1
  Bi2+  Bi122  1  0.87811629  0.17148040  0.22299011  1
  Bi2+  Bi123  1  0.86933929  0.29581523  0.70952238  1
  Bi2+  Bi124  1  0.83875228  0.50763640  0.20705014  1
  Bi2+  Bi125  1  0.85231061  0.49170041  0.70764492  1
  Bi2+  Bi126  1  0.88448731  0.83853554  0.22007593  1
  Bi2+  Bi127  1  0.88830584  0.74585273  0.70513780  1
  S2-  S128  1  -0.00050702  0.21871284  0.15113447  1
  S2-  S129  1  -0.00535591  0.12159442  0.64675942  1
  S2-  S130  1  -0.03552843  0.40451861  0.18117086  1
  S2-  S131  1  -0.00899790  0.37182991  0.65339985  1
  S2-  S132  1  -0.02823473  0.60214313  0.18878560  1
  S2-  S133  1  -0.01735964  0.63308995  0.65336359  1
  S2-  S134  1  -0.00144039  0.79212564  0.14424467  1
  S2-  S135  1  -0.04880528  0.86226817  0.65011018  1
  S2-  S136  1  0.18652736  0.12779241  0.16157705  1
  S2-  S137  1  0.24916617  0.23900064  0.63864914  1
  S2-  S138  1  0.19034479  0.35031451  0.15071816  1
  S2-  S139  1  0.24672512  0.45906053  0.64363919  1
  S2-  S140  1  0.17167656  0.64730696  0.14770132  1
  S2-  S141  1  0.28092675  0.65035347  0.67009171  1
  S2-  S142  1  0.25453003  0.88387679  0.15110248  1
  S2-  S143  1  0.27573973  0.86894761  0.65768110  1
  S2-  S144  1  0.40117338  0.13612332  0.13804055  1
  S2-  S145  1  0.48941602  0.14623890  0.65669269  1
  S2-  S146  1  0.45418415  0.38082047  0.14578505  1
  S2-  S147  1  0.46444062  0.37521475  0.66198495  1
  S2-  S148  1  0.54753772  0.62368978  0.15114657  1
  S2-  S149  1  0.52149556  0.62694248  0.64993337  1
  S2-  S150  1  0.50158456  0.83987418  0.15809987  1
  S2-  S151  1  0.52381144  0.87755866  0.66129219  1
  S2-  S152  1  0.74599083  0.13267605  0.15474018  1
  S2-  S153  1  0.72928426  0.13476545  0.65628771  1
  S2-  S154  1  0.72024587  0.38703351  0.17112158  1
  S2-  S155  1  0.72633336  0.48521721  0.63686325  1
  S2-  S156  1  0.75849021  0.64366577  0.16775358  1
  S2-  S157  1  0.74650819  0.71877598  0.64354781  1
  S2-  S158  1  0.74569047  0.86012487  0.15033651  1
  S2-  S159  1  0.73671264  0.92751989  0.66752383  1
  S2-  S160  1  0.13608527  0.11783964  0.35414849  1
  S2-  S161  1  0.08639853  -0.00717434  0.84634650  1
  S2-  S162  1  0.11538265  0.33924810  0.34509289  1
  S2-  S163  1  0.16870997  0.25052160  0.85393055  1
  S2-  S164  1  0.10928297  0.51220893  0.27992313  1
  S2-  S165  1  0.21995722  0.50273238  0.86116753  1
  S2-  S166  1  0.13680243  0.67588115  0.35206574  1
  S2-  S167  1  0.10371149  0.71553270  0.84298745  1
  S2-  S168  1  0.37121094  -0.01385526  0.35405503  1
  S2-  S169  1  0.37410145  0.08691184  0.85870419  1
  S2-  S170  1  0.33992140  0.24030783  0.33915937  1
  S2-  S171  1  0.38658142  0.29055292  0.82522166  1
  S2-  S172  1  0.29156296  0.50483587  0.35149571  1
  S2-  S173  1  0.43974312  0.50569529  0.82928080  1
  S2-  S174  1  0.41825055  0.75105973  0.34749765  1
  S2-  S175  1  0.36086743  0.72596924  0.84069085  1
  S2-  S176  1  0.62699318  -0.12804486  0.35622760  1
  S2-  S177  1  0.61780522  -0.01346231  0.83677127  1
  S2-  S178  1  0.60624089  0.33503132  0.35488500  1
  S2-  S179  1  0.61662357  0.23998728  0.84548688  1
  S2-  S180  1  0.75528146  0.48279038  0.34754054  1
  S2-  S181  1  0.67027720  0.51380347  0.85098792  1
  S2-  S182  1  0.62132363  0.63078056  0.34843665  1
  S2-  S183  1  0.64256528  0.75159430  0.83815746  1
  S2-  S184  1  0.85228595  -0.00307602  0.34549831  1
  S2-  S185  1  0.83898861  0.00443951  0.83947166  1
  S2-  S186  1  0.87055419  0.28534859  0.34083802  1
  S2-  S187  1  0.89839880  0.26482413  0.85455112  1
  S2-  S188  1  0.95806435  0.51395080  0.34643768  1
  S2-  S189  1  0.89241842  0.58958447  0.87148780  1
  S2-  S190  1  0.85243964  0.72075229  0.33492512  1
  S2-  S191  1  0.85988762  0.78570283  0.83273134  1
  S2-  S192  1  -0.00705706  0.11277670  0.44562389  1
  S2-  S193  1  0.00132950  0.12225522  0.95845930  1
  S2-  S194  1  -0.00607811  0.36085797  0.44863330  1
  S2-  S195  1  0.00424388  0.36826075  0.96607501  1
  S2-  S196  1  -0.00193902  0.61312457  0.45111579  1
  S2-  S197  1  0.00864792  0.62005249  0.97183075  1
  S2-  S198  1  -0.00205552  0.86302093  0.44782876  1
  S2-  S199  1  0.00058706  0.86885352  0.95134994  1
  S2-  S200  1  0.24714935  0.11044748  0.46076689  1
  S2-  S201  1  0.25057800  0.11850762  0.96162453  1
  S2-  S202  1  0.24656284  0.35956530  0.45601964  1
  S2-  S203  1  0.25193824  0.36567838  0.95662191  1
  S2-  S204  1  0.24390295  0.61108153  0.46208659  1
  S2-  S205  1  0.25253679  0.62238561  0.95884326  1
  S2-  S206  1  0.24474320  0.86487085  0.45336201  1
  S2-  S207  1  0.25461713  0.87112510  0.94804806  1
  S2-  S208  1  0.49674842  0.11037950  0.45234131  1
  S2-  S209  1  0.50777538  0.11985252  0.95575080  1
  S2-  S210  1  0.49085135  0.36153967  0.45499307  1
  S2-  S211  1  0.50136565  0.37157341  0.94608408  1
  S2-  S212  1  0.49063139  0.60972553  0.44808735  1
  S2-  S213  1  0.50549855  0.61676429  0.94761674  1
  S2-  S214  1  0.49002209  0.86543271  0.45764311  1
  S2-  S215  1  0.50587566  0.86886210  0.94884620  1
  S2-  S216  1  0.74155226  0.11251849  0.44966316  1
  S2-  S217  1  0.75558727  0.12390176  0.95050329  1
  S2-  S218  1  0.74424351  0.35916829  0.45731802  1
  S2-  S219  1  0.75473959  0.37083243  0.96384512  1
  S2-  S220  1  0.74658950  0.61461790  0.45410871  1
  S2-  S221  1  0.75009805  0.61645162  0.96358368  1
  S2-  S222  1  0.74854590  0.86099293  0.45853507  1
  S2-  S223  1  0.75598000  0.86812318  0.94845748  1
  S2-  S224  1  0.12934142  -0.00789873  0.05066672  1
  S2-  S225  1  0.12205434  -0.01145618  0.54011855  1
  S2-  S226  1  0.13508196  0.24066689  0.04962514  1
  S2-  S227  1  0.11897457  0.23530337  0.53972352  1
  S2-  S228  1  0.13234387  0.49105128  0.05340071  1
  S2-  S229  1  0.11885973  0.48363754  0.54866470  1
  S2-  S230  1  0.13295728  0.75338152  0.04583923  1
  S2-  S231  1  0.12466188  0.73669746  0.55310874  1
  S2-  S232  1  0.38423341  -0.00896429  0.04687388  1
  S2-  S233  1  0.37176207  -0.01041464  0.55665735  1
  S2-  S234  1  0.38126957  0.24703627  0.03587705  1
  S2-  S235  1  0.37457776  0.23557721  0.54492339  1
  S2-  S236  1  0.37724454  0.49616249  0.03993600  1
  S2-  S237  1  0.37467013  0.48598058  0.54590408  1
  S2-  S238  1  0.37899742  0.74447360  0.04929949  1
  S2-  S239  1  0.37067438  0.73567087  0.55047583  1
  S2-  S240  1  0.62909926  -0.00435781  0.04633230  1
  S2-  S241  1  0.62080841  -0.01611831  0.54404866  1
  S2-  S242  1  0.62729430  0.24549585  0.05210828  1
  S2-  S243  1  0.62179905  0.23970865  0.54644569  1
  S2-  S244  1  0.63148225  0.49537247  0.05088602  1
  S2-  S245  1  0.61386237  0.48595312  0.53524137  1
  S2-  S246  1  0.63251527  0.74249986  0.04462396  1
  S2-  S247  1  0.61597059  0.73647291  0.54015310  1
  S2-  S248  1  0.87884034  -0.00622470  0.04401970  1
  S2-  S249  1  0.87264123  -0.01218046  0.54780416  1
  S2-  S250  1  0.87956243  0.24519664  0.05522277  1
  S2-  S251  1  0.87064198  0.23598728  0.54571084  1
  S2-  S252  1  0.88080927  0.49788163  0.06137793  1
  S2-  S253  1  0.87318612  0.48588133  0.54145082  1
  S2-  S254  1  0.87453044  0.74510886  0.04525099  1
  S2-  S255  1  0.87640089  0.73591590  0.54139861  1
