# generated using pymatgen
data_La6Ce6Pr19Nd20Sm13(BiS2)64
_symmetry_space_group_name_H-M   'P 1'
_cell_length_a   16.13127444
_cell_length_b   16.14542292
_cell_length_c   27.32213463
_cell_angle_alpha   89.78762086
_cell_angle_beta   89.94458946
_cell_angle_gamma   90.04647417
_symmetry_Int_Tables_number   1
_chemical_formula_structural   La6Ce6Pr19Nd20Sm13(BiS2)64
_chemical_formula_sum   'La6 Ce6 Pr19 Nd20 Sm13 Bi64 S128'
_cell_volume   7115.89288036
_cell_formula_units_Z   1
loop_
 _symmetry_equiv_pos_site_id
 _symmetry_equiv_pos_as_xyz
  1  'x, y, z'
loop_
 _atom_type_symbol
 _atom_type_oxidation_number
  La3+  3.0
  Ce3+  3.0
  Pr3+  3.0
  Nd3+  3.0
  Sm3+  3.0
  Bi2+  2.0
  S2-  -2.0
loop_
 _atom_site_type_symbol
 _atom_site_label
 _atom_site_symmetry_multiplicity
 _atom_site_fract_x
 _atom_site_fract_y
 _atom_site_fract_z
 _atom_site_occupancy
  La3+  La0  1  0.62667170  0.51777372  0.90992494  1
  La3+  La1  1  0.62383390  0.75191500  0.43964980  1
  La3+  La2  1  0.37305757  0.26404686  0.92319434  1
  La3+  La3  1  0.88300569  0.51251966  0.91200248  1
  La3+  La4  1  0.51144862  0.63269565  0.61614711  1
  La3+  La5  1  0.48840094  0.87403143  0.56942587  1
  Ce3+  Ce6  1  0.86507895  0.26000463  0.91698036  1
  Ce3+  Ce7  1  0.62462409  0.00580820  0.93594819  1
  Ce3+  Ce8  1  0.61478929  0.76771343  0.92143121  1
  Ce3+  Ce9  1  -0.00484889  0.62507662  0.56242223  1
  Ce3+  Ce10  1  0.37048101  0.00203908  0.44096294  1
  Ce3+  Ce11  1  0.24685480  0.87320931  0.55982305  1
  Pr3+  Pr12  1  0.24777090  0.12949917  0.56704961  1
  Pr3+  Pr13  1  0.36748893  0.75573270  0.93592266  1
  Pr3+  Pr14  1  -0.00011499  0.38027153  0.56196938  1
  Pr3+  Pr15  1  0.75124962  0.37492495  0.57853115  1
  Pr3+  Pr16  1  0.62050948  0.25482809  0.44160398  1
  Pr3+  Pr17  1  0.12318253  0.25570291  0.43576191  1
  Pr3+  Pr18  1  0.74839165  0.13720553  0.05428840  1
  Pr3+  Pr19  1  0.61989488  0.26156461  0.92586172  1
  Pr3+  Pr20  1  0.24899157  0.88672645  0.06342072  1
  Pr3+  Pr21  1  0.23966395  0.37829882  0.07300268  1
  Pr3+  Pr22  1  0.12447108  0.01132338  0.93960688  1
  Pr3+  Pr23  1  0.86920825  0.25471745  0.44106069  1
  Pr3+  Pr24  1  0.49311313  0.13304389  0.57318351  1
  Pr3+  Pr25  1  0.12364108  0.00182782  0.44507433  1
  Pr3+  Pr26  1  0.86893767  0.50298238  0.43652030  1
  Pr3+  Pr27  1  -0.00430895  0.63603992  0.06524866  1
  Pr3+  Pr28  1  0.12330377  0.50844028  0.42294664  1
  Pr3+  Pr29  1  0.37268815  0.25403940  0.43321288  1
  Pr3+  Pr30  1  0.74458569  0.87594365  0.57049595  1
  Nd3+  Nd31  1  0.87060407  0.75391819  0.44555221  1
  Nd3+  Nd32  1  -0.00226205  0.88613545  0.05738377  1
  Nd3+  Nd33  1  0.37130055  0.01039507  0.94053295  1
  Nd3+  Nd34  1  0.25253882  0.63323306  0.07715067  1
  Nd3+  Nd35  1  0.87546822  0.00716925  0.92650308  1
  Nd3+  Nd36  1  0.50222151  0.63461791  0.05917678  1
  Nd3+  Nd37  1  0.74557471  0.88290448  0.05758427  1
  Nd3+  Nd38  1  0.87089478  0.00380705  0.44570574  1
  Nd3+  Nd39  1  0.74664388  0.63439575  0.05105611  1
  Nd3+  Nd40  1  -0.00143740  0.12818370  0.56093767  1
  Nd3+  Nd41  1  0.37936161  0.51208063  0.42930059  1
  Nd3+  Nd42  1  0.12616198  0.75807577  0.94478652  1
  Nd3+  Nd43  1  0.74890448  0.38588002  0.04684116  1
  Nd3+  Nd44  1  0.12473686  0.26568025  0.92665203  1
  Nd3+  Nd45  1  0.49866873  0.38212325  0.05895888  1
  Nd3+  Nd46  1  0.12696842  0.51090229  0.94772460  1
  Nd3+  Nd47  1  0.12154203  0.75064138  0.43798020  1
  Nd3+  Nd48  1  0.24975867  0.62245436  0.56172001  1
  Nd3+  Nd49  1  0.37297830  0.50817904  0.94988322  1
  Nd3+  Nd50  1  0.48801422  0.37919390  0.57371501  1
  Sm3+  Sm51  1  0.49747663  0.13699053  0.05024880  1
  Sm3+  Sm52  1  -0.00420863  0.38471131  0.05678845  1
  Sm3+  Sm53  1  0.24726956  0.13688773  0.05450225  1
  Sm3+  Sm54  1  0.75215167  0.62502204  0.56748291  1
  Sm3+  Sm55  1  0.49805410  0.88325829  0.05679711  1
  Sm3+  Sm56  1  0.87315436  0.76154570  0.93269392  1
  Sm3+  Sm57  1  0.74652669  0.12752019  0.56236264  1
  Sm3+  Sm58  1  -0.00287326  0.87566328  0.55936832  1
  Sm3+  Sm59  1  -0.00365906  0.13640574  0.04479267  1
  Sm3+  Sm60  1  0.61888869  0.00427671  0.45211159  1
  Sm3+  Sm61  1  0.24815661  0.38110495  0.54745294  1
  Sm3+  Sm62  1  0.61861493  0.50272230  0.45560288  1
  Sm3+  Sm63  1  0.37386089  0.75115751  0.44085504  1
  Bi2+  Bi64  1  -0.01837617  0.13194903  0.24704843  1
  Bi2+  Bi65  1  -0.06618649  0.12408736  0.81405149  1
  Bi2+  Bi66  1  -0.01699477  0.38878054  0.21850601  1
  Bi2+  Bi67  1  0.04268367  0.28104574  0.78758790  1
  Bi2+  Bi68  1  0.00510659  0.67484697  0.28218214  1
  Bi2+  Bi69  1  0.03572558  0.59795620  0.78514188  1
  Bi2+  Bi70  1  0.07337047  0.85429885  0.31680528  1
  Bi2+  Bi71  1  0.03013094  0.86094767  0.79131373  1
  Bi2+  Bi72  1  0.20875286  0.08331901  0.28378667  1
  Bi2+  Bi73  1  0.21753704  0.13123022  0.79410840  1
  Bi2+  Bi74  1  0.24771422  0.34286931  0.29596296  1
  Bi2+  Bi75  1  0.14794273  0.36030631  0.69963327  1
  Bi2+  Bi76  1  0.26742719  0.72134231  0.30014916  1
  Bi2+  Bi77  1  0.23039423  0.59260262  0.79912870  1
  Bi2+  Bi78  1  0.28699531  0.91021655  0.32626246  1
  Bi2+  Bi79  1  0.22717539  0.86270298  0.79849901  1
  Bi2+  Bi80  1  0.49320450  0.11349344  0.24947154  1
  Bi2+  Bi81  1  0.49132747  0.09661135  0.79449157  1
  Bi2+  Bi82  1  0.50198407  0.36662964  0.30742253  1
  Bi2+  Bi83  1  0.41973340  0.36579361  0.78668826  1
  Bi2+  Bi84  1  0.52599892  0.62962782  0.29436403  1
  Bi2+  Bi85  1  0.46337129  0.61579741  0.81863351  1
  Bi2+  Bi86  1  0.47430022  0.89882688  0.28717166  1
  Bi2+  Bi87  1  0.50269654  0.89876507  0.77955078  1
  Bi2+  Bi88  1  0.75119457  0.12449146  0.31206564  1
  Bi2+  Bi89  1  0.74359382  0.10398227  0.79211463  1
  Bi2+  Bi90  1  0.77205642  0.36228271  0.30521224  1
  Bi2+  Bi91  1  0.79490597  0.37008661  0.78068262  1
  Bi2+  Bi92  1  0.80235053  0.61122076  0.27952517  1
  Bi2+  Bi93  1  0.77865446  0.65666332  0.78810109  1
  Bi2+  Bi94  1  0.73315540  0.86737195  0.31598617  1
  Bi2+  Bi95  1  0.76433489  0.91076894  0.78788327  1
  Bi2+  Bi96  1  0.10037641  -0.03945062  0.20776792  1
  Bi2+  Bi97  1  0.15525964  -0.01990153  0.71212531  1
  Bi2+  Bi98  1  0.12855018  0.21470974  0.19286265  1
  Bi2+  Bi99  1  0.13023916  0.16601381  0.68508875  1
  Bi2+  Bi100  1  0.11220283  0.52877892  0.23586578  1
  Bi2+  Bi101  1  0.11070295  0.54172400  0.66038431  1
  Bi2+  Bi102  1  0.14445693  0.76998374  0.21410135  1
  Bi2+  Bi103  1  0.09811046  0.73163744  0.69599336  1
  Bi2+  Bi104  1  0.34192236  0.00194672  0.21307492  1
  Bi2+  Bi105  1  0.35794205  -0.01849355  0.71651508  1
  Bi2+  Bi106  1  0.40022380  0.25694376  0.19080594  1
  Bi2+  Bi107  1  0.38344684  0.21216571  0.72206294  1
  Bi2+  Bi108  1  0.38040420  0.50184002  0.20551287  1
  Bi2+  Bi109  1  0.33859406  0.47907397  0.70691283  1
  Bi2+  Bi110  1  0.42368746  0.74823112  0.22051315  1
  Bi2+  Bi111  1  0.28784055  0.73777306  0.71840128  1
  Bi2+  Bi112  1  0.64086229  -0.01150520  0.24676301  1
  Bi2+  Bi113  1  0.61154910  0.02169121  0.71119280  1
  Bi2+  Bi114  1  0.65282723  0.23566402  0.19703896  1
  Bi2+  Bi115  1  0.62156750  0.24440031  0.71855423  1
  Bi2+  Bi116  1  0.64638946  0.48967897  0.25434851  1
  Bi2+  Bi117  1  0.61323416  0.50675430  0.72792129  1
  Bi2+  Bi118  1  0.64051315  0.75911179  0.19516611  1
  Bi2+  Bi119  1  0.65667681  0.76678834  0.71279849  1
  Bi2+  Bi120  1  0.91498984  -0.05258896  0.25392587  1
  Bi2+  Bi121  1  0.92679586  -0.00678704  0.72748539  1
  Bi2+  Bi122  1  0.84691570  0.25359146  0.19741965  1
  Bi2+  Bi123  1  0.88981613  0.24434163  0.71720537  1
  Bi2+  Bi124  1  0.83895264  0.50897869  0.18383181  1
  Bi2+  Bi125  1  0.93571156  0.49796107  0.70826451  1
  Bi2+  Bi126  1  0.87104325  0.76901920  0.21313045  1
  Bi2+  Bi127  1  0.90294281  0.74647593  0.71557848  1
  S2-  S128  1  0.00953774  0.12496351  0.14171209  1
  S2-  S129  1  -0.05127168  0.12560104  0.65499374  1
  S2-  S130  1  0.09131566  0.35621526  0.13696163  1
  S2-  S131  1  -0.10335328  0.37211006  0.64280220  1
  S2-  S132  1  -0.01284706  0.58123751  0.16031283  1
  S2-  S133  1  -0.11417376  0.62416677  0.64030290  1
  S2-  S134  1  -0.00446161  0.84864638  0.15341598  1
  S2-  S135  1  -0.04919151  0.88077605  0.65308620  1
  S2-  S136  1  0.27495682  0.13995968  0.15143848  1
  S2-  S137  1  0.36216120  0.10806125  0.64310138  1
  S2-  S138  1  0.28852012  0.36903143  0.17242510  1
  S2-  S139  1  0.30080529  0.36441393  0.64076214  1
  S2-  S140  1  0.23388717  0.57461809  0.17097496  1
  S2-  S141  1  0.33803142  0.62668920  0.64776459  1
  S2-  S142  1  0.26024434  0.87258521  0.16255695  1
  S2-  S143  1  0.33570580  0.86823020  0.64276818  1
  S2-  S144  1  0.52572294  0.14841267  0.14613168  1
  S2-  S145  1  0.50311641  0.25525278  0.64897870  1
  S2-  S146  1  0.49247865  0.39027390  0.15916285  1
  S2-  S147  1  0.49205562  0.47150717  0.65871479  1
  S2-  S148  1  0.45586766  0.61926131  0.15517941  1
  S2-  S149  1  0.50699619  0.63480934  0.72945817  1
  S2-  S150  1  0.51353844  0.85874394  0.15267182  1
  S2-  S151  1  0.53407670  0.79768354  0.65485753  1
  S2-  S152  1  0.75357209  0.12076550  0.15414163  1
  S2-  S153  1  0.71045919  0.13861222  0.65747515  1
  S2-  S154  1  0.73666900  0.37023701  0.14624803  1
  S2-  S155  1  0.69310443  0.37468563  0.67690092  1
  S2-  S156  1  0.70431502  0.63248391  0.14832131  1
  S2-  S157  1  0.67576400  0.61921023  0.65630750  1
  S2-  S158  1  0.75284925  0.86190436  0.15659249  1
  S2-  S159  1  0.72540819  0.89938145  0.66975569  1
  S2-  S160  1  0.08789012  0.01804547  0.34769009  1
  S2-  S161  1  0.11869770  -0.00721422  0.84046964  1
  S2-  S162  1  0.15966909  0.22844976  0.33904975  1
  S2-  S163  1  0.24351301  0.26240267  0.85202632  1
  S2-  S164  1  0.12690676  0.43559583  0.32910437  1
  S2-  S165  1  0.12025330  0.48973558  0.84872723  1
  S2-  S166  1  0.12917986  0.64773620  0.35747363  1
  S2-  S167  1  0.23101313  0.73115326  0.86700945  1
  S2-  S168  1  0.41377468  0.03110034  0.34908615  1
  S2-  S169  1  0.34808270  0.03792144  0.84381761  1
  S2-  S170  1  0.39110470  0.25471496  0.33223085  1
  S2-  S171  1  0.49692878  0.25343425  0.85027313  1
  S2-  S172  1  0.36868496  0.45388840  0.33137430  1
  S2-  S173  1  0.34606514  0.48913978  0.85184905  1
  S2-  S174  1  0.38786581  0.65229446  0.35970907  1
  S2-  S175  1  0.45090747  0.77798259  0.84783130  1
  S2-  S176  1  0.64200791  0.01370281  0.35475969  1
  S2-  S177  1  0.63067102  -0.09428185  0.85516823  1
  S2-  S178  1  0.63699557  0.25410882  0.34076304  1
  S2-  S179  1  0.73099957  0.25078569  0.84641901  1
  S2-  S180  1  0.60119476  0.49788131  0.35643335  1
  S2-  S181  1  0.55497709  0.45565401  0.82078372  1
  S2-  S182  1  0.59908379  0.75801779  0.33956310  1
  S2-  S183  1  0.62784004  0.66487547  0.84388270  1
  S2-  S184  1  0.85423710  -0.00004885  0.34717057  1
  S2-  S185  1  0.88273979  -0.11816715  0.85656722  1
  S2-  S186  1  0.87577064  0.24110551  0.34150427  1
  S2-  S187  1  0.92007415  0.37269961  0.84818453  1
  S2-  S188  1  0.87629919  0.48087150  0.33702649  1
  S2-  S189  1  0.75917906  0.50561169  0.83690956  1
  S2-  S190  1  0.81949657  0.74465596  0.35168024  1
  S2-  S191  1  0.90665527  0.66005450  0.85311233  1
  S2-  S192  1  -0.00314234  0.12930047  0.45369045  1
  S2-  S193  1  -0.00161334  0.13795382  0.94130179  1
  S2-  S194  1  -0.00233145  0.37929191  0.45100169  1
  S2-  S195  1  0.00297239  0.38573129  0.95499228  1
  S2-  S196  1  -0.00756461  0.62839881  0.45406632  1
  S2-  S197  1  0.00291056  0.63688057  0.95823628  1
  S2-  S198  1  -0.00442573  0.87698137  0.45467643  1
  S2-  S199  1  0.00290757  0.88318335  0.95326062  1
  S2-  S200  1  0.24658729  0.12922847  0.45538009  1
  S2-  S201  1  0.24759853  0.13593709  0.95198402  1
  S2-  S202  1  0.24920518  0.38205154  0.44392350  1
  S2-  S203  1  0.24705929  0.38494191  0.96176273  1
  S2-  S204  1  0.24894322  0.62892716  0.45655406  1
  S2-  S205  1  0.24976839  0.63059172  0.96998156  1
  S2-  S206  1  0.24686039  0.87293014  0.45461503  1
  S2-  S207  1  0.24789851  0.88644924  0.95708944  1
  S2-  S208  1  0.49782547  0.12888118  0.45951903  1
  S2-  S209  1  0.49873784  0.13104494  0.94831206  1
  S2-  S210  1  0.49590661  0.37890525  0.45756550  1
  S2-  S211  1  0.50138047  0.38918962  0.95209814  1
  S2-  S212  1  0.50268880  0.62846710  0.45692709  1
  S2-  S213  1  0.49755803  0.63318317  0.95327988  1
  S2-  S214  1  0.49621330  0.87822554  0.45616075  1
  S2-  S215  1  0.49255243  0.88752697  0.95401312  1
  S2-  S216  1  0.74524889  0.12677215  0.45773833  1
  S2-  S217  1  0.74903622  0.12760445  0.94779816  1
  S2-  S218  1  0.74505134  0.37885185  0.45950646  1
  S2-  S219  1  0.74782304  0.38907291  0.94350693  1
  S2-  S220  1  0.74657658  0.62478359  0.45791021  1
  S2-  S221  1  0.75092209  0.63900527  0.94754150  1
  S2-  S222  1  0.74563944  0.88189111  0.46198936  1
  S2-  S223  1  0.75099579  0.88443723  0.95410063  1
  S2-  S224  1  0.12311420  0.01200902  0.04675562  1
  S2-  S225  1  0.12143317  0.00051173  0.55270936  1
  S2-  S226  1  0.12160241  0.25419811  0.03459856  1
  S2-  S227  1  0.12318853  0.25494456  0.54439977  1
  S2-  S228  1  0.12220162  0.51192704  0.05314061  1
  S2-  S229  1  0.12256308  0.50181476  0.53412769  1
  S2-  S230  1  0.12544657  0.75890103  0.05140323  1
  S2-  S231  1  0.12019745  0.75085196  0.54598209  1
  S2-  S232  1  0.37496139  0.01188355  0.04825842  1
  S2-  S233  1  0.36861666  0.00235417  0.54334224  1
  S2-  S234  1  0.37208161  0.25858281  0.04074977  1
  S2-  S235  1  0.36885120  0.25355100  0.53994349  1
  S2-  S236  1  0.37065780  0.50518953  0.05481910  1
  S2-  S237  1  0.37047823  0.49926780  0.53876042  1
  S2-  S238  1  0.37316365  0.75907527  0.04943559  1
  S2-  S239  1  0.37067301  0.74813827  0.54291370  1
  S2-  S240  1  0.62033087  0.00945690  0.04473694  1
  S2-  S241  1  0.61802222  0.00424899  0.55607217  1
  S2-  S242  1  0.62263043  0.25942956  0.03678321  1
  S2-  S243  1  0.62588373  0.25348224  0.54813657  1
  S2-  S244  1  0.62214068  0.50822529  0.04311725  1
  S2-  S245  1  0.62533712  0.49956735  0.55675266  1
  S2-  S246  1  0.62105319  0.76158528  0.03845348  1
  S2-  S247  1  0.62653043  0.74841089  0.54834775  1
  S2-  S248  1  0.87410437  0.00893569  0.03959696  1
  S2-  S249  1  0.87142011  0.00259777  0.55139082  1
  S2-  S250  1  0.87526078  0.26060319  0.03695499  1
  S2-  S251  1  0.87146747  0.24819001  0.54677763  1
  S2-  S252  1  0.87443838  0.50951032  0.04168939  1
  S2-  S253  1  0.87049067  0.49914915  0.54241845  1
  S2-  S254  1  0.87277971  0.76115284  0.04285932  1
  S2-  S255  1  0.87133962  0.75654405  0.54913717  1
