# generated using pymatgen
data_La6Ce6Pr19Nd20Sm13(BiS2)64
_symmetry_space_group_name_H-M   'P 1'
_cell_length_a   16.01371411
_cell_length_b   16.09926714
_cell_length_c   27.24921008
_cell_angle_alpha   90.03618514
_cell_angle_beta   89.64270067
_cell_angle_gamma   90.02009110
_symmetry_Int_Tables_number   1
_chemical_formula_structural   La6Ce6Pr19Nd20Sm13(BiS2)64
_chemical_formula_sum   'La6 Ce6 Pr19 Nd20 Sm13 Bi64 S128'
_cell_volume   7024.95485282
_cell_formula_units_Z   1
loop_
 _symmetry_equiv_pos_site_id
 _symmetry_equiv_pos_as_xyz
  1  'x, y, z'
loop_
 _atom_type_symbol
 _atom_type_oxidation_number
  La3+  3.0
  Ce3+  3.0
  Pr3+  3.0
  Nd3+  3.0
  Sm3+  3.0
  Bi2+  2.0
  S2-  -2.0
loop_
 _atom_site_type_symbol
 _atom_site_label
 _atom_site_symmetry_multiplicity
 _atom_site_fract_x
 _atom_site_fract_y
 _atom_site_fract_z
 _atom_site_occupancy
  La3+  La0  1  0.37772457  0.25440761  0.88589783  1
  La3+  La1  1  0.38460205  0.50539668  0.92278759  1
  La3+  La2  1  0.86154521  -0.01717738  0.39702029  1
  La3+  La3  1  0.75033663  0.37288979  0.08390826  1
  La3+  La4  1  0.21881080  0.11855047  0.58684981  1
  La3+  La5  1  0.22378273  0.37754522  0.57391608  1
  Ce3+  Ce6  1  0.60773577  0.24977124  0.44041626  1
  Ce3+  Ce7  1  0.60290024  0.74720947  0.44400152  1
  Ce3+  Ce8  1  0.25543916  0.87613673  0.05930874  1
  Ce3+  Ce9  1  0.75490506  0.61977181  0.06142492  1
  Ce3+  Ce10  1  0.73278143  0.37099169  0.55714824  1
  Ce3+  Ce11  1  0.62868200  0.74609698  0.95290102  1
  Pr3+  Pr12  1  0.38145570  0.00028614  0.90715967  1
  Pr3+  Pr13  1  0.62969521  0.49542945  0.93654628  1
  Pr3+  Pr14  1  0.60436715  -0.00412299  0.43456769  1
  Pr3+  Pr15  1  0.38394832  0.74781238  0.94455093  1
  Pr3+  Pr16  1  0.47569216  0.61580023  0.56313529  1
  Pr3+  Pr17  1  0.50376645  0.87514295  0.06506789  1
  Pr3+  Pr18  1  0.00168878  0.36357838  0.07647350  1
  Pr3+  Pr19  1  -0.02505450  0.37709845  0.57818722  1
  Pr3+  Pr20  1  0.74528335  0.11213706  0.07949619  1
  Pr3+  Pr21  1  0.10534817  -0.00110688  0.44194959  1
  Pr3+  Pr22  1  0.10040734  0.24398729  0.44374454  1
  Pr3+  Pr23  1  0.59986650  0.49131226  0.41987590  1
  Pr3+  Pr24  1  0.88290033  0.49547526  0.93598217  1
  Pr3+  Pr25  1  0.00185601  0.61887304  0.06890863  1
  Pr3+  Pr26  1  0.13344989  0.49714038  0.93154748  1
  Pr3+  Pr27  1  0.12417095  0.24695846  0.93180585  1
  Pr3+  Pr28  1  0.35629669  -0.00181907  0.43679557  1
  Pr3+  Pr29  1  0.22835100  0.87291062  0.56359526  1
  Pr3+  Pr30  1  -0.02155651  0.62492784  0.56242399  1
  Nd3+  Nd31  1  0.88104011  0.74358904  0.93264098  1
  Nd3+  Nd32  1  0.63017435  0.24571640  0.93662553  1
  Nd3+  Nd33  1  0.10641723  0.49543489  0.43366138  1
  Nd3+  Nd34  1  0.13315722  -0.00101432  0.93022712  1
  Nd3+  Nd35  1  0.10252591  0.74951699  0.43551828  1
  Nd3+  Nd36  1  0.63053402  -0.00066507  0.93118313  1
  Nd3+  Nd37  1  -0.03200284  0.12037765  0.56285793  1
  Nd3+  Nd38  1  0.35055539  0.24733057  0.44981860  1
  Nd3+  Nd39  1  0.86108008  0.25060004  0.42349766  1
  Nd3+  Nd40  1  0.49744896  0.60931656  0.08172809  1
  Nd3+  Nd41  1  0.72739607  0.61843997  0.56119229  1
  Nd3+  Nd42  1  0.84979533  0.49893189  0.43033899  1
  Nd3+  Nd43  1  0.48257494  0.87361892  0.57085220  1
  Nd3+  Nd44  1  0.35381322  0.48599850  0.42511611  1
  Nd3+  Nd45  1  0.88071874  0.24431004  0.94669560  1
  Nd3+  Nd46  1  0.88429945  -0.00777353  0.92569108  1
  Nd3+  Nd47  1  0.13126124  0.74575876  0.94690329  1
  Nd3+  Nd48  1  -0.02998999  0.87054389  0.56926091  1
  Nd3+  Nd49  1  0.47539849  0.36965422  0.57311495  1
  Nd3+  Nd50  1  0.25440506  0.36981472  0.04960525  1
  Sm3+  Sm51  1  0.25405991  0.61700428  0.06241231  1
  Sm3+  Sm52  1  0.72568366  0.87503040  0.56581027  1
  Sm3+  Sm53  1  0.35805461  0.74480428  0.44447168  1
  Sm3+  Sm54  1  0.22940523  0.62148926  0.55520394  1
  Sm3+  Sm55  1  0.25566846  0.12365356  0.04834175  1
  Sm3+  Sm56  1  0.85208484  0.74755343  0.44194333  1
  Sm3+  Sm57  1  0.75684634  0.87134314  0.05703556  1
  Sm3+  Sm58  1  0.50283927  0.37074826  0.05273167  1
  Sm3+  Sm59  1  0.00141355  0.11286683  0.06563930  1
  Sm3+  Sm60  1  0.73382950  0.12143791  0.55119930  1
  Sm3+  Sm61  1  0.47987960  0.12233689  0.55927312  1
  Sm3+  Sm62  1  0.00383063  0.87317231  0.05773162  1
  Sm3+  Sm63  1  0.50398225  0.12269576  0.04944348  1
  Bi2+  Bi64  1  0.07427343  0.11352363  0.29516563  1
  Bi2+  Bi65  1  -0.04230307  0.12672092  0.79051224  1
  Bi2+  Bi66  1  0.02904084  0.39204133  0.31089051  1
  Bi2+  Bi67  1  -0.06497996  0.36745322  0.79356214  1
  Bi2+  Bi68  1  -0.00291843  0.59249184  0.29523628  1
  Bi2+  Bi69  1  0.01585604  0.61834156  0.79508786  1
  Bi2+  Bi70  1  0.08920218  0.85271112  0.28278415  1
  Bi2+  Bi71  1  -0.00966123  0.87601792  0.78346966  1
  Bi2+  Bi72  1  0.23800100  0.13485715  0.35919893  1
  Bi2+  Bi73  1  0.24156984  0.10181811  0.77870436  1
  Bi2+  Bi74  1  0.22420777  0.34231998  0.31358002  1
  Bi2+  Bi75  1  0.20655205  0.38879066  0.78794388  1
  Bi2+  Bi76  1  0.21388782  0.64767445  0.20706491  1
  Bi2+  Bi77  1  0.26250134  0.64090460  0.78723046  1
  Bi2+  Bi78  1  0.26406550  0.96014090  0.30921912  1
  Bi2+  Bi79  1  0.26494413  0.85287736  0.77452133  1
  Bi2+  Bi80  1  0.43436567  0.11026230  0.29230515  1
  Bi2+  Bi81  1  0.55308600  0.10320749  0.78608305  1
  Bi2+  Bi82  1  0.47631796  0.38502557  0.28537678  1
  Bi2+  Bi83  1  0.55277443  0.37774718  0.77953065  1
  Bi2+  Bi84  1  0.48728886  0.65229687  0.28521344  1
  Bi2+  Bi85  1  0.52043711  0.62807080  0.79366081  1
  Bi2+  Bi86  1  0.49844421  0.84726810  0.29651041  1
  Bi2+  Bi87  1  0.47123649  0.84122965  0.78502968  1
  Bi2+  Bi88  1  0.67574844  0.12330402  0.27924974  1
  Bi2+  Bi89  1  0.76866695  0.14020510  0.85047746  1
  Bi2+  Bi90  1  0.73384013  0.37625515  0.29675576  1
  Bi2+  Bi91  1  0.75589363  0.43053543  0.83004834  1
  Bi2+  Bi92  1  0.80766808  0.63744680  0.28504402  1
  Bi2+  Bi93  1  0.77102937  0.71980503  0.79997893  1
  Bi2+  Bi94  1  0.76603583  0.88141401  0.28006092  1
  Bi2+  Bi95  1  0.72150281  0.97685261  0.79175791  1
  Bi2+  Bi96  1  0.15281221  -0.01044341  0.20573587  1
  Bi2+  Bi97  1  0.10099445  -0.04849879  0.70159260  1
  Bi2+  Bi98  1  0.12660365  0.25705675  0.22124351  1
  Bi2+  Bi99  1  0.10940542  0.22755823  0.71409982  1
  Bi2+  Bi100  1  0.13598339  0.46853031  0.21753176  1
  Bi2+  Bi101  1  0.13086194  0.56899382  0.70930340  1
  Bi2+  Bi102  1  0.03826753  0.73268472  0.19548889  1
  Bi2+  Bi103  1  0.17364916  0.76180081  0.68416629  1
  Bi2+  Bi104  1  0.37608062  -0.00240448  0.19932765  1
  Bi2+  Bi105  1  0.40057986  -0.06482781  0.69546841  1
  Bi2+  Bi106  1  0.32683185  0.21428089  0.21902206  1
  Bi2+  Bi107  1  0.41916472  0.25035507  0.70619220  1
  Bi2+  Bi108  1  0.35853319  0.47949875  0.20883883  1
  Bi2+  Bi109  1  0.40590760  0.49697314  0.69497713  1
  Bi2+  Bi110  1  0.32166135  0.79647572  0.24987007  1
  Bi2+  Bi111  1  0.38042163  0.74196630  0.69033017  1
  Bi2+  Bi112  1  0.62084913  -0.00545992  0.20421834  1
  Bi2+  Bi113  1  0.67648744  0.10993440  0.69617774  1
  Bi2+  Bi114  1  0.52745166  0.23406529  0.21515960  1
  Bi2+  Bi115  1  0.73640704  0.26659878  0.76109226  1
  Bi2+  Bi116  1  0.61480455  0.49078670  0.20454312  1
  Bi2+  Bi117  1  0.68873659  0.55248443  0.74730409  1
  Bi2+  Bi118  1  0.68206307  0.74050244  0.21757004  1
  Bi2+  Bi119  1  0.64887909  0.82624340  0.73082115  1
  Bi2+  Bi120  1  0.88914935  0.03218368  0.19766767  1
  Bi2+  Bi121  1  0.87530640  -0.00425338  0.71750647  1
  Bi2+  Bi122  1  0.90350311  0.25027808  0.22496258  1
  Bi2+  Bi123  1  0.90792022  0.25328219  0.69768788  1
  Bi2+  Bi124  1  0.88510984  0.50907484  0.20905273  1
  Bi2+  Bi125  1  0.86410804  0.50512032  0.70813469  1
  Bi2+  Bi126  1  0.85544145  0.72344563  0.16403264  1
  Bi2+  Bi127  1  0.88097609  0.74933727  0.70578451  1
  S2-  S128  1  0.01926010  0.21214164  0.14825449  1
  S2-  S129  1  0.06646519  0.09936750  0.64864356  1
  S2-  S130  1  -0.12043803  0.36034773  0.15521789  1
  S2-  S131  1  0.10467919  0.34920062  0.65186547  1
  S2-  S132  1  0.02226528  0.50133111  0.14368280  1
  S2-  S133  1  -0.01151772  0.52133661  0.64527469  1
  S2-  S134  1  0.01778244  0.97912504  0.13523737  1
  S2-  S135  1  0.00371131  0.74453010  0.64047263  1
  S2-  S136  1  0.25353174  0.10492549  0.14801040  1
  S2-  S137  1  0.27897518  0.17435762  0.68331811  1
  S2-  S138  1  0.25471685  0.39041712  0.15014615  1
  S2-  S139  1  0.34630677  0.36377586  0.64801761  1
  S2-  S140  1  0.34833816  0.62058256  0.14528117  1
  S2-  S141  1  0.25821202  0.54376127  0.64213953  1
  S2-  S142  1  0.25991851  0.87180191  0.15741757  1
  S2-  S143  1  0.25030581  0.97264501  0.64643175  1
  S2-  S144  1  0.58104146  0.11274049  0.13813894  1
  S2-  S145  1  0.51020077  0.12713021  0.65707211  1
  S2-  S146  1  0.48442918  0.45671879  0.13893553  1
  S2-  S147  1  0.53700272  0.38368001  0.67200289  1
  S2-  S148  1  0.55461769  0.65598359  0.17875076  1
  S2-  S149  1  0.50398782  0.62378276  0.66366153  1
  S2-  S150  1  0.49895579  0.89115305  0.16610287  1
  S2-  S151  1  0.60641124  0.88173080  0.64259140  1
  S2-  S152  1  0.78959603  0.16739667  0.17728154  1
  S2-  S153  1  0.82803395  0.12808293  0.63596079  1
  S2-  S154  1  0.65044865  0.34161888  0.17208921  1
  S2-  S155  1  0.82206967  0.37296290  0.64115413  1
  S2-  S156  1  0.74519761  0.52673729  0.14445222  1
  S2-  S157  1  0.76281361  0.63146267  0.65893930  1
  S2-  S158  1  0.75852443  0.96126045  0.14077085  1
  S2-  S159  1  0.84118853  0.88186439  0.64354465  1
  S2-  S160  1  0.03001574  -0.02882617  0.35310511  1
  S2-  S161  1  0.23653051  -0.02458231  0.84704737  1
  S2-  S162  1  0.00504995  0.23210989  0.35560379  1
  S2-  S163  1  0.20828758  0.24220768  0.83924587  1
  S2-  S164  1  0.22122171  0.49354586  0.35612134  1
  S2-  S165  1  0.05440724  0.45916524  0.84100898  1
  S2-  S166  1  0.10379285  0.71015129  0.33786109  1
  S2-  S167  1  0.12613267  0.70332090  0.84999738  1
  S2-  S168  1  0.47640568  -0.02172455  0.36022338  1
  S2-  S169  1  0.38517005  0.11331833  0.82356359  1
  S2-  S170  1  0.37455751  0.33497157  0.36317029  1
  S2-  S171  1  0.37659115  0.34986931  0.79372890  1
  S2-  S172  1  0.47242497  0.52835060  0.34829231  1
  S2-  S173  1  0.25514176  0.49968467  0.85112026  1
  S2-  S174  1  0.36397412  0.73201259  0.34564550  1
  S2-  S175  1  0.38700080  0.66269945  0.85604101  1
  S2-  S176  1  0.69664575  -0.00930372  0.34782711  1
  S2-  S177  1  0.52958010  -0.03082002  0.85031730  1
  S2-  S178  1  0.59802919  0.34251769  0.35686233  1
  S2-  S179  1  0.54983240  0.24959550  0.84600209  1
  S2-  S180  1  0.72540085  0.52656423  0.34806613  1
  S2-  S181  1  0.52293144  0.49718889  0.85360049  1
  S2-  S182  1  0.60543913  0.74609042  0.34484415  1
  S2-  S183  1  0.62521449  0.72563948  0.85616649  1
  S2-  S184  1  0.86793378  0.02420767  0.29038878  1
  S2-  S185  1  1.01577678  0.00735749  0.85451455  1
  S2-  S186  1  0.76765920  0.21654051  0.33346719  1
  S2-  S187  1  0.98551892  0.24676021  0.86334128  1
  S2-  S188  1  0.86955174  0.38921745  0.35210378  1
  S2-  S189  1  0.88590508  0.61818744  0.85916007  1
  S2-  S190  1  0.85701202  0.81746613  0.35181598  1
  S2-  S191  1  0.86832734  0.85447256  0.85420631  1
  S2-  S192  1  -0.02816991  0.11387908  0.45409145  1
  S2-  S193  1  0.00437408  0.11751726  0.96095060  1
  S2-  S194  1  -0.01832792  0.37731521  0.45885614  1
  S2-  S195  1  0.00425016  0.37300908  0.96376629  1
  S2-  S196  1  -0.02209217  0.62375196  0.44945386  1
  S2-  S197  1  0.00815129  0.62104960  0.96101712  1
  S2-  S198  1  -0.02298880  0.86739072  0.45886260  1
  S2-  S199  1  0.00840671  0.86939963  0.95451400  1
  S2-  S200  1  0.22882175  0.11980644  0.47232293  1
  S2-  S201  1  0.26172420  0.12520218  0.94502541  1
  S2-  S202  1  0.22359877  0.36878845  0.46248024  1
  S2-  S203  1  0.25977579  0.36535735  0.94515428  1
  S2-  S204  1  0.23187862  0.62612897  0.45190302  1
  S2-  S205  1  0.25544071  0.62456431  0.95935468  1
  S2-  S206  1  0.23292298  0.86971752  0.45285707  1
  S2-  S207  1  0.25845674  0.87150702  0.95256552  1
  S2-  S208  1  0.48040501  0.12695829  0.45396536  1
  S2-  S209  1  0.50143708  0.12194976  0.94711837  1
  S2-  S210  1  0.48223233  0.37056519  0.46533124  1
  S2-  S211  1  0.50006368  0.36572625  0.95028249  1
  S2-  S212  1  0.47995073  0.62094805  0.45648959  1
  S2-  S213  1  0.50771519  0.62257106  0.96610581  1
  S2-  S214  1  0.47845520  0.86852022  0.46391993  1
  S2-  S215  1  0.50396081  0.87467311  0.95720477  1
  S2-  S216  1  0.73219631  0.12307785  0.44883003  1
  S2-  S217  1  0.75398875  0.11831507  0.96215864  1
  S2-  S218  1  0.72956596  0.37419905  0.45405111  1
  S2-  S219  1  0.75494457  0.36979848  0.95700499  1
  S2-  S220  1  0.72627992  0.62331661  0.45489977  1
  S2-  S221  1  0.75301163  0.62061127  0.95675415  1
  S2-  S222  1  0.72860642  0.86983732  0.45744781  1
  S2-  S223  1  0.75194174  0.87244108  0.95336446  1
  S2-  S224  1  0.13393016  -0.00244363  0.03712378  1
  S2-  S225  1  0.09708611  -0.01030110  0.54739875  1
  S2-  S226  1  0.12979233  0.24305161  0.04233113  1
  S2-  S227  1  0.09704293  0.24410953  0.54909204  1
  S2-  S228  1  0.13338301  0.49710530  0.04126826  1
  S2-  S229  1  0.10483131  0.50334865  0.53996633  1
  S2-  S230  1  0.13026433  0.74728127  0.05359111  1
  S2-  S231  1  0.10894550  0.74674283  0.54023304  1
  S2-  S232  1  0.38060602  0.00109384  0.04635600  1
  S2-  S233  1  0.36070582  -0.00312806  0.54485106  1
  S2-  S234  1  0.38169817  0.24532271  0.05549894  1
  S2-  S235  1  0.35179796  0.23963795  0.55387943  1
  S2-  S236  1  0.37572926  0.49543423  0.03596373  1
  S2-  S237  1  0.35375109  0.49551207  0.53687533  1
  S2-  S238  1  0.37936703  0.74762762  0.05066652  1
  S2-  S239  1  0.35479654  0.74768514  0.55017808  1
  S2-  S240  1  0.62848713  -0.00677924  0.03776623  1
  S2-  S241  1  0.60542132  0.00254969  0.54253774  1
  S2-  S242  1  0.62794926  0.24871273  0.04398737  1
  S2-  S243  1  0.60654903  0.24533677  0.54963456  1
  S2-  S244  1  0.62653217  0.49481608  0.04309335  1
  S2-  S245  1  0.60449600  0.49336076  0.55392495  1
  S2-  S246  1  0.62978219  0.74811053  0.05881459  1
  S2-  S247  1  0.60276180  0.74294312  0.54990395  1
  S2-  S248  1  0.87944227  -0.00795771  0.03664726  1
  S2-  S249  1  0.84896995  -0.00673028  0.54113659  1
  S2-  S250  1  0.87352840  0.23703839  0.05100135  1
  S2-  S251  1  0.85426423  0.24969804  0.53433052  1
  S2-  S252  1  0.87815783  0.49567489  0.04375102  1
  S2-  S253  1  0.85342016  0.50046122  0.53859912  1
  S2-  S254  1  0.88164942  0.74944902  0.04020179  1
  S2-  S255  1  0.84650209  0.74515011  0.54465270  1
