# generated using pymatgen
data_La6Ce6Pr19Nd20Sm13(BiS2)64
_symmetry_space_group_name_H-M   'P 1'
_cell_length_a   16.18245747
_cell_length_b   16.14355943
_cell_length_c   27.38257024
_cell_angle_alpha   89.98816946
_cell_angle_beta   89.91615711
_cell_angle_gamma   89.93459480
_symmetry_Int_Tables_number   1
_chemical_formula_structural   La6Ce6Pr19Nd20Sm13(BiS2)64
_chemical_formula_sum   'La6 Ce6 Pr19 Nd20 Sm13 Bi64 S128'
_cell_volume   7153.47764788
_cell_formula_units_Z   1
loop_
 _symmetry_equiv_pos_site_id
 _symmetry_equiv_pos_as_xyz
  1  'x, y, z'
loop_
 _atom_type_symbol
 _atom_type_oxidation_number
  La3+  3.0
  Ce3+  3.0
  Pr3+  3.0
  Nd3+  3.0
  Sm3+  3.0
  Bi2+  2.0
  S2-  -2.0
loop_
 _atom_site_type_symbol
 _atom_site_label
 _atom_site_symmetry_multiplicity
 _atom_site_fract_x
 _atom_site_fract_y
 _atom_site_fract_z
 _atom_site_occupancy
  La3+  La0  1  0.00079231  0.87104925  0.10014824  1
  La3+  La1  1  0.38712008  0.24692820  0.92967159  1
  La3+  La2  1  -0.01557522  0.61084081  0.57970500  1
  La3+  La3  1  -0.01222031  0.35974115  0.57445457  1
  La3+  La4  1  0.88224709  -0.00055655  0.93563396  1
  La3+  La5  1  0.11518200  0.24163385  0.43089390  1
  Ce3+  Ce6  1  0.86972024  0.49362368  0.43611899  1
  Ce3+  Ce7  1  0.36665793  0.73779550  0.44302321  1
  Ce3+  Ce8  1  0.75947726  0.87338725  0.05787334  1
  Ce3+  Ce9  1  0.61323596  -0.00852149  0.43926829  1
  Ce3+  Ce10  1  0.11474368  -0.00814314  0.44281071  1
  Ce3+  Ce11  1  0.50455380  0.62444398  0.06094255  1
  Pr3+  Pr12  1  0.12956393  0.24800397  0.93811016  1
  Pr3+  Pr13  1  0.38511409  0.49896328  0.93873172  1
  Pr3+  Pr14  1  0.37030219  0.24982123  0.39032515  1
  Pr3+  Pr15  1  0.12783245  0.75010299  0.93532563  1
  Pr3+  Pr16  1  0.87007595  0.23881428  0.42927646  1
  Pr3+  Pr17  1  0.11569272  0.73525002  0.43951825  1
  Pr3+  Pr18  1  0.50197333  0.12492187  0.06887800  1
  Pr3+  Pr19  1  0.86733190  -0.01618445  0.42634588  1
  Pr3+  Pr20  1  0.48722366  0.61308319  0.56488968  1
  Pr3+  Pr21  1  0.62809409  -0.00122801  0.94779900  1
  Pr3+  Pr22  1  0.50610809  0.87207064  0.06486842  1
  Pr3+  Pr23  1  0.61803412  0.23914350  0.43847199  1
  Pr3+  Pr24  1  0.86762889  0.73560024  0.43087781  1
  Pr3+  Pr25  1  0.24974302  0.62506042  0.05687263  1
  Pr3+  Pr26  1  0.37035038  0.49669542  0.42736295  1
  Pr3+  Pr27  1  0.23558697  0.86536586  0.55697818  1
  Pr3+  Pr28  1  0.75612019  0.37515131  0.05965648  1
  Pr3+  Pr29  1  0.13330609  0.49277470  0.92776271  1
  Pr3+  Pr30  1  0.61350945  0.73835963  0.43709879  1
  Nd3+  Nd31  1  0.88252808  0.74792540  0.93732944  1
  Nd3+  Nd32  1  0.25090428  0.12397943  0.06008063  1
  Nd3+  Nd33  1  0.50387017  0.37486630  0.06540978  1
  Nd3+  Nd34  1  0.48868322  0.35882820  0.55997922  1
  Nd3+  Nd35  1  0.11706437  0.48765073  0.44559958  1
  Nd3+  Nd36  1  0.36408492  -0.00572054  0.44016224  1
  Nd3+  Nd37  1  0.48869713  0.86495248  0.55913345  1
  Nd3+  Nd38  1  -0.01650106  0.86281865  0.56152232  1
  Nd3+  Nd39  1  0.73969449  0.86369440  0.55275986  1
  Nd3+  Nd40  1  0.61527014  0.48738370  0.44692764  1
  Nd3+  Nd41  1  -0.01719119  0.11544893  0.56513755  1
  Nd3+  Nd42  1  0.48811803  0.11408740  0.55848672  1
  Nd3+  Nd43  1  0.73931894  0.61518177  0.56273967  1
  Nd3+  Nd44  1  0.62893398  0.50131303  0.94335552  1
  Nd3+  Nd45  1  0.62861197  0.24957586  0.94445942  1
  Nd3+  Nd46  1  0.62684948  0.75112077  0.93870544  1
  Nd3+  Nd47  1  0.25105746  0.87425309  0.05707670  1
  Nd3+  Nd48  1  0.74234711  0.36369535  0.55564019  1
  Nd3+  Nd49  1  0.37844375  0.75016993  0.94304539  1
  Nd3+  Nd50  1  0.25201168  0.37349143  0.05891618  1
  Sm3+  Sm51  1  0.75651514  0.12414002  0.05380493  1
  Sm3+  Sm52  1  0.23920232  0.11886492  0.55581070  1
  Sm3+  Sm53  1  0.00588479  0.62599163  0.05638358  1
  Sm3+  Sm54  1  0.37951978  -0.00030993  0.94920569  1
  Sm3+  Sm55  1  0.23918278  0.61355994  0.56027017  1
  Sm3+  Sm56  1  0.88046785  0.49945387  0.94254145  1
  Sm3+  Sm57  1  0.88044695  0.25177527  0.94684319  1
  Sm3+  Sm58  1  0.00460463  0.37559798  0.05629747  1
  Sm3+  Sm59  1  0.24318288  0.36338181  0.55478426  1
  Sm3+  Sm60  1  0.00350113  0.12385782  0.06061221  1
  Sm3+  Sm61  1  0.75676737  0.62586997  0.05450214  1
  Sm3+  Sm62  1  0.74590560  0.11348981  0.55416639  1
  Sm3+  Sm63  1  0.12775365  -0.00045515  0.94797208  1
  Bi2+  Bi64  1  0.02339864  0.15739168  0.28250894  1
  Bi2+  Bi65  1  -0.01126704  0.12917854  0.81668668  1
  Bi2+  Bi66  1  -0.01468359  0.41429396  0.29871020  1
  Bi2+  Bi67  1  -0.00586822  0.38540544  0.80832295  1
  Bi2+  Bi68  1  -0.03302732  0.61345618  0.27665264  1
  Bi2+  Bi69  1  -0.02376024  0.62796685  0.80253599  1
  Bi2+  Bi70  1  0.00545355  0.91657413  0.30671216  1
  Bi2+  Bi71  1  -0.01402279  0.87683474  0.81645829  1
  Bi2+  Bi72  1  0.25669357  0.10197116  0.29636823  1
  Bi2+  Bi73  1  0.25293490  0.11322032  0.79216628  1
  Bi2+  Bi74  1  0.20531943  0.43263199  0.28127231  1
  Bi2+  Bi75  1  0.24222417  0.37164777  0.74358170  1
  Bi2+  Bi76  1  0.21821372  0.68546045  0.30824436  1
  Bi2+  Bi77  1  0.27627252  0.63623176  0.76162008  1
  Bi2+  Bi78  1  0.30463196  0.83912372  0.25637155  1
  Bi2+  Bi79  1  0.29004250  0.82179364  0.79325563  1
  Bi2+  Bi80  1  0.51598653  0.10946557  0.29711277  1
  Bi2+  Bi81  1  0.50051392  0.11398443  0.80341472  1
  Bi2+  Bi82  1  0.59852277  0.38204639  0.29171580  1
  Bi2+  Bi83  1  0.44210532  0.38119749  0.81106519  1
  Bi2+  Bi84  1  0.51210214  0.65705456  0.30136460  1
  Bi2+  Bi85  1  0.52862970  0.63440800  0.79835406  1
  Bi2+  Bi86  1  0.54720189  0.84776735  0.31046445  1
  Bi2+  Bi87  1  0.57126107  0.86037548  0.80784221  1
  Bi2+  Bi88  1  0.75436918  0.23053657  0.31589041  1
  Bi2+  Bi89  1  0.72194583  0.14333434  0.75102115  1
  Bi2+  Bi90  1  0.78867029  0.42493326  0.31707287  1
  Bi2+  Bi91  1  0.74166866  0.33458233  0.78036114  1
  Bi2+  Bi92  1  0.74422683  0.57971508  0.24522383  1
  Bi2+  Bi93  1  0.74875011  0.62939412  0.73741827  1
  Bi2+  Bi94  1  0.75636789  0.84578490  0.27740433  1
  Bi2+  Bi95  1  0.73351985  0.85992548  0.74332786  1
  Bi2+  Bi96  1  0.13895102  0.02174390  0.19952380  1
  Bi2+  Bi97  1  0.09807387  0.02089475  0.74250596  1
  Bi2+  Bi98  1  0.12665259  0.28789774  0.22000839  1
  Bi2+  Bi99  1  0.13706116  0.21126164  0.71486655  1
  Bi2+  Bi100  1  0.07913684  0.50948416  0.20223282  1
  Bi2+  Bi101  1  0.13349030  0.52478190  0.70238435  1
  Bi2+  Bi102  1  0.13104142  0.75638667  0.20793128  1
  Bi2+  Bi103  1  0.14684908  0.79196142  0.71094432  1
  Bi2+  Bi104  1  0.38903132  0.00121092  0.21076495  1
  Bi2+  Bi105  1  0.37499147  -0.01787483  0.74740952  1
  Bi2+  Bi106  1  0.37718565  0.24887826  0.18885792  1
  Bi2+  Bi107  1  0.37739610  0.23880940  0.69826599  1
  Bi2+  Bi108  1  0.38962237  0.48518512  0.25557519  1
  Bi2+  Bi109  1  0.40131246  0.50294436  0.72358203  1
  Bi2+  Bi110  1  0.34099154  0.66086626  0.21251977  1
  Bi2+  Bi111  1  0.40721911  0.79669048  0.69840678  1
  Bi2+  Bi112  1  0.63188272  -0.01356938  0.23230104  1
  Bi2+  Bi113  1  0.59699531  -0.00233620  0.71986740  1
  Bi2+  Bi114  1  0.67169065  0.25416435  0.21331960  1
  Bi2+  Bi115  1  0.61006177  0.27989319  0.70020128  1
  Bi2+  Bi116  1  0.56979760  0.51584718  0.20561323  1
  Bi2+  Bi117  1  0.65583441  0.46547697  0.70877836  1
  Bi2+  Bi118  1  0.59055752  0.80103326  0.20143469  1
  Bi2+  Bi119  1  0.59923156  0.73884668  0.69750918  1
  Bi2+  Bi120  1  0.82199293  0.00926303  0.21960461  1
  Bi2+  Bi121  1  0.89682981  0.03543252  0.72944954  1
  Bi2+  Bi122  1  0.86463964  0.20399116  0.22197732  1
  Bi2+  Bi123  1  0.88491029  0.22999968  0.70450120  1
  Bi2+  Bi124  1  0.87715441  0.45623928  0.20097252  1
  Bi2+  Bi125  1  0.85688225  0.47194758  0.71056760  1
  Bi2+  Bi126  1  0.86623601  0.73588232  0.20843124  1
  Bi2+  Bi127  1  0.90708617  0.77408464  0.69475211  1
  S2-  S128  1  0.02523013  0.10874368  0.15666633  1
  S2-  S129  1  0.02158279  0.22562066  0.64075662  1
  S2-  S130  1  0.01634688  0.36199784  0.15281327  1
  S2-  S131  1  -0.00482027  0.47391169  0.65135965  1
  S2-  S132  1  0.00195667  0.70966999  0.14173938  1
  S2-  S133  1  0.04421209  0.66776463  0.67371000  1
  S2-  S134  1  0.02795866  0.90021535  0.20403725  1
  S2-  S135  1  0.02552634  0.87943118  0.65727543  1
  S2-  S136  1  0.27374753  0.11257424  0.15786982  1
  S2-  S137  1  0.25993274  0.13226245  0.65356098  1
  S2-  S138  1  0.25376576  0.35130526  0.15680794  1
  S2-  S139  1  0.19729171  0.37647816  0.65031826  1
  S2-  S140  1  0.20637569  0.60907507  0.15334690  1
  S2-  S141  1  0.25408172  0.61726019  0.65774152  1
  S2-  S142  1  0.21230914  0.86952992  0.15247599  1
  S2-  S143  1  0.25871978  0.86517310  0.65578327  1
  S2-  S144  1  0.49716225  0.12351360  0.16814950  1
  S2-  S145  1  0.50099214  0.16570895  0.65299003  1
  S2-  S146  1  0.48688428  0.36942596  0.16301711  1
  S2-  S147  1  0.42467742  0.38267068  0.65112672  1
  S2-  S148  1  0.50959409  0.65716440  0.15576382  1
  S2-  S149  1  0.48358733  0.62634894  0.66424071  1
  S2-  S150  1  0.44989263  0.88055822  0.15881515  1
  S2-  S151  1  0.49446651  0.92822576  0.64994933  1
  S2-  S152  1  0.75521254  0.12644328  0.15022310  1
  S2-  S153  1  0.84689983  0.10115476  0.63308000  1
  S2-  S154  1  0.73805520  0.38165770  0.15841025  1
  S2-  S155  1  0.83031884  0.34921330  0.63910943  1
  S2-  S156  1  0.75749421  0.64796247  0.15113374  1
  S2-  S157  1  0.83393580  0.63118329  0.64490237  1
  S2-  S158  1  0.83844075  0.88423500  0.14380527  1
  S2-  S159  1  0.80117073  0.86874483  0.64429242  1
  S2-  S160  1  0.14019220  -0.00615563  0.34584839  1
  S2-  S161  1  0.10666407  -0.00186445  0.85098772  1
  S2-  S162  1  0.21061233  0.23411904  0.34577685  1
  S2-  S163  1  0.11652582  0.31012303  0.84539886  1
  S2-  S164  1  0.14243037  0.53780188  0.35125011  1
  S2-  S165  1  0.08996868  0.52405493  0.83167627  1
  S2-  S166  1  0.08026556  0.76856675  0.34256912  1
  S2-  S167  1  0.08687931  0.74563439  0.83761702  1
  S2-  S168  1  0.38804980  0.02025476  0.34340987  1
  S2-  S169  1  0.38105368  0.01438517  0.85264162  1
  S2-  S170  1  0.38267725  0.21489644  0.28390473  1
  S2-  S171  1  0.32699485  0.24305872  0.83464279  1
  S2-  S172  1  0.36255483  0.40761990  0.34159908  1
  S2-  S173  1  0.32263008  0.47748598  0.84708836  1
  S2-  S174  1  0.37287427  0.64453404  0.36156883  1
  S2-  S175  1  0.42704471  0.75082892  0.84859618  1
  S2-  S176  1  0.64204296  0.01415626  0.34505116  1
  S2-  S177  1  0.61813481  0.01601197  0.84915135  1
  S2-  S178  1  0.53532559  0.24704766  0.35216501  1
  S2-  S179  1  0.53596786  0.24741501  0.86129858  1
  S2-  S180  1  0.56889698  0.51411027  0.35342055  1
  S2-  S181  1  0.55808214  0.49474846  0.85360711  1
  S2-  S182  1  0.66682655  0.72895118  0.34189319  1
  S2-  S183  1  0.65082645  0.71055347  0.84345591  1
  S2-  S184  1  0.91824575  0.05528144  0.33690874  1
  S2-  S185  1  0.86474943  0.00493713  0.83616067  1
  S2-  S186  1  0.99107290  0.26756498  0.35671724  1
  S2-  S187  1  0.89206516  0.25781783  0.84963560  1
  S2-  S188  1  0.87672825  0.60693166  0.36082963  1
  S2-  S189  1  0.87721742  0.50763758  0.84525057  1
  S2-  S190  1  0.87017581  0.85296716  0.35519854  1
  S2-  S191  1  0.87628037  0.76208205  0.83805578  1
  S2-  S192  1  -0.00931355  0.11326475  0.45642951  1
  S2-  S193  1  0.00435909  0.12642421  0.95605422  1
  S2-  S194  1  -0.01060830  0.36968501  0.46062075  1
  S2-  S195  1  0.00241619  0.37606620  0.95321289  1
  S2-  S196  1  -0.00512562  0.61261176  0.46259454  1
  S2-  S197  1  0.00569122  0.62028382  0.95185082  1
  S2-  S198  1  -0.00544695  0.86283896  0.45608370  1
  S2-  S199  1  0.00526184  0.87473462  0.95057414  1
  S2-  S200  1  0.24308908  0.11491875  0.45171456  1
  S2-  S201  1  0.25370039  0.12181357  0.95390410  1
  S2-  S202  1  0.24634992  0.36725515  0.45063116  1
  S2-  S203  1  0.25678879  0.37121985  0.95330380  1
  S2-  S204  1  0.24216735  0.61385023  0.45812311  1
  S2-  S205  1  0.25366964  0.62383255  0.94891059  1
  S2-  S206  1  0.24207431  0.86403868  0.44977638  1
  S2-  S207  1  0.25376794  0.87714466  0.95051025  1
  S2-  S208  1  0.48823782  0.11746142  0.45267590  1
  S2-  S209  1  0.50394215  0.12141447  0.96255641  1
  S2-  S210  1  0.48871159  0.36492669  0.45478121  1
  S2-  S211  1  0.50659832  0.37557774  0.96095087  1
  S2-  S212  1  0.49332516  0.61485987  0.46071564  1
  S2-  S213  1  0.50451528  0.62691697  0.95590156  1
  S2-  S214  1  0.48903127  0.86618465  0.45270691  1
  S2-  S215  1  0.50160386  0.87474495  0.95799952  1
  S2-  S216  1  0.74382025  0.11316018  0.45045776  1
  S2-  S217  1  0.75519338  0.12783100  0.94929055  1
  S2-  S218  1  0.74237140  0.36515845  0.45058270  1
  S2-  S219  1  0.75463957  0.37519897  0.95213437  1
  S2-  S220  1  0.73575594  0.61317927  0.45741157  1
  S2-  S221  1  0.75578891  0.62352150  0.95035288  1
  S2-  S222  1  0.73546718  0.86404534  0.44885189  1
  S2-  S223  1  0.75476018  0.87256497  0.94999652  1
  S2-  S224  1  0.12313315  -0.00364395  0.05157311  1
  S2-  S225  1  0.11290289  -0.00601997  0.54997639  1
  S2-  S226  1  0.12592380  0.24903976  0.04647373  1
  S2-  S227  1  0.12127559  0.24088389  0.53867033  1
  S2-  S228  1  0.12611642  0.49805683  0.04044006  1
  S2-  S229  1  0.11992523  0.49014285  0.54933473  1
  S2-  S230  1  0.12559179  0.75231514  0.04241730  1
  S2-  S231  1  0.11442670  0.73754163  0.54842351  1
  S2-  S232  1  0.37703408  -0.00144231  0.05242612  1
  S2-  S233  1  0.36258964  -0.00860289  0.54683950  1
  S2-  S234  1  0.37741520  0.24912321  0.04566358  1
  S2-  S235  1  0.36385525  0.23828778  0.54764400  1
  S2-  S236  1  0.37737898  0.49881195  0.04965066  1
  S2-  S237  1  0.36362058  0.49106052  0.54423740  1
  S2-  S238  1  0.37641053  0.74979881  0.04951649  1
  S2-  S239  1  0.36377810  0.74047903  0.54951689  1
  S2-  S240  1  0.63177378  -0.00004611  0.05518217  1
  S2-  S241  1  0.61824288  -0.00765380  0.54672334  1
  S2-  S242  1  0.63016056  0.24850064  0.05054905  1
  S2-  S243  1  0.61941221  0.23678548  0.54541928  1
  S2-  S244  1  0.63102344  0.50119128  0.05016150  1
  S2-  S245  1  0.61476769  0.48736183  0.55404722  1
  S2-  S246  1  0.63236506  0.74880198  0.04565658  1
  S2-  S247  1  0.61314015  0.73999041  0.54780764  1
  S2-  S248  1  0.88217959  0.00231574  0.04447143  1
  S2-  S249  1  0.86402357  -0.01493949  0.53437336  1
  S2-  S250  1  0.88135371  0.24900820  0.05150281  1
  S2-  S251  1  0.86310510  0.23783370  0.53476672  1
  S2-  S252  1  0.88168370  0.50214032  0.04800367  1
  S2-  S253  1  0.86079130  0.49141987  0.54259821  1
  S2-  S254  1  0.88113949  0.74757963  0.04217165  1
  S2-  S255  1  0.86335295  0.73943336  0.53851617  1
