# generated using pymatgen
data_La6Ce6Pr19Nd20Sm13(BiS2)64
_symmetry_space_group_name_H-M   'P 1'
_cell_length_a   16.10304935
_cell_length_b   16.09442109
_cell_length_c   27.31675164
_cell_angle_alpha   90.05967584
_cell_angle_beta   89.77139268
_cell_angle_gamma   89.93232650
_symmetry_Int_Tables_number   1
_chemical_formula_structural   La6Ce6Pr19Nd20Sm13(BiS2)64
_chemical_formula_sum   'La6 Ce6 Pr19 Nd20 Sm13 Bi64 S128'
_cell_volume   7079.59706483
_cell_formula_units_Z   1
loop_
 _symmetry_equiv_pos_site_id
 _symmetry_equiv_pos_as_xyz
  1  'x, y, z'
loop_
 _atom_type_symbol
 _atom_type_oxidation_number
  La3+  3.0
  Ce3+  3.0
  Pr3+  3.0
  Nd3+  3.0
  Sm3+  3.0
  Bi2+  2.0
  S2-  -2.0
loop_
 _atom_site_type_symbol
 _atom_site_label
 _atom_site_symmetry_multiplicity
 _atom_site_fract_x
 _atom_site_fract_y
 _atom_site_fract_z
 _atom_site_occupancy
  La3+  La0  1  0.24223091  0.88710687  0.57888943  1
  La3+  La1  1  0.12517228  0.25745769  0.39985960  1
  La3+  La2  1  -0.01635266  0.38244951  0.08170058  1
  La3+  La3  1  0.37800270  0.25899914  0.43251521  1
  La3+  La4  1  0.25463676  0.38066142  0.57889613  1
  La3+  La5  1  0.14128550  0.24927396  0.88724027  1
  Ce3+  Ce6  1  0.62543204  0.00511171  0.44807262  1
  Ce3+  Ce7  1  0.87766068  0.76035295  0.42765210  1
  Ce3+  Ce8  1  0.37379031  0.01316077  0.43691898  1
  Ce3+  Ce9  1  0.10892843  0.49020965  0.94234263  1
  Ce3+  Ce10  1  0.85875069  0.75076968  0.94621597  1
  Ce3+  Ce11  1  0.09560387  0.00468718  0.93227302  1
  Pr3+  Pr12  1  0.72902447  0.87318463  0.06729033  1
  Pr3+  Pr13  1  0.50434104  0.38127027  0.57305579  1
  Pr3+  Pr14  1  0.48366817  0.12574363  0.05096973  1
  Pr3+  Pr15  1  0.12603430  0.49727712  0.44769049  1
  Pr3+  Pr16  1  0.73313571  0.37894404  0.07261643  1
  Pr3+  Pr17  1  0.33904175  0.01227157  0.92467666  1
  Pr3+  Pr18  1  0.23681422  0.62785728  0.05389038  1
  Pr3+  Pr19  1  0.62591338  0.75356941  0.43219833  1
  Pr3+  Pr20  1  0.37497510  0.76081157  0.44209322  1
  Pr3+  Pr21  1  0.60602841  0.75015679  0.92675088  1
  Pr3+  Pr22  1  -0.02024912  0.12190161  0.08181257  1
  Pr3+  Pr23  1  0.36026547  0.75861781  0.91530359  1
  Pr3+  Pr24  1  0.87781805  0.00249661  0.43546206  1
  Pr3+  Pr25  1  0.61323858  0.00386873  0.93408404  1
  Pr3+  Pr26  1  0.73253989  0.12692822  0.06816685  1
  Pr3+  Pr27  1  0.62778949  0.50136793  0.43948100  1
  Pr3+  Pr28  1  0.24077094  0.87646520  0.06074967  1
  Pr3+  Pr29  1  -0.01136396  0.87496554  0.06543880  1
  Pr3+  Pr30  1  -0.00887627  0.38199571  0.57718045  1
  Nd3+  Nd31  1  0.61704937  0.25221878  0.93432213  1
  Nd3+  Nd32  1  0.50034728  0.63322268  0.55919162  1
  Nd3+  Nd33  1  -0.01410175  0.62529992  0.05465810  1
  Nd3+  Nd34  1  0.86119528  0.49584927  0.93787199  1
  Nd3+  Nd35  1  0.75213084  0.63287957  0.54907362  1
  Nd3+  Nd36  1  0.60895808  0.49732205  0.94034747  1
  Nd3+  Nd37  1  0.74920533  0.87864131  0.56077262  1
  Nd3+  Nd38  1  0.12904023  0.00239230  0.43174707  1
  Nd3+  Nd39  1  -0.00002095  0.87907772  0.55949607  1
  Nd3+  Nd40  1  0.75249809  0.12983510  0.56231793  1
  Nd3+  Nd41  1  0.23182083  0.37535294  0.07469767  1
  Nd3+  Nd42  1  0.48152913  0.37543042  0.07238369  1
  Nd3+  Nd43  1  0.48042862  0.62669305  0.05327329  1
  Nd3+  Nd44  1  0.13608976  0.75717743  0.42793405  1
  Nd3+  Nd45  1  0.86999794  0.24852056  0.94388771  1
  Nd3+  Nd46  1  0.22855975  0.12647106  0.06235458  1
  Nd3+  Nd47  1  0.37395890  0.49955466  0.44406585  1
  Nd3+  Nd48  1  0.11464387  0.75210051  0.92451832  1
  Nd3+  Nd49  1  0.24829691  0.13274089  0.55688940  1
  Nd3+  Nd50  1  0.88193807  0.49892026  0.43304323  1
  Sm3+  Sm51  1  0.24771807  0.63235638  0.56234890  1
  Sm3+  Sm52  1  0.00100445  0.63239666  0.54593672  1
  Sm3+  Sm53  1  0.49640944  0.88046434  0.55955160  1
  Sm3+  Sm54  1  0.88123960  0.24702295  0.43216830  1
  Sm3+  Sm55  1  0.75109292  0.38149455  0.55563017  1
  Sm3+  Sm56  1  0.35677124  0.49566127  0.93826120  1
  Sm3+  Sm57  1  0.72970743  0.62589436  0.04905995  1
  Sm3+  Sm58  1  0.62884054  0.25465709  0.44847764  1
  Sm3+  Sm59  1  0.35980993  0.25452555  0.94699960  1
  Sm3+  Sm60  1  0.00223126  0.13165183  0.55848704  1
  Sm3+  Sm61  1  0.85806150  -0.00017193  0.94276767  1
  Sm3+  Sm62  1  0.49931350  0.13076615  0.56327948  1
  Sm3+  Sm63  1  0.47936508  0.87705746  0.04867548  1
  Bi2+  Bi64  1  -0.01554887  0.13976138  0.28676953  1
  Bi2+  Bi65  1  -0.03836988  0.08779933  0.77465962  1
  Bi2+  Bi66  1  0.00817174  0.40421051  0.28182494  1
  Bi2+  Bi67  1  -0.01605058  0.35427023  0.78881115  1
  Bi2+  Bi68  1  0.02879796  0.67229589  0.29971463  1
  Bi2+  Bi69  1  0.05703566  0.64893092  0.77153794  1
  Bi2+  Bi70  1  -0.01151171  0.87076715  0.28223523  1
  Bi2+  Bi71  1  0.00517666  0.84462410  0.78040421  1
  Bi2+  Bi72  1  0.26990144  0.08972877  0.30161756  1
  Bi2+  Bi73  1  0.30438775  0.12918282  0.79394846  1
  Bi2+  Bi74  1  0.27333401  0.42034446  0.29393995  1
  Bi2+  Bi75  1  0.24616487  0.39321945  0.78471856  1
  Bi2+  Bi76  1  0.23560744  0.61689302  0.28935072  1
  Bi2+  Bi77  1  0.30477356  0.61430998  0.76646223  1
  Bi2+  Bi78  1  0.24423247  0.85363571  0.28963212  1
  Bi2+  Bi79  1  0.24578332  0.85699739  0.78814574  1
  Bi2+  Bi80  1  0.51506798  0.08476242  0.28146216  1
  Bi2+  Bi81  1  0.56518070  0.15067555  0.81811837  1
  Bi2+  Bi82  1  0.53572050  0.34623763  0.27099225  1
  Bi2+  Bi83  1  0.51913380  0.33757708  0.78969287  1
  Bi2+  Bi84  1  0.52649537  0.63928179  0.31139082  1
  Bi2+  Bi85  1  0.60347491  0.64011171  0.79070147  1
  Bi2+  Bi86  1  0.47113323  0.80756250  0.25126046  1
  Bi2+  Bi87  1  0.56849093  0.86969848  0.78191517  1
  Bi2+  Bi88  1  0.73527537  0.11332816  0.28938627  1
  Bi2+  Bi89  1  0.76040352  0.12616862  0.79556539  1
  Bi2+  Bi90  1  0.74102627  0.37874927  0.30670010  1
  Bi2+  Bi91  1  0.73257628  0.39068889  0.80141340  1
  Bi2+  Bi92  1  0.73926634  0.67856747  0.29654102  1
  Bi2+  Bi93  1  0.79687117  0.65319504  0.78795163  1
  Bi2+  Bi94  1  0.70806329  0.86451257  0.30761412  1
  Bi2+  Bi95  1  0.74341237  0.83707668  0.82045199  1
  Bi2+  Bi96  1  0.12193301  0.01050506  0.20090773  1
  Bi2+  Bi97  1  0.10816136  0.01066428  0.70975240  1
  Bi2+  Bi98  1  0.17718517  0.25144602  0.20665803  1
  Bi2+  Bi99  1  0.13827443  0.23195527  0.68330572  1
  Bi2+  Bi100  1  0.10336902  0.53164722  0.21569485  1
  Bi2+  Bi101  1  0.07541587  0.49940990  0.70432489  1
  Bi2+  Bi102  1  0.07366442  0.74950159  0.19635355  1
  Bi2+  Bi103  1  0.17262049  0.73814370  0.69218714  1
  Bi2+  Bi104  1  0.42330474  -0.02138681  0.20368377  1
  Bi2+  Bi105  1  0.45365756  0.02735679  0.75613991  1
  Bi2+  Bi106  1  0.40257985  0.26139270  0.21299411  1
  Bi2+  Bi107  1  0.38612929  0.23816616  0.71187754  1
  Bi2+  Bi108  1  0.41198598  0.52930465  0.24501169  1
  Bi2+  Bi109  1  0.45372530  0.49275378  0.72116550  1
  Bi2+  Bi110  1  0.34196334  0.69636920  0.19211716  1
  Bi2+  Bi111  1  0.42541614  0.76226101  0.70751066  1
  Bi2+  Bi112  1  0.64254342  -0.05193333  0.20426709  1
  Bi2+  Bi113  1  0.64834992  0.02691396  0.71834321  1
  Bi2+  Bi114  1  0.63320986  0.15048089  0.19122901  1
  Bi2+  Bi115  1  0.58220119  0.23905804  0.69087615  1
  Bi2+  Bi116  1  0.65392669  0.46990183  0.21295263  1
  Bi2+  Bi117  1  0.62848704  0.42938120  0.68473427  1
  Bi2+  Bi118  1  0.61148314  0.68732206  0.20494439  1
  Bi2+  Bi119  1  0.65721524  0.73648031  0.69096971  1
  Bi2+  Bi120  1  0.85407830  -0.00189269  0.21375957  1
  Bi2+  Bi121  1  0.84873002  -0.05988419  0.73495119  1
  Bi2+  Bi122  1  0.79634725  0.25908473  0.22150373  1
  Bi2+  Bi123  1  0.77677320  0.26722765  0.70920919  1
  Bi2+  Bi124  1  0.85272965  0.51914180  0.20760738  1
  Bi2+  Bi125  1  0.81106258  0.49956759  0.71491712  1
  Bi2+  Bi126  1  0.88429851  0.73133824  0.22282875  1
  Bi2+  Bi127  1  0.91266887  0.73665716  0.70051700  1
  S2-  S128  1  0.04067912  0.17037798  0.18680872  1
  S2-  S129  1  0.00460745  0.11786959  0.65753141  1
  S2-  S130  1  0.11908247  0.37786783  0.15564941  1
  S2-  S131  1  0.01270357  0.34392330  0.67936808  1
  S2-  S132  1  -0.02472895  0.54597729  0.14354188  1
  S2-  S133  1  -0.00555447  0.62446544  0.64333087  1
  S2-  S134  1  -0.01760952  0.97673962  0.14710364  1
  S2-  S135  1  0.09427707  0.87912949  0.64242532  1
  S2-  S136  1  0.24468172  0.10383245  0.16312041  1
  S2-  S137  1  0.22556242  0.07939451  0.65155099  1
  S2-  S138  1  0.35829768  0.36982546  0.14704520  1
  S2-  S139  1  0.20151519  0.39819339  0.67822900  1
  S2-  S140  1  0.23591209  0.58750272  0.15175140  1
  S2-  S141  1  0.26403696  0.61435679  0.66025489  1
  S2-  S142  1  0.16880012  0.87140742  0.15507061  1
  S2-  S143  1  0.30990193  0.85919316  0.67402092  1
  S2-  S144  1  0.46733978  0.13171988  0.15068338  1
  S2-  S145  1  0.46042750  0.10810831  0.65797484  1
  S2-  S146  1  0.60392968  0.36592013  0.14359232  1
  S2-  S147  1  0.39328436  0.38187047  0.64976842  1
  S2-  S148  1  0.47898778  0.60086973  0.15208092  1
  S2-  S149  1  0.50771486  0.62663148  0.65784955  1
  S2-  S150  1  0.38382364  0.87069180  0.13036267  1
  S2-  S151  1  0.53509745  0.85567026  0.65318767  1
  S2-  S152  1  0.83702335  0.13008248  0.14956792  1
  S2-  S153  1  0.76324322  0.11122654  0.66039577  1
  S2-  S154  1  0.85096822  0.37497661  0.15186068  1
  S2-  S155  1  0.83922225  0.38709258  0.63770965  1
  S2-  S156  1  0.72998568  0.60258707  0.14585668  1
  S2-  S157  1  0.74863207  0.62224412  0.64779234  1
  S2-  S158  1  0.77736649  0.86179762  0.16357539  1
  S2-  S159  1  0.78460039  0.84780587  0.65595116  1
  S2-  S160  1  0.10903354  0.09720147  0.34493936  1
  S2-  S161  1  0.19271806  0.07691840  0.85785158  1
  S2-  S162  1  0.22674101  0.24651106  0.31050348  1
  S2-  S163  1  0.13400308  0.25659221  0.77832220  1
  S2-  S164  1  0.12708258  0.42632105  0.35591110  1
  S2-  S165  1  0.12175573  0.42413356  0.85120896  1
  S2-  S166  1  0.11800241  0.88004335  0.35493384  1
  S2-  S167  1  0.11413412  0.87880052  0.85520056  1
  S2-  S168  1  0.33643966  -0.05989392  0.34952469  1
  S2-  S169  1  0.35942091  -0.09852521  0.84751139  1
  S2-  S170  1  0.39810840  0.13759856  0.35776846  1
  S2-  S171  1  0.31242639  0.27797647  0.85281328  1
  S2-  S172  1  0.38737137  0.39563252  0.36458016  1
  S2-  S173  1  0.34682946  0.50465040  0.83901136  1
  S2-  S174  1  0.27646656  0.73373488  0.36082391  1
  S2-  S175  1  0.23818705  0.71605433  0.84474932  1
  S2-  S176  1  0.62385439  0.01961032  0.35062541  1
  S2-  S177  1  0.74124129  -0.00495765  0.86523759  1
  S2-  S178  1  0.61920192  0.28040682  0.35170427  1
  S2-  S179  1  0.74778440  0.25719464  0.86653990  1
  S2-  S180  1  0.64608219  0.52185851  0.34117719  1
  S2-  S181  1  0.59353404  0.48204601  0.84196197  1
  S2-  S182  1  0.55188505  0.80784369  0.34714434  1
  S2-  S183  1  0.49846574  0.73470046  0.84638758  1
  S2-  S184  1  0.86589459  0.11704614  0.35878439  1
  S2-  S185  1  0.96100598  0.02124892  0.86159715  1
  S2-  S186  1  0.97406252  0.27898033  0.34714921  1
  S2-  S187  1  0.97030008  0.24724533  0.85837745  1
  S2-  S188  1  0.88517605  0.48124840  0.33370489  1
  S2-  S189  1  0.88287392  0.46284176  0.83980075  1
  S2-  S190  1  0.86702641  0.88286007  0.35684296  1
  S2-  S191  1  0.89833951  0.75826949  0.85231687  1
  S2-  S192  1  0.00531099  0.13126401  0.45500050  1
  S2-  S193  1  -0.02255257  0.11831256  0.97152885  1
  S2-  S194  1  -0.00074116  0.37408580  0.46125966  1
  S2-  S195  1  -0.01736952  0.37958694  0.96565232  1
  S2-  S196  1  0.00405696  0.63059103  0.44175297  1
  S2-  S197  1  -0.01216125  0.62432967  0.94819509  1
  S2-  S198  1  0.00339095  0.87677597  0.45579353  1
  S2-  S199  1  -0.01813628  0.87091260  0.95945732  1
  S2-  S200  1  0.24361997  0.13782680  0.45139668  1
  S2-  S201  1  0.22868675  0.14259004  0.95990101  1
  S2-  S202  1  0.24889559  0.37574537  0.46525362  1
  S2-  S203  1  0.23600606  0.37341397  0.96126223  1
  S2-  S204  1  0.25123559  0.62380738  0.45865762  1
  S2-  S205  1  0.23385540  0.61845884  0.94849342  1
  S2-  S206  1  0.25136302  0.88237738  0.46500990  1
  S2-  S207  1  0.23228198  0.87782537  0.95378362  1
  S2-  S208  1  0.50647510  0.13343450  0.45994584  1
  S2-  S209  1  0.48185498  0.12657118  0.94487479  1
  S2-  S210  1  0.50720484  0.37920495  0.46554097  1
  S2-  S211  1  0.48482086  0.37409156  0.95360396  1
  S2-  S212  1  0.49829095  0.62805381  0.45231756  1
  S2-  S213  1  0.48129899  0.61981175  0.94789486  1
  S2-  S214  1  0.49821831  0.88421458  0.45638282  1
  S2-  S215  1  0.48604849  0.88241746  0.94675425  1
  S2-  S216  1  0.74992140  0.13091021  0.45754862  1
  S2-  S217  1  0.73469775  0.12570915  0.96276764  1
  S2-  S218  1  0.75652323  0.37592626  0.45182210  1
  S2-  S219  1  0.73461311  0.37912734  0.96245593  1
  S2-  S220  1  0.75569261  0.62839956  0.44377112  1
  S2-  S221  1  0.73223376  0.62462431  0.94390650  1
  S2-  S222  1  0.74721766  0.87872230  0.45569924  1
  S2-  S223  1  0.72965580  0.86955694  0.96053105  1
  S2-  S224  1  0.11182009  -0.00080490  0.04446897  1
  S2-  S225  1  0.12106233  0.00831357  0.54039113  1
  S2-  S226  1  0.10644174  0.24911544  0.06309795  1
  S2-  S227  1  0.12203095  0.25727182  0.56163121  1
  S2-  S228  1  0.11269406  0.50249474  0.04621512  1
  S2-  S229  1  0.12360714  0.50599682  0.55375449  1
  S2-  S230  1  0.11022373  0.74962337  0.04018514  1
  S2-  S231  1  0.12605067  0.75197612  0.53946092  1
  S2-  S232  1  0.35837064  0.00516778  0.03376260  1
  S2-  S233  1  0.37625120  0.00650642  0.54826904  1
  S2-  S234  1  0.35855603  0.24995943  0.04857807  1
  S2-  S235  1  0.37830504  0.25276005  0.54703487  1
  S2-  S236  1  0.36017930  0.49905345  0.04298309  1
  S2-  S237  1  0.37546905  0.51022020  0.54950497  1
  S2-  S238  1  0.36133447  0.75003284  0.02897175  1
  S2-  S239  1  0.37265067  0.75592293  0.55002585  1
  S2-  S240  1  0.60654826  -0.00166051  0.04552548  1
  S2-  S241  1  0.62383735  0.00454532  0.55525929  1
  S2-  S242  1  0.60794291  0.25041186  0.04061241  1
  S2-  S243  1  0.62899660  0.25509103  0.55327057  1
  S2-  S244  1  0.60562788  0.50368147  0.04500421  1
  S2-  S245  1  0.62791194  0.50700730  0.54646572  1
  S2-  S246  1  0.60372190  0.75099544  0.04140085  1
  S2-  S247  1  0.62392403  0.75701662  0.54045793  1
  S2-  S248  1  0.85232892  -0.00631088  0.04786431  1
  S2-  S249  1  0.87652508  0.00421988  0.54760494  1
  S2-  S250  1  0.85747333  0.25286633  0.05013437  1
  S2-  S251  1  0.87511987  0.25190683  0.54294606  1
  S2-  S252  1  0.85410367  0.50706893  0.04283393  1
  S2-  S253  1  0.87624330  0.50887549  0.53901301  1
  S2-  S254  1  0.85783713  0.74765218  0.05288001  1
  S2-  S255  1  0.87688994  0.75588687  0.53795538  1
