# generated using pymatgen
data_La6Ce6Pr19Nd20Sm13(BiS2)64
_symmetry_space_group_name_H-M   'P 1'
_cell_length_a   16.07716818
_cell_length_b   16.08329805
_cell_length_c   27.24909959
_cell_angle_alpha   90.10657588
_cell_angle_beta   90.27957893
_cell_angle_gamma   90.01579925
_symmetry_Int_Tables_number   1
_chemical_formula_structural   La6Ce6Pr19Nd20Sm13(BiS2)64
_chemical_formula_sum   'La6 Ce6 Pr19 Nd20 Sm13 Bi64 S128'
_cell_volume   7045.80925817
_cell_formula_units_Z   1
loop_
 _symmetry_equiv_pos_site_id
 _symmetry_equiv_pos_as_xyz
  1  'x, y, z'
loop_
 _atom_type_symbol
 _atom_type_oxidation_number
  La3+  3.0
  Ce3+  3.0
  Pr3+  3.0
  Nd3+  3.0
  Sm3+  3.0
  Bi2+  2.0
  S2-  -2.0
loop_
 _atom_site_type_symbol
 _atom_site_label
 _atom_site_symmetry_multiplicity
 _atom_site_fract_x
 _atom_site_fract_y
 _atom_site_fract_z
 _atom_site_occupancy
  La3+  La0  1  0.61757155  0.25227624  0.42165958  1
  La3+  La1  1  0.36551586  0.53729046  0.91620934  1
  La3+  La2  1  0.87774795  0.27928899  0.91665525  1
  La3+  La3  1  0.11830967  0.24292075  0.41167636  1
  La3+  La4  1  0.50308521  0.37023307  0.56926639  1
  La3+  La5  1  0.49941169  0.12252617  0.60690723  1
  Ce3+  Ce6  1  -0.00152399  0.87505674  0.56744972  1
  Ce3+  Ce7  1  0.87402875  -0.00047214  0.44664969  1
  Ce3+  Ce8  1  0.74437301  0.86988634  0.55612697  1
  Ce3+  Ce9  1  0.74628270  0.40632083  0.04171863  1
  Ce3+  Ce10  1  0.87167468  0.25793283  0.42983118  1
  Ce3+  Ce11  1  0.87642096  0.50388471  0.43449006  1
  Pr3+  Pr12  1  0.50129040  0.90818337  0.06008114  1
  Pr3+  Pr13  1  0.24897982  0.36905956  0.56321145  1
  Pr3+  Pr14  1  0.49912472  0.61997901  0.57904184  1
  Pr3+  Pr15  1  0.60997250  0.28724245  0.91689556  1
  Pr3+  Pr16  1  0.87492333  0.03231114  0.93281161  1
  Pr3+  Pr17  1  0.50678293  0.65046219  0.06724437  1
  Pr3+  Pr18  1  -0.00392969  0.90698095  0.07707794  1
  Pr3+  Pr19  1  0.37088213  0.24933467  0.43575977  1
  Pr3+  Pr20  1  0.50678362  0.87268832  0.56628703  1
  Pr3+  Pr21  1  0.36866003  0.49754321  0.44587671  1
  Pr3+  Pr22  1  -0.00594882  0.40881523  0.06401643  1
  Pr3+  Pr23  1  0.61902229  0.49992555  0.43447924  1
  Pr3+  Pr24  1  0.74739191  0.16917545  0.06096688  1
  Pr3+  Pr25  1  0.37053166  0.74869802  0.43686337  1
  Pr3+  Pr26  1  0.11926866  -0.00170580  0.43460701  1
  Pr3+  Pr27  1  0.62404817  0.00012255  0.43826744  1
  Pr3+  Pr28  1  0.25343271  0.65178105  0.06990915  1
  Pr3+  Pr29  1  0.25226850  0.87622034  0.56019842  1
  Pr3+  Pr30  1  -0.00521480  0.12027370  0.57145220  1
  Nd3+  Nd31  1  0.87800398  0.78355850  0.93214149  1
  Nd3+  Nd32  1  0.25088944  0.12348505  0.56229844  1
  Nd3+  Nd33  1  0.12029327  0.53669655  0.93900615  1
  Nd3+  Nd34  1  0.62255630  0.03752312  0.94373663  1
  Nd3+  Nd35  1  0.62090643  0.78686604  0.93232061  1
  Nd3+  Nd36  1  0.74900618  0.65943720  0.05495721  1
  Nd3+  Nd37  1  0.00255963  0.62326365  0.57492410  1
  Nd3+  Nd38  1  0.24863930  0.62515362  0.57323693  1
  Nd3+  Nd39  1  0.37127161  0.78035171  0.94187608  1
  Nd3+  Nd40  1  0.50033631  0.16458026  0.07150800  1
  Nd3+  Nd41  1  -0.00582789  0.15814285  0.06861220  1
  Nd3+  Nd42  1  0.87308884  0.53244457  0.92614367  1
  Nd3+  Nd43  1  0.25266536  0.90774486  0.06411096  1
  Nd3+  Nd44  1  -0.00234927  0.37160094  0.55832674  1
  Nd3+  Nd45  1  0.61690056  0.74305794  0.42917217  1
  Nd3+  Nd46  1  0.74795980  0.62220035  0.56517501  1
  Nd3+  Nd47  1  0.24781033  0.16585758  0.07899021  1
  Nd3+  Nd48  1  0.49975315  0.40739018  0.05494895  1
  Nd3+  Nd49  1  0.61898167  0.54142238  0.92389058  1
  Nd3+  Nd50  1  0.24932647  0.41058321  0.06336718  1
  Sm3+  Sm51  1  0.74970717  0.91003104  0.05541440  1
  Sm3+  Sm52  1  0.36963919  0.28396482  0.94224838  1
  Sm3+  Sm53  1  0.12125374  0.28150437  0.94339569  1
  Sm3+  Sm54  1  -0.00393209  0.65715645  0.06799413  1
  Sm3+  Sm55  1  0.12346049  0.03368288  0.95320164  1
  Sm3+  Sm56  1  0.37523721  0.00215664  0.44300699  1
  Sm3+  Sm57  1  0.74851137  0.37344437  0.55385016  1
  Sm3+  Sm58  1  0.12506281  0.74667503  0.44134266  1
  Sm3+  Sm59  1  0.12260468  0.78419312  0.95455758  1
  Sm3+  Sm60  1  0.12263058  0.49914446  0.44798796  1
  Sm3+  Sm61  1  0.74966917  0.12995824  0.55972806  1
  Sm3+  Sm62  1  0.37105455  0.03637951  0.94852332  1
  Sm3+  Sm63  1  0.87496136  0.74322902  0.44262290  1
  Bi2+  Bi64  1  -0.01279891  0.10871856  0.28792221  1
  Bi2+  Bi65  1  -0.00251958  0.12569693  0.79858306  1
  Bi2+  Bi66  1  0.05753711  0.36816224  0.29471852  1
  Bi2+  Bi67  1  0.02651859  0.47806358  0.80965888  1
  Bi2+  Bi68  1  0.01948530  0.67559619  0.30594105  1
  Bi2+  Bi69  1  -0.00966342  0.65888577  0.77215488  1
  Bi2+  Bi70  1  -0.02807309  0.86695529  0.30330708  1
  Bi2+  Bi71  1  -0.03244233  0.86417188  0.77387638  1
  Bi2+  Bi72  1  0.22100731  0.07827782  0.25914797  1
  Bi2+  Bi73  1  0.24245948  0.12386103  0.80690960  1
  Bi2+  Bi74  1  0.24716617  0.45945751  0.30523937  1
  Bi2+  Bi75  1  0.16470444  0.32918982  0.79936965  1
  Bi2+  Bi76  1  0.31838715  0.64851226  0.29105589  1
  Bi2+  Bi77  1  0.23462948  0.66207236  0.79549371  1
  Bi2+  Bi78  1  0.16907756  0.88269206  0.31539888  1
  Bi2+  Bi79  1  0.18968354  0.85476675  0.78624014  1
  Bi2+  Bi80  1  0.50619853  0.10903182  0.30223542  1
  Bi2+  Bi81  1  0.52847126  0.11243867  0.82393555  1
  Bi2+  Bi82  1  0.49779864  0.37935049  0.28435560  1
  Bi2+  Bi83  1  0.52123767  0.35841829  0.78486629  1
  Bi2+  Bi84  1  0.55542637  0.58261578  0.26735614  1
  Bi2+  Bi85  1  0.50301520  0.61259524  0.79682399  1
  Bi2+  Bi86  1  0.55110912  0.84282123  0.28549717  1
  Bi2+  Bi87  1  0.47122260  0.86943265  0.78191169  1
  Bi2+  Bi88  1  0.74704409  0.06892505  0.28356796  1
  Bi2+  Bi89  1  0.76009077  0.01805008  0.79151415  1
  Bi2+  Bi90  1  0.75220207  0.38314078  0.27948969  1
  Bi2+  Bi91  1  0.82909681  0.43979940  0.74769794  1
  Bi2+  Bi92  1  0.76399653  0.60985949  0.28585860  1
  Bi2+  Bi93  1  0.76759026  0.62425994  0.78301571  1
  Bi2+  Bi94  1  0.75211494  0.80580721  0.28868396  1
  Bi2+  Bi95  1  0.74597732  0.81953306  0.76780101  1
  Bi2+  Bi96  1  0.09889761  -0.06040643  0.20962438  1
  Bi2+  Bi97  1  0.15948891  0.00428653  0.71277857  1
  Bi2+  Bi98  1  0.08021936  0.16801603  0.19677085  1
  Bi2+  Bi99  1  0.10645260  0.20090615  0.70757835  1
  Bi2+  Bi100  1  0.10857773  0.48670480  0.20601402  1
  Bi2+  Bi101  1  0.12031357  0.47743613  0.71283411  1
  Bi2+  Bi102  1  0.15202221  0.67572296  0.22342980  1
  Bi2+  Bi103  1  0.06635538  0.77157981  0.68772916  1
  Bi2+  Bi104  1  0.33765013  -0.08242046  0.26013106  1
  Bi2+  Bi105  1  0.36429671  0.00598274  0.72212476  1
  Bi2+  Bi106  1  0.36589909  0.25431307  0.20243253  1
  Bi2+  Bi107  1  0.30006407  0.25276716  0.72734211  1
  Bi2+  Bi108  1  0.37999193  0.51351035  0.21139004  1
  Bi2+  Bi109  1  0.37041396  0.50672801  0.71507220  1
  Bi2+  Bi110  1  0.33086733  0.73531112  0.18798007  1
  Bi2+  Bi111  1  0.34939915  0.76594147  0.72059040  1
  Bi2+  Bi112  1  0.62922488  -0.01794283  0.19087460  1
  Bi2+  Bi113  1  0.61819919  -0.02207530  0.71103992  1
  Bi2+  Bi114  1  0.63818802  0.23346479  0.19193742  1
  Bi2+  Bi115  1  0.65490963  0.23582962  0.70938421  1
  Bi2+  Bi116  1  0.64927012  0.48684027  0.18155643  1
  Bi2+  Bi117  1  0.64852305  0.49627433  0.70224715  1
  Bi2+  Bi118  1  0.53032452  0.73165677  0.19353002  1
  Bi2+  Bi119  1  0.57642424  0.75201680  0.71488198  1
  Bi2+  Bi120  1  0.84904376  -0.07147870  0.21746276  1
  Bi2+  Bi121  1  0.88592988  0.01354274  0.70233604  1
  Bi2+  Bi122  1  0.89795142  0.28019657  0.22784953  1
  Bi2+  Bi123  1  0.92541025  0.27791000  0.71327597  1
  Bi2+  Bi124  1  0.90890723  0.47910606  0.22874919  1
  Bi2+  Bi125  1  0.86606238  0.61352205  0.68121398  1
  Bi2+  Bi126  1  0.88261126  0.71641576  0.21473429  1
  Bi2+  Bi127  1  0.85974369  0.81727316  0.67182359  1
  S2-  S128  1  -0.01455562  0.03840656  0.14690384  1
  S2-  S129  1  -0.12729780  0.15822125  0.64369401  1
  S2-  S130  1  -0.01887837  0.28551689  0.14001640  1
  S2-  S131  1  0.00125977  0.40810559  0.65752087  1
  S2-  S132  1  -0.02070841  0.53314357  0.13827453  1
  S2-  S133  1  0.12780160  0.62319614  0.64967365  1
  S2-  S134  1  -0.01274886  0.77166956  0.14507499  1
  S2-  S135  1  0.02654067  0.98955360  0.64237877  1
  S2-  S136  1  0.31306743  0.11227953  0.16963232  1
  S2-  S137  1  0.33186547  0.13464110  0.65205848  1
  S2-  S138  1  0.24812371  0.30382531  0.14749369  1
  S2-  S139  1  0.28397482  0.39655310  0.66220325  1
  S2-  S140  1  0.24951147  0.52495040  0.14171851  1
  S2-  S141  1  0.36318931  0.63881438  0.65008429  1
  S2-  S142  1  0.24538055  0.89158343  0.16341822  1
  S2-  S143  1  0.25880266  0.88501904  0.66058388  1
  S2-  S144  1  0.53045432  0.10794643  0.17004163  1
  S2-  S145  1  0.51998923  0.12429662  0.72980788  1
  S2-  S146  1  0.49780451  0.29970187  0.13992698  1
  S2-  S147  1  0.52507344  0.27606655  0.65555963  1
  S2-  S148  1  0.49421754  0.51565618  0.13558084  1
  S2-  S149  1  0.50290296  0.48419158  0.65272136  1
  S2-  S150  1  0.49529517  0.89991508  0.16040434  1
  S2-  S151  1  0.47376575  0.96325615  0.65212727  1
  S2-  S152  1  0.74749287  0.12434420  0.16116689  1
  S2-  S153  1  0.66725100  0.10743609  0.64580434  1
  S2-  S154  1  0.73015752  0.34519547  0.13293802  1
  S2-  S155  1  0.73552759  0.36535487  0.65397399  1
  S2-  S156  1  0.66055333  0.64193079  0.13998474  1
  S2-  S157  1  0.63957917  0.63699194  0.64519779  1
  S2-  S158  1  0.74252390  0.86212098  0.15010288  1
  S2-  S159  1  0.64776048  0.85926414  0.63666231  1
  S2-  S160  1  0.12706369  0.09245888  0.34948741  1
  S2-  S161  1  0.11598078  0.03548359  0.85435179  1
  S2-  S162  1  0.20724934  0.30005538  0.32928575  1
  S2-  S163  1  0.03408506  0.26279412  0.85829288  1
  S2-  S164  1  0.09731549  0.52076935  0.35071492  1
  S2-  S165  1  0.21342814  0.53572490  0.85521446  1
  S2-  S166  1  0.23760293  0.73799252  0.36524148  1
  S2-  S167  1  0.12046647  0.75599426  0.85748061  1
  S2-  S168  1  0.38406205  0.00554895  0.34272110  1
  S2-  S169  1  0.37381593  0.03234564  0.85018173  1
  S2-  S170  1  0.43923766  0.23899825  0.34089318  1
  S2-  S171  1  0.44992884  0.25841594  0.85699462  1
  S2-  S172  1  0.41168439  0.48020296  0.34855299  1
  S2-  S173  1  0.40097602  0.46739141  0.81773497  1
  S2-  S174  1  0.48526187  0.76151147  0.35850858  1
  S2-  S175  1  0.37839019  0.68845651  0.85663983  1
  S2-  S176  1  0.62124625  -0.01459123  0.33653592  1
  S2-  S177  1  0.62897284  -0.03189552  0.85111107  1
  S2-  S178  1  0.66024180  0.18529918  0.32477248  1
  S2-  S179  1  0.64938609  0.24163664  0.81825910  1
  S2-  S180  1  0.61724878  0.38956369  0.35134552  1
  S2-  S181  1  0.61508675  0.45307966  0.83593277  1
  S2-  S182  1  0.63807249  0.61536842  0.35738325  1
  S2-  S183  1  0.61777623  0.67774105  0.85389327  1
  S2-  S184  1  0.87757010  0.01108516  0.34937417  1
  S2-  S185  1  0.89506378  -0.09429214  0.86028425  1
  S2-  S186  1  0.97193908  0.23391833  0.35084898  1
  S2-  S187  1  0.85621655  0.13888610  0.85069330  1
  S2-  S188  1  0.85474550  0.40234393  0.35593050  1
  S2-  S189  1  0.87430327  0.41600636  0.84714629  1
  S2-  S190  1  0.88422045  0.63434947  0.36529188  1
  S2-  S191  1  0.88212083  0.66127590  0.85699421  1
  S2-  S192  1  -0.00259816  0.12415367  0.46096221  1
  S2-  S193  1  0.00146545  0.15315033  0.96199939  1
  S2-  S194  1  0.00434843  0.37360912  0.45363523  1
  S2-  S195  1  0.00131932  0.40960532  0.95522758  1
  S2-  S196  1  0.00449054  0.62569628  0.46642242  1
  S2-  S197  1  0.00054249  0.66071616  0.96181149  1
  S2-  S198  1  -0.00147071  0.86855076  0.45545978  1
  S2-  S199  1  0.00456867  0.90894025  0.96828751  1
  S2-  S200  1  0.24761035  0.12394658  0.45411179  1
  S2-  S201  1  0.24740514  0.15898463  0.96005159  1
  S2-  S202  1  0.24118023  0.37011004  0.45559411  1
  S2-  S203  1  0.24540332  0.40378574  0.95348682  1
  S2-  S204  1  0.24415886  0.62171604  0.46537567  1
  S2-  S205  1  0.24535199  0.66158936  0.96254898  1
  S2-  S206  1  0.24846186  0.87930569  0.45502146  1
  S2-  S207  1  0.24894390  0.90842241  0.95679386  1
  S2-  S208  1  0.49776104  0.12298410  0.44450336  1
  S2-  S209  1  0.49374430  0.15596384  0.96144390  1
  S2-  S210  1  0.49400142  0.37280027  0.45860613  1
  S2-  S211  1  0.49015849  0.41233716  0.94745441  1
  S2-  S212  1  0.49273610  0.62115011  0.46102684  1
  S2-  S213  1  0.49799062  0.66106845  0.95897366  1
  S2-  S214  1  0.49669894  0.87904825  0.45816795  1
  S2-  S215  1  0.49395244  0.90932254  0.95275179  1
  S2-  S216  1  0.75071017  0.12650723  0.45032129  1
  S2-  S217  1  0.74230652  0.16151487  0.95127328  1
  S2-  S218  1  0.74608133  0.37561160  0.45262151  1
  S2-  S219  1  0.74190226  0.40763231  0.93900635  1
  S2-  S220  1  0.75059721  0.62320643  0.46051668  1
  S2-  S221  1  0.74784503  0.66183831  0.95123220  1
  S2-  S222  1  0.74901549  0.86695232  0.44757657  1
  S2-  S223  1  0.74635458  0.90714229  0.95274374  1
  S2-  S224  1  0.13105691  0.03441939  0.05703722  1
  S2-  S225  1  0.12703202  -0.00046592  0.54147779  1
  S2-  S226  1  0.12274420  0.28315387  0.04547359  1
  S2-  S227  1  0.12134775  0.24492194  0.55975014  1
  S2-  S228  1  0.12078248  0.53510347  0.04357892  1
  S2-  S229  1  0.12411330  0.49587492  0.55147011  1
  S2-  S230  1  0.12939445  0.78092580  0.05747860  1
  S2-  S231  1  0.12427330  0.75239149  0.54599033  1
  S2-  S232  1  0.37476122  0.03560724  0.05344698  1
  S2-  S233  1  0.37704299  0.00279554  0.54626121  1
  S2-  S234  1  0.37115508  0.28212231  0.04349888  1
  S2-  S235  1  0.37534295  0.24564080  0.54487158  1
  S2-  S236  1  0.37294645  0.53204983  0.03436872  1
  S2-  S237  1  0.36967924  0.49751581  0.55058799  1
  S2-  S238  1  0.37692402  0.78054591  0.04845289  1
  S2-  S239  1  0.37594653  0.75162854  0.54555886  1
  S2-  S240  1  0.62520137  0.03521689  0.04900514  1
  S2-  S241  1  0.62571169  0.00312065  0.54250542  1
  S2-  S242  1  0.61930417  0.28323734  0.02925053  1
  S2-  S243  1  0.62926492  0.24881871  0.53893949  1
  S2-  S244  1  0.62653218  0.53141992  0.03095637  1
  S2-  S245  1  0.62698164  0.49784467  0.54322412  1
  S2-  S246  1  0.62488125  0.78514230  0.03954303  1
  S2-  S247  1  0.62296124  0.74333583  0.53591121  1
  S2-  S248  1  0.86686858  0.03462921  0.04345632  1
  S2-  S249  1  0.86752163  -0.00555291  0.54992960  1
  S2-  S250  1  0.87323246  0.28389524  0.03113797  1
  S2-  S251  1  0.87310050  0.25295401  0.53788496  1
  S2-  S252  1  0.86892861  0.53489312  0.03485935  1
  S2-  S253  1  0.87515185  0.49910706  0.54715456  1
  S2-  S254  1  0.87070926  0.78407803  0.04138776  1
  S2-  S255  1  0.87644742  0.74599166  0.54706422  1
