# generated using pymatgen
data_La6Ce6Pr19Nd20Sm13(BiS2)64
_symmetry_space_group_name_H-M   'P 1'
_cell_length_a   16.16839464
_cell_length_b   16.17858518
_cell_length_c   27.15819666
_cell_angle_alpha   89.98887526
_cell_angle_beta   89.92981671
_cell_angle_gamma   90.04929421
_symmetry_Int_Tables_number   1
_chemical_formula_structural   La6Ce6Pr19Nd20Sm13(BiS2)64
_chemical_formula_sum   'La6 Ce6 Pr19 Nd20 Sm13 Bi64 S128'
_cell_volume   7104.08051112
_cell_formula_units_Z   1
loop_
 _symmetry_equiv_pos_site_id
 _symmetry_equiv_pos_as_xyz
  1  'x, y, z'
loop_
 _atom_type_symbol
 _atom_type_oxidation_number
  La3+  3.0
  Ce3+  3.0
  Pr3+  3.0
  Nd3+  3.0
  Sm3+  3.0
  Bi2+  2.0
  S2-  -2.0
loop_
 _atom_site_type_symbol
 _atom_site_label
 _atom_site_symmetry_multiplicity
 _atom_site_fract_x
 _atom_site_fract_y
 _atom_site_fract_z
 _atom_site_occupancy
  La3+  La0  1  0.24392997  0.86415835  0.58145621  1
  La3+  La1  1  0.37621718  0.48741196  0.90778946  1
  La3+  La2  1  0.01563727  0.62489404  0.11125486  1
  La3+  La3  1  0.48909828  0.86591354  0.06498968  1
  La3+  La4  1  0.11662959  0.24464282  0.93169837  1
  La3+  La5  1  0.37635067  0.74357271  0.90574503  1
  Ce3+  Ce6  1  0.87615656  0.50060390  0.44266825  1
  Ce3+  Ce7  1  0.13128773  0.50091383  0.43693270  1
  Ce3+  Ce8  1  0.12887560  -0.00260063  0.45147810  1
  Ce3+  Ce9  1  -0.00619398  0.37270039  0.06606553  1
  Ce3+  Ce10  1  0.00230641  0.12511888  0.56192302  1
  Ce3+  Ce11  1  0.61670535  -0.00768612  0.94157959  1
  Pr3+  Pr12  1  0.00255442  0.37366384  0.55595811  1
  Pr3+  Pr13  1  0.62815816  0.48946260  0.93192674  1
  Pr3+  Pr14  1  0.25451462  0.12387616  0.56541813  1
  Pr3+  Pr15  1  0.49318450  0.36635517  0.05589431  1
  Pr3+  Pr16  1  0.62552313  -0.00265019  0.44250143  1
  Pr3+  Pr17  1  0.87753158  0.24845863  0.44193518  1
  Pr3+  Pr18  1  0.12285190  0.49595074  0.93736862  1
  Pr3+  Pr19  1  0.75539044  0.62459347  0.56560845  1
  Pr3+  Pr20  1  0.11138404  -0.01262823  0.92287019  1
  Pr3+  Pr21  1  0.75319076  0.87322385  0.55477720  1
  Pr3+  Pr22  1  0.00447349  0.62411365  0.55492661  1
  Pr3+  Pr23  1  0.49450695  0.61421991  0.05839686  1
  Pr3+  Pr24  1  0.49131692  0.11707608  0.05191240  1
  Pr3+  Pr25  1  0.37431108  -0.00314078  0.44197465  1
  Pr3+  Pr26  1  0.50172060  0.87305767  0.56957013  1
  Pr3+  Pr27  1  0.86953937  0.73847361  0.93801653  1
  Pr3+  Pr28  1  0.50262998  0.37126405  0.57219394  1
  Pr3+  Pr29  1  0.50799091  0.62246176  0.57995522  1
  Pr3+  Pr30  1  0.86804145  -0.00989671  0.93197966  1
  Nd3+  Nd31  1  0.36235143  0.24126343  0.92337033  1
  Nd3+  Nd32  1  0.74924006  0.61646522  0.06694883  1
  Nd3+  Nd33  1  0.24383229  0.36963294  0.05770726  1
  Nd3+  Nd34  1  0.87311053  0.24452302  0.93385093  1
  Nd3+  Nd35  1  0.61553343  0.73953801  0.94383196  1
  Nd3+  Nd36  1  -0.00645095  0.11845356  0.05724225  1
  Nd3+  Nd37  1  0.12910205  0.24772619  0.44045116  1
  Nd3+  Nd38  1  0.14125591  0.75322612  0.42958369  1
  Nd3+  Nd39  1  -0.00028084  0.87307443  0.56011145  1
  Nd3+  Nd40  1  0.24126268  0.86463168  0.04972394  1
  Nd3+  Nd41  1  0.87772441  -0.00223195  0.43931700  1
  Nd3+  Nd42  1  0.38409344  0.74737689  0.43998039  1
  Nd3+  Nd43  1  -0.00757389  0.86480993  0.05727172  1
  Nd3+  Nd44  1  0.88020624  0.74764748  0.43260474  1
  Nd3+  Nd45  1  0.50021018  0.12151464  0.55510511  1
  Nd3+  Nd46  1  0.61957741  0.24324517  0.94039521  1
  Nd3+  Nd47  1  0.87215082  0.49288279  0.93942168  1
  Nd3+  Nd48  1  0.74449705  0.36729837  0.06215945  1
  Nd3+  Nd49  1  0.36671401  -0.00830516  0.93604189  1
  Nd3+  Nd50  1  0.25453614  0.62224026  0.56100146  1
  Sm3+  Sm51  1  0.25349602  0.62041061  0.05689876  1
  Sm3+  Sm52  1  0.74665411  0.86666860  0.05352840  1
  Sm3+  Sm53  1  0.25436453  0.37449473  0.55439589  1
  Sm3+  Sm54  1  0.12181337  0.73862363  0.93864371  1
  Sm3+  Sm55  1  0.38188560  0.49919021  0.44808715  1
  Sm3+  Sm56  1  0.62655354  0.49931344  0.44623918  1
  Sm3+  Sm57  1  0.75141109  0.37142766  0.55872983  1
  Sm3+  Sm58  1  0.24140342  0.11746534  0.05297415  1
  Sm3+  Sm59  1  0.62584358  0.25000576  0.44763171  1
  Sm3+  Sm60  1  0.37842558  0.25094451  0.44251632  1
  Sm3+  Sm61  1  0.74696488  0.11653203  0.04991311  1
  Sm3+  Sm62  1  0.62370473  0.74636351  0.44134398  1
  Sm3+  Sm63  1  0.75174202  0.12236059  0.55552811  1
  Bi2+  Bi64  1  0.00027649  0.14297582  0.30342464  1
  Bi2+  Bi65  1  -0.04208549  0.12150714  0.79255165  1
  Bi2+  Bi66  1  0.02125841  0.36868209  0.23324636  1
  Bi2+  Bi67  1  -0.00655014  0.43127466  0.82685506  1
  Bi2+  Bi68  1  -0.01427143  0.61159795  0.31123519  1
  Bi2+  Bi69  1  0.00022357  0.62067959  0.80170297  1
  Bi2+  Bi70  1  -0.01068853  0.87279049  0.30366848  1
  Bi2+  Bi71  1  -0.03740194  0.85913452  0.72284522  1
  Bi2+  Bi72  1  0.23751834  0.16259309  0.28081474  1
  Bi2+  Bi73  1  0.30700412  0.10728121  0.79787654  1
  Bi2+  Bi74  1  0.31669755  0.36517550  0.30103298  1
  Bi2+  Bi75  1  0.26697185  0.35786886  0.78283279  1
  Bi2+  Bi76  1  0.29669374  0.62676100  0.28218538  1
  Bi2+  Bi77  1  0.23019113  0.61194323  0.78704545  1
  Bi2+  Bi78  1  0.27183543  0.88957335  0.29594765  1
  Bi2+  Bi79  1  0.18443078  0.86626467  0.77722425  1
  Bi2+  Bi80  1  0.53874027  0.17422568  0.26941252  1
  Bi2+  Bi81  1  0.49016478  0.16017854  0.77075115  1
  Bi2+  Bi82  1  0.51557291  0.36734819  0.29212551  1
  Bi2+  Bi83  1  0.53473709  0.37249413  0.78026767  1
  Bi2+  Bi84  1  0.51536858  0.63864421  0.28968108  1
  Bi2+  Bi85  1  0.52138175  0.63031043  0.78030040  1
  Bi2+  Bi86  1  0.51174886  0.89161360  0.29707039  1
  Bi2+  Bi87  1  0.52195888  0.89461061  0.79086235  1
  Bi2+  Bi88  1  0.78278251  0.14360967  0.28081724  1
  Bi2+  Bi89  1  0.76437404  0.14016051  0.79333491  1
  Bi2+  Bi90  1  0.75279081  0.33946296  0.29051150  1
  Bi2+  Bi91  1  0.79873160  0.34662519  0.80786173  1
  Bi2+  Bi92  1  0.72636918  0.60451260  0.29637117  1
  Bi2+  Bi93  1  0.76509391  0.63869256  0.79755627  1
  Bi2+  Bi94  1  0.70312381  0.87706681  0.27358136  1
  Bi2+  Bi95  1  0.81243406  0.93917613  0.80377299  1
  Bi2+  Bi96  1  0.12112051  0.00139929  0.25678199  1
  Bi2+  Bi97  1  0.11139058  0.08584801  0.72294001  1
  Bi2+  Bi98  1  0.14283157  0.23578513  0.18804242  1
  Bi2+  Bi99  1  0.09891102  0.27815718  0.73812901  1
  Bi2+  Bi100  1  0.18724862  0.47306936  0.24355837  1
  Bi2+  Bi101  1  0.10143051  0.48309976  0.73060481  1
  Bi2+  Bi102  1  0.15027863  0.75699354  0.20400220  1
  Bi2+  Bi103  1  0.08232998  0.69948312  0.70300505  1
  Bi2+  Bi104  1  0.36627145  0.00943144  0.18907254  1
  Bi2+  Bi105  1  0.38460616  0.00956177  0.69636495  1
  Bi2+  Bi106  1  0.39175165  0.25481658  0.21064370  1
  Bi2+  Bi107  1  0.36997728  0.25675098  0.69559651  1
  Bi2+  Bi108  1  0.42266398  0.52765799  0.21126571  1
  Bi2+  Bi109  1  0.36039399  0.48939293  0.70901159  1
  Bi2+  Bi110  1  0.38817447  0.77684903  0.20754771  1
  Bi2+  Bi111  1  0.35925722  0.75996733  0.70646773  1
  Bi2+  Bi112  1  0.65008827  0.04503267  0.21325868  1
  Bi2+  Bi113  1  0.63026100  0.03578488  0.73260527  1
  Bi2+  Bi114  1  0.63194847  0.33110532  0.19927640  1
  Bi2+  Bi115  1  0.65953018  0.24642599  0.71420383  1
  Bi2+  Bi116  1  0.62953856  0.53065039  0.18274717  1
  Bi2+  Bi117  1  0.70272537  0.51851972  0.71421015  1
  Bi2+  Bi118  1  0.64342969  0.71912445  0.21303314  1
  Bi2+  Bi119  1  0.68977718  0.80469154  0.75441700  1
  Bi2+  Bi120  1  0.84024977  -0.00998847  0.21231302  1
  Bi2+  Bi121  1  0.83692242  -0.00517809  0.69129678  1
  Bi2+  Bi122  1  0.90251282  0.22133914  0.19702459  1
  Bi2+  Bi123  1  0.90157492  0.27335479  0.71616108  1
  Bi2+  Bi124  1  0.81285202  0.48690681  0.21966409  1
  Bi2+  Bi125  1  0.89220665  0.47400971  0.72555353  1
  Bi2+  Bi126  1  0.87923763  0.75176652  0.20820300  1
  Bi2+  Bi127  1  0.83152324  0.72897672  0.68786608  1
  S2-  S128  1  0.01330306  0.11733561  0.15613052  1
  S2-  S129  1  -0.02069061  0.08568618  0.65579445  1
  S2-  S130  1  0.00759037  0.45842517  0.15029317  1
  S2-  S131  1  0.02061330  0.35447608  0.65472198  1
  S2-  S132  1  0.01674458  0.64808897  0.21979337  1
  S2-  S133  1  -0.05053650  0.62018239  0.65009398  1
  S2-  S134  1  0.01375515  0.81129435  0.15106149  1
  S2-  S135  1  0.08200164  0.84731646  0.64516946  1
  S2-  S136  1  0.24805485  0.09697502  0.15089083  1
  S2-  S137  1  0.24828839  0.12570867  0.66613780  1
  S2-  S138  1  0.22375047  0.37044403  0.15818312  1
  S2-  S139  1  0.26756699  0.37646664  0.65173547  1
  S2-  S140  1  0.18110691  0.63032516  0.14691267  1
  S2-  S141  1  0.23838568  0.67304111  0.65541114  1
  S2-  S142  1  0.26417128  0.86222259  0.14991721  1
  S2-  S143  1  0.26773035  0.90234891  0.68057036  1
  S2-  S144  1  0.46666132  0.12091004  0.15143943  1
  S2-  S145  1  0.47909710  0.14193531  0.65198784  1
  S2-  S146  1  0.45576107  0.37818245  0.15431010  1
  S2-  S147  1  0.48782739  0.39889632  0.67262470  1
  S2-  S148  1  0.39535663  0.64680608  0.13957846  1
  S2-  S149  1  0.45372333  0.62587641  0.67989713  1
  S2-  S150  1  0.49367409  0.88861868  0.16547479  1
  S2-  S151  1  0.47894065  0.87107038  0.66942717  1
  S2-  S152  1  0.76438550  0.11751646  0.14686971  1
  S2-  S153  1  0.72805919  0.11768471  0.65242925  1
  S2-  S154  1  0.80540225  0.35219259  0.15474137  1
  S2-  S155  1  0.72253092  0.36955860  0.65547033  1
  S2-  S156  1  0.84698453  0.62534212  0.15014529  1
  S2-  S157  1  0.64992696  0.62206930  0.64504378  1
  S2-  S158  1  0.78752828  0.86746732  0.14897005  1
  S2-  S159  1  0.72270926  0.86181954  0.65322105  1
  S2-  S160  1  0.15337957  -0.02716886  0.35682945  1
  S2-  S161  1  0.17600067  0.01704913  0.82923778  1
  S2-  S162  1  0.11229382  0.24208668  0.34109873  1
  S2-  S163  1  0.23005498  0.23417148  0.85381007  1
  S2-  S164  1  0.10866810  0.50695604  0.33927480  1
  S2-  S165  1  0.21823274  0.48730573  0.85041069  1
  S2-  S166  1  0.07664945  0.74898591  0.33604722  1
  S2-  S167  1  0.11704724  0.75586282  0.83920337  1
  S2-  S168  1  0.39586504  -0.01769995  0.34133929  1
  S2-  S169  1  0.40328504  -0.02541983  0.83881039  1
  S2-  S170  1  0.35318086  0.21183015  0.34898729  1
  S2-  S171  1  0.40352615  0.34855992  0.84472086  1
  S2-  S172  1  0.35922857  0.51759616  0.35145744  1
  S2-  S173  1  0.37785945  0.61073735  0.83421096  1
  S2-  S174  1  0.28073860  0.75850688  0.35940364  1
  S2-  S175  1  0.31733155  0.79183626  0.80641855  1
  S2-  S176  1  0.63173108  -0.01394417  0.34298879  1
  S2-  S177  1  0.63434960  -0.01184670  0.84505129  1
  S2-  S178  1  0.61885293  0.26001230  0.35056759  1
  S2-  S179  1  0.63885880  0.29206059  0.84587588  1
  S2-  S180  1  0.60817108  0.51760534  0.34898591  1
  S2-  S181  1  0.54686482  0.50597792  0.84100652  1
  S2-  S182  1  0.51263478  0.75431934  0.36612336  1
  S2-  S183  1  0.53669073  0.75005895  0.85438022  1
  S2-  S184  1  0.89711079  0.00800678  0.34175007  1
  S2-  S185  1  0.97036389  -0.02549949  0.85160640  1
  S2-  S186  1  0.88109710  0.26045946  0.34183106  1
  S2-  S187  1  0.98888515  0.24895198  0.85844901  1
  S2-  S188  1  0.85620532  0.51095883  0.34659835  1
  S2-  S189  1  0.76409412  0.49373058  0.86040619  1
  S2-  S190  1  0.86826677  0.76448345  0.33316906  1
  S2-  S191  1  0.88774723  0.73693564  0.83724288  1
  S2-  S192  1  0.00291708  0.12340873  0.45420464  1
  S2-  S193  1  -0.00685831  0.11339806  0.95217371  1
  S2-  S194  1  0.00408041  0.37400340  0.44883941  1
  S2-  S195  1  -0.00500100  0.37194664  0.95981114  1
  S2-  S196  1  0.00524802  0.62534679  0.44812769  1
  S2-  S197  1  -0.00374694  0.61806280  0.94504333  1
  S2-  S198  1  0.00231292  0.87266535  0.45299576  1
  S2-  S199  1  -0.00465989  0.86027396  0.95204283  1
  S2-  S200  1  0.25410439  0.12597827  0.45723376  1
  S2-  S201  1  0.23969483  0.11133057  0.95030331  1
  S2-  S202  1  0.25555308  0.37441854  0.44939785  1
  S2-  S203  1  0.24791868  0.36812230  0.95278155  1
  S2-  S204  1  0.25745659  0.62085988  0.45529659  1
  S2-  S205  1  0.24997659  0.62380447  0.94890764  1
  S2-  S206  1  0.25574808  0.87406414  0.46722830  1
  S2-  S207  1  0.24327865  0.86677905  0.94193823  1
  S2-  S208  1  0.50114406  0.12571347  0.44890921  1
  S2-  S209  1  0.49129595  0.12082739  0.94385657  1
  S2-  S210  1  0.50266218  0.37374455  0.45918687  1
  S2-  S211  1  0.49746902  0.36655199  0.95120538  1
  S2-  S212  1  0.50484270  0.62009621  0.46605286  1
  S2-  S213  1  0.49498359  0.61308146  0.95249507  1
  S2-  S214  1  0.50242393  0.87594581  0.46238774  1
  S2-  S215  1  0.49316025  0.86983137  0.95552839  1
  S2-  S216  1  0.75042727  0.12452930  0.44954343  1
  S2-  S217  1  0.74603248  0.11928993  0.94517154  1
  S2-  S218  1  0.74952855  0.37375374  0.45320161  1
  S2-  S219  1  0.74831891  0.36196679  0.95715006  1
  S2-  S220  1  0.74917254  0.62598172  0.45547275  1
  S2-  S221  1  0.74276206  0.61953269  0.95957572  1
  S2-  S222  1  0.75082369  0.86985788  0.44660728  1
  S2-  S223  1  0.74112049  0.86445396  0.94829751  1
  S2-  S224  1  0.11758544  -0.00818993  0.04091674  1
  S2-  S225  1  0.12720452  -0.00071507  0.55624409  1
  S2-  S226  1  0.11859496  0.24256723  0.04330304  1
  S2-  S227  1  0.13062978  0.25020937  0.54810733  1
  S2-  S228  1  0.12492052  0.49790504  0.04431638  1
  S2-  S229  1  0.13035533  0.49743126  0.54725129  1
  S2-  S230  1  0.11781088  0.74007724  0.04283066  1
  S2-  S231  1  0.12815091  0.74491206  0.53872521  1
  S2-  S232  1  0.36489162  -0.00687138  0.04263184  1
  S2-  S233  1  0.37481774  -0.00456231  0.55153002  1
  S2-  S234  1  0.36535216  0.24051725  0.03986953  1
  S2-  S235  1  0.37775208  0.25088380  0.54743004  1
  S2-  S236  1  0.36863745  0.49082864  0.04499938  1
  S2-  S237  1  0.38046396  0.49821991  0.55339168  1
  S2-  S238  1  0.36888140  0.74631381  0.03452471  1
  S2-  S239  1  0.38027638  0.74558614  0.55247332  1
  S2-  S240  1  0.62183703  -0.00804502  0.04935472  1
  S2-  S241  1  0.62716925  -0.00031500  0.55000702  1
  S2-  S242  1  0.62105554  0.23933445  0.04811088  1
  S2-  S243  1  0.62707714  0.24638184  0.55178122  1
  S2-  S244  1  0.62162339  0.49069112  0.04459296  1
  S2-  S245  1  0.62810441  0.49263161  0.55012894  1
  S2-  S246  1  0.62119838  0.74245431  0.05183883  1
  S2-  S247  1  0.62646900  0.75019749  0.54526003  1
  S2-  S248  1  0.86883599  -0.00855510  0.04103699  1
  S2-  S249  1  0.87663775  -0.00011330  0.54566618  1
  S2-  S250  1  0.87013181  0.24155949  0.04143631  1
  S2-  S251  1  0.87415645  0.24793005  0.55009602  1
  S2-  S252  1  0.86670696  0.49126149  0.04533218  1
  S2-  S253  1  0.87436269  0.49566458  0.54973883  1
  S2-  S254  1  0.86842761  0.74366154  0.04437754  1
  S2-  S255  1  0.87835764  0.74876279  0.54103611  1
