# generated using pymatgen
data_La6Ce6Pr19Nd20Sm13(BiS2)64
_symmetry_space_group_name_H-M   'P 1'
_cell_length_a   16.10980692
_cell_length_b   16.14558177
_cell_length_c   27.38803419
_cell_angle_alpha   90.26476229
_cell_angle_beta   89.91430290
_cell_angle_gamma   90.09564125
_symmetry_Int_Tables_number   1
_chemical_formula_structural   La6Ce6Pr19Nd20Sm13(BiS2)64
_chemical_formula_sum   'La6 Ce6 Pr19 Nd20 Sm13 Bi64 S128'
_cell_volume   7123.59421322
_cell_formula_units_Z   1
loop_
 _symmetry_equiv_pos_site_id
 _symmetry_equiv_pos_as_xyz
  1  'x, y, z'
loop_
 _atom_type_symbol
 _atom_type_oxidation_number
  La3+  3.0
  Ce3+  3.0
  Pr3+  3.0
  Nd3+  3.0
  Sm3+  3.0
  Bi2+  2.0
  S2-  -2.0
loop_
 _atom_site_type_symbol
 _atom_site_label
 _atom_site_symmetry_multiplicity
 _atom_site_fract_x
 _atom_site_fract_y
 _atom_site_fract_z
 _atom_site_occupancy
  La3+  La0  1  0.62300916  0.25242607  0.42252956  1
  La3+  La1  1  0.61356113  0.50725008  0.41733336  1
  La3+  La2  1  -0.01323002  0.87644994  0.11620904  1
  La3+  La3  1  0.37421933  0.24950954  0.89573261  1
  La3+  La4  1  0.87414486  -0.00657739  0.41266839  1
  La3+  La5  1  0.37269660  0.74393798  0.91922562  1
  Ce3+  Ce6  1  0.74718957  0.61877855  0.05800702  1
  Ce3+  Ce7  1  0.74458135  0.62420638  0.55451526  1
  Ce3+  Ce8  1  -0.00832395  0.37435733  0.56570328  1
  Ce3+  Ce9  1  0.75077983  0.87666286  0.56022963  1
  Ce3+  Ce10  1  0.74853028  0.12685209  0.55241364  1
  Ce3+  Ce11  1  -0.00325310  0.36446586  0.06103701  1
  Pr3+  Pr12  1  0.74334050  0.36975789  0.07515432  1
  Pr3+  Pr13  1  0.24425558  0.13050106  0.55687458  1
  Pr3+  Pr14  1  0.86789430  0.25211861  0.42861838  1
  Pr3+  Pr15  1  0.49872640  0.35679420  0.07679985  1
  Pr3+  Pr16  1  0.74903947  0.11754451  0.06714625  1
  Pr3+  Pr17  1  0.25062571  0.36373860  0.07294035  1
  Pr3+  Pr18  1  0.62121398  -0.00883053  0.94286446  1
  Pr3+  Pr19  1  0.49691424  0.62657377  0.56396572  1
  Pr3+  Pr20  1  0.25090122  0.61943063  0.06021611  1
  Pr3+  Pr21  1  0.12656531  -0.00182749  0.43296225  1
  Pr3+  Pr22  1  0.87431532  0.74133691  0.94117536  1
  Pr3+  Pr23  1  0.12448135  0.24273714  0.93683078  1
  Pr3+  Pr24  1  0.37154030  0.24939862  0.42289127  1
  Pr3+  Pr25  1  0.23766293  0.88981361  0.58775477  1
  Pr3+  Pr26  1  0.24821406  0.86686524  0.06561904  1
  Pr3+  Pr27  1  0.24820037  0.37340208  0.55414022  1
  Pr3+  Pr28  1  0.37433656  -0.00512497  0.93105764  1
  Pr3+  Pr29  1  0.74213256  0.86645540  0.06874410  1
  Pr3+  Pr30  1  0.49472013  0.13058160  0.55658717  1
  Nd3+  Nd31  1  0.62524969  0.24187927  0.93848938  1
  Nd3+  Nd32  1  0.50568054  0.37907147  0.55758744  1
  Nd3+  Nd33  1  0.74769138  0.36921906  0.56613240  1
  Nd3+  Nd34  1  -0.00135821  0.11670927  0.05610915  1
  Nd3+  Nd35  1  -0.00683627  0.12392519  0.54883119  1
  Nd3+  Nd36  1  -0.00506826  0.62642063  0.55332885  1
  Nd3+  Nd37  1  0.36903831  0.50031908  0.44038510  1
  Nd3+  Nd38  1  0.49312213  0.87733303  0.55815829  1
  Nd3+  Nd39  1  0.24692245  0.11376041  0.05469973  1
  Nd3+  Nd40  1  0.12275180  0.75177098  0.44852380  1
  Nd3+  Nd41  1  0.62220605  0.48605792  0.94133717  1
  Nd3+  Nd42  1  0.87387853  0.49255619  0.94964232  1
  Nd3+  Nd43  1  0.87110801  0.75028574  0.43510116  1
  Nd3+  Nd44  1  0.62088669  -0.00226891  0.44638069  1
  Nd3+  Nd45  1  0.12600554  0.48887014  0.95144645  1
  Nd3+  Nd46  1  -0.00109002  0.62639486  0.06452533  1
  Nd3+  Nd47  1  0.12610137  -0.01027727  0.93918312  1
  Nd3+  Nd48  1  0.87474750  -0.01324340  0.94622029  1
  Nd3+  Nd49  1  0.36656858  -0.00280121  0.43648388  1
  Nd3+  Nd50  1  0.86849103  0.24325156  0.93868526  1
  Sm3+  Sm51  1  0.62099455  0.74068337  0.94307864  1
  Sm3+  Sm52  1  0.49435260  0.11710521  0.05880019  1
  Sm3+  Sm53  1  0.12008237  0.49953771  0.44661967  1
  Sm3+  Sm54  1  0.37507823  0.48431783  0.94964230  1
  Sm3+  Sm55  1  0.49686547  0.86707103  0.06407630  1
  Sm3+  Sm56  1  0.61890080  0.74881401  0.44165455  1
  Sm3+  Sm57  1  0.49717581  0.61680612  0.05439731  1
  Sm3+  Sm58  1  0.36657288  0.75019630  0.45049994  1
  Sm3+  Sm59  1  -0.00821591  0.87815231  0.56272674  1
  Sm3+  Sm60  1  0.11233616  0.25249646  0.43083994  1
  Sm3+  Sm61  1  0.86873116  0.49829989  0.44071511  1
  Sm3+  Sm62  1  0.24521067  0.62706701  0.56341823  1
  Sm3+  Sm63  1  0.12761861  0.74094090  0.93937967  1
  Bi2+  Bi64  1  0.02805920  0.14671252  0.30229918  1
  Bi2+  Bi65  1  -0.01931014  0.21875678  0.82666742  1
  Bi2+  Bi66  1  0.04709616  0.39549025  0.28427610  1
  Bi2+  Bi67  1  -0.00582364  0.41453401  0.80552049  1
  Bi2+  Bi68  1  0.03977528  0.66035102  0.28393903  1
  Bi2+  Bi69  1  -0.00940055  0.65977325  0.79838852  1
  Bi2+  Bi70  1  -0.00352637  0.84446274  0.30439129  1
  Bi2+  Bi71  1  0.00568610  0.85273224  0.79631418  1
  Bi2+  Bi72  1  0.32153582  0.11681302  0.31145436  1
  Bi2+  Bi73  1  0.13508357  0.12367632  0.78536573  1
  Bi2+  Bi74  1  0.29316379  0.39699028  0.29520694  1
  Bi2+  Bi75  1  0.20629923  0.37947043  0.78759309  1
  Bi2+  Bi76  1  0.23842471  0.62504653  0.30472855  1
  Bi2+  Bi77  1  0.18438407  0.61696057  0.75808728  1
  Bi2+  Bi78  1  0.29762394  0.93676919  0.26086275  1
  Bi2+  Bi79  1  0.25451497  0.85511343  0.79344754  1
  Bi2+  Bi80  1  0.50068162  0.12877192  0.26740553  1
  Bi2+  Bi81  1  0.50594102  0.12979182  0.79053518  1
  Bi2+  Bi82  1  0.48933369  0.38051429  0.28548006  1
  Bi2+  Bi83  1  0.50003530  0.38833364  0.78814530  1
  Bi2+  Bi84  1  0.43921443  0.64160736  0.28637999  1
  Bi2+  Bi85  1  0.45762001  0.68394591  0.79818111  1
  Bi2+  Bi86  1  0.47152719  0.85524227  0.29227959  1
  Bi2+  Bi87  1  0.53912891  0.88239257  0.79425865  1
  Bi2+  Bi88  1  0.70453286  0.12732692  0.28861696  1
  Bi2+  Bi89  1  0.80570205  0.13743265  0.78687171  1
  Bi2+  Bi90  1  0.78590621  0.38596492  0.28627805  1
  Bi2+  Bi91  1  0.74019220  0.38223360  0.79923536  1
  Bi2+  Bi92  1  0.73873261  0.64569793  0.28845740  1
  Bi2+  Bi93  1  0.77131790  0.61340194  0.75550088  1
  Bi2+  Bi94  1  0.66766972  0.84296933  0.30603886  1
  Bi2+  Bi95  1  0.79644653  0.87346880  0.79976356  1
  Bi2+  Bi96  1  0.14171882  0.03027905  0.20448330  1
  Bi2+  Bi97  1  0.02452697  -0.00043499  0.72431039  1
  Bi2+  Bi98  1  0.15116350  0.28346790  0.21314539  1
  Bi2+  Bi99  1  0.08440349  0.25615637  0.70240322  1
  Bi2+  Bi100  1  0.18331621  0.47827192  0.20693390  1
  Bi2+  Bi101  1  0.10747135  0.45900361  0.69899803  1
  Bi2+  Bi102  1  0.20900490  0.76046192  0.22308139  1
  Bi2+  Bi103  1  0.08257893  0.75446184  0.70561251  1
  Bi2+  Bi104  1  0.40762429  0.00194153  0.16665790  1
  Bi2+  Bi105  1  0.39897499  -0.01816684  0.69195132  1
  Bi2+  Bi106  1  0.34585646  0.24904800  0.22391262  1
  Bi2+  Bi107  1  0.33885134  0.21856662  0.68144436  1
  Bi2+  Bi108  1  0.38174097  0.51711034  0.20522133  1
  Bi2+  Bi109  1  0.35853809  0.52437910  0.77343859  1
  Bi2+  Bi110  1  0.37862203  0.81147450  0.17419277  1
  Bi2+  Bi111  1  0.39306009  0.72251226  0.69653664  1
  Bi2+  Bi112  1  0.58254739  -0.02663172  0.21560906  1
  Bi2+  Bi113  1  0.67770127  -0.00965799  0.72753794  1
  Bi2+  Bi114  1  0.65491832  0.25039039  0.19661710  1
  Bi2+  Bi115  1  0.59130271  0.26301029  0.68293056  1
  Bi2+  Bi116  1  0.63805992  0.53088990  0.21368141  1
  Bi2+  Bi117  1  0.61617641  0.52662537  0.71180236  1
  Bi2+  Bi118  1  0.58480878  0.74082536  0.21610341  1
  Bi2+  Bi119  1  0.66323857  0.79709479  0.71616166  1
  Bi2+  Bi120  1  0.82850655  -0.02603835  0.23282003  1
  Bi2+  Bi121  1  0.84836698  0.05116613  0.68427049  1
  Bi2+  Bi122  1  0.90431531  0.21441984  0.19858101  1
  Bi2+  Bi123  1  0.88979565  0.28575080  0.72808043  1
  Bi2+  Bi124  1  0.92018963  0.52254926  0.24094934  1
  Bi2+  Bi125  1  0.91737502  0.51145361  0.70512766  1
  Bi2+  Bi126  1  0.86249623  0.71260714  0.21058771  1
  Bi2+  Bi127  1  0.86092542  0.77105926  0.70604897  1
  S2-  S128  1  0.01279543  0.09333731  0.15287317  1
  S2-  S129  1  0.00281904  0.12874779  0.64881856  1
  S2-  S130  1  0.01704580  0.32241711  0.15362137  1
  S2-  S131  1  -0.12497647  0.37865773  0.63846356  1
  S2-  S132  1  -0.00220347  0.70910285  0.15115634  1
  S2-  S133  1  -0.02479878  0.64964915  0.65019972  1
  S2-  S134  1  -0.01664298  0.93227867  0.21879289  1
  S2-  S135  1  0.08882222  0.89479468  0.64374315  1
  S2-  S136  1  0.25193476  0.11814699  0.15572635  1
  S2-  S137  1  0.26303468  0.06058252  0.64819686  1
  S2-  S138  1  0.36988269  0.36968385  0.14847741  1
  S2-  S139  1  0.22229617  0.33977169  0.65102385  1
  S2-  S140  1  0.24308901  0.62362617  0.15993336  1
  S2-  S141  1  0.25890793  0.63057078  0.66020648  1
  S2-  S142  1  0.15372867  0.87697108  0.15048720  1
  S2-  S143  1  0.28602634  0.86309536  0.68771776  1
  S2-  S144  1  0.53249117  0.19805128  0.14384757  1
  S2-  S145  1  0.49916554  0.11879016  0.65794906  1
  S2-  S146  1  0.61514475  0.39696473  0.15107879  1
  S2-  S147  1  0.43800900  0.33062823  0.64671710  1
  S2-  S148  1  0.51135950  0.60639588  0.15237987  1
  S2-  S149  1  0.48728674  0.58885807  0.66175081  1
  S2-  S150  1  0.60978606  0.85650553  0.14105954  1
  S2-  S151  1  0.49838696  0.85741651  0.65607224  1
  S2-  S152  1  0.77851864  0.10303036  0.16630958  1
  S2-  S153  1  0.72494482  0.21185649  0.63589861  1
  S2-  S154  1  0.80809504  0.33427102  0.17027576  1
  S2-  S155  1  0.62789657  0.40256111  0.63680503  1
  S2-  S156  1  0.75274029  0.60259536  0.15447792  1
  S2-  S157  1  0.72805486  0.60514947  0.65062005  1
  S2-  S158  1  0.82369637  0.86338298  0.15854338  1
  S2-  S159  1  0.86378101  0.89177763  0.63404550  1
  S2-  S160  1  0.02884215  -0.00612242  0.35019109  1
  S2-  S161  1  0.17462838  -0.01811534  0.84242946  1
  S2-  S162  1  0.16814238  0.19518839  0.34203204  1
  S2-  S163  1  0.21224218  0.25333906  0.85002645  1
  S2-  S164  1  0.14527051  0.49501774  0.35047099  1
  S2-  S165  1  0.12781108  0.49309333  0.85309621  1
  S2-  S166  1  0.13322373  0.76605087  0.35062342  1
  S2-  S167  1  0.22553795  0.73792204  0.85671591  1
  S2-  S168  1  0.25514148  -0.02409226  0.36204364  1
  S2-  S169  1  0.38499863  0.09585636  0.84766050  1
  S2-  S170  1  0.49786094  0.24768335  0.35011093  1
  S2-  S171  1  0.38705642  0.25139826  0.76825945  1
  S2-  S172  1  0.45369186  0.50657469  0.35443317  1
  S2-  S173  1  0.37612164  0.42034622  0.85924543  1
  S2-  S174  1  0.35933399  0.74315377  0.35261011  1
  S2-  S175  1  0.38811329  0.87993036  0.85366347  1
  S2-  S176  1  0.63167010  -0.00244583  0.34772698  1
  S2-  S177  1  0.61045363  0.02172572  0.84467803  1
  S2-  S178  1  0.75112827  0.25673381  0.34981821  1
  S2-  S179  1  0.53744901  0.25842640  0.85170625  1
  S2-  S180  1  0.64366301  0.42531754  0.32572055  1
  S2-  S181  1  0.61886369  0.48144135  0.84105596  1
  S2-  S182  1  0.61868918  0.65635258  0.35869272  1
  S2-  S183  1  0.59816727  0.74489108  0.84635527  1
  S2-  S184  1  0.85126504  0.07634575  0.32077824  1
  S2-  S185  1  0.86524629  0.00602219  0.84777526  1
  S2-  S186  1  0.98517031  0.28107189  0.35395365  1
  S2-  S187  1  0.75082785  0.24982058  0.86428628  1
  S2-  S188  1  0.86096229  0.51083841  0.34287214  1
  S2-  S189  1  0.84435576  0.46586551  0.85311888  1
  S2-  S190  1  0.84896327  0.84454091  0.35251810  1
  S2-  S191  1  0.84342131  0.70854604  0.84348184  1
  S2-  S192  1  -0.00571343  0.12602812  0.44550216  1
  S2-  S193  1  -0.00213088  0.11502933  0.95044519  1
  S2-  S194  1  -0.00428394  0.38153728  0.45849418  1
  S2-  S195  1  -0.00283961  0.36711511  0.95524259  1
  S2-  S196  1  -0.00386730  0.62381714  0.44711966  1
  S2-  S197  1  0.00159881  0.61685330  0.95669029  1
  S2-  S198  1  -0.00353114  0.87192669  0.45760547  1
  S2-  S199  1  0.00247108  0.86272620  0.94206114  1
  S2-  S200  1  0.24634632  0.13048434  0.45256580  1
  S2-  S201  1  0.24867322  0.11755380  0.95039872  1
  S2-  S202  1  0.24321911  0.37336724  0.44748629  1
  S2-  S203  1  0.24973737  0.36581384  0.96402103  1
  S2-  S204  1  0.24491315  0.62381488  0.45830125  1
  S2-  S205  1  0.25242859  0.61133028  0.95467334  1
  S2-  S206  1  0.24705152  0.87115452  0.46754291  1
  S2-  S207  1  0.24726176  0.86581485  0.95813537  1
  S2-  S208  1  0.49297315  0.11914580  0.44903363  1
  S2-  S209  1  0.49979237  0.11973767  0.95632696  1
  S2-  S210  1  0.49249947  0.37618073  0.45153779  1
  S2-  S211  1  0.49950278  0.36504758  0.96320399  1
  S2-  S212  1  0.48912412  0.63051892  0.45838852  1
  S2-  S213  1  0.49651028  0.61418493  0.94937475  1
  S2-  S214  1  0.49313937  0.87200672  0.45160181  1
  S2-  S215  1  0.49986387  0.86314348  0.95930582  1
  S2-  S216  1  0.74642042  0.11850007  0.44736807  1
  S2-  S217  1  0.75175491  0.11153032  0.96013225  1
  S2-  S218  1  0.74461699  0.38196395  0.45272117  1
  S2-  S219  1  0.74942230  0.37094118  0.96655547  1
  S2-  S220  1  0.74881856  0.62636174  0.45024977  1
  S2-  S221  1  0.74497902  0.61616746  0.95208706  1
  S2-  S222  1  0.74170788  0.87114796  0.45575060  1
  S2-  S223  1  0.74551650  0.86346098  0.95624464  1
  S2-  S224  1  0.11843802  -0.01010119  0.04491937  1
  S2-  S225  1  0.11963069  0.00382459  0.54011608  1
  S2-  S226  1  0.12496449  0.24117706  0.04558342  1
  S2-  S227  1  0.11690605  0.25181587  0.53954500  1
  S2-  S228  1  0.12240802  0.49345682  0.05739928  1
  S2-  S229  1  0.12119233  0.50174060  0.55122541  1
  S2-  S230  1  0.12637459  0.74154548  0.04246213  1
  S2-  S231  1  0.12208924  0.75013537  0.55310790  1
  S2-  S232  1  0.37429834  -0.00988221  0.04117581  1
  S2-  S233  1  0.37063524  0.00088001  0.54282639  1
  S2-  S234  1  0.36992530  0.23526186  0.05267460  1
  S2-  S235  1  0.37176109  0.25149803  0.53258126  1
  S2-  S236  1  0.37500847  0.49231949  0.05123967  1
  S2-  S237  1  0.36940477  0.50219480  0.54800907  1
  S2-  S238  1  0.37645241  0.74220082  0.04141650  1
  S2-  S239  1  0.36636467  0.75292542  0.55484801  1
  S2-  S240  1  0.62020733  -0.00412547  0.04952805  1
  S2-  S241  1  0.62110082  0.00059764  0.55305330  1
  S2-  S242  1  0.62833882  0.24006603  0.04440997  1
  S2-  S243  1  0.62033788  0.24898200  0.53131341  1
  S2-  S244  1  0.62131551  0.49625794  0.04590544  1
  S2-  S245  1  0.61988216  0.50760948  0.53268823  1
  S2-  S246  1  0.61957197  0.73817446  0.04543717  1
  S2-  S247  1  0.62033629  0.75281065  0.54723645  1
  S2-  S248  1  0.87585906  -0.01167040  0.05218749  1
  S2-  S249  1  0.86966389  0.00177594  0.53175329  1
  S2-  S250  1  0.87269463  0.24192769  0.04570467  1
  S2-  S251  1  0.87242643  0.24981337  0.53584983  1
  S2-  S252  1  0.87577692  0.49465228  0.05624027  1
  S2-  S253  1  0.86977884  0.50341276  0.54357148  1
  S2-  S254  1  0.87256642  0.74602877  0.04750687  1
  S2-  S255  1  0.87035082  0.74879656  0.54064697  1
