# generated using pymatgen
data_La6Ce6Pr19Nd20Sm13(BiS2)64
_symmetry_space_group_name_H-M   'P 1'
_cell_length_a   16.14049070
_cell_length_b   16.14743654
_cell_length_c   27.31109364
_cell_angle_alpha   90.00435403
_cell_angle_beta   89.96800419
_cell_angle_gamma   89.99799715
_symmetry_Int_Tables_number   1
_chemical_formula_structural   La6Ce6Pr19Nd20Sm13(BiS2)64
_chemical_formula_sum   'La6 Ce6 Pr19 Nd20 Sm13 Bi64 S128'
_cell_volume   7118.02226985
_cell_formula_units_Z   1
loop_
 _symmetry_equiv_pos_site_id
 _symmetry_equiv_pos_as_xyz
  1  'x, y, z'
loop_
 _atom_type_symbol
 _atom_type_oxidation_number
  La3+  3.0
  Ce3+  3.0
  Pr3+  3.0
  Nd3+  3.0
  Sm3+  3.0
  Bi2+  2.0
  S2-  -2.0
loop_
 _atom_site_type_symbol
 _atom_site_label
 _atom_site_symmetry_multiplicity
 _atom_site_fract_x
 _atom_site_fract_y
 _atom_site_fract_z
 _atom_site_occupancy
  La3+  La0  1  0.75964629  0.84881311  0.59555159  1
  La3+  La1  1  0.48801566  0.85041906  0.59374314  1
  La3+  La2  1  0.75711547  0.87489505  0.06319979  1
  La3+  La3  1  0.25699659  0.37692313  0.10945381  1
  La3+  La4  1  0.39153720  0.22800195  0.40673666  1
  La3+  La5  1  0.62414738  -0.00227577  0.89010220  1
  Ce3+  Ce6  1  0.13200559  0.75170048  0.94534217  1
  Ce3+  Ce7  1  0.01020721  0.62335219  0.05909476  1
  Ce3+  Ce8  1  0.12863559  0.23598764  0.44016301  1
  Ce3+  Ce9  1  0.51176990  0.37772839  0.06621740  1
  Ce3+  Ce10  1  0.00193557  0.86067849  0.56314735  1
  Ce3+  Ce11  1  0.37929628  0.48698942  0.43732429  1
  Pr3+  Pr12  1  0.51338975  0.87790668  0.06111232  1
  Pr3+  Pr13  1  0.25981899  0.87222817  0.06821333  1
  Pr3+  Pr14  1  0.12878464  -0.00951726  0.44350261  1
  Pr3+  Pr15  1  0.38062512  0.74905492  0.93435253  1
  Pr3+  Pr16  1  0.12550929  0.73898631  0.43645612  1
  Pr3+  Pr17  1  0.38369778  0.00030935  0.94074398  1
  Pr3+  Pr18  1  0.37931691  0.73681442  0.42805903  1
  Pr3+  Pr19  1  0.38007769  0.49967889  0.94497066  1
  Pr3+  Pr20  1  0.12937675  0.48455391  0.42790579  1
  Pr3+  Pr21  1  0.25288317  0.61115381  0.55661514  1
  Pr3+  Pr22  1  0.00914727  0.37409003  0.06483099  1
  Pr3+  Pr23  1  0.62593049  -0.01425835  0.45252970  1
  Pr3+  Pr24  1  0.63035414  0.50164609  0.92800060  1
  Pr3+  Pr25  1  0.63089521  0.25171630  0.93286242  1
  Pr3+  Pr26  1  0.87502758  0.73894873  0.43676447  1
  Pr3+  Pr27  1  0.75030577  0.10766790  0.56574460  1
  Pr3+  Pr28  1  0.00311156  0.36347414  0.55959574  1
  Pr3+  Pr29  1  0.25944880  0.62687644  0.07422329  1
  Pr3+  Pr30  1  0.88286369  0.50040701  0.93999157  1
  Nd3+  Nd31  1  0.12915278  0.00104494  0.93270678  1
  Nd3+  Nd32  1  0.25779700  0.12659187  0.06249248  1
  Nd3+  Nd33  1  0.00134618  0.11000185  0.56230730  1
  Nd3+  Nd34  1  0.25388648  0.36164682  0.55234795  1
  Nd3+  Nd35  1  0.00626464  0.87820782  0.06521969  1
  Nd3+  Nd36  1  0.50005462  0.11036147  0.56932544  1
  Nd3+  Nd37  1  0.88303323  0.25119835  0.93806155  1
  Nd3+  Nd38  1  0.00850432  0.12593218  0.05898580  1
  Nd3+  Nd39  1  0.00323702  0.61119998  0.55160790  1
  Nd3+  Nd40  1  0.13520200  0.50152115  0.94397841  1
  Nd3+  Nd41  1  0.25448777  0.11078275  0.56168773  1
  Nd3+  Nd42  1  0.13469292  0.25129412  0.94457923  1
  Nd3+  Nd43  1  0.75084266  0.36301766  0.56200421  1
  Nd3+  Nd44  1  0.51023824  0.12686336  0.05772417  1
  Nd3+  Nd45  1  0.75660147  0.62459616  0.05797933  1
  Nd3+  Nd46  1  0.49957560  0.36268809  0.56042642  1
  Nd3+  Nd47  1  0.88126858  -0.00049151  0.93199696  1
  Nd3+  Nd48  1  0.75403732  0.37600245  0.06242310  1
  Nd3+  Nd49  1  0.50683115  0.62543019  0.05878682  1
  Nd3+  Nd50  1  0.75155438  0.61228096  0.55609242  1
  Sm3+  Sm51  1  0.38076071  0.25116201  0.94683634  1
  Sm3+  Sm52  1  0.87474446  -0.01247057  0.44732184  1
  Sm3+  Sm53  1  0.87657090  0.23773465  0.44801466  1
  Sm3+  Sm54  1  0.25301839  0.86016181  0.55085783  1
  Sm3+  Sm55  1  0.88229657  0.75241489  0.93798448  1
  Sm3+  Sm56  1  0.50214437  0.61593534  0.55572141  1
  Sm3+  Sm57  1  0.62695223  0.23598070  0.45079141  1
  Sm3+  Sm58  1  0.62720766  0.74009477  0.44514175  1
  Sm3+  Sm59  1  0.38032042  -0.01175078  0.44520947  1
  Sm3+  Sm60  1  0.62589162  0.48570778  0.44745088  1
  Sm3+  Sm61  1  0.75695786  0.12476107  0.04743934  1
  Sm3+  Sm62  1  0.63401523  0.74845330  0.93273516  1
  Sm3+  Sm63  1  0.87510185  0.48566945  0.44249440  1
  Bi2+  Bi64  1  0.02166122  0.04897826  0.22912918  1
  Bi2+  Bi65  1  0.00938691  0.14934342  0.78980604  1
  Bi2+  Bi66  1  -0.05720902  0.35025942  0.27984861  1
  Bi2+  Bi67  1  -0.02995372  0.42061561  0.75173205  1
  Bi2+  Bi68  1  -0.08201583  0.60452960  0.26713465  1
  Bi2+  Bi69  1  0.02128024  0.60825668  0.79722863  1
  Bi2+  Bi70  1  -0.03293974  0.87698789  0.29026512  1
  Bi2+  Bi71  1  0.02289038  0.88771942  0.79164606  1
  Bi2+  Bi72  1  0.23154174  0.11050787  0.29704691  1
  Bi2+  Bi73  1  0.20479422  0.12867870  0.81575979  1
  Bi2+  Bi74  1  0.24117135  0.37893487  0.31103674  1
  Bi2+  Bi75  1  0.25231704  0.44642603  0.78549881  1
  Bi2+  Bi76  1  0.25262644  0.63149294  0.30809012  1
  Bi2+  Bi77  1  0.25703840  0.67015615  0.79574030  1
  Bi2+  Bi78  1  0.21643300  0.89259803  0.27878224  1
  Bi2+  Bi79  1  0.22369712  0.94093071  0.79264992  1
  Bi2+  Bi80  1  0.53229200  0.11294113  0.29803087  1
  Bi2+  Bi81  1  0.48184380  0.13792784  0.78840494  1
  Bi2+  Bi82  1  0.55563533  0.41909447  0.25824765  1
  Bi2+  Bi83  1  0.50386332  0.39087719  0.81058191  1
  Bi2+  Bi84  1  0.55736675  0.61627635  0.28073312  1
  Bi2+  Bi85  1  0.49683547  0.58723653  0.78783875  1
  Bi2+  Bi86  1  0.55650932  0.89358381  0.28613119  1
  Bi2+  Bi87  1  0.49791316  0.87107682  0.78520318  1
  Bi2+  Bi88  1  0.79735794  0.12381904  0.29747931  1
  Bi2+  Bi89  1  0.76114704  0.12279836  0.78775289  1
  Bi2+  Bi90  1  0.75559163  0.41387333  0.30609857  1
  Bi2+  Bi91  1  0.69823902  0.38902307  0.81991403  1
  Bi2+  Bi92  1  0.74155816  0.68017014  0.29570836  1
  Bi2+  Bi93  1  0.74761175  0.57627169  0.78768573  1
  Bi2+  Bi94  1  0.76682118  0.87411556  0.27933795  1
  Bi2+  Bi95  1  0.76682574  0.85289152  0.78536386  1
  Bi2+  Bi96  1  0.13713540  -0.06695155  0.17036236  1
  Bi2+  Bi97  1  0.10637771  0.01293823  0.69537762  1
  Bi2+  Bi98  1  0.12058421  0.24190471  0.21066015  1
  Bi2+  Bi99  1  0.14885805  0.27827461  0.74805255  1
  Bi2+  Bi100  1  0.10903929  0.51979399  0.21660626  1
  Bi2+  Bi101  1  0.13901801  0.50012757  0.68258458  1
  Bi2+  Bi102  1  0.09095035  0.76933146  0.22372221  1
  Bi2+  Bi103  1  0.14642621  0.81974222  0.70908516  1
  Bi2+  Bi104  1  0.38473170  -0.01132759  0.26134946  1
  Bi2+  Bi105  1  0.34456014  0.01938481  0.70452364  1
  Bi2+  Bi106  1  0.38275562  0.23534191  0.21104156  1
  Bi2+  Bi107  1  0.34921590  0.28051583  0.75621942  1
  Bi2+  Bi108  1  0.39968921  0.51522476  0.21501330  1
  Bi2+  Bi109  1  0.39597553  0.47334824  0.70689848  1
  Bi2+  Bi110  1  0.37028845  0.75834368  0.21658047  1
  Bi2+  Bi111  1  0.35425103  0.72842989  0.70623598  1
  Bi2+  Bi112  1  0.62319109  0.04798231  0.19962757  1
  Bi2+  Bi113  1  0.61920616  0.02616617  0.68508933  1
  Bi2+  Bi114  1  0.67503576  0.25938562  0.25490830  1
  Bi2+  Bi115  1  0.61651462  0.29042879  0.72713255  1
  Bi2+  Bi116  1  0.67247684  0.53796872  0.19106750  1
  Bi2+  Bi117  1  0.61497653  0.49528237  0.70996072  1
  Bi2+  Bi118  1  0.58601847  0.78137244  0.19156488  1
  Bi2+  Bi119  1  0.63588855  0.69695386  0.71089388  1
  Bi2+  Bi120  1  0.83526896  0.01156070  0.20345446  1
  Bi2+  Bi121  1  0.90518348  0.01313129  0.70803179  1
  Bi2+  Bi122  1  0.84776783  0.26183278  0.19570482  1
  Bi2+  Bi123  1  0.81403717  0.30194947  0.73666196  1
  Bi2+  Bi124  1  0.85128430  0.45907464  0.19230681  1
  Bi2+  Bi125  1  0.86062891  0.55209331  0.69371736  1
  Bi2+  Bi126  1  0.86845390  0.75423777  0.20142634  1
  Bi2+  Bi127  1  0.96113964  0.74286940  0.72121615  1
  S2-  S128  1  -0.00427062  0.17449234  0.15400619  1
  S2-  S129  1  -0.00641865  0.13430435  0.66037575  1
  S2-  S130  1  0.08797823  0.38248348  0.15458879  1
  S2-  S131  1  0.03548035  0.37400835  0.65744330  1
  S2-  S132  1  0.04892252  0.62883262  0.15533721  1
  S2-  S133  1  0.01192873  0.61515127  0.65009581  1
  S2-  S134  1  -0.11665224  0.88570986  0.13684807  1
  S2-  S135  1  -0.08676795  0.86237243  0.64844133  1
  S2-  S136  1  0.25136211  0.16436966  0.15914760  1
  S2-  S137  1  0.23919319  0.11707602  0.66071188  1
  S2-  S138  1  0.25228520  0.34353370  0.21584697  1
  S2-  S139  1  0.26068846  0.40553379  0.64779659  1
  S2-  S140  1  0.25210513  0.53234122  0.16132524  1
  S2-  S141  1  0.25159030  0.63316816  0.65647298  1
  S2-  S142  1  0.26058305  0.75440645  0.14612483  1
  S2-  S143  1  0.31566822  0.85823166  0.64100468  1
  S2-  S144  1  0.49662247  0.12700460  0.15785905  1
  S2-  S145  1  0.47440513  0.12161239  0.66794213  1
  S2-  S146  1  0.42101412  0.37044455  0.15139367  1
  S2-  S147  1  0.51007137  0.36584492  0.65901708  1
  S2-  S148  1  0.46087979  0.62939800  0.15589994  1
  S2-  S149  1  0.49519094  0.69426983  0.64341450  1
  S2-  S150  1  0.43935709  0.86397286  0.15670933  1
  S2-  S151  1  0.48909125  0.91383657  0.68867927  1
  S2-  S152  1  0.74736066  0.13906527  0.14573804  1
  S2-  S153  1  0.77272801  0.10302997  0.66535590  1
  S2-  S154  1  0.64004951  0.39411679  0.13573036  1
  S2-  S155  1  0.79238328  0.40228002  0.65439032  1
  S2-  S156  1  0.72934195  0.70029814  0.14654673  1
  S2-  S157  1  0.76168377  0.68224841  0.64603714  1
  S2-  S158  1  0.63857114  0.90512520  0.13727512  1
  S2-  S159  1  0.69038574  0.86378686  0.68773441  1
  S2-  S160  1  0.13250759  0.00587779  0.34402214  1
  S2-  S161  1  0.00860484  0.01050362  0.85941424  1
  S2-  S162  1  0.14497025  0.23961132  0.34211926  1
  S2-  S163  1  0.09733330  0.26736922  0.84759653  1
  S2-  S164  1  0.12163708  0.51142015  0.32715383  1
  S2-  S165  1  0.12331812  0.50106478  0.84442011  1
  S2-  S166  1  0.14817894  0.74544791  0.33700379  1
  S2-  S167  1  0.12020298  0.73234008  0.84838675  1
  S2-  S168  1  0.37793238  0.06748381  0.35822524  1
  S2-  S169  1  0.45519362  0.00088473  0.84876685  1
  S2-  S170  1  0.36762691  0.27799388  0.30996350  1
  S2-  S171  1  0.36381138  0.20503711  0.85207809  1
  S2-  S172  1  0.35846117  0.50025786  0.34089677  1
  S2-  S173  1  0.35561038  0.56639677  0.85275981  1
  S2-  S174  1  0.36951667  0.74046360  0.32680467  1
  S2-  S175  1  0.37583725  0.78177037  0.83494041  1
  S2-  S176  1  0.62787326  0.00666535  0.35251220  1
  S2-  S177  1  0.62151007  -0.00111107  0.77877549  1
  S2-  S178  1  0.55708017  0.23646754  0.36296014  1
  S2-  S179  1  0.62240543  0.16436026  0.84576595  1
  S2-  S180  1  0.60687208  0.48734427  0.35106168  1
  S2-  S181  1  0.62506577  0.62522387  0.85627384  1
  S2-  S182  1  0.60176306  0.74669294  0.34839949  1
  S2-  S183  1  0.63048174  0.83468118  0.84706850  1
  S2-  S184  1  0.87051304  -0.01235315  0.34995620  1
  S2-  S185  1  0.78930662  -0.00827328  0.84594834  1
  S2-  S186  1  0.89330026  0.22923661  0.35088085  1
  S2-  S187  1  0.87476817  0.21908323  0.83996593  1
  S2-  S188  1  0.89886643  0.48380116  0.34663880  1
  S2-  S189  1  0.90307035  0.50341307  0.84002507  1
  S2-  S190  1  0.92215136  0.72966769  0.34118967  1
  S2-  S191  1  0.85537758  0.75934111  0.83969993  1
  S2-  S192  1  -0.00117829  0.11252685  0.45538363  1
  S2-  S193  1  0.00809404  0.13029308  0.95486718  1
  S2-  S194  1  0.00089708  0.36241218  0.45165036  1
  S2-  S195  1  0.00829518  0.37595301  0.95624485  1
  S2-  S196  1  0.00184746  0.60891373  0.44602227  1
  S2-  S197  1  0.00658898  0.62561996  0.95246175  1
  S2-  S198  1  0.00120484  0.86545047  0.45393602  1
  S2-  S199  1  0.00614415  0.87421479  0.95762178  1
  S2-  S200  1  0.25731213  0.11513335  0.45611098  1
  S2-  S201  1  0.25593022  0.12385245  0.95625303  1
  S2-  S202  1  0.25958437  0.35643974  0.44597454  1
  S2-  S203  1  0.25784688  0.37400128  0.94307212  1
  S2-  S204  1  0.25154180  0.61273328  0.44870467  1
  S2-  S205  1  0.25534735  0.62770503  0.96180269  1
  S2-  S206  1  0.25541560  0.86484578  0.44590985  1
  S2-  S207  1  0.25504625  0.87825789  0.95431324  1
  S2-  S208  1  0.50218961  0.11283514  0.46405929  1
  S2-  S209  1  0.50400418  0.12900740  0.95277521  1
  S2-  S210  1  0.50161116  0.36132563  0.45562693  1
  S2-  S211  1  0.50557957  0.37460633  0.95495949  1
  S2-  S212  1  0.50548949  0.61343240  0.45110616  1
  S2-  S213  1  0.50431578  0.62595307  0.95345534  1
  S2-  S214  1  0.50038549  0.86254909  0.44912240  1
  S2-  S215  1  0.50797977  0.87333922  0.95249979  1
  S2-  S216  1  0.75232235  0.11429180  0.45841464  1
  S2-  S217  1  0.75893570  0.12795175  0.94570956  1
  S2-  S218  1  0.75038323  0.36115193  0.45499776  1
  S2-  S219  1  0.75739781  0.37586502  0.95446547  1
  S2-  S220  1  0.74948947  0.61043345  0.44943946  1
  S2-  S221  1  0.76154825  0.62657622  0.95135197  1
  S2-  S222  1  0.75183336  0.86251905  0.45085224  1
  S2-  S223  1  0.75948815  0.86994951  0.95367917  1
  S2-  S224  1  0.13210766  0.00156931  0.04133331  1
  S2-  S225  1  0.12928981  -0.01514274  0.55028604  1
  S2-  S226  1  0.13629544  0.25215813  0.04974313  1
  S2-  S227  1  0.12799703  0.23571570  0.54845610  1
  S2-  S228  1  0.13671530  0.49770126  0.04875224  1
  S2-  S229  1  0.12856583  0.48621213  0.53657474  1
  S2-  S230  1  0.12854932  0.75322054  0.04936209  1
  S2-  S231  1  0.12833413  0.73834894  0.54430304  1
  S2-  S232  1  0.38116646  0.00145832  0.04898998  1
  S2-  S233  1  0.37944812  -0.01558210  0.54836165  1
  S2-  S234  1  0.37930651  0.25216976  0.04948751  1
  S2-  S235  1  0.37742079  0.23696492  0.55779137  1
  S2-  S236  1  0.38101075  0.49908517  0.05014286  1
  S2-  S237  1  0.38049890  0.48989304  0.54470750  1
  S2-  S238  1  0.38505520  0.75164380  0.04179799  1
  S2-  S239  1  0.37645201  0.73636695  0.53619198  1
  S2-  S240  1  0.63362321  0.00855685  0.03797873  1
  S2-  S241  1  0.62376129  -0.02345930  0.56024111  1
  S2-  S242  1  0.63423658  0.24945822  0.04021756  1
  S2-  S243  1  0.62612677  0.23752086  0.55650740  1
  S2-  S244  1  0.63286713  0.50542766  0.03498560  1
  S2-  S245  1  0.62504587  0.48942454  0.55220734  1
  S2-  S246  1  0.63072480  0.74642134  0.03796213  1
  S2-  S247  1  0.62688668  0.74100282  0.54817943  1
  S2-  S248  1  0.88386316  0.00658530  0.03933380  1
  S2-  S249  1  0.87454830  -0.01507232  0.55095231  1
  S2-  S250  1  0.88129069  0.25227254  0.04464732  1
  S2-  S251  1  0.87556868  0.23713927  0.55336622  1
  S2-  S252  1  0.88188990  0.49925745  0.04790488  1
  S2-  S253  1  0.87662230  0.48820974  0.54570561  1
  S2-  S254  1  0.88576116  0.74539933  0.04267163  1
  S2-  S255  1  0.87861389  0.73533871  0.54278036  1
