# generated using pymatgen
data_La6Ce6Pr19Nd20Sm13(BiS2)64
_symmetry_space_group_name_H-M   'P 1'
_cell_length_a   16.14579078
_cell_length_b   16.13847609
_cell_length_c   27.27045759
_cell_angle_alpha   90.15344094
_cell_angle_beta   90.03828361
_cell_angle_gamma   90.01527756
_symmetry_Int_Tables_number   1
_chemical_formula_structural   La6Ce6Pr19Nd20Sm13(BiS2)64
_chemical_formula_sum   'La6 Ce6 Pr19 Nd20 Sm13 Bi64 S128'
_cell_volume   7105.79377416
_cell_formula_units_Z   1
loop_
 _symmetry_equiv_pos_site_id
 _symmetry_equiv_pos_as_xyz
  1  'x, y, z'
loop_
 _atom_type_symbol
 _atom_type_oxidation_number
  La3+  3.0
  Ce3+  3.0
  Pr3+  3.0
  Nd3+  3.0
  Sm3+  3.0
  Bi2+  2.0
  S2-  -2.0
loop_
 _atom_site_type_symbol
 _atom_site_label
 _atom_site_symmetry_multiplicity
 _atom_site_fract_x
 _atom_site_fract_y
 _atom_site_fract_z
 _atom_site_occupancy
  La3+  La0  1  0.62054877  0.27531859  0.43179208  1
  La3+  La1  1  0.10923757  0.01177462  0.87731734  1
  La3+  La2  1  0.87079282  -0.02276498  0.92670761  1
  La3+  La3  1  0.49013781  0.39366041  0.56969541  1
  La3+  La4  1  0.74909172  0.85916773  0.10284937  1
  La3+  La5  1  0.74227934  0.15102574  0.59730906  1
  Ce3+  Ce6  1  0.36927926  0.27339080  0.44069943  1
  Ce3+  Ce7  1  0.74376231  0.39526052  0.56446835  1
  Ce3+  Ce8  1  0.12064577  0.24033692  0.94054922  1
  Ce3+  Ce9  1  -0.00895776  0.10644175  0.05275594  1
  Ce3+  Ce10  1  0.50397920  0.86597738  0.05532426  1
  Ce3+  Ce11  1  0.37251620  0.73756637  0.94532315  1
  Pr3+  Pr12  1  0.74404580  0.64478274  0.56021047  1
  Pr3+  Pr13  1  0.73764092  0.11115063  0.06953985  1
  Pr3+  Pr14  1  -0.00513167  0.36370797  0.06108482  1
  Pr3+  Pr15  1  0.61972873  0.02988664  0.42953817  1
  Pr3+  Pr16  1  0.24380129  0.11282887  0.05978913  1
  Pr3+  Pr17  1  0.24458310  0.86336360  0.06473973  1
  Pr3+  Pr18  1  0.36615524  -0.01406106  0.93624674  1
  Pr3+  Pr19  1  -0.00650825  0.61229118  0.06242478  1
  Pr3+  Pr20  1  0.23071348  0.65839421  0.58209526  1
  Pr3+  Pr21  1  0.86001186  0.77202073  0.42504619  1
  Pr3+  Pr22  1  0.12866653  0.02658777  0.42258488  1
  Pr3+  Pr23  1  0.24576617  0.36326193  0.05689135  1
  Pr3+  Pr24  1  0.48880332  0.64142105  0.57987064  1
  Pr3+  Pr25  1  0.87081016  0.52156352  0.44248903  1
  Pr3+  Pr26  1  0.87012996  0.49051586  0.92776314  1
  Pr3+  Pr27  1  -0.00012391  0.86097914  0.06746412  1
  Pr3+  Pr28  1  0.24541012  0.90385155  0.56220768  1
  Pr3+  Pr29  1  0.74607206  0.89698069  0.56189240  1
  Pr3+  Pr30  1  0.49996686  0.61310314  0.05987575  1
  Nd3+  Nd31  1  0.36991560  0.23916876  0.94278843  1
  Nd3+  Nd32  1  0.86660944  0.73574826  0.93959600  1
  Nd3+  Nd33  1  -0.00530035  0.89942332  0.54743888  1
  Nd3+  Nd34  1  0.74568778  0.61140575  0.06572735  1
  Nd3+  Nd35  1  0.11839202  0.74241287  0.93569870  1
  Nd3+  Nd36  1  0.62519109  -0.00772666  0.92745644  1
  Nd3+  Nd37  1  0.61649009  0.51887251  0.43709917  1
  Nd3+  Nd38  1  0.86729827  0.02319865  0.43896139  1
  Nd3+  Nd39  1  0.62450627  0.23914166  0.93136555  1
  Nd3+  Nd40  1  0.49787672  0.90035440  0.55625121  1
  Nd3+  Nd41  1  0.11929462  0.27013901  0.43660676  1
  Nd3+  Nd42  1  0.12262670  0.77606844  0.42251590  1
  Nd3+  Nd43  1  0.86946511  0.27111693  0.44794428  1
  Nd3+  Nd44  1  0.87305178  0.23348179  0.93789237  1
  Nd3+  Nd45  1  0.50394384  0.36156259  0.06807824  1
  Nd3+  Nd46  1  0.36655218  0.52582494  0.44531923  1
  Nd3+  Nd47  1  0.24779926  0.61074958  0.05990723  1
  Nd3+  Nd48  1  -0.00313985  0.39595461  0.56200010  1
  Nd3+  Nd49  1  0.61630085  0.76885584  0.44319358  1
  Nd3+  Nd50  1  0.37010614  0.77040005  0.44580423  1
  Sm3+  Sm51  1  0.24215180  0.39712722  0.55360922  1
  Sm3+  Sm52  1  0.49847076  0.11319070  0.05074906  1
  Sm3+  Sm53  1  0.61235687  0.48380825  0.92722520  1
  Sm3+  Sm54  1  0.11954004  0.52451375  0.44178698  1
  Sm3+  Sm55  1  0.24413716  0.14461944  0.56118360  1
  Sm3+  Sm56  1  0.37345605  0.48803039  0.94243748  1
  Sm3+  Sm57  1  0.74817057  0.36279365  0.05182124  1
  Sm3+  Sm58  1  0.37041247  0.02321718  0.44174643  1
  Sm3+  Sm59  1  -0.00320939  0.14354464  0.55945672  1
  Sm3+  Sm60  1  0.12030249  0.49378682  0.93307284  1
  Sm3+  Sm61  1  0.50076710  0.15042426  0.56484883  1
  Sm3+  Sm62  1  -0.00487267  0.65322501  0.55049684  1
  Sm3+  Sm63  1  0.62453600  0.73846548  0.94257716  1
  Bi2+  Bi64  1  0.01729859  0.10203497  0.28338469  1
  Bi2+  Bi65  1  0.01754222  0.14139158  0.76679136  1
  Bi2+  Bi66  1  0.05722157  0.35709724  0.31139424  1
  Bi2+  Bi67  1  0.01888102  0.39693825  0.83025518  1
  Bi2+  Bi68  1  0.01882556  0.52112193  0.25416333  1
  Bi2+  Bi69  1  -0.02020425  0.57933565  0.79368848  1
  Bi2+  Bi70  1  0.00917591  0.85060993  0.27026396  1
  Bi2+  Bi71  1  0.01400579  0.82641305  0.78143828  1
  Bi2+  Bi72  1  0.26519334  0.14321822  0.29393150  1
  Bi2+  Bi73  1  0.28069953  0.15264682  0.79173809  1
  Bi2+  Bi74  1  0.25039844  0.34945856  0.28550885  1
  Bi2+  Bi75  1  0.20449087  0.41120189  0.79364321  1
  Bi2+  Bi76  1  0.25250332  0.54436020  0.28071595  1
  Bi2+  Bi77  1  0.25486775  0.60401175  0.79935632  1
  Bi2+  Bi78  1  0.23779498  0.87117259  0.30203461  1
  Bi2+  Bi79  1  0.32703069  0.87756925  0.77808706  1
  Bi2+  Bi80  1  0.46588629  0.15306049  0.27797412  1
  Bi2+  Bi81  1  0.50218795  0.12720900  0.78403106  1
  Bi2+  Bi82  1  0.51440481  0.46092805  0.28547414  1
  Bi2+  Bi83  1  0.48853948  0.37662517  0.79209943  1
  Bi2+  Bi84  1  0.56637084  0.63626513  0.32890902  1
  Bi2+  Bi85  1  0.47367424  0.63908211  0.79368744  1
  Bi2+  Bi86  1  0.48046235  0.82049427  0.31739284  1
  Bi2+  Bi87  1  0.50354033  0.93374031  0.80873003  1
  Bi2+  Bi88  1  0.74111910  0.12314706  0.30750568  1
  Bi2+  Bi89  1  0.77480875  0.11418157  0.79887420  1
  Bi2+  Bi90  1  0.77355451  0.38633791  0.28793715  1
  Bi2+  Bi91  1  0.76600315  0.41005160  0.80488373  1
  Bi2+  Bi92  1  0.74801053  0.60155384  0.28560016  1
  Bi2+  Bi93  1  0.69745812  0.59616336  0.80864757  1
  Bi2+  Bi94  1  0.77839391  0.87847603  0.30143103  1
  Bi2+  Bi95  1  0.76003340  0.83836765  0.79088902  1
  Bi2+  Bi96  1  0.15048526  0.01524635  0.19793996  1
  Bi2+  Bi97  1  0.11126265  -0.05106493  0.67536607  1
  Bi2+  Bi98  1  0.12265022  0.22686467  0.20940114  1
  Bi2+  Bi99  1  0.14742399  0.26074099  0.71743370  1
  Bi2+  Bi100  1  0.10823893  0.41226559  0.17543858  1
  Bi2+  Bi101  1  0.11379935  0.51358767  0.70903658  1
  Bi2+  Bi102  1  0.14771228  0.72740285  0.21258960  1
  Bi2+  Bi103  1  0.16247339  0.70449282  0.72016323  1
  Bi2+  Bi104  1  0.40836429  -0.03053747  0.24784366  1
  Bi2+  Bi105  1  0.37227795  0.03554501  0.71311301  1
  Bi2+  Bi106  1  0.34642025  0.25821968  0.19767528  1
  Bi2+  Bi107  1  0.33244125  0.27598570  0.70365233  1
  Bi2+  Bi108  1  0.40401275  0.56738200  0.21021465  1
  Bi2+  Bi109  1  0.38066876  0.51665360  0.71121279  1
  Bi2+  Bi110  1  0.37220750  0.76496095  0.21967856  1
  Bi2+  Bi111  1  0.44830141  0.77322732  0.70850615  1
  Bi2+  Bi112  1  0.58985901  -0.01631275  0.21595952  1
  Bi2+  Bi113  1  0.60778003  -0.02000588  0.71639080  1
  Bi2+  Bi114  1  0.62752060  0.23012885  0.19817040  1
  Bi2+  Bi115  1  0.60106882  0.24752485  0.71065061  1
  Bi2+  Bi116  1  0.66874306  0.48638103  0.20612535  1
  Bi2+  Bi117  1  0.63513032  0.46924553  0.72204062  1
  Bi2+  Bi118  1  0.56284853  0.73289706  0.22569416  1
  Bi2+  Bi119  1  0.61631073  0.68157527  0.71332645  1
  Bi2+  Bi120  1  0.88246697  0.02642652  0.19887189  1
  Bi2+  Bi121  1  0.88002488  -0.01587988  0.69670586  1
  Bi2+  Bi122  1  0.91871740  0.26722852  0.24933464  1
  Bi2+  Bi123  1  0.91484940  0.37070373  0.73232856  1
  Bi2+  Bi124  1  0.86205074  0.51534026  0.18465000  1
  Bi2+  Bi125  1  0.82564527  0.53108184  0.69609288  1
  Bi2+  Bi126  1  0.88313340  0.71487194  0.20827689  1
  Bi2+  Bi127  1  0.90287804  0.70899357  0.71527530  1
  S2-  S128  1  0.01692631  0.10753910  0.15018617  1
  S2-  S129  1  0.01715518  0.09167290  0.65232501  1
  S2-  S130  1  -0.06846774  0.36288870  0.15564186  1
  S2-  S131  1  0.03581865  0.36742537  0.65758524  1
  S2-  S132  1  0.03075909  0.66182893  0.15734120  1
  S2-  S133  1  0.07781349  0.63565453  0.63603751  1
  S2-  S134  1  -0.08928868  0.86590114  0.15508248  1
  S2-  S135  1  -0.02841651  0.85811873  0.64367504  1
  S2-  S136  1  0.28154662  0.09595003  0.15802165  1
  S2-  S137  1  0.24739277  0.03460327  0.63687830  1
  S2-  S138  1  0.27576058  0.40231545  0.15285541  1
  S2-  S139  1  0.27942099  0.41389504  0.64875223  1
  S2-  S140  1  0.26510290  0.64605153  0.15694846  1
  S2-  S141  1  0.35926039  0.64737216  0.65046604  1
  S2-  S142  1  0.14093508  0.86685042  0.14826111  1
  S2-  S143  1  0.21117593  0.81046961  0.64568594  1
  S2-  S144  1  0.57566336  0.10399989  0.13819166  1
  S2-  S145  1  0.59519173  0.10965334  0.64773964  1
  S2-  S146  1  0.49194256  0.32347531  0.16585605  1
  S2-  S147  1  0.47586149  0.27054927  0.64329309  1
  S2-  S148  1  0.55118113  0.59490856  0.15490507  1
  S2-  S149  1  0.51329275  0.50413461  0.64787549  1
  S2-  S150  1  0.57705259  0.86137430  0.14381984  1
  S2-  S151  1  0.47316517  0.91843091  0.65405730  1
  S2-  S152  1  0.78161136  0.14024483  0.16890032  1
  S2-  S153  1  0.81092194  0.12759258  0.69337735  1
  S2-  S154  1  0.69646666  0.34232905  0.14458308  1
  S2-  S155  1  0.72127466  0.31006029  0.64763302  1
  S2-  S156  1  0.75163922  0.70316589  0.15190176  1
  S2-  S157  1  0.76727888  0.69766124  0.65486496  1
  S2-  S158  1  0.74083862  0.92825005  0.20270791  1
  S2-  S159  1  0.73819200  0.92107411  0.66249476  1
  S2-  S160  1  0.08965653  -0.05824466  0.33669486  1
  S2-  S161  1  0.10138001  -0.00479241  0.76879351  1
  S2-  S162  1  0.11423834  0.16526941  0.35615177  1
  S2-  S163  1  0.12698436  0.18337320  0.84760387  1
  S2-  S164  1  0.11052471  0.52665646  0.34425995  1
  S2-  S165  1  0.11683266  0.61507316  0.86089834  1
  S2-  S166  1  0.12306029  0.74590579  0.32102775  1
  S2-  S167  1  0.12086305  0.84057862  0.85254570  1
  S2-  S168  1  0.28201780  0.01424444  0.35859432  1
  S2-  S169  1  0.28080299  -0.00076217  0.84918711  1
  S2-  S170  1  0.38583554  0.25919726  0.34338151  1
  S2-  S171  1  0.38593812  0.25887571  0.84493321  1
  S2-  S172  1  0.37412703  0.50762350  0.34617335  1
  S2-  S173  1  0.46415255  0.49717828  0.85842303  1
  S2-  S174  1  0.32920241  0.75280648  0.34954097  1
  S2-  S175  1  0.35743541  0.73846201  0.84780237  1
  S2-  S176  1  0.65639774  -0.02160958  0.33300962  1
  S2-  S177  1  0.74108417  -0.02884353  0.85007838  1
  S2-  S178  1  0.60506835  0.16622698  0.35162363  1
  S2-  S179  1  0.62802480  0.12811030  0.85385563  1
  S2-  S180  1  0.61667371  0.40417891  0.35911876  1
  S2-  S181  1  0.61818145  0.35792974  0.85601086  1
  S2-  S182  1  0.71343784  0.77309131  0.36096987  1
  S2-  S183  1  0.65036299  0.76007101  0.84434413  1
  S2-  S184  1  0.87170429  0.01963930  0.33803100  1
  S2-  S185  1  0.93720599  0.05799477  0.83778126  1
  S2-  S186  1  0.83420687  0.25547186  0.35029308  1
  S2-  S187  1  0.82183538  0.25014072  0.84276114  1
  S2-  S188  1  0.85088763  0.50913799  0.34277817  1
  S2-  S189  1  0.85426356  0.61840382  0.85904704  1
  S2-  S190  1  0.90979000  0.75824710  0.32571040  1
  S2-  S191  1  0.89289435  0.83271176  0.85379836  1
  S2-  S192  1  -0.00762418  0.14629724  0.45464200  1
  S2-  S193  1  -0.00006427  0.11003690  0.94919840  1
  S2-  S194  1  -0.00266032  0.39660302  0.45457621  1
  S2-  S195  1  -0.00444996  0.36541670  0.95344522  1
  S2-  S196  1  -0.00413575  0.64948842  0.44532653  1
  S2-  S197  1  -0.00537568  0.60994868  0.95742582  1
  S2-  S198  1  -0.00851845  0.89507417  0.44258452  1
  S2-  S199  1  -0.00698555  0.85898655  0.96085158  1
  S2-  S200  1  0.24865864  0.14929498  0.45798759  1
  S2-  S201  1  0.24484993  0.11540548  0.95359995  1
  S2-  S202  1  0.24030851  0.39798007  0.44842054  1
  S2-  S203  1  0.24596802  0.36829149  0.94836057  1
  S2-  S204  1  0.23991226  0.64809736  0.45175549  1
  S2-  S205  1  0.25068831  0.60966837  0.95510673  1
  S2-  S206  1  0.24687330  0.89480490  0.45504346  1
  S2-  S207  1  0.24980241  0.85780817  0.95909467  1
  S2-  S208  1  0.49036401  0.14719973  0.45672927  1
  S2-  S209  1  0.49167089  0.11301166  0.94827821  1
  S2-  S210  1  0.48821349  0.39953983  0.45987372  1
  S2-  S211  1  0.49416739  0.36328237  0.96006972  1
  S2-  S212  1  0.49377604  0.64483593  0.46428529  1
  S2-  S213  1  0.49954958  0.61363637  0.95434814  1
  S2-  S214  1  0.49504759  0.89951038  0.44987091  1
  S2-  S215  1  0.49878925  0.86305239  0.94918601  1
  S2-  S216  1  0.74729616  0.14788799  0.45288365  1
  S2-  S217  1  0.75117832  0.11353901  0.95782285  1
  S2-  S218  1  0.74873441  0.39867959  0.45884022  1
  S2-  S219  1  0.74932903  0.36493936  0.95084922  1
  S2-  S220  1  0.74258502  0.64185081  0.45432680  1
  S2-  S221  1  0.73531787  0.60536853  0.95782511  1
  S2-  S222  1  0.74248486  0.89982821  0.45558966  1
  S2-  S223  1  0.74213484  0.85887386  0.95470671  1
  S2-  S224  1  0.12153380  -0.01055095  0.04958471  1
  S2-  S225  1  0.11820921  0.02441781  0.53317201  1
  S2-  S226  1  0.11921011  0.23869535  0.04759783  1
  S2-  S227  1  0.12075994  0.26824432  0.54542355  1
  S2-  S228  1  0.12172064  0.48952396  0.04071825  1
  S2-  S229  1  0.11981644  0.52020403  0.54401490  1
  S2-  S230  1  0.12501289  0.73303702  0.04396452  1
  S2-  S231  1  0.11578620  0.77379274  0.53205508  1
  S2-  S232  1  0.37407372  -0.01138622  0.04660087  1
  S2-  S233  1  0.37730832  0.02793571  0.54431351  1
  S2-  S234  1  0.37480136  0.23798678  0.04933750  1
  S2-  S235  1  0.36187138  0.26884651  0.54499560  1
  S2-  S236  1  0.37634815  0.48659758  0.04690071  1
  S2-  S237  1  0.36048321  0.52350621  0.54809849  1
  S2-  S238  1  0.37476803  0.73917634  0.05274127  1
  S2-  S239  1  0.37093763  0.77523487  0.55028198  1
  S2-  S240  1  0.62058862  -0.01051789  0.03602928  1
  S2-  S241  1  0.62294225  0.02258991  0.54049874  1
  S2-  S242  1  0.62091582  0.23935632  0.03790207  1
  S2-  S243  1  0.62216323  0.27005852  0.54144654  1
  S2-  S244  1  0.62300202  0.48466989  0.04174906  1
  S2-  S245  1  0.62116354  0.52063942  0.54570231  1
  S2-  S246  1  0.62515714  0.73751863  0.04617422  1
  S2-  S247  1  0.61746636  0.76991723  0.55111033  1
  S2-  S248  1  0.86369505  -0.01418180  0.05102841  1
  S2-  S249  1  0.86725439  0.02724158  0.54801965  1
  S2-  S250  1  0.86909276  0.23771545  0.04578857  1
  S2-  S251  1  0.87391425  0.26793066  0.55486981  1
  S2-  S252  1  0.86885776  0.48778867  0.04053948  1
  S2-  S253  1  0.87512900  0.52296131  0.55018779  1
  S2-  S254  1  0.86878741  0.73580047  0.04724437  1
  S2-  S255  1  0.86912140  0.77109754  0.53701295  1
