# generated using pymatgen
data_La6Ce6Pr19Nd20Sm13(BiS2)64
_symmetry_space_group_name_H-M   'P 1'
_cell_length_a   16.16332444
_cell_length_b   15.96123339
_cell_length_c   27.47414582
_cell_angle_alpha   90.63337322
_cell_angle_beta   89.91380427
_cell_angle_gamma   90.10302299
_symmetry_Int_Tables_number   1
_chemical_formula_structural   La6Ce6Pr19Nd20Sm13(BiS2)64
_chemical_formula_sum   'La6 Ce6 Pr19 Nd20 Sm13 Bi64 S128'
_cell_volume   7087.50895562
_cell_formula_units_Z   1
loop_
 _symmetry_equiv_pos_site_id
 _symmetry_equiv_pos_as_xyz
  1  'x, y, z'
loop_
 _atom_type_symbol
 _atom_type_oxidation_number
  La3+  3.0
  Ce3+  3.0
  Pr3+  3.0
  Nd3+  3.0
  Sm3+  3.0
  Bi2+  2.0
  S2-  -2.0
loop_
 _atom_site_type_symbol
 _atom_site_label
 _atom_site_symmetry_multiplicity
 _atom_site_fract_x
 _atom_site_fract_y
 _atom_site_fract_z
 _atom_site_occupancy
  La3+  La0  1  0.88345359  0.23814107  0.41673778  1
  La3+  La1  1  0.62566565  0.49013055  0.42198686  1
  La3+  La2  1  0.13949801  0.76600999  0.39576606  1
  La3+  La3  1  0.50826290  0.88159808  0.61009261  1
  La3+  La4  1  0.86284658  0.71792066  0.92696983  1
  La3+  La5  1  0.88411057  0.73913995  0.43954524  1
  Ce3+  Ce6  1  0.36253362  -0.03804556  0.92807252  1
  Ce3+  Ce7  1  0.62141134  0.22006978  0.39308244  1
  Ce3+  Ce8  1  0.12675700  0.24589050  0.44769080  1
  Ce3+  Ce9  1  0.26003141  0.12050849  0.56892418  1
  Ce3+  Ce10  1  0.60862840  -0.03014832  0.92496187  1
  Ce3+  Ce11  1  0.36414580  0.47647947  0.94983978  1
  Pr3+  Pr12  1  0.48849779  0.34244878  0.07046938  1
  Pr3+  Pr13  1  0.51111482  0.37150437  0.55995490  1
  Pr3+  Pr14  1  0.11302449  -0.04024323  0.92293618  1
  Pr3+  Pr15  1  0.49631335  0.59541348  0.08085701  1
  Pr3+  Pr16  1  0.86309132  -0.02816429  0.92070719  1
  Pr3+  Pr17  1  -0.01975373  0.34471485  0.06321701  1
  Pr3+  Pr18  1  0.37870769  0.24463457  0.43496590  1
  Pr3+  Pr19  1  0.38005820  -0.00806579  0.44594701  1
  Pr3+  Pr20  1  0.22654273  0.59996371  0.07687413  1
  Pr3+  Pr21  1  0.50410482  0.61759246  0.57823158  1
  Pr3+  Pr22  1  0.86184334  0.46625158  0.92926626  1
  Pr3+  Pr23  1  -0.02176099  0.84675014  0.06428214  1
  Pr3+  Pr24  1  0.63270272  -0.01349219  0.43934416  1
  Pr3+  Pr25  1  0.23587355  0.34847981  0.06211498  1
  Pr3+  Pr26  1  0.61101784  0.71917575  0.93090937  1
  Pr3+  Pr27  1  0.25828921  0.63298094  0.57399417  1
  Pr3+  Pr28  1  0.36192976  0.71303509  0.93797678  1
  Pr3+  Pr29  1  0.23637921  0.09306410  0.05317312  1
  Pr3+  Pr30  1  0.38051701  0.74326016  0.44999488  1
  Nd3+  Nd31  1  0.00543639  0.87328790  0.56953049  1
  Nd3+  Nd32  1  0.73669899  0.09617706  0.04933908  1
  Nd3+  Nd33  1  0.73512946  0.84797449  0.05053544  1
  Nd3+  Nd34  1  0.25694971  0.37096067  0.56616960  1
  Nd3+  Nd35  1  0.23471962  0.84469173  0.05886977  1
  Nd3+  Nd36  1  0.73990246  0.59444505  0.06237197  1
  Nd3+  Nd37  1  0.00781109  0.63141864  0.57008454  1
  Nd3+  Nd38  1  0.88463831  -0.01570525  0.43501830  1
  Nd3+  Nd39  1  0.11152639  0.71446733  0.93568082  1
  Nd3+  Nd40  1  0.01096330  0.37968711  0.57574563  1
  Nd3+  Nd41  1  0.48543296  0.84387186  0.05737898  1
  Nd3+  Nd42  1  0.75453079  0.86487403  0.57030487  1
  Nd3+  Nd43  1  0.11440719  0.22146581  0.94137996  1
  Nd3+  Nd44  1  0.25671158  0.87729808  0.57439067  1
  Nd3+  Nd45  1  -0.01464776  0.09360534  0.04764755  1
  Nd3+  Nd46  1  -0.00194258  0.12371577  0.56835070  1
  Nd3+  Nd47  1  0.75436017  0.61079435  0.56590462  1
  Nd3+  Nd48  1  0.60985921  0.46821052  0.93614145  1
  Nd3+  Nd49  1  0.48606278  0.09484314  0.05548148  1
  Nd3+  Nd50  1  0.51195845  0.12317148  0.55863691  1
  Sm3+  Sm51  1  0.13488017  0.50388392  0.44849334  1
  Sm3+  Sm52  1  0.60614662  0.21838908  0.92472112  1
  Sm3+  Sm53  1  0.12961831  -0.00473801  0.45162736  1
  Sm3+  Sm54  1  0.88921832  0.49719076  0.43718983  1
  Sm3+  Sm55  1  0.38318997  0.49565551  0.44583012  1
  Sm3+  Sm56  1  0.63040803  0.74005269  0.45170340  1
  Sm3+  Sm57  1  0.75762826  0.12051144  0.54923551  1
  Sm3+  Sm58  1  -0.01977999  0.59821471  0.06391050  1
  Sm3+  Sm59  1  0.73482736  0.34312389  0.04892100  1
  Sm3+  Sm60  1  0.11182844  0.47361975  0.94353994  1
  Sm3+  Sm61  1  0.86430650  0.21853660  0.92538963  1
  Sm3+  Sm62  1  0.76126172  0.37183303  0.54436508  1
  Sm3+  Sm63  1  0.36040230  0.22064985  0.94082159  1
  Bi2+  Bi64  1  0.00040846  0.17451797  0.27092574  1
  Bi2+  Bi65  1  -0.04978389  0.20429517  0.78846492  1
  Bi2+  Bi66  1  -0.06553458  0.40255742  0.31722500  1
  Bi2+  Bi67  1  0.06129799  0.38125370  0.79854278  1
  Bi2+  Bi68  1  -0.01009291  0.64249825  0.27525529  1
  Bi2+  Bi69  1  -0.00372362  0.63985488  0.79361432  1
  Bi2+  Bi70  1  -0.01344233  0.92562258  0.29944256  1
  Bi2+  Bi71  1  0.01024158  0.90170291  0.78847517  1
  Bi2+  Bi72  1  0.30461544  0.14526971  0.31439854  1
  Bi2+  Bi73  1  0.25750687  0.23822327  0.77431973  1
  Bi2+  Bi74  1  0.20459829  0.31349251  0.33064898  1
  Bi2+  Bi75  1  0.26513686  0.43426318  0.79791951  1
  Bi2+  Bi76  1  0.28146869  0.62873399  0.29940491  1
  Bi2+  Bi77  1  0.24003771  0.62923200  0.79681482  1
  Bi2+  Bi78  1  0.31113324  0.93196482  0.25998199  1
  Bi2+  Bi79  1  0.25128979  0.89495479  0.80042410  1
  Bi2+  Bi80  1  0.55150797  0.07540076  0.25227500  1
  Bi2+  Bi81  1  0.51257213  0.17313875  0.78264125  1
  Bi2+  Bi82  1  0.48545614  0.33415467  0.26999422  1
  Bi2+  Bi83  1  0.48239962  0.39088929  0.79926630  1
  Bi2+  Bi84  1  0.47738659  0.63044453  0.27958634  1
  Bi2+  Bi85  1  0.51364523  0.58425098  0.77763119  1
  Bi2+  Bi86  1  0.48163777  0.83069075  0.28504409  1
  Bi2+  Bi87  1  0.49021135  0.91767172  0.80087393  1
  Bi2+  Bi88  1  0.73069119  0.14615240  0.24130228  1
  Bi2+  Bi89  1  0.69757366  0.22828073  0.74507609  1
  Bi2+  Bi90  1  0.74976161  0.38341470  0.29245985  1
  Bi2+  Bi91  1  0.75115749  0.40346388  0.79223233  1
  Bi2+  Bi92  1  0.77364417  0.68618042  0.30170285  1
  Bi2+  Bi93  1  0.73095648  0.64234899  0.79331022  1
  Bi2+  Bi94  1  0.76299311  0.98176890  0.30282685  1
  Bi2+  Bi95  1  0.79515928  0.91809584  0.77560231  1
  Bi2+  Bi96  1  0.14873988  0.04738587  0.27186510  1
  Bi2+  Bi97  1  0.12010393  0.03663775  0.71833558  1
  Bi2+  Bi98  1  0.12525048  0.30352601  0.21509044  1
  Bi2+  Bi99  1  0.09535451  0.23601453  0.70691922  1
  Bi2+  Bi100  1  0.10891491  0.47176597  0.28741101  1
  Bi2+  Bi101  1  0.14682564  0.50907851  0.71039921  1
  Bi2+  Bi102  1  0.15390135  0.74478308  0.19305804  1
  Bi2+  Bi103  1  0.12275940  0.71194696  0.71658328  1
  Bi2+  Bi104  1  0.39721482  0.05395962  0.18081134  1
  Bi2+  Bi105  1  0.37853993  0.06595306  0.70763546  1
  Bi2+  Bi106  1  0.31635218  0.23562537  0.20339201  1
  Bi2+  Bi107  1  0.34165698  0.25312996  0.66903551  1
  Bi2+  Bi108  1  0.34786356  0.44581283  0.31546327  1
  Bi2+  Bi109  1  0.39561797  0.44673389  0.70205342  1
  Bi2+  Bi110  1  0.38148013  0.73983499  0.20002432  1
  Bi2+  Bi111  1  0.37990596  0.72450206  0.71399405  1
  Bi2+  Bi112  1  0.54911372  -0.07696937  0.17823961  1
  Bi2+  Bi113  1  0.66121031  0.03742622  0.71239779  1
  Bi2+  Bi114  1  0.60840699  0.30979807  0.18501326  1
  Bi2+  Bi115  1  0.53567821  0.28624170  0.68579559  1
  Bi2+  Bi116  1  0.68296862  0.53170262  0.22486164  1
  Bi2+  Bi117  1  0.66145722  0.51479409  0.71284197  1
  Bi2+  Bi118  1  0.67262736  0.82999684  0.25198341  1
  Bi2+  Bi119  1  0.65034231  0.76833644  0.72408015  1
  Bi2+  Bi120  1  0.88123157  -0.00215479  0.18203384  1
  Bi2+  Bi121  1  0.89780467  0.05112741  0.71897844  1
  Bi2+  Bi122  1  0.88900366  0.26689199  0.19313697  1
  Bi2+  Bi123  1  0.82840760  0.33072252  0.68375804  1
  Bi2+  Bi124  1  0.89147148  0.50030498  0.21801985  1
  Bi2+  Bi125  1  0.93021676  0.48048683  0.73340006  1
  Bi2+  Bi126  1  0.91922923  0.75319135  0.19183804  1
  Bi2+  Bi127  1  0.87648466  0.75212884  0.72300134  1
  S2-  S128  1  -0.03190094  0.12108106  0.14573256  1
  S2-  S129  1  0.00265410  0.00114946  0.64496944  1
  S2-  S130  1  -0.00109691  0.39370435  0.15905787  1
  S2-  S131  1  -0.03267779  0.25095175  0.63938146  1
  S2-  S132  1  0.08194167  0.62773063  0.14334031  1
  S2-  S133  1  -0.00493889  0.51695067  0.64591840  1
  S2-  S134  1  0.02777241  0.87429161  0.16184081  1
  S2-  S135  1  -0.00181714  0.76158626  0.64982907  1
  S2-  S136  1  0.23314587  0.10884081  0.15275716  1
  S2-  S137  1  0.25201364  0.01010009  0.64839544  1
  S2-  S138  1  0.24843195  0.37773902  0.16034329  1
  S2-  S139  1  0.15892231  0.37313953  0.64941433  1
  S2-  S140  1  0.27116191  0.61848287  0.17540894  1
  S2-  S141  1  0.35952239  0.59271902  0.65339168  1
  S2-  S142  1  0.26834777  0.86336206  0.15617863  1
  S2-  S143  1  0.25319188  0.76948031  0.65517036  1
  S2-  S144  1  0.50941003  0.20036594  0.13461267  1
  S2-  S145  1  0.51911303  0.05455432  0.65033739  1
  S2-  S146  1  0.49848430  0.42867449  0.15991344  1
  S2-  S147  1  0.53715579  0.47732265  0.64186732  1
  S2-  S148  1  0.63868593  0.59185485  0.14399359  1
  S2-  S149  1  0.52532887  0.72548178  0.66160115  1
  S2-  S150  1  0.51127548  0.74966631  0.13852721  1
  S2-  S151  1  0.42589426  0.89545827  0.70743329  1
  S2-  S152  1  0.74122695  0.06644750  0.14780139  1
  S2-  S153  1  0.77351068  0.10357663  0.64749154  1
  S2-  S154  1  0.77190245  0.35092571  0.14518579  1
  S2-  S155  1  0.75898605  0.46539044  0.63188846  1
  S2-  S156  1  0.86117780  0.60585577  0.13854375  1
  S2-  S157  1  0.76506789  0.70556688  0.65318976  1
  S2-  S158  1  0.82234203  0.84738735  0.13644996  1
  S2-  S159  1  0.66696360  0.89501019  0.65569821  1
  S2-  S160  1  0.13189165  -0.05738446  0.35821011  1
  S2-  S161  1  0.11762357  0.01912275  0.82506181  1
  S2-  S162  1  0.03793280  0.24022707  0.36297370  1
  S2-  S163  1  0.11838285  0.23929748  0.84388674  1
  S2-  S164  1  0.14397906  0.59326659  0.36275409  1
  S2-  S165  1  0.11342149  0.58240392  0.86566758  1
  S2-  S166  1  0.09093200  0.77384734  0.29183218  1
  S2-  S167  1  0.11904753  0.81900532  0.85371471  1
  S2-  S168  1  0.37493303  -0.00714378  0.34456887  1
  S2-  S169  1  0.35049837  0.01744245  0.83314017  1
  S2-  S170  1  0.45964854  0.22048885  0.34547364  1
  S2-  S171  1  0.38634322  0.24826184  0.84556175  1
  S2-  S172  1  0.47398341  0.54553338  0.36495612  1
  S2-  S173  1  0.35955337  0.57653256  0.86969441  1
  S2-  S174  1  0.30357387  0.75775375  0.35836143  1
  S2-  S175  1  0.36645710  0.81891433  0.85224342  1
  S2-  S176  1  0.61722110  0.05265027  0.34601472  1
  S2-  S177  1  0.59945402  0.08979259  0.85159465  1
  S2-  S178  1  0.60260080  0.36717124  0.34306747  1
  S2-  S179  1  0.61166599  0.34917865  0.85815504  1
  S2-  S180  1  0.69737025  0.54836836  0.33126503  1
  S2-  S181  1  0.60423125  0.58904057  0.86065635  1
  S2-  S182  1  0.65646661  0.76905906  0.35434628  1
  S2-  S183  1  0.60365270  0.84265163  0.85094476  1
  S2-  S184  1  0.90465792  0.06510491  0.34540345  1
  S2-  S185  1  0.86593800  0.10405843  0.84846340  1
  S2-  S186  1  0.76475585  0.23114765  0.33776101  1
  S2-  S187  1  0.87085508  0.34012663  0.85385072  1
  S2-  S188  1  0.89898700  0.61735444  0.36314200  1
  S2-  S189  1  0.86498057  0.58964126  0.85403166  1
  S2-  S190  1  0.88725310  0.85566416  0.36025518  1
  S2-  S191  1  0.87792593  0.84018602  0.85097951  1
  S2-  S192  1  0.00479547  0.11403089  0.46110569  1
  S2-  S193  1  -0.00590691  0.09436826  0.94406056  1
  S2-  S194  1  0.01275063  0.37830397  0.46022639  1
  S2-  S195  1  -0.00878510  0.34495185  0.95534253  1
  S2-  S196  1  0.01476928  0.62256290  0.46471896  1
  S2-  S197  1  -0.01466905  0.59155090  0.96015793  1
  S2-  S198  1  0.01601357  0.86394754  0.46090365  1
  S2-  S199  1  -0.01203616  0.84467261  0.95512321  1
  S2-  S200  1  0.25404738  0.11904726  0.45918892  1
  S2-  S201  1  0.23673671  0.09306493  0.94631232  1
  S2-  S202  1  0.25602896  0.37280800  0.46008007  1
  S2-  S203  1  0.23764828  0.34933596  0.95346837  1
  S2-  S204  1  0.26202541  0.61841914  0.46722161  1
  S2-  S205  1  0.23349105  0.59334881  0.96907161  1
  S2-  S206  1  0.25250372  0.87085528  0.46425804  1
  S2-  S207  1  0.23739921  0.84165340  0.95462084  1
  S2-  S208  1  0.50756740  0.11883301  0.45459055  1
  S2-  S209  1  0.48013618  0.09578208  0.95144472  1
  S2-  S210  1  0.50239343  0.36547399  0.45378765  1
  S2-  S211  1  0.48207570  0.34299853  0.95950638  1
  S2-  S212  1  0.50591676  0.62273759  0.46932707  1
  S2-  S213  1  0.49015945  0.59517761  0.96909497  1
  S2-  S214  1  0.50664408  0.86615725  0.44535921  1
  S2-  S215  1  0.48657975  0.84322938  0.95463768  1
  S2-  S216  1  0.75578491  0.11592627  0.44684102  1
  S2-  S217  1  0.73639239  0.09906397  0.94584937  1
  S2-  S218  1  0.76501518  0.37310759  0.44257163  1
  S2-  S219  1  0.73747191  0.33768048  0.94910270  1
  S2-  S220  1  0.75336802  0.61608628  0.45846667  1
  S2-  S221  1  0.73708745  0.59064919  0.95606908  1
  S2-  S222  1  0.75449615  0.86512866  0.46283121  1
  S2-  S223  1  0.73751580  0.84790487  0.94745752  1
  S2-  S224  1  0.10976434  -0.03064832  0.04041002  1
  S2-  S225  1  0.12976628  0.00072208  0.55137735  1
  S2-  S226  1  0.11071959  0.22136961  0.04725607  1
  S2-  S227  1  0.13137306  0.24251480  0.55013014  1
  S2-  S228  1  0.10682167  0.47068308  0.04717901  1
  S2-  S229  1  0.13761040  0.50202840  0.55081441  1
  S2-  S230  1  0.10684838  0.72576694  0.04191555  1
  S2-  S231  1  0.13306462  0.75390443  0.55624895  1
  S2-  S232  1  0.36246808  -0.03159932  0.03984373  1
  S2-  S233  1  0.38915360  -0.00455990  0.55100674  1
  S2-  S234  1  0.35802769  0.22104577  0.04424309  1
  S2-  S235  1  0.38265322  0.24515322  0.54295783  1
  S2-  S236  1  0.36199348  0.47531360  0.05550705  1
  S2-  S237  1  0.37983547  0.49275820  0.54754132  1
  S2-  S238  1  0.35853456  0.71988511  0.04732412  1
  S2-  S239  1  0.39023757  0.75898861  0.55601134  1
  S2-  S240  1  0.61031611  -0.02839595  0.03727469  1
  S2-  S241  1  0.63205400  -0.00561730  0.54501440  1
  S2-  S242  1  0.61426189  0.21897712  0.03146221  1
  S2-  S243  1  0.63883609  0.24726586  0.55150230  1
  S2-  S244  1  0.61350694  0.46442193  0.04273592  1
  S2-  S245  1  0.63344767  0.49169378  0.53311267  1
  S2-  S246  1  0.61755455  0.72194300  0.03729609  1
  S2-  S247  1  0.63018240  0.74410277  0.55320206  1
  S2-  S248  1  0.86049790  -0.02687574  0.03069336  1
  S2-  S249  1  0.87595381  -0.00738747  0.54241592  1
  S2-  S250  1  0.86096733  0.21910465  0.03467959  1
  S2-  S251  1  0.87760065  0.24585842  0.53210418  1
  S2-  S252  1  0.85995367  0.46671516  0.03836526  1
  S2-  S253  1  0.88744661  0.49668086  0.53915432  1
  S2-  S254  1  0.85985743  0.72194056  0.03475302  1
  S2-  S255  1  0.87752652  0.74509586  0.54724033  1
