# generated using pymatgen
data_La6Ce6Pr19Nd20Sm13(BiS2)64
_symmetry_space_group_name_H-M   'P 1'
_cell_length_a   16.16394636
_cell_length_b   16.13587753
_cell_length_c   27.20400380
_cell_angle_alpha   90.04942765
_cell_angle_beta   90.15986742
_cell_angle_gamma   89.98058480
_symmetry_Int_Tables_number   1
_chemical_formula_structural   La6Ce6Pr19Nd20Sm13(BiS2)64
_chemical_formula_sum   'La6 Ce6 Pr19 Nd20 Sm13 Bi64 S128'
_cell_volume   7095.30288791
_cell_formula_units_Z   1
loop_
 _symmetry_equiv_pos_site_id
 _symmetry_equiv_pos_as_xyz
  1  'x, y, z'
loop_
 _atom_type_symbol
 _atom_type_oxidation_number
  La3+  3.0
  Ce3+  3.0
  Pr3+  3.0
  Nd3+  3.0
  Sm3+  3.0
  Bi2+  2.0
  S2-  -2.0
loop_
 _atom_site_type_symbol
 _atom_site_label
 _atom_site_symmetry_multiplicity
 _atom_site_fract_x
 _atom_site_fract_y
 _atom_site_fract_z
 _atom_site_occupancy
  La3+  La0  1  0.11434560  0.49651463  0.91416320  1
  La3+  La1  1  0.50347932  0.86829984  0.58272136  1
  La3+  La2  1  0.75662760  0.38768308  0.09944315  1
  La3+  La3  1  0.24913297  0.38131877  0.61383922  1
  La3+  La4  1  0.49174312  0.38187739  0.10522477  1
  La3+  La5  1  0.50445604  0.35779781  0.57228826  1
  Ce3+  Ce6  1  0.00451243  0.35681468  0.56795586  1
  Ce3+  Ce7  1  0.25406658  0.12266639  0.56183345  1
  Ce3+  Ce8  1  -0.00541809  0.12926495  0.05795489  1
  Ce3+  Ce9  1  0.24418851  0.62416856  0.05112600  1
  Ce3+  Ce10  1  0.61685221  0.75403854  0.94051475  1
  Ce3+  Ce11  1  0.11614600  0.00198940  0.94056204  1
  Pr3+  Pr12  1  0.00312213  0.86123884  0.57841835  1
  Pr3+  Pr13  1  0.87717236  0.23546930  0.43496910  1
  Pr3+  Pr14  1  0.12710123  -0.01446317  0.44710964  1
  Pr3+  Pr15  1  0.00512936  0.60698491  0.56274055  1
  Pr3+  Pr16  1  0.74194722  0.87903574  0.05630021  1
  Pr3+  Pr17  1  0.75120695  0.11066649  0.56006701  1
  Pr3+  Pr18  1  0.75088861  0.36200655  0.56228223  1
  Pr3+  Pr19  1  0.50297590  0.60898981  0.55422340  1
  Pr3+  Pr20  1  0.49445222  0.12490744  0.06721138  1
  Pr3+  Pr21  1  0.86445732  0.49864117  0.92746334  1
  Pr3+  Pr22  1  0.62359935  0.48032985  0.41975325  1
  Pr3+  Pr23  1  0.11681269  0.25211779  0.93628321  1
  Pr3+  Pr24  1  0.87717882  0.48627691  0.43707263  1
  Pr3+  Pr25  1  0.50417903  0.11155011  0.56637811  1
  Pr3+  Pr26  1  0.61811727  -0.01664729  0.42656105  1
  Pr3+  Pr27  1  0.37823899  0.23920879  0.43920969  1
  Pr3+  Pr28  1  0.62676936  0.23109783  0.43195743  1
  Pr3+  Pr29  1  0.75265602  0.61145161  0.55026835  1
  Pr3+  Pr30  1  0.37680219  0.73717076  0.44336110  1
  Nd3+  Nd31  1  0.11674465  0.75305684  0.93692507  1
  Nd3+  Nd32  1  0.49288149  0.87809800  0.06644165  1
  Nd3+  Nd33  1  0.25439542  0.86182275  0.57292208  1
  Nd3+  Nd34  1  0.75498917  0.86056999  0.56803809  1
  Nd3+  Nd35  1  -0.00665393  0.87553256  0.05871830  1
  Nd3+  Nd36  1  0.86546048  0.75046781  0.93399511  1
  Nd3+  Nd37  1  0.74512545  0.62702962  0.06072843  1
  Nd3+  Nd38  1  0.36929725  0.49971667  0.93333317  1
  Nd3+  Nd39  1  0.36971436  0.00134427  0.93846225  1
  Nd3+  Nd40  1  0.60964922  -0.00397247  0.91669819  1
  Nd3+  Nd41  1  0.49397512  0.62273837  0.05750347  1
  Nd3+  Nd42  1  0.61819345  0.49751177  0.94717084  1
  Nd3+  Nd43  1  0.86619936  0.00256584  0.94125047  1
  Nd3+  Nd44  1  0.87926169  0.73976734  0.43823881  1
  Nd3+  Nd45  1  0.36854047  0.75179538  0.93765956  1
  Nd3+  Nd46  1  0.00563757  0.11615514  0.56531307  1
  Nd3+  Nd47  1  0.24590218  0.37762798  0.05968253  1
  Nd3+  Nd48  1  0.61683404  0.25288421  0.95049511  1
  Nd3+  Nd49  1  0.73946769  0.12861812  0.05987057  1
  Nd3+  Nd50  1  0.12801512  0.23894924  0.44213347  1
  Sm3+  Sm51  1  0.12675040  0.73789114  0.44971486  1
  Sm3+  Sm52  1  -0.00741822  0.62453520  0.04900579  1
  Sm3+  Sm53  1  0.12709603  0.48461455  0.44240826  1
  Sm3+  Sm54  1  0.24413766  0.12857110  0.05084150  1
  Sm3+  Sm55  1  0.37770704  -0.01535622  0.44729838  1
  Sm3+  Sm56  1  -0.00595861  0.37891666  0.05612510  1
  Sm3+  Sm57  1  0.86376785  0.25215841  0.94780769  1
  Sm3+  Sm58  1  0.87886661  -0.01498156  0.44958461  1
  Sm3+  Sm59  1  0.62611974  0.74146236  0.44292465  1
  Sm3+  Sm60  1  0.37633937  0.48465399  0.44309805  1
  Sm3+  Sm61  1  0.24362004  0.87473561  0.05142891  1
  Sm3+  Sm62  1  0.25363740  0.60939971  0.55633950  1
  Sm3+  Sm63  1  0.37183017  0.25228337  0.93996384  1
  Bi2+  Bi64  1  0.04522248  0.13592689  0.29067648  1
  Bi2+  Bi65  1  0.00532103  0.09793491  0.78587941  1
  Bi2+  Bi66  1  0.01188020  0.38385843  0.30395803  1
  Bi2+  Bi67  1  -0.02950269  0.36027630  0.78083882  1
  Bi2+  Bi68  1  0.04630693  0.61888066  0.23780563  1
  Bi2+  Bi69  1  -0.03730577  0.64140266  0.79791471  1
  Bi2+  Bi70  1  0.01511306  0.83036555  0.30877805  1
  Bi2+  Bi71  1  0.02124710  0.87178285  0.77358382  1
  Bi2+  Bi72  1  0.26103535  0.09459309  0.25656776  1
  Bi2+  Bi73  1  0.22287887  0.07810159  0.77728985  1
  Bi2+  Bi74  1  0.22183680  0.38096898  0.29337611  1
  Bi2+  Bi75  1  0.26499718  0.37229869  0.82054095  1
  Bi2+  Bi76  1  0.25966158  0.67276614  0.28686487  1
  Bi2+  Bi77  1  0.20447452  0.67611972  0.76484684  1
  Bi2+  Bi78  1  0.22545050  0.91455070  0.29617084  1
  Bi2+  Bi79  1  0.25623126  0.88415046  0.78780454  1
  Bi2+  Bi80  1  0.50138054  0.10637958  0.29128976  1
  Bi2+  Bi81  1  0.53211137  0.12815063  0.79161773  1
  Bi2+  Bi82  1  0.47996674  0.36936899  0.29396619  1
  Bi2+  Bi83  1  0.50853334  0.36239164  0.80866362  1
  Bi2+  Bi84  1  0.46119361  0.64937549  0.27389663  1
  Bi2+  Bi85  1  0.57016675  0.62212358  0.78754314  1
  Bi2+  Bi86  1  0.50459599  0.86117170  0.29327433  1
  Bi2+  Bi87  1  0.48138103  0.87432811  0.79116033  1
  Bi2+  Bi88  1  0.76776003  0.12133571  0.28875288  1
  Bi2+  Bi89  1  0.78739666  0.14949541  0.79642165  1
  Bi2+  Bi90  1  0.74509089  0.39209671  0.29478321  1
  Bi2+  Bi91  1  0.77363016  0.41947023  0.79977561  1
  Bi2+  Bi92  1  0.74934124  0.70605798  0.27594101  1
  Bi2+  Bi93  1  0.76776982  0.62093611  0.81310025  1
  Bi2+  Bi94  1  0.75308588  0.89923938  0.29189689  1
  Bi2+  Bi95  1  0.75436668  0.81317668  0.79015096  1
  Bi2+  Bi96  1  0.09663631  -0.03260763  0.21181641  1
  Bi2+  Bi97  1  0.07725428  0.00569254  0.67373657  1
  Bi2+  Bi98  1  0.12355841  0.23889602  0.19332580  1
  Bi2+  Bi99  1  0.10984580  0.19273398  0.70994954  1
  Bi2+  Bi100  1  0.12021268  0.44310009  0.20001690  1
  Bi2+  Bi101  1  0.12045759  0.51806603  0.71697716  1
  Bi2+  Bi102  1  0.15587563  0.77653237  0.20923291  1
  Bi2+  Bi103  1  0.14326871  0.82080017  0.68855432  1
  Bi2+  Bi104  1  0.38534430  -0.04884998  0.21681692  1
  Bi2+  Bi105  1  0.35716885  -0.00858456  0.71103350  1
  Bi2+  Bi106  1  0.34331495  0.25165401  0.21077131  1
  Bi2+  Bi107  1  0.38292154  0.25077746  0.71414779  1
  Bi2+  Bi108  1  0.30251158  0.51554642  0.22156148  1
  Bi2+  Bi109  1  0.37976459  0.51410665  0.71903652  1
  Bi2+  Bi110  1  0.38805690  0.75699221  0.18496507  1
  Bi2+  Bi111  1  0.43276983  0.72872166  0.72037270  1
  Bi2+  Bi112  1  0.64688764  -0.03706336  0.19885498  1
  Bi2+  Bi113  1  0.62936179  -0.00096495  0.71825452  1
  Bi2+  Bi114  1  0.62906789  0.21736581  0.20561342  1
  Bi2+  Bi115  1  0.63657067  0.25232058  0.71034996  1
  Bi2+  Bi116  1  0.60829446  0.54571938  0.21857541  1
  Bi2+  Bi117  1  0.66774800  0.50671501  0.71252598  1
  Bi2+  Bi118  1  0.58866180  0.75925661  0.20330794  1
  Bi2+  Bi119  1  0.63795129  0.73986520  0.70815928  1
  Bi2+  Bi120  1  0.91081371  0.00067340  0.24858079  1
  Bi2+  Bi121  1  0.89583162  -0.02218351  0.71391533  1
  Bi2+  Bi122  1  0.93418088  0.26151533  0.22713197  1
  Bi2+  Bi123  1  0.82902459  0.23505760  0.69514884  1
  Bi2+  Bi124  1  0.88479015  0.52418008  0.20858577  1
  Bi2+  Bi125  1  0.85891793  0.43027273  0.69623096  1
  Bi2+  Bi126  1  0.88089552  0.77205949  0.20523546  1
  Bi2+  Bi127  1  0.87976495  0.70086966  0.70551416  1
  S2-  S128  1  -0.01859265  0.15447642  0.15352365  1
  S2-  S129  1  -0.01900931  0.22536465  0.64158011  1
  S2-  S130  1  -0.07878709  0.41052725  0.14301066  1
  S2-  S131  1  0.08596536  0.40521565  0.65130205  1
  S2-  S132  1  -0.03292349  0.64726332  0.14545414  1
  S2-  S133  1  0.01170798  0.62027183  0.66346344  1
  S2-  S134  1  -0.03558229  0.89441701  0.15582158  1
  S2-  S135  1  -0.12765057  0.84910259  0.64652000  1
  S2-  S136  1  0.24944751  0.13426362  0.14885776  1
  S2-  S137  1  0.25863211  0.20864164  0.64888161  1
  S2-  S138  1  0.33007664  0.38489382  0.14746522  1
  S2-  S139  1  0.25861124  0.38532496  0.72448385  1
  S2-  S140  1  0.26685616  0.63757687  0.14758575  1
  S2-  S141  1  0.25214442  0.56170434  0.65137249  1
  S2-  S142  1  0.26416323  0.87798105  0.14824312  1
  S2-  S143  1  0.36557220  0.84559411  0.65046451  1
  S2-  S144  1  0.47812393  0.21833347  0.15241600  1
  S2-  S145  1  0.50036562  0.21777970  0.65014175  1
  S2-  S146  1  0.56897806  0.38230952  0.20132785  1
  S2-  S147  1  0.41390544  0.39575872  0.65796639  1
  S2-  S148  1  0.49230558  0.54895388  0.14702282  1
  S2-  S149  1  0.48273853  0.60828443  0.65453682  1
  S2-  S150  1  0.50247956  0.99480242  0.14039765  1
  S2-  S151  1  0.50070326  1.00866499  0.65177844  1
  S2-  S152  1  0.72594987  0.09221805  0.15781616  1
  S2-  S153  1  0.71223583  0.10395333  0.65956632  1
  S2-  S154  1  0.75947552  0.30858189  0.19411962  1
  S2-  S155  1  0.64170835  0.37945313  0.64136137  1
  S2-  S156  1  0.74651870  0.54572500  0.14990062  1
  S2-  S157  1  0.74539191  0.62733233  0.65011827  1
  S2-  S158  1  0.74248356  0.82734580  0.15230685  1
  S2-  S159  1  0.64644506  0.87096312  0.64694417  1
  S2-  S160  1  0.09151261  -0.01974855  0.34912876  1
  S2-  S161  1  0.11984027  -0.03971493  0.84605697  1
  S2-  S162  1  0.14574612  0.24088439  0.34256788  1
  S2-  S163  1  0.10847131  0.31911592  0.84439156  1
  S2-  S164  1  0.12078660  0.49508505  0.34400250  1
  S2-  S165  1  0.19698111  0.52519517  0.82636380  1
  S2-  S166  1  0.12846986  0.73813617  0.35214020  1
  S2-  S167  1  0.10902819  0.71788294  0.83950566  1
  S2-  S168  1  0.45951175  -0.01000146  0.36115805  1
  S2-  S169  1  0.46380276  0.01079795  0.85565369  1
  S2-  S170  1  0.41428925  0.22581731  0.33913569  1
  S2-  S171  1  0.38318874  0.24162710  0.84037700  1
  S2-  S172  1  0.40721811  0.47837854  0.34589896  1
  S2-  S173  1  0.39930084  0.48800890  0.83385687  1
  S2-  S174  1  0.38322324  0.75894755  0.34411124  1
  S2-  S175  1  0.36376563  0.76899239  0.83918957  1
  S2-  S176  1  0.63276201  0.11077643  0.35277221  1
  S2-  S177  1  0.67313119  0.03989608  0.82302842  1
  S2-  S178  1  0.61649037  0.34155503  0.35272321  1
  S2-  S179  1  0.61253260  0.24110135  0.84958783  1
  S2-  S180  1  0.66336777  0.52996379  0.32243370  1
  S2-  S181  1  0.61665169  0.46104521  0.84860979  1
  S2-  S182  1  0.62980910  0.84163915  0.36373383  1
  S2-  S183  1  0.61320626  0.84175608  0.85631207  1
  S2-  S184  1  0.85706237  0.00189462  0.35240075  1
  S2-  S185  1  0.88184354  0.03365598  0.84385377  1
  S2-  S186  1  0.82172320  0.24902284  0.33920606  1
  S2-  S187  1  0.86377639  0.28391323  0.85106216  1
  S2-  S188  1  0.87831899  0.47578781  0.33595985  1
  S2-  S189  1  0.97745129  0.49732337  0.84831564  1
  S2-  S190  1  0.88877593  0.72513430  0.33909281  1
  S2-  S191  1  0.90005175  0.80974881  0.84224551  1
  S2-  S192  1  0.00207850  0.11202664  0.45684567  1
  S2-  S193  1  -0.00909304  0.12882431  0.95086052  1
  S2-  S194  1  0.00233580  0.36189105  0.45462149  1
  S2-  S195  1  -0.01048018  0.37413765  0.95375250  1
  S2-  S196  1  0.00445466  0.61208297  0.45321361  1
  S2-  S197  1  -0.00778347  0.62752991  0.94626311  1
  S2-  S198  1  0.00300816  0.86096910  0.46406051  1
  S2-  S199  1  -0.00817689  0.87651393  0.95262822  1
  S2-  S200  1  0.25327449  0.11058862  0.45108552  1
  S2-  S201  1  0.24543563  0.12740152  0.94486037  1
  S2-  S202  1  0.25160994  0.36509276  0.44443433  1
  S2-  S203  1  0.24451285  0.37622632  0.95147448  1
  S2-  S204  1  0.25005863  0.61060118  0.45079303  1
  S2-  S205  1  0.24254065  0.62648240  0.94454853  1
  S2-  S206  1  0.25205285  0.86112852  0.46036503  1
  S2-  S207  1  0.24379260  0.87674150  0.94719488  1
  S2-  S208  1  0.49837889  0.11147992  0.45931534  1
  S2-  S209  1  0.49221844  0.12828996  0.95835516  1
  S2-  S210  1  0.49997340  0.36421588  0.45726650  1
  S2-  S211  1  0.49115097  0.37551715  0.95158860  1
  S2-  S212  1  0.50457228  0.61303676  0.44630277  1
  S2-  S213  1  0.49342927  0.62580758  0.94888757  1
  S2-  S214  1  0.49852896  0.85931284  0.46598099  1
  S2-  S215  1  0.49012944  0.87591387  0.95954852  1
  S2-  S216  1  0.75698625  0.10733155  0.45439879  1
  S2-  S217  1  0.74108151  0.12627822  0.95226724  1
  S2-  S218  1  0.75323548  0.36222027  0.45361231  1
  S2-  S219  1  0.74367605  0.37537172  0.95399568  1
  S2-  S220  1  0.75095173  0.61641118  0.44334061  1
  S2-  S221  1  0.74088340  0.62703285  0.95305091  1
  S2-  S222  1  0.75776223  0.86116632  0.46011298  1
  S2-  S223  1  0.74442505  0.87853368  0.94997383  1
  S2-  S224  1  0.12101975  0.00128782  0.04834065  1
  S2-  S225  1  0.13099478  -0.01180224  0.55294521  1
  S2-  S226  1  0.11954429  0.25464267  0.04454260  1
  S2-  S227  1  0.12965500  0.24077820  0.54671692  1
  S2-  S228  1  0.11654329  0.50100357  0.04252252  1
  S2-  S229  1  0.13253714  0.48602024  0.54511712  1
  S2-  S230  1  0.11768378  0.75104956  0.04459540  1
  S2-  S231  1  0.12983697  0.73581599  0.55428744  1
  S2-  S232  1  0.36283933  0.00122223  0.04375798  1
  S2-  S233  1  0.37068666  -0.01033235  0.54972311  1
  S2-  S234  1  0.36592328  0.25048938  0.04381385  1
  S2-  S235  1  0.37690737  0.24005233  0.54454800  1
  S2-  S236  1  0.36956538  0.50039169  0.04032298  1
  S2-  S237  1  0.37356613  0.48648432  0.54638011  1
  S2-  S238  1  0.37015459  0.75188579  0.04372600  1
  S2-  S239  1  0.37479524  0.73273997  0.54885713  1
  S2-  S240  1  0.61972986  0.00160626  0.03688560  1
  S2-  S241  1  0.62940456  -0.01451418  0.54029532  1
  S2-  S242  1  0.62369581  0.26189253  0.05803459  1
  S2-  S243  1  0.63097627  0.23456468  0.54041684  1
  S2-  S244  1  0.62130839  0.49744233  0.05131599  1
  S2-  S245  1  0.62873409  0.48872602  0.53452481  1
  S2-  S246  1  0.61617554  0.75056950  0.04766817  1
  S2-  S247  1  0.62628208  0.73628391  0.54600592  1
  S2-  S248  1  0.86840271  0.00356544  0.04863609  1
  S2-  S249  1  0.88174910  -0.00971184  0.55345346  1
  S2-  S250  1  0.86619302  0.25531016  0.05247138  1
  S2-  S251  1  0.87370837  0.23690754  0.54108307  1
  S2-  S252  1  0.86854042  0.50467300  0.03658128  1
  S2-  S253  1  0.87853768  0.48530899  0.54571992  1
  S2-  S254  1  0.86914173  0.75121873  0.04160724  1
  S2-  S255  1  0.88222271  0.73362883  0.54466762  1
