# generated using pymatgen
data_La6Ce6Pr19Nd20Sm13(BiS2)64
_symmetry_space_group_name_H-M   'P 1'
_cell_length_a   16.10577103
_cell_length_b   16.01180458
_cell_length_c   27.35419118
_cell_angle_alpha   89.75924081
_cell_angle_beta   89.91270891
_cell_angle_gamma   90.01640056
_symmetry_Int_Tables_number   1
_chemical_formula_structural   La6Ce6Pr19Nd20Sm13(BiS2)64
_chemical_formula_sum   'La6 Ce6 Pr19 Nd20 Sm13 Bi64 S128'
_cell_volume   7054.09530395
_cell_formula_units_Z   1
loop_
 _symmetry_equiv_pos_site_id
 _symmetry_equiv_pos_as_xyz
  1  'x, y, z'
loop_
 _atom_type_symbol
 _atom_type_oxidation_number
  La3+  3.0
  Ce3+  3.0
  Pr3+  3.0
  Nd3+  3.0
  Sm3+  3.0
  Bi2+  2.0
  S2-  -2.0
loop_
 _atom_site_type_symbol
 _atom_site_label
 _atom_site_symmetry_multiplicity
 _atom_site_fract_x
 _atom_site_fract_y
 _atom_site_fract_z
 _atom_site_occupancy
  La3+  La0  1  0.11231306  -0.01114200  0.39134889  1
  La3+  La1  1  0.13159283  -0.01153542  0.91771722  1
  La3+  La2  1  0.25054106  0.86052234  0.56368647  1
  La3+  La3  1  0.61488085  0.24890567  0.89277585  1
  La3+  La4  1  0.50466108  0.11844265  0.06696740  1
  La3+  La5  1  0.75054528  0.85990539  0.56411650  1
  Ce3+  Ce6  1  0.49748145  0.87344046  0.07059121  1
  Ce3+  Ce7  1  0.00373613  0.61197563  0.56637204  1
  Ce3+  Ce8  1  0.37485813  0.47870537  0.44576211  1
  Ce3+  Ce9  1  0.00203536  0.11910192  0.04819211  1
  Ce3+  Ce10  1  0.12760152  0.48540294  0.43925877  1
  Ce3+  Ce11  1  -0.00984357  0.61625322  0.06455803  1
  Pr3+  Pr12  1  0.75308921  0.11014903  0.57636182  1
  Pr3+  Pr13  1  0.62708002  0.74989453  0.93970546  1
  Pr3+  Pr14  1  0.50292887  0.09559262  0.56914828  1
  Pr3+  Pr15  1  0.00528520  0.09850155  0.59713923  1
  Pr3+  Pr16  1  0.25381706  0.87497280  0.07441239  1
  Pr3+  Pr17  1  0.63006892  0.48053113  0.43281857  1
  Pr3+  Pr18  1  0.87899830  0.73071823  0.43681578  1
  Pr3+  Pr19  1  0.62659896  0.49485624  0.93700885  1
  Pr3+  Pr20  1  0.37650842  -0.00492445  0.93809753  1
  Pr3+  Pr21  1  0.62470129  -0.01083290  0.42616146  1
  Pr3+  Pr22  1  0.74800051  0.35647608  0.57438273  1
  Pr3+  Pr23  1  0.74170851  0.62961085  0.07345953  1
  Pr3+  Pr24  1  0.12841188  0.24751904  0.92551799  1
  Pr3+  Pr25  1  0.24776495  0.36656750  0.06737333  1
  Pr3+  Pr26  1  0.87712081  -0.01671901  0.44412721  1
  Pr3+  Pr27  1  0.50300254  0.60386707  0.55704524  1
  Pr3+  Pr28  1  0.87284466  0.49750129  0.93039768  1
  Pr3+  Pr29  1  0.87957305  0.23005995  0.45206358  1
  Pr3+  Pr30  1  0.13114435  0.72963430  0.42881985  1
  Nd3+  Nd31  1  0.00527045  0.35789061  0.56885539  1
  Nd3+  Nd32  1  0.00455962  0.85512630  0.56187292  1
  Nd3+  Nd33  1  0.37466491  0.74415873  0.94679424  1
  Nd3+  Nd34  1  0.37893578  0.24645517  0.93991817  1
  Nd3+  Nd35  1  0.24502172  0.61756307  0.06960323  1
  Nd3+  Nd36  1  0.87712371  0.48045238  0.44981372  1
  Nd3+  Nd37  1  -0.00173775  0.36838959  0.05065200  1
  Nd3+  Nd38  1  0.25129547  0.60964784  0.57143130  1
  Nd3+  Nd39  1  0.37183436  -0.01522543  0.43254813  1
  Nd3+  Nd40  1  0.62485834  -0.00712689  0.93266377  1
  Nd3+  Nd41  1  0.12724201  0.74199098  0.93942134  1
  Nd3+  Nd42  1  0.25037133  0.35344422  0.56058130  1
  Nd3+  Nd43  1  0.87457670  0.24660029  0.92094966  1
  Nd3+  Nd44  1  0.62977952  0.72811969  0.43146982  1
  Nd3+  Nd45  1  0.00727222  0.86805680  0.06536526  1
  Nd3+  Nd46  1  0.87649812  -0.00358917  0.92739203  1
  Nd3+  Nd47  1  0.75019294  0.60615915  0.57198903  1
  Nd3+  Nd48  1  0.24929948  0.12309191  0.06202666  1
  Nd3+  Nd49  1  0.74921857  0.36945498  0.05639786  1
  Nd3+  Nd50  1  0.51072307  0.36423666  0.07904504  1
  Sm3+  Sm51  1  0.75920823  0.88223381  0.06732962  1
  Sm3+  Sm52  1  0.12691744  0.22628069  0.44659449  1
  Sm3+  Sm53  1  0.75304993  0.11893776  0.04681110  1
  Sm3+  Sm54  1  0.87710007  0.74816443  0.93750088  1
  Sm3+  Sm55  1  0.12829275  0.49976580  0.93883849  1
  Sm3+  Sm56  1  0.50267458  0.61975358  0.06073505  1
  Sm3+  Sm57  1  0.24427629  0.10238006  0.57150681  1
  Sm3+  Sm58  1  0.62892543  0.23335629  0.43812700  1
  Sm3+  Sm59  1  0.37481249  0.22603166  0.44956839  1
  Sm3+  Sm60  1  0.50161871  0.35108230  0.56068063  1
  Sm3+  Sm61  1  0.50453305  0.85515586  0.54896273  1
  Sm3+  Sm62  1  0.37359057  0.73160476  0.44226660  1
  Sm3+  Sm63  1  0.38019744  0.48997072  0.95561297  1
  Bi2+  Bi64  1  -0.03365826  0.22983835  0.27938423  1
  Bi2+  Bi65  1  -0.02106918  0.15644952  0.77713682  1
  Bi2+  Bi66  1  0.08015704  0.37015457  0.32564001  1
  Bi2+  Bi67  1  0.06513959  0.48779928  0.80253094  1
  Bi2+  Bi68  1  0.06352151  0.54062033  0.27137850  1
  Bi2+  Bi69  1  -0.02669102  0.67089993  0.78600246  1
  Bi2+  Bi70  1  -0.01189895  0.87933473  0.28341513  1
  Bi2+  Bi71  1  0.00176894  0.89340437  0.79437436  1
  Bi2+  Bi72  1  0.24958464  0.11542268  0.29086357  1
  Bi2+  Bi73  1  0.29800089  0.22299118  0.80336233  1
  Bi2+  Bi74  1  0.26710141  0.35771899  0.29718688  1
  Bi2+  Bi75  1  0.25190827  0.41813396  0.80520535  1
  Bi2+  Bi76  1  0.28691601  0.55089259  0.26628335  1
  Bi2+  Bi77  1  0.24337659  0.62914140  0.78366524  1
  Bi2+  Bi78  1  0.25290866  0.84608976  0.28096371  1
  Bi2+  Bi79  1  0.26707144  0.87186614  0.79136845  1
  Bi2+  Bi80  1  0.50194337  0.12507662  0.29859829  1
  Bi2+  Bi81  1  0.43586183  0.06267607  0.81152064  1
  Bi2+  Bi82  1  0.53197544  0.36996232  0.27926290  1
  Bi2+  Bi83  1  0.49860894  0.47149084  0.77684090  1
  Bi2+  Bi84  1  0.53839304  0.57591600  0.28244381  1
  Bi2+  Bi85  1  0.45169389  0.65367203  0.81198905  1
  Bi2+  Bi86  1  0.54820428  0.86252982  0.29201228  1
  Bi2+  Bi87  1  0.46564367  0.90174817  0.74462125  1
  Bi2+  Bi88  1  0.77041001  0.02851042  0.30874104  1
  Bi2+  Bi89  1  0.73235879  0.09055298  0.78092625  1
  Bi2+  Bi90  1  0.78325343  0.38409189  0.30509543  1
  Bi2+  Bi91  1  0.75681487  0.50899301  0.81380537  1
  Bi2+  Bi92  1  0.79543640  0.64087608  0.30212747  1
  Bi2+  Bi93  1  0.64505769  0.69921724  0.81238347  1
  Bi2+  Bi94  1  0.74429870  0.83384918  0.29661604  1
  Bi2+  Bi95  1  0.73685413  0.87584345  0.78621667  1
  Bi2+  Bi96  1  0.10092360  0.01103528  0.17833550  1
  Bi2+  Bi97  1  0.15096716  0.00211508  0.70802395  1
  Bi2+  Bi98  1  0.11521010  0.27336564  0.20856803  1
  Bi2+  Bi99  1  0.13144109  0.32002357  0.73076640  1
  Bi2+  Bi100  1  0.18420997  0.46045220  0.18595829  1
  Bi2+  Bi101  1  0.09651054  0.52557420  0.68106046  1
  Bi2+  Bi102  1  0.14791246  0.72624068  0.21517570  1
  Bi2+  Bi103  1  0.12124030  0.73017140  0.71200491  1
  Bi2+  Bi104  1  0.39105034  -0.03618154  0.20714291  1
  Bi2+  Bi105  1  0.34471036  0.10033222  0.71266265  1
  Bi2+  Bi106  1  0.36926148  0.30618728  0.20309235  1
  Bi2+  Bi107  1  0.40973887  0.32728050  0.71790153  1
  Bi2+  Bi108  1  0.45718826  0.47927444  0.19414480  1
  Bi2+  Bi109  1  0.29409205  0.51271080  0.69134655  1
  Bi2+  Bi110  1  0.41227255  0.73083684  0.26255726  1
  Bi2+  Bi111  1  0.38328680  0.69694112  0.70506938  1
  Bi2+  Bi112  1  0.64853463  0.01424496  0.21851731  1
  Bi2+  Bi113  1  0.60058388  0.03540348  0.70272545  1
  Bi2+  Bi114  1  0.61656748  0.21591123  0.22336046  1
  Bi2+  Bi115  1  0.67492047  0.34135686  0.71497171  1
  Bi2+  Bi116  1  0.69713602  0.50594723  0.20216232  1
  Bi2+  Bi117  1  0.65226977  0.56906477  0.72325778  1
  Bi2+  Bi118  1  0.62369949  0.73546337  0.21663843  1
  Bi2+  Bi119  1  0.59338455  0.78168015  0.69560992  1
  Bi2+  Bi120  1  0.86540359  0.07139317  0.20888689  1
  Bi2+  Bi121  1  0.87378770  -0.02518496  0.70691158  1
  Bi2+  Bi122  1  0.80697641  0.26181716  0.20696906  1
  Bi2+  Bi123  1  0.90001392  0.40927169  0.75372772  1
  Bi2+  Bi124  1  0.89912817  0.44081256  0.21530561  1
  Bi2+  Bi125  1  0.90514804  0.57327826  0.68864475  1
  Bi2+  Bi126  1  0.88911096  0.73870016  0.18603874  1
  Bi2+  Bi127  1  0.84701043  0.76069969  0.71637193  1
  S2-  S128  1  -0.00502514  0.14257246  0.14544976  1
  S2-  S129  1  -0.09570258  0.12938452  0.67987476  1
  S2-  S130  1  0.02461691  0.39096088  0.14876406  1
  S2-  S131  1  0.00147587  0.35123489  0.66907120  1
  S2-  S132  1  0.04051831  0.65286192  0.15619262  1
  S2-  S133  1  0.00348087  0.73131807  0.63832382  1
  S2-  S134  1  -0.08402822  0.88614681  0.15264179  1
  S2-  S135  1  0.02237412  0.94440891  0.65366543  1
  S2-  S136  1  0.26257150  0.02511895  0.14739803  1
  S2-  S137  1  0.14416544  0.14056494  0.65760055  1
  S2-  S138  1  0.23805952  0.24263436  0.14028448  1
  S2-  S139  1  0.26160877  0.34089256  0.65950303  1
  S2-  S140  1  0.27040413  0.62845338  0.16789768  1
  S2-  S141  1  0.24756339  0.74030954  0.64191280  1
  S2-  S142  1  0.12781614  0.85510724  0.14588032  1
  S2-  S143  1  0.27920995  0.97852164  0.64420871  1
  S2-  S144  1  0.52012096  -0.00441638  0.14497689  1
  S2-  S145  1  0.49136567  0.15069329  0.66613057  1
  S2-  S146  1  0.49184898  0.22853757  0.14814244  1
  S2-  S147  1  0.53081411  0.37881263  0.65618274  1
  S2-  S148  1  0.59811976  0.61560892  0.14261673  1
  S2-  S149  1  0.52347060  0.63136568  0.65533362  1
  S2-  S150  1  0.38216982  0.84112631  0.14772803  1
  S2-  S151  1  0.51155948  0.91949601  0.63974116  1
  S2-  S152  1  0.75368924  0.03321561  0.13495602  1
  S2-  S153  1  0.72438702  0.23960395  0.65061923  1
  S2-  S154  1  0.65585212  0.38642157  0.14245352  1
  S2-  S155  1  0.73851415  0.48327994  0.64818384  1
  S2-  S156  1  0.84683902  0.57551600  0.14928558  1
  S2-  S157  1  0.73578764  0.73890678  0.64062609  1
  S2-  S158  1  0.74281768  0.77464001  0.14451731  1
  S2-  S159  1  0.73509467  0.97860208  0.64326571  1
  S2-  S160  1  0.10760286  0.01109116  0.27227862  1
  S2-  S161  1  0.07328747  0.04463922  0.82026320  1
  S2-  S162  1  0.14201280  0.15978374  0.35588743  1
  S2-  S163  1  0.06593588  0.25860935  0.82933216  1
  S2-  S164  1  0.12456607  0.58962326  0.36034904  1
  S2-  S165  1  0.13959237  0.61728876  0.86554184  1
  S2-  S166  1  0.11385852  0.82860393  0.34321774  1
  S2-  S167  1  0.12904957  0.84159990  0.85446461  1
  S2-  S168  1  0.27512984  -0.01941835  0.34766632  1
  S2-  S169  1  0.27961538  0.00324501  0.85287868  1
  S2-  S170  1  0.37305965  0.19457243  0.35142074  1
  S2-  S171  1  0.45017453  0.25073206  0.84845032  1
  S2-  S172  1  0.36601767  0.47261932  0.34889248  1
  S2-  S173  1  0.38140777  0.49835041  0.85752237  1
  S2-  S174  1  0.32127324  0.72845154  0.34891200  1
  S2-  S175  1  0.37159231  0.79950121  0.85152628  1
  S2-  S176  1  0.49086896  -0.01524971  0.35619598  1
  S2-  S177  1  0.60264565  0.08579107  0.84682152  1
  S2-  S178  1  0.64397708  0.12704940  0.35891969  1
  S2-  S179  1  0.69325135  0.24927627  0.79580212  1
  S2-  S180  1  0.63293018  0.35441583  0.36159931  1
  S2-  S181  1  0.61137176  0.41799778  0.84726090  1
  S2-  S182  1  0.64763433  0.60914063  0.35843871  1
  S2-  S183  1  0.61974417  0.86418581  0.86060919  1
  S2-  S184  1  0.94440953  -0.01340935  0.34949857  1
  S2-  S185  1  0.86840602  0.11849591  0.84806106  1
  S2-  S186  1  0.85150296  0.24651158  0.35222196  1
  S2-  S187  1  0.86671928  0.37846216  0.85111021  1
  S2-  S188  1  0.87052774  0.51477265  0.35183925  1
  S2-  S189  1  0.86608283  0.63182492  0.86080137  1
  S2-  S190  1  0.91580279  0.74356650  0.33709400  1
  S2-  S191  1  0.87679871  0.86660626  0.85873021  1
  S2-  S192  1  0.00453460  0.10568285  0.45169321  1
  S2-  S193  1  0.00469997  0.12159291  0.94372556  1
  S2-  S194  1  0.00534632  0.35651630  0.46127840  1
  S2-  S195  1  0.00498823  0.37341805  0.94611060  1
  S2-  S196  1  0.00036551  0.60586426  0.45953230  1
  S2-  S197  1  0.00053886  0.61846525  0.95886378  1
  S2-  S198  1  0.00336181  0.85673692  0.45480723  1
  S2-  S199  1  0.00386909  0.86914502  0.95731705  1
  S2-  S200  1  0.25127939  0.10735177  0.46496437  1
  S2-  S201  1  0.24946157  0.12479261  0.95271414  1
  S2-  S202  1  0.25035242  0.35212097  0.45477764  1
  S2-  S203  1  0.25034024  0.37279986  0.95515373  1
  S2-  S204  1  0.25612072  0.60442405  0.46329499  1
  S2-  S205  1  0.25791502  0.61451913  0.96301936  1
  S2-  S206  1  0.25333128  0.85495732  0.45452535  1
  S2-  S207  1  0.25239273  0.86799962  0.96258577  1
  S2-  S208  1  0.50128301  0.11173117  0.46028015  1
  S2-  S209  1  0.50150959  0.12221450  0.95573594  1
  S2-  S210  1  0.49747816  0.35296950  0.45622642  1
  S2-  S211  1  0.50341045  0.36813338  0.96113375  1
  S2-  S212  1  0.49858736  0.60617030  0.45035533  1
  S2-  S213  1  0.50070218  0.61937453  0.95665829  1
  S2-  S214  1  0.50251035  0.84850751  0.44642690  1
  S2-  S215  1  0.49621410  0.87010718  0.96175464  1
  S2-  S216  1  0.75289954  0.10860587  0.46455330  1
  S2-  S217  1  0.74589581  0.12456741  0.94481888  1
  S2-  S218  1  0.75362524  0.35671203  0.46574588  1
  S2-  S219  1  0.74470067  0.36196690  0.95107185  1
  S2-  S220  1  0.75466897  0.60571962  0.46350671  1
  S2-  S221  1  0.74731541  0.62350358  0.96074973  1
  S2-  S222  1  0.74932040  0.85643174  0.44939516  1
  S2-  S223  1  0.75472520  0.87128231  0.96089129  1
  S2-  S224  1  0.12654292  -0.00237780  0.03978572  1
  S2-  S225  1  0.12451602  -0.01576218  0.55077390  1
  S2-  S226  1  0.12351793  0.24774883  0.03447634  1
  S2-  S227  1  0.12396232  0.22987927  0.55043638  1
  S2-  S228  1  0.12412948  0.49393717  0.04327658  1
  S2-  S229  1  0.13006887  0.48239297  0.54840013  1
  S2-  S230  1  0.12617476  0.73828002  0.04468441  1
  S2-  S231  1  0.12920806  0.72770408  0.53785847  1
  S2-  S232  1  0.37513374  -0.00117273  0.04305207  1
  S2-  S233  1  0.38101385  -0.02102768  0.53788596  1
  S2-  S234  1  0.37760341  0.24966926  0.04450028  1
  S2-  S235  1  0.37590569  0.22765490  0.55456126  1
  S2-  S236  1  0.37849736  0.49229991  0.05937740  1
  S2-  S237  1  0.37619865  0.47794233  0.55289741  1
  S2-  S238  1  0.37482354  0.73588552  0.05020553  1
  S2-  S239  1  0.38115666  0.73175488  0.54602276  1
  S2-  S240  1  0.63039663  -0.00740912  0.03808098  1
  S2-  S241  1  0.62594813  -0.02019011  0.53438669  1
  S2-  S242  1  0.63256673  0.23945284  0.05007675  1
  S2-  S243  1  0.62147782  0.22899297  0.54467431  1
  S2-  S244  1  0.62327673  0.49565175  0.04208735  1
  S2-  S245  1  0.62295220  0.47763253  0.54149706  1
  S2-  S246  1  0.61874660  0.75254780  0.04469467  1
  S2-  S247  1  0.62502685  0.72998711  0.53689742  1
  S2-  S248  1  0.88028673  -0.00364095  0.03423213  1
  S2-  S249  1  0.88166909  -0.01526278  0.54993626  1
  S2-  S250  1  0.87439703  0.24493349  0.03634219  1
  S2-  S251  1  0.88423477  0.23164801  0.55790077  1
  S2-  S252  1  0.87249275  0.49114493  0.03833195  1
  S2-  S253  1  0.88058160  0.48110344  0.55441859  1
  S2-  S254  1  0.87592221  0.74754990  0.04327684  1
  S2-  S255  1  0.87353179  0.73048131  0.54286604  1
