# generated using pymatgen
data_La6Ce6Pr19Nd20Sm13(BiS2)64
_symmetry_space_group_name_H-M   'P 1'
_cell_length_a   16.11686056
_cell_length_b   16.01096011
_cell_length_c   27.27949800
_cell_angle_alpha   89.61059136
_cell_angle_beta   90.03035162
_cell_angle_gamma   90.18375059
_symmetry_Int_Tables_number   1
_chemical_formula_structural   La6Ce6Pr19Nd20Sm13(BiS2)64
_chemical_formula_sum   'La6 Ce6 Pr19 Nd20 Sm13 Bi64 S128'
_cell_volume   7039.17687378
_cell_formula_units_Z   1
loop_
 _symmetry_equiv_pos_site_id
 _symmetry_equiv_pos_as_xyz
  1  'x, y, z'
loop_
 _atom_type_symbol
 _atom_type_oxidation_number
  La3+  3.0
  Ce3+  3.0
  Pr3+  3.0
  Nd3+  3.0
  Sm3+  3.0
  Bi2+  2.0
  S2-  -2.0
loop_
 _atom_site_type_symbol
 _atom_site_label
 _atom_site_symmetry_multiplicity
 _atom_site_fract_x
 _atom_site_fract_y
 _atom_site_fract_z
 _atom_site_occupancy
  La3+  La0  1  0.48509357  0.90561328  0.06792602  1
  La3+  La1  1  0.00791879  0.87081468  0.60431457  1
  La3+  La2  1  0.00839047  0.63588017  0.10241857  1
  La3+  La3  1  0.48472513  0.40683337  0.08315378  1
  La3+  La4  1  0.49890571  0.61713731  0.56745016  1
  La3+  La5  1  0.61198704  0.04305968  0.93004159  1
  Ce3+  Ce6  1  0.37015307  0.78428759  0.93146484  1
  Ce3+  Ce7  1  0.86008687  0.28135847  0.93389484  1
  Ce3+  Ce8  1  0.62866792  0.24447966  0.44539052  1
  Ce3+  Ce9  1  0.61525401  0.28062163  0.96156806  1
  Ce3+  Ce10  1  0.49844197  0.87070411  0.56166193  1
  Ce3+  Ce11  1  0.74955396  0.41773987  0.07176618  1
  Pr3+  Pr12  1  0.12192493  0.24200232  0.43098486  1
  Pr3+  Pr13  1  0.75812882  0.62270401  0.56519710  1
  Pr3+  Pr14  1  0.49785581  0.36563875  0.56506584  1
  Pr3+  Pr15  1  0.36772927  0.04121961  0.93185260  1
  Pr3+  Pr16  1  0.61303971  0.52973430  0.94645670  1
  Pr3+  Pr17  1  0.49718198  0.11658144  0.55901699  1
  Pr3+  Pr18  1  0.87188848  0.75818499  0.41273261  1
  Pr3+  Pr19  1  0.75017180  0.66369029  0.05989146  1
  Pr3+  Pr20  1  0.37785436  0.25339034  0.42282107  1
  Pr3+  Pr21  1  0.12125889  -0.00601021  0.42515765  1
  Pr3+  Pr22  1  0.12174432  0.73784696  0.42489815  1
  Pr3+  Pr23  1  0.73658940  0.90665175  0.05386065  1
  Pr3+  Pr24  1  0.48057885  0.15179067  0.08508923  1
  Pr3+  Pr25  1  0.75329053  0.86188456  0.58385521  1
  Pr3+  Pr26  1  0.00114860  0.37245431  0.56631940  1
  Pr3+  Pr27  1  0.85933688  0.03054175  0.92044081  1
  Pr3+  Pr28  1  0.24456281  0.86954845  0.55215098  1
  Pr3+  Pr29  1  0.23526447  0.90562391  0.05059133  1
  Pr3+  Pr30  1  0.86590731  0.49717922  0.42805299  1
  Nd3+  Nd31  1  0.37623195  0.49515458  0.43810635  1
  Nd3+  Nd32  1  0.37863468  -0.00387925  0.42802953  1
  Nd3+  Nd33  1  0.62899787  0.49531712  0.43820412  1
  Nd3+  Nd34  1  0.74830918  0.37435021  0.57552410  1
  Nd3+  Nd35  1  0.24987916  0.36599104  0.56390352  1
  Nd3+  Nd36  1  0.11399167  0.04269329  0.92403270  1
  Nd3+  Nd37  1  0.85756829  0.77631387  0.91751721  1
  Nd3+  Nd38  1  0.75239509  0.11522484  0.56500187  1
  Nd3+  Nd39  1  0.24830677  0.11715885  0.54815320  1
  Nd3+  Nd40  1  0.74136553  0.14963192  0.07052360  1
  Nd3+  Nd41  1  0.62952610  -0.01000461  0.44655282  1
  Nd3+  Nd42  1  0.23739604  0.15487892  0.06344541  1
  Nd3+  Nd43  1  0.86393942  0.52961989  0.93402478  1
  Nd3+  Nd44  1  -0.01536682  0.90094954  0.05394086  1
  Nd3+  Nd45  1  0.24309240  0.61814105  0.55688186  1
  Nd3+  Nd46  1  0.11036300  0.78386237  0.93538740  1
  Nd3+  Nd47  1  -0.01145242  0.39520656  0.06040084  1
  Nd3+  Nd48  1  0.23787236  0.65417848  0.04967133  1
  Nd3+  Nd49  1  0.11280848  0.53128795  0.93062982  1
  Nd3+  Nd50  1  0.37020999  0.28550916  0.94090690  1
  Sm3+  Sm51  1  0.11510445  0.48702355  0.42812975  1
  Sm3+  Sm52  1  0.00037608  0.62125671  0.55933073  1
  Sm3+  Sm53  1  0.11447132  0.28482885  0.93143914  1
  Sm3+  Sm54  1  0.61153951  0.78259372  0.93139629  1
  Sm3+  Sm55  1  -0.01108711  0.15407973  0.05644237  1
  Sm3+  Sm56  1  0.49055146  0.65755603  0.06518873  1
  Sm3+  Sm57  1  0.36731981  0.52796393  0.93767507  1
  Sm3+  Sm58  1  0.00219587  0.11678855  0.55824594  1
  Sm3+  Sm59  1  0.87458185  0.24543560  0.44940355  1
  Sm3+  Sm60  1  0.23610861  0.40696249  0.05522139  1
  Sm3+  Sm61  1  0.87580793  -0.01328991  0.45263965  1
  Sm3+  Sm62  1  0.37488488  0.74412785  0.44631591  1
  Sm3+  Sm63  1  0.62577400  0.74559722  0.44819244  1
  Bi2+  Bi64  1  -0.03799570  0.11521398  0.29062217  1
  Bi2+  Bi65  1  0.01932023  0.19282853  0.77033865  1
  Bi2+  Bi66  1  -0.00810073  0.31579184  0.29991528  1
  Bi2+  Bi67  1  -0.03284318  0.37936728  0.79796845  1
  Bi2+  Bi68  1  -0.00047522  0.61397249  0.30640553  1
  Bi2+  Bi69  1  0.11371060  0.60493864  0.79031156  1
  Bi2+  Bi70  1  0.02204441  0.87395206  0.22419294  1
  Bi2+  Bi71  1  0.01518266  0.86467211  0.77797884  1
  Bi2+  Bi72  1  0.16830487  0.05494278  0.26345003  1
  Bi2+  Bi73  1  0.24533995  0.07480858  0.80317354  1
  Bi2+  Bi74  1  0.19478886  0.33696625  0.26453055  1
  Bi2+  Bi75  1  0.24173376  0.37287579  0.79238134  1
  Bi2+  Bi76  1  0.27713291  0.65250643  0.28805191  1
  Bi2+  Bi77  1  0.31207967  0.58484018  0.81319545  1
  Bi2+  Bi78  1  0.15488809  0.87595640  0.30993640  1
  Bi2+  Bi79  1  0.31051444  0.88609865  0.78789213  1
  Bi2+  Bi80  1  0.49552614  0.10403388  0.30084366  1
  Bi2+  Bi81  1  0.48650785  0.16480731  0.80019475  1
  Bi2+  Bi82  1  0.48769875  0.34823292  0.30458288  1
  Bi2+  Bi83  1  0.53249636  0.41074176  0.80090246  1
  Bi2+  Bi84  1  0.53273009  0.54612231  0.32043477  1
  Bi2+  Bi85  1  0.49410436  0.64799193  0.79167704  1
  Bi2+  Bi86  1  0.51429316  0.84959086  0.31496680  1
  Bi2+  Bi87  1  0.50733547  0.90531788  0.78118596  1
  Bi2+  Bi88  1  0.76141980  0.03535069  0.29728255  1
  Bi2+  Bi89  1  0.73902362  0.16773990  0.80086691  1
  Bi2+  Bi90  1  0.72045164  0.34654966  0.27153001  1
  Bi2+  Bi91  1  0.74977957  0.36159184  0.76775600  1
  Bi2+  Bi92  1  0.73029184  0.54995619  0.28478499  1
  Bi2+  Bi93  1  0.74222431  0.64153714  0.78601986  1
  Bi2+  Bi94  1  0.76580686  0.83936805  0.27967893  1
  Bi2+  Bi95  1  0.76666426  0.89255555  0.78088611  1
  Bi2+  Bi96  1  0.08916180  0.01943937  0.15052143  1
  Bi2+  Bi97  1  0.16626159  0.01030226  0.70852706  1
  Bi2+  Bi98  1  0.12733363  0.20353874  0.18949681  1
  Bi2+  Bi99  1  0.10195852  0.29017248  0.67684172  1
  Bi2+  Bi100  1  0.17553568  0.50171489  0.20387497  1
  Bi2+  Bi101  1  0.15795668  0.47814838  0.69973372  1
  Bi2+  Bi102  1  0.20440791  0.78595934  0.21090705  1
  Bi2+  Bi103  1  0.15084391  0.72328834  0.69870786  1
  Bi2+  Bi104  1  0.37365199  -0.03004909  0.21723572  1
  Bi2+  Bi105  1  0.39986443  0.00187878  0.70330810  1
  Bi2+  Bi106  1  0.35397681  0.26164101  0.21165981  1
  Bi2+  Bi107  1  0.28791059  0.24973427  0.70851846  1
  Bi2+  Bi108  1  0.39509662  0.52303187  0.23626081  1
  Bi2+  Bi109  1  0.38260466  0.44063128  0.72808206  1
  Bi2+  Bi110  1  0.41837712  0.75509676  0.22598273  1
  Bi2+  Bi111  1  0.34344106  0.71906997  0.72748697  1
  Bi2+  Bi112  1  0.62616354  -0.09824885  0.18765133  1
  Bi2+  Bi113  1  0.62924192  0.05339528  0.71334359  1
  Bi2+  Bi114  1  0.67444380  0.17075548  0.23337942  1
  Bi2+  Bi115  1  0.57752309  0.26892998  0.72172904  1
  Bi2+  Bi116  1  0.56671048  0.43171148  0.21107597  1
  Bi2+  Bi117  1  0.64761326  0.50890790  0.70690550  1
  Bi2+  Bi118  1  0.60785425  0.69848062  0.25335855  1
  Bi2+  Bi119  1  0.60275400  0.75958572  0.69291103  1
  Bi2+  Bi120  1  0.89199439  0.01166726  0.19107727  1
  Bi2+  Bi121  1  0.90616090  0.06054558  0.71364709  1
  Bi2+  Bi122  1  0.85945318  0.20489429  0.19708206  1
  Bi2+  Bi123  1  0.89833387  0.29294756  0.69450302  1
  Bi2+  Bi124  1  0.88117022  0.47630316  0.20047333  1
  Bi2+  Bi125  1  0.90598884  0.49861336  0.71338802  1
  Bi2+  Bi126  1  0.83501674  0.72724224  0.19881585  1
  Bi2+  Bi127  1  0.92849842  0.68039774  0.74969646  1
  S2-  S128  1  -0.00712100  0.26057601  0.13618118  1
  S2-  S129  1  0.03451861  0.04587882  0.64614289  1
  S2-  S130  1  0.03004117  0.47010065  0.14765079  1
  S2-  S131  1  0.02283115  0.50038401  0.63646842  1
  S2-  S132  1  -0.03001511  0.62710028  0.20864993  1
  S2-  S133  1  0.00777429  0.71008416  0.65130616  1
  S2-  S134  1  -0.04223134  0.79683485  0.13664094  1
  S2-  S135  1  -0.09326817  0.90109196  0.69095194  1
  S2-  S136  1  0.33042312  0.14091905  0.14924062  1
  S2-  S137  1  0.27505206  0.10056158  0.64688731  1
  S2-  S138  1  0.27937576  0.40516363  0.15081267  1
  S2-  S139  1  0.36997816  0.35606318  0.63886397  1
  S2-  S140  1  0.17710469  0.64601310  0.14389866  1
  S2-  S141  1  0.26845868  0.60332584  0.65552944  1
  S2-  S142  1  0.30123361  0.89509041  0.14573926  1
  S2-  S143  1  0.17426399  0.87510262  0.64492734  1
  S2-  S144  1  0.50063221  0.00967499  0.15489134  1
  S2-  S145  1  0.50168340  0.13690941  0.65849388  1
  S2-  S146  1  0.49061993  0.28161051  0.15964464  1
  S2-  S147  1  0.61209584  0.37501353  0.64323359  1
  S2-  S148  1  0.47796976  0.54758148  0.14592233  1
  S2-  S149  1  0.52426553  0.60453466  0.66692744  1
  S2-  S150  1  0.50510121  0.77586312  0.13933985  1
  S2-  S151  1  0.46362393  0.85903035  0.65672382  1
  S2-  S152  1  0.73582690  0.01138413  0.14039268  1
  S2-  S153  1  0.75905553  0.12621194  0.66444434  1
  S2-  S154  1  0.77946447  0.34905768  0.16200178  1
  S2-  S155  1  0.77801166  0.50454485  0.64286420  1
  S2-  S156  1  0.77569106  0.55738586  0.14487918  1
  S2-  S157  1  0.74086243  0.71893803  0.65358943  1
  S2-  S158  1  0.72762234  0.79045584  0.13411369  1
  S2-  S159  1  0.68816783  0.91201451  0.67767307  1
  S2-  S160  1  0.10776168  0.12369495  0.35328284  1
  S2-  S161  1  0.09697474  -0.02569390  0.82791789  1
  S2-  S162  1  0.13468384  0.36254593  0.35699523  1
  S2-  S163  1  0.12396862  0.17801197  0.85258144  1
  S2-  S164  1  0.15047917  0.60195346  0.35435539  1
  S2-  S165  1  0.11462201  0.40953867  0.85667984  1
  S2-  S166  1  0.01174262  0.76775613  0.34493127  1
  S2-  S167  1  0.11110698  0.75886635  0.83560088  1
  S2-  S168  1  0.38880138  -0.03165620  0.32840398  1
  S2-  S169  1  0.49018377  0.02029919  0.85481521  1
  S2-  S170  1  0.36465845  0.18066999  0.32858050  1
  S2-  S171  1  0.35733702  0.17919670  0.85958807  1
  S2-  S172  1  0.36056321  0.39801261  0.35690918  1
  S2-  S173  1  0.40132722  0.40909770  0.86672492  1
  S2-  S174  1  0.39215822  0.73803787  0.34945917  1
  S2-  S175  1  0.48841212  0.77863178  0.85761477  1
  S2-  S176  1  0.60886656  -0.00884534  0.34778784  1
  S2-  S177  1  0.71763200  0.01963760  0.84455504  1
  S2-  S178  1  0.59229969  0.22516574  0.35114595  1
  S2-  S179  1  0.60935804  0.21937187  0.86945766  1
  S2-  S180  1  0.72852538  0.43369680  0.36263542  1
  S2-  S181  1  0.61660918  0.55198725  0.84518323  1
  S2-  S182  1  0.66133198  0.76498351  0.35275168  1
  S2-  S183  1  0.71228765  0.78158126  0.84507769  1
  S2-  S184  1  0.84736564  -0.07963616  0.36230285  1
  S2-  S185  1  0.88803130  -0.09867611  0.84446241  1
  S2-  S186  1  0.86887142  0.22866453  0.35099158  1
  S2-  S187  1  0.87589183  0.17035838  0.85540946  1
  S2-  S188  1  0.96329037  0.45826413  0.34507409  1
  S2-  S189  1  0.83409772  0.40353282  0.86108939  1
  S2-  S190  1  0.84428324  0.62620365  0.34762381  1
  S2-  S191  1  0.86900378  0.63361598  0.84682164  1
  S2-  S192  1  -0.00758832  0.11622832  0.45568472  1
  S2-  S193  1  -0.00875055  0.16089463  0.95436484  1
  S2-  S194  1  -0.00383818  0.36483242  0.45940018  1
  S2-  S195  1  -0.01085219  0.40472643  0.95473963  1
  S2-  S196  1  -0.00510071  0.61966719  0.45294596  1
  S2-  S197  1  -0.00705762  0.65603059  0.94093296  1
  S2-  S198  1  0.00130021  0.87139221  0.44945082  1
  S2-  S199  1  -0.00552815  0.91310654  0.94819850  1
  S2-  S200  1  0.25484066  0.11846707  0.44355054  1
  S2-  S201  1  0.23843652  0.16145960  0.95828974  1
  S2-  S202  1  0.25021401  0.36956200  0.45923875  1
  S2-  S203  1  0.24102692  0.40837981  0.95334991  1
  S2-  S204  1  0.25480786  0.61899736  0.45276094  1
  S2-  S205  1  0.24161806  0.65541769  0.94395459  1
  S2-  S206  1  0.25197177  0.86947910  0.44450195  1
  S2-  S207  1  0.24019603  0.90972175  0.94258973  1
  S2-  S208  1  0.50169605  0.11674421  0.45235181  1
  S2-  S209  1  0.48718835  0.16171540  0.97072536  1
  S2-  S210  1  0.50517114  0.37133035  0.45697990  1
  S2-  S211  1  0.49252733  0.40674824  0.97297346  1
  S2-  S212  1  0.50075401  0.62156984  0.45776296  1
  S2-  S213  1  0.48567456  0.65188395  0.95674515  1
  S2-  S214  1  0.49906232  0.86893721  0.45508544  1
  S2-  S215  1  0.48755282  0.90752759  0.95797043  1
  S2-  S216  1  0.75335038  0.11552997  0.45758117  1
  S2-  S217  1  0.74146688  0.15655447  0.96378175  1
  S2-  S218  1  0.75075758  0.36350379  0.46947945  1
  S2-  S219  1  0.73694746  0.40821587  0.96565651  1
  S2-  S220  1  0.74785878  0.62630290  0.45756383  1
  S2-  S221  1  0.73676383  0.65437245  0.95244514  1
  S2-  S222  1  0.74936055  0.86557300  0.46870900  1
  S2-  S223  1  0.73326110  0.90819197  0.94848666  1
  S2-  S224  1  0.11221437  0.03247373  0.03360786  1
  S2-  S225  1  0.12270983  -0.00487296  0.53386345  1
  S2-  S226  1  0.11878907  0.28035025  0.03829517  1
  S2-  S227  1  0.12415945  0.24177370  0.54197665  1
  S2-  S228  1  0.11438621  0.52896211  0.03637551  1
  S2-  S229  1  0.12873376  0.49115999  0.53579349  1
  S2-  S230  1  0.11100152  0.77646284  0.04182753  1
  S2-  S231  1  0.12367382  0.74316358  0.53859008  1
  S2-  S232  1  0.35964299  0.03138941  0.04057605  1
  S2-  S233  1  0.37288652  -0.00753046  0.53784716  1
  S2-  S234  1  0.35896049  0.28277305  0.04847957  1
  S2-  S235  1  0.37411278  0.24012305  0.53554928  1
  S2-  S236  1  0.36057387  0.53185706  0.04184536  1
  S2-  S237  1  0.37287780  0.49524055  0.54423031  1
  S2-  S238  1  0.36082130  0.77741692  0.03798924  1
  S2-  S239  1  0.37152107  0.74376097  0.55114935  1
  S2-  S240  1  0.60965332  0.03669748  0.04323005  1
  S2-  S241  1  0.62674826  -0.00814215  0.55363242  1
  S2-  S242  1  0.62299210  0.28092875  0.06496671  1
  S2-  S243  1  0.62763860  0.23828975  0.55075769  1
  S2-  S244  1  0.61771217  0.53624138  0.05225144  1
  S2-  S245  1  0.62537678  0.49834723  0.54328299  1
  S2-  S246  1  0.61143460  0.77704648  0.03322187  1
  S2-  S247  1  0.62156541  0.74637680  0.55164042  1
  S2-  S248  1  0.86856352  0.03258458  0.03828538  1
  S2-  S249  1  0.87892962  -0.01004125  0.55675803  1
  S2-  S250  1  0.85984211  0.27639881  0.04191532  1
  S2-  S251  1  0.87703800  0.24153424  0.55484147  1
  S2-  S252  1  0.88083453  0.53748235  0.04228285  1
  S2-  S253  1  0.87776716  0.49384037  0.53893153  1
  S2-  S254  1  0.86181759  0.78814595  0.02498500  1
  S2-  S255  1  0.88267467  0.75068654  0.55486476  1
