# generated using pymatgen
data_La6Ce6Pr19Nd20Sm13(BiS2)64
_symmetry_space_group_name_H-M   'P 1'
_cell_length_a   16.08622795
_cell_length_b   16.08398991
_cell_length_c   27.35572650
_cell_angle_alpha   90.23675305
_cell_angle_beta   90.01341221
_cell_angle_gamma   90.03280495
_symmetry_Int_Tables_number   1
_chemical_formula_structural   La6Ce6Pr19Nd20Sm13(BiS2)64
_chemical_formula_sum   'La6 Ce6 Pr19 Nd20 Sm13 Bi64 S128'
_cell_volume   7077.70525234
_cell_formula_units_Z   1
loop_
 _symmetry_equiv_pos_site_id
 _symmetry_equiv_pos_as_xyz
  1  'x, y, z'
loop_
 _atom_type_symbol
 _atom_type_oxidation_number
  La3+  3.0
  Ce3+  3.0
  Pr3+  3.0
  Nd3+  3.0
  Sm3+  3.0
  Bi2+  2.0
  S2-  -2.0
loop_
 _atom_site_type_symbol
 _atom_site_label
 _atom_site_symmetry_multiplicity
 _atom_site_fract_x
 _atom_site_fract_y
 _atom_site_fract_z
 _atom_site_occupancy
  La3+  La0  1  0.74716114  0.88100745  0.07284001  1
  La3+  La1  1  -0.00681141  0.39066031  0.08037063  1
  La3+  La2  1  0.36791896  0.00050792  0.41650089  1
  La3+  La3  1  0.12801549  0.49322161  0.92319953  1
  La3+  La4  1  0.46987903  0.36798202  0.62237133  1
  La3+  La5  1  -0.00056969  0.88515178  0.60140969  1
  Ce3+  Ce6  1  0.87715762  0.25294738  0.43567472  1
  Ce3+  Ce7  1  0.10635849  0.74685594  0.90478801  1
  Ce3+  Ce8  1  0.12228948  0.25154558  0.42831926  1
  Ce3+  Ce9  1  0.24690881  0.12975958  0.54954266  1
  Ce3+  Ce10  1  0.11758398  0.75184621  0.44640478  1
  Ce3+  Ce11  1  -0.00452244  0.37679157  0.56145503  1
  Pr3+  Pr12  1  0.24556205  0.62792769  0.05570549  1
  Pr3+  Pr13  1  0.49447361  0.87524892  0.56126096  1
  Pr3+  Pr14  1  0.62329273  0.75333855  0.94194311  1
  Pr3+  Pr15  1  0.62475379  0.25479750  0.43552384  1
  Pr3+  Pr16  1  0.49434623  0.13332845  0.55578331  1
  Pr3+  Pr17  1  0.49653522  0.63028727  0.05938139  1
  Pr3+  Pr18  1  -0.00052071  0.88704958  0.06746764  1
  Pr3+  Pr19  1  0.62013358  0.25144369  0.94312044  1
  Pr3+  Pr20  1  0.86722186  0.49575576  0.93386464  1
  Pr3+  Pr21  1  0.61969299  0.75163262  0.43212814  1
  Pr3+  Pr22  1  0.36970294  0.75136458  0.42822104  1
  Pr3+  Pr23  1  0.74302571  0.37714763  0.57093199  1
  Pr3+  Pr24  1  0.37997360  0.25601226  0.39634612  1
  Pr3+  Pr25  1  0.12016618  0.49966891  0.43594467  1
  Pr3+  Pr26  1  0.74917342  0.87788837  0.55986165  1
  Pr3+  Pr27  1  0.36600302  0.75098910  0.93136966  1
  Pr3+  Pr28  1  0.74580530  0.37358343  0.07446122  1
  Pr3+  Pr29  1  0.49973991  0.37981462  0.07291695  1
  Pr3+  Pr30  1  0.74794691  0.63159436  0.07218414  1
  Nd3+  Nd31  1  0.24269017  0.87925725  0.05030940  1
  Nd3+  Nd32  1  0.24699421  0.12919053  0.06969610  1
  Nd3+  Nd33  1  -0.00139321  0.62882509  0.05027775  1
  Nd3+  Nd34  1  0.25111640  0.39089323  0.08180754  1
  Nd3+  Nd35  1  0.62061597  0.00063064  0.92960449  1
  Nd3+  Nd36  1  0.11971901  0.00655073  0.93156123  1
  Nd3+  Nd37  1  0.37156390  0.49493704  0.44049162  1
  Nd3+  Nd38  1  0.87602554  -0.00332735  0.43007266  1
  Nd3+  Nd39  1  -0.00239831  0.13761107  0.06475356  1
  Nd3+  Nd40  1  0.23746446  0.37508820  0.56380761  1
  Nd3+  Nd41  1  0.24393167  0.62749046  0.55945177  1
  Nd3+  Nd42  1  0.36627613  0.00546707  0.92659823  1
  Nd3+  Nd43  1  0.87435352  0.00306173  0.93410196  1
  Nd3+  Nd44  1  0.62204366  0.50071815  0.93952653  1
  Nd3+  Nd45  1  0.87084614  0.75542547  0.94082020  1
  Nd3+  Nd46  1  0.49343530  0.62544589  0.56381184  1
  Nd3+  Nd47  1  0.11940149  -0.00101102  0.43176139  1
  Nd3+  Nd48  1  0.49501829  0.12392653  0.05834405  1
  Nd3+  Nd49  1  0.24723871  0.88020094  0.55895529  1
  Nd3+  Nd50  1  0.74703638  0.12519827  0.06469765  1
  Sm3+  Sm51  1  0.86689565  0.49519544  0.43795015  1
  Sm3+  Sm52  1  0.61695508  0.49888178  0.44627778  1
  Sm3+  Sm53  1  0.12380337  0.25966477  0.95382851  1
  Sm3+  Sm54  1  -0.00299288  0.12421050  0.55662031  1
  Sm3+  Sm55  1  0.87189748  0.25715045  0.94256291  1
  Sm3+  Sm56  1  0.37676073  0.49887763  0.93613090  1
  Sm3+  Sm57  1  0.87193861  0.75206329  0.44476020  1
  Sm3+  Sm58  1  0.49198129  0.88043984  0.05298326  1
  Sm3+  Sm59  1  -0.00492089  0.62777024  0.55886874  1
  Sm3+  Sm60  1  0.61918704  0.00303933  0.44270447  1
  Sm3+  Sm61  1  0.37048690  0.25497316  0.95215279  1
  Sm3+  Sm62  1  0.74997489  0.12613947  0.54856853  1
  Sm3+  Sm63  1  0.74725818  0.62907279  0.55054127  1
  Bi2+  Bi64  1  -0.01608976  0.10838893  0.28376243  1
  Bi2+  Bi65  1  -0.05865218  0.14475990  0.79135502  1
  Bi2+  Bi66  1  -0.05265736  0.38042160  0.30684766  1
  Bi2+  Bi67  1  0.01544636  0.38133316  0.78910858  1
  Bi2+  Bi68  1  0.03341825  0.57338587  0.29606105  1
  Bi2+  Bi69  1  0.00299503  0.56015944  0.74811619  1
  Bi2+  Bi70  1  0.00390075  0.84385031  0.29352753  1
  Bi2+  Bi71  1  0.03222297  0.89028071  0.79246696  1
  Bi2+  Bi72  1  0.24848026  0.11262648  0.27786983  1
  Bi2+  Bi73  1  0.20357650  0.16066031  0.78587631  1
  Bi2+  Bi74  1  0.24748357  0.37180965  0.27900603  1
  Bi2+  Bi75  1  0.25939051  0.35518124  0.79854667  1
  Bi2+  Bi76  1  0.31419480  0.63946974  0.30694938  1
  Bi2+  Bi77  1  0.24367169  0.64055944  0.80265284  1
  Bi2+  Bi78  1  0.26438234  0.85530272  0.29113865  1
  Bi2+  Bi79  1  0.31824136  0.95570730  0.77571801  1
  Bi2+  Bi80  1  0.53152612  0.11394540  0.28196372  1
  Bi2+  Bi81  1  0.53499249  0.10424762  0.78328465  1
  Bi2+  Bi82  1  0.50139070  0.41327142  0.28109765  1
  Bi2+  Bi83  1  0.51783851  0.34327509  0.81697802  1
  Bi2+  Bi84  1  0.51008516  0.62471146  0.30368983  1
  Bi2+  Bi85  1  0.57093058  0.59712736  0.75577173  1
  Bi2+  Bi86  1  0.52848545  0.81518214  0.27885288  1
  Bi2+  Bi87  1  0.48388484  0.83268011  0.79361042  1
  Bi2+  Bi88  1  0.78663840  0.10107947  0.28778246  1
  Bi2+  Bi89  1  0.74337196  0.12998828  0.79111556  1
  Bi2+  Bi90  1  0.69715242  0.27723201  0.28842527  1
  Bi2+  Bi91  1  0.76996897  0.39006120  0.79292515  1
  Bi2+  Bi92  1  0.73728539  0.53110909  0.26966959  1
  Bi2+  Bi93  1  0.74312370  0.65623934  0.80089039  1
  Bi2+  Bi94  1  0.78673967  0.88787670  0.30508143  1
  Bi2+  Bi95  1  0.80562307  0.86031630  0.80970744  1
  Bi2+  Bi96  1  0.12141599  -0.04775064  0.19276083  1
  Bi2+  Bi97  1  0.14352326  0.03036162  0.70631449  1
  Bi2+  Bi98  1  0.09467274  0.22025738  0.22469186  1
  Bi2+  Bi99  1  0.06613662  0.23600574  0.71415920  1
  Bi2+  Bi100  1  0.11870575  0.46625789  0.20677293  1
  Bi2+  Bi101  1  0.16816791  0.46012106  0.71200706  1
  Bi2+  Bi102  1  0.15345138  0.70302072  0.24938027  1
  Bi2+  Bi103  1  0.14527233  0.73831516  0.69991861  1
  Bi2+  Bi104  1  0.38637797  -0.01876269  0.18764777  1
  Bi2+  Bi105  1  0.40408496  -0.04116897  0.67086557  1
  Bi2+  Bi106  1  0.41841796  0.26742596  0.22025618  1
  Bi2+  Bi107  1  0.36738128  0.13927754  0.72099925  1
  Bi2+  Bi108  1  0.35944417  0.52647884  0.21437516  1
  Bi2+  Bi109  1  0.39267088  0.52568474  0.72331617  1
  Bi2+  Bi110  1  0.37931140  0.76916617  0.20548945  1
  Bi2+  Bi111  1  0.36944709  0.77403510  0.70558986  1
  Bi2+  Bi112  1  0.65139652  -0.02414936  0.23771355  1
  Bi2+  Bi113  1  0.58779611  -0.04902807  0.71591206  1
  Bi2+  Bi114  1  0.60304664  0.26283182  0.18676237  1
  Bi2+  Bi115  1  0.63570889  0.21785107  0.70652154  1
  Bi2+  Bi116  1  0.62224075  0.46096844  0.18145737  1
  Bi2+  Bi117  1  0.71878832  0.50176498  0.70327462  1
  Bi2+  Bi118  1  0.62867911  0.65269632  0.20417431  1
  Bi2+  Bi119  1  0.62969622  0.76177288  0.70227160  1
  Bi2+  Bi120  1  0.86784491  -0.02148686  0.20551405  1
  Bi2+  Bi121  1  0.86130753  0.02370105  0.71118540  1
  Bi2+  Bi122  1  0.86573703  0.30242481  0.21567990  1
  Bi2+  Bi123  1  0.85315411  0.24705173  0.70224169  1
  Bi2+  Bi124  1  0.89246252  0.57243332  0.20703516  1
  Bi2+  Bi125  1  0.89829080  0.43357975  0.68072761  1
  Bi2+  Bi126  1  0.87138047  0.76691947  0.21681948  1
  Bi2+  Bi127  1  0.83407872  0.75516983  0.71659872  1
  S2-  S128  1  0.00366925  0.02493784  0.14190264  1
  S2-  S129  1  -0.00241516  0.04542589  0.64532109  1
  S2-  S130  1  -0.01031603  0.24989918  0.14709881  1
  S2-  S131  1  0.10064326  0.35856422  0.63872909  1
  S2-  S132  1  0.02084982  0.54792602  0.13865799  1
  S2-  S133  1  0.04737840  0.61896180  0.65226727  1
  S2-  S134  1  0.01277894  0.82290975  0.16361647  1
  S2-  S135  1  0.00347298  0.81693986  0.70086097  1
  S2-  S136  1  0.23680179  0.08105956  0.16719870  1
  S2-  S137  1  0.23493159  0.13784357  0.64791418  1
  S2-  S138  1  0.19839088  0.31632544  0.17306252  1
  S2-  S139  1  0.30145855  0.40707879  0.65616217  1
  S2-  S140  1  0.23728988  0.53936419  0.14386046  1
  S2-  S141  1  0.28375102  0.64953523  0.65586955  1
  S2-  S142  1  0.25538753  0.86450079  0.14989413  1
  S2-  S143  1  0.16847251  0.88414663  0.64821800  1
  S2-  S144  1  0.46947708  0.11042860  0.15693691  1
  S2-  S145  1  0.49431617  0.19331773  0.65145659  1
  S2-  S146  1  0.39103774  0.38817247  0.15093029  1
  S2-  S147  1  0.45957343  0.37141497  0.73109282  1
  S2-  S148  1  0.45314462  0.63971823  0.15680471  1
  S2-  S149  1  0.49921598  0.53796271  0.65184587  1
  S2-  S150  1  0.50193623  0.88272128  0.15093334  1
  S2-  S151  1  0.49777223  0.75452734  0.63517297  1
  S2-  S152  1  0.75677192  0.23224718  0.14491766  1
  S2-  S153  1  0.75402560  0.12297679  0.64711968  1
  S2-  S154  1  0.85186442  0.42762946  0.15011018  1
  S2-  S155  1  0.64228893  0.36203439  0.65267737  1
  S2-  S156  1  0.73699197  0.75364479  0.14791813  1
  S2-  S157  1  0.75610568  0.65082033  0.64728647  1
  S2-  S158  1  0.73246590  1.00832323  0.14236330  1
  S2-  S159  1  0.83308609  0.89334253  0.64669188  1
  S2-  S160  1  0.21684113  -0.00195381  0.34491971  1
  S2-  S161  1  0.24050965  0.02892996  0.85610604  1
  S2-  S162  1  -0.00416510  0.24033177  0.35839298  1
  S2-  S163  1  0.12616753  0.33789721  0.86533841  1
  S2-  S164  1  0.12134598  0.43880877  0.34146169  1
  S2-  S165  1  0.09835055  0.60330219  0.84177251  1
  S2-  S166  1  0.13502873  0.77231630  0.35054906  1
  S2-  S167  1  0.17818764  0.80054774  0.81910258  1
  S2-  S168  1  0.38831171  0.10864412  0.33552560  1
  S2-  S169  1  0.49454468  -0.00542052  0.85573914  1
  S2-  S170  1  0.22363416  0.24301598  0.34406437  1
  S2-  S171  1  0.37869848  0.26087330  0.85381851  1
  S2-  S172  1  0.36737738  0.41478553  0.34937551  1
  S2-  S173  1  0.27807328  0.49137932  0.85369662  1
  S2-  S174  1  0.39917803  0.86297952  0.35044991  1
  S2-  S175  1  0.39922206  0.70351005  0.83610810  1
  S2-  S176  1  0.60089195  0.00516928  0.34513820  1
  S2-  S177  1  0.74944796  -0.00108958  0.86056980  1
  S2-  S178  1  0.54330625  0.25654407  0.34582641  1
  S2-  S179  1  0.67485391  0.27052193  0.84830037  1
  S2-  S180  1  0.61458532  0.50477156  0.34696439  1
  S2-  S181  1  0.50330023  0.48413094  0.86493003  1
  S2-  S182  1  0.66028212  0.76743762  0.33467658  1
  S2-  S183  1  0.65534516  0.79233619  0.84588300  1
  S2-  S184  1  0.99604739  -0.01178297  0.35532605  1
  S2-  S185  1  0.99626684  0.01061647  0.85808129  1
  S2-  S186  1  0.80180251  0.33493614  0.35984295  1
  S2-  S187  1  0.88819412  0.36153175  0.86279144  1
  S2-  S188  1  0.87501666  0.53441418  0.34240447  1
  S2-  S189  1  0.73658114  0.51155417  0.86271144  1
  S2-  S190  1  0.89091564  0.76270268  0.34740680  1
  S2-  S191  1  0.95306480  0.77496396  0.85200660  1
  S2-  S192  1  -0.00385948  0.12228754  0.45493555  1
  S2-  S193  1  -0.00147609  0.13831151  0.95713455  1
  S2-  S194  1  -0.00595171  0.38044227  0.45593349  1
  S2-  S195  1  -0.00379601  0.37735341  0.96692582  1
  S2-  S196  1  -0.00863550  0.62403566  0.45288794  1
  S2-  S197  1  -0.00884639  0.62382158  0.94751933  1
  S2-  S198  1  -0.00587768  0.87181231  0.45537589  1
  S2-  S199  1  0.00032014  0.87636694  0.95863464  1
  S2-  S200  1  0.24893612  0.12790854  0.44704722  1
  S2-  S201  1  0.24579502  0.13456979  0.96143146  1
  S2-  S202  1  0.24525458  0.37538105  0.45534942  1
  S2-  S203  1  0.25472225  0.37773718  0.96597675  1
  S2-  S204  1  0.24591276  0.62515091  0.45104722  1
  S2-  S205  1  0.24174172  0.63077741  0.94979751  1
  S2-  S206  1  0.24536870  0.87402765  0.45322482  1
  S2-  S207  1  0.24058703  0.87506875  0.94542589  1
  S2-  S208  1  0.49713057  0.12710473  0.44981523  1
  S2-  S209  1  0.49264544  0.12742224  0.95297779  1
  S2-  S210  1  0.49735524  0.37606401  0.44943303  1
  S2-  S211  1  0.49661330  0.37433010  0.96637994  1
  S2-  S212  1  0.49441043  0.62613599  0.45207065  1
  S2-  S213  1  0.49649001  0.63052574  0.95395501  1
  S2-  S214  1  0.49939013  0.87788730  0.45473461  1
  S2-  S215  1  0.49259208  0.87511313  0.95024634  1
  S2-  S216  1  0.74928053  0.12328575  0.44348498  1
  S2-  S217  1  0.74930406  0.13096731  0.95682330  1
  S2-  S218  1  0.74303496  0.38165156  0.46482453  1
  S2-  S219  1  0.74306111  0.37394827  0.96532865  1
  S2-  S220  1  0.74637037  0.62522807  0.44611347  1
  S2-  S221  1  0.74703533  0.63240238  0.96324061  1
  S2-  S222  1  0.74612200  0.87782227  0.45211681  1
  S2-  S223  1  0.74770608  0.87833316  0.96204568  1
  S2-  S224  1  0.12489662  0.00991097  0.03973527  1
  S2-  S225  1  0.12094090  0.00188859  0.54013521  1
  S2-  S226  1  0.12964261  0.25952711  0.05502011  1
  S2-  S227  1  0.11674673  0.24752587  0.53666987  1
  S2-  S228  1  0.12453593  0.50188310  0.03650186  1
  S2-  S229  1  0.11786952  0.50579137  0.54273629  1
  S2-  S230  1  0.12156712  0.75299553  0.05192864  1
  S2-  S231  1  0.11667409  0.75401953  0.55049629  1
  S2-  S232  1  0.36787366  0.00346106  0.03879583  1
  S2-  S233  1  0.37125930  0.00275328  0.53829187  1
  S2-  S234  1  0.37197048  0.25111690  0.05630494  1
  S2-  S235  1  0.36844194  0.25790089  0.55587117  1
  S2-  S236  1  0.37577262  0.50515488  0.04213628  1
  S2-  S237  1  0.36725987  0.50270486  0.54560860  1
  S2-  S238  1  0.37045903  0.75542307  0.04075890  1
  S2-  S239  1  0.36694487  0.75200725  0.53665591  1
  S2-  S240  1  0.61638622  0.00141133  0.03748471  1
  S2-  S241  1  0.62171881  0.00306136  0.54831576  1
  S2-  S242  1  0.61704506  0.24946092  0.04880915  1
  S2-  S243  1  0.62829777  0.24630752  0.54183075  1
  S2-  S244  1  0.62400587  0.50636834  0.04882527  1
  S2-  S245  1  0.62546349  0.50903682  0.54822958  1
  S2-  S246  1  0.61728130  0.75736836  0.04759935  1
  S2-  S247  1  0.62538458  0.75228558  0.53906140  1
  S2-  S248  1  0.87432800  0.00820008  0.04076148  1
  S2-  S249  1  0.87337276  0.00225030  0.53739941  1
  S2-  S250  1  0.87061633  0.25565760  0.04397846  1
  S2-  S251  1  0.87279768  0.25040664  0.54642161  1
  S2-  S252  1  0.86715251  0.50933464  0.04128259  1
  S2-  S253  1  0.87041522  0.50469773  0.54544675  1
  S2-  S254  1  0.87561618  0.75501703  0.04759318  1
  S2-  S255  1  0.87596305  0.75271458  0.54892552  1
