# generated using pymatgen
data_La6Ce6Pr19Nd20Sm13(BiS2)64
_symmetry_space_group_name_H-M   'P 1'
_cell_length_a   16.07311877
_cell_length_b   16.10860246
_cell_length_c   27.11046324
_cell_angle_alpha   90.31718287
_cell_angle_beta   89.99927590
_cell_angle_gamma   90.05139659
_symmetry_Int_Tables_number   1
_chemical_formula_structural   La6Ce6Pr19Nd20Sm13(BiS2)64
_chemical_formula_sum   'La6 Ce6 Pr19 Nd20 Sm13 Bi64 S128'
_cell_volume   7019.20824054
_cell_formula_units_Z   1
loop_
 _symmetry_equiv_pos_site_id
 _symmetry_equiv_pos_as_xyz
  1  'x, y, z'
loop_
 _atom_type_symbol
 _atom_type_oxidation_number
  La3+  3.0
  Ce3+  3.0
  Pr3+  3.0
  Nd3+  3.0
  Sm3+  3.0
  Bi2+  2.0
  S2-  -2.0
loop_
 _atom_site_type_symbol
 _atom_site_label
 _atom_site_symmetry_multiplicity
 _atom_site_fract_x
 _atom_site_fract_y
 _atom_site_fract_z
 _atom_site_occupancy
  La3+  La0  1  0.63624787  0.49784393  0.41171053  1
  La3+  La1  1  0.51139512  0.12076768  0.56670851  1
  La3+  La2  1  0.60121385  0.74432312  0.94115379  1
  La3+  La3  1  0.10724569  0.24237490  0.93238467  1
  La3+  La4  1  0.84884032  0.49178018  0.90488273  1
  La3+  La5  1  0.37173958  0.74411251  0.40862973  1
  Ce3+  Ce6  1  0.75245724  0.37121920  0.54882708  1
  Ce3+  Ce7  1  0.23269763  0.12379922  0.06949043  1
  Ce3+  Ce8  1  0.26209480  0.61316147  0.57473569  1
  Ce3+  Ce9  1  0.38578935  0.23925549  0.43164919  1
  Ce3+  Ce10  1  0.50985944  0.37047848  0.54651852  1
  Ce3+  Ce11  1  0.75402355  0.86588010  0.55998690  1
  Pr3+  Pr12  1  -0.01807146  0.12410829  0.07072761  1
  Pr3+  Pr13  1  0.60677512  0.24797037  0.95777648  1
  Pr3+  Pr14  1  0.26425870  0.11724426  0.57978753  1
  Pr3+  Pr15  1  0.25502927  0.36212378  0.56477691  1
  Pr3+  Pr16  1  0.60388307  0.49684489  0.94100242  1
  Pr3+  Pr17  1  0.22307123  0.87129412  0.06801635  1
  Pr3+  Pr18  1  0.73325477  0.12015510  0.09210058  1
  Pr3+  Pr19  1  0.13142355  0.24360653  0.43419622  1
  Pr3+  Pr20  1  0.00247877  0.62010965  0.56148335  1
  Pr3+  Pr21  1  0.63306046  0.23805142  0.41648862  1
  Pr3+  Pr22  1  0.88194088  0.23546213  0.40755476  1
  Pr3+  Pr23  1  0.73455238  0.38049686  0.07695005  1
  Pr3+  Pr24  1  0.35867596  0.24599567  0.94462993  1
  Pr3+  Pr25  1  0.35830517  0.49906103  0.93556811  1
  Pr3+  Pr26  1  0.60337488  -0.00226159  0.95306676  1
  Pr3+  Pr27  1  0.73231193  0.87049128  0.07094357  1
  Pr3+  Pr28  1  0.46942182  0.62392346  0.07921979  1
  Pr3+  Pr29  1  0.85124216  0.24283325  0.93856179  1
  Pr3+  Pr30  1  0.85377313  -0.00023560  0.94343029  1
  Nd3+  Nd31  1  0.73111533  0.62168833  0.06526195  1
  Nd3+  Nd32  1  0.10781432  -0.00590357  0.93280832  1
  Nd3+  Nd33  1  0.13188092  0.49246078  0.44944522  1
  Nd3+  Nd34  1  0.25903687  0.86885733  0.57139078  1
  Nd3+  Nd35  1  0.38100040  0.49600269  0.43824489  1
  Nd3+  Nd36  1  0.47985466  0.12543035  0.07827741  1
  Nd3+  Nd37  1  0.84605894  0.74549605  0.93158334  1
  Nd3+  Nd38  1  0.75515028  0.11958058  0.55958059  1
  Nd3+  Nd39  1  -0.02040355  0.37300126  0.05446116  1
  Nd3+  Nd40  1  0.09861828  0.74382747  0.92378954  1
  Nd3+  Nd41  1  0.37803301  -0.00242367  0.43801044  1
  Nd3+  Nd42  1  0.47678396  0.38267571  0.08507124  1
  Nd3+  Nd43  1  0.50377031  0.62160229  0.55516062  1
  Nd3+  Nd44  1  0.88122836  0.49323508  0.43286925  1
  Nd3+  Nd45  1  0.63210931  -0.00664301  0.43185536  1
  Nd3+  Nd46  1  0.13325525  0.74346808  0.44591114  1
  Nd3+  Nd47  1  0.13292878  -0.00500815  0.44935017  1
  Nd3+  Nd48  1  0.88372018  -0.00591792  0.43842321  1
  Nd3+  Nd49  1  0.47221873  0.86615425  0.07803701  1
  Nd3+  Nd50  1  0.22950968  0.37479538  0.06477627  1
  Sm3+  Sm51  1  0.74552452  0.60945287  0.57207673  1
  Sm3+  Sm52  1  0.50670613  0.86477778  0.54445122  1
  Sm3+  Sm53  1  -0.01615439  0.86926627  0.05538761  1
  Sm3+  Sm54  1  0.10697433  0.48744389  0.92834909  1
  Sm3+  Sm55  1  0.35671144  0.74570133  0.94049401  1
  Sm3+  Sm56  1  -0.00021261  0.36823630  0.56156757  1
  Sm3+  Sm57  1  0.22047705  0.62271718  0.05888646  1
  Sm3+  Sm58  1  0.35579826  -0.00502758  0.94860755  1
  Sm3+  Sm59  1  0.87941664  0.74253279  0.44108509  1
  Sm3+  Sm60  1  0.00502833  0.86908274  0.56000676  1
  Sm3+  Sm61  1  -0.01984258  0.61993615  0.04786425  1
  Sm3+  Sm62  1  0.64161625  0.74145216  0.42799656  1
  Sm3+  Sm63  1  0.00376699  0.12024787  0.55984824  1
  Bi2+  Bi64  1  0.02705350  0.09957304  0.28949497  1
  Bi2+  Bi65  1  -0.02726409  0.14707979  0.79628175  1
  Bi2+  Bi66  1  0.00817938  0.40201640  0.29538085  1
  Bi2+  Bi67  1  0.00685546  0.39826044  0.79711456  1
  Bi2+  Bi68  1  -0.03373971  0.61707151  0.29687232  1
  Bi2+  Bi69  1  0.06425054  0.70435974  0.78752676  1
  Bi2+  Bi70  1  -0.02586806  0.81125671  0.29855360  1
  Bi2+  Bi71  1  -0.00561516  0.95411064  0.79788313  1
  Bi2+  Bi72  1  0.22480563  0.14143023  0.28594402  1
  Bi2+  Bi73  1  0.25974263  0.10194567  0.79241271  1
  Bi2+  Bi74  1  0.22539923  0.34112002  0.29676866  1
  Bi2+  Bi75  1  0.28935164  0.37781840  0.79783108  1
  Bi2+  Bi76  1  0.16876871  0.61466418  0.28354025  1
  Bi2+  Bi77  1  0.33231066  0.65520205  0.81719158  1
  Bi2+  Bi78  1  0.20439339  0.87331011  0.29770622  1
  Bi2+  Bi79  1  0.24922971  0.82853556  0.78804698  1
  Bi2+  Bi80  1  0.48242730  0.10432874  0.29871284  1
  Bi2+  Bi81  1  0.49787352  0.11932665  0.82145408  1
  Bi2+  Bi82  1  0.42036435  0.38926170  0.30004630  1
  Bi2+  Bi83  1  0.48722911  0.39148846  0.77781644  1
  Bi2+  Bi84  1  0.49563426  0.59169575  0.28090065  1
  Bi2+  Bi85  1  0.57402378  0.62553901  0.81361431  1
  Bi2+  Bi86  1  0.48758876  0.90818927  0.29478526  1
  Bi2+  Bi87  1  0.52805192  0.87464045  0.75314595  1
  Bi2+  Bi88  1  0.77024917  0.11287452  0.27927798  1
  Bi2+  Bi89  1  0.73021200  0.06988156  0.78791936  1
  Bi2+  Bi90  1  0.82415574  0.37859054  0.27306627  1
  Bi2+  Bi91  1  0.73152739  0.29184535  0.78466170  1
  Bi2+  Bi92  1  0.75451695  0.63675939  0.28581805  1
  Bi2+  Bi93  1  0.78215301  0.66132220  0.79586227  1
  Bi2+  Bi94  1  0.69215967  0.88392220  0.30274815  1
  Bi2+  Bi95  1  0.82572095  0.90939359  0.75198398  1
  Bi2+  Bi96  1  0.12791694  -0.01489789  0.21241034  1
  Bi2+  Bi97  1  0.13696562  -0.05325210  0.71736391  1
  Bi2+  Bi98  1  0.15660608  0.26345391  0.19311254  1
  Bi2+  Bi99  1  0.12611171  0.18703590  0.72892440  1
  Bi2+  Bi100  1  0.09677241  0.45465757  0.18797594  1
  Bi2+  Bi101  1  0.19487848  0.56358981  0.75242111  1
  Bi2+  Bi102  1  0.08975698  0.74597570  0.21217736  1
  Bi2+  Bi103  1  0.19505136  0.74548759  0.68267853  1
  Bi2+  Bi104  1  0.33098144  0.00264860  0.22544184  1
  Bi2+  Bi105  1  0.39379088  0.02966208  0.71817062  1
  Bi2+  Bi106  1  0.37127015  0.25300828  0.21388673  1
  Bi2+  Bi107  1  0.34403855  0.30959799  0.69712287  1
  Bi2+  Bi108  1  0.28371844  0.50526052  0.21610026  1
  Bi2+  Bi109  1  0.38604775  0.53287875  0.72066389  1
  Bi2+  Bi110  1  0.35891502  0.75188601  0.21105652  1
  Bi2+  Bi111  1  0.38679348  0.76376028  0.71102398  1
  Bi2+  Bi112  1  0.60104362  -0.04489738  0.20538261  1
  Bi2+  Bi113  1  0.60882800  0.00579909  0.69126823  1
  Bi2+  Bi114  1  0.63683478  0.22078854  0.23145365  1
  Bi2+  Bi115  1  0.58782871  0.25689832  0.71541004  1
  Bi2+  Bi116  1  0.62831830  0.45263013  0.20808375  1
  Bi2+  Bi117  1  0.63466662  0.48058481  0.70435060  1
  Bi2+  Bi118  1  0.64367553  0.75103810  0.21562834  1
  Bi2+  Bi119  1  0.66192996  0.74870127  0.69195263  1
  Bi2+  Bi120  1  0.85771448  -0.08010860  0.23475620  1
  Bi2+  Bi121  1  0.85643999  0.09316774  0.69797731  1
  Bi2+  Bi122  1  0.95381561  0.23595320  0.21609812  1
  Bi2+  Bi123  1  0.87869048  0.28430550  0.71041317  1
  Bi2+  Bi124  1  0.90696165  0.58513907  0.18737934  1
  Bi2+  Bi125  1  0.88954391  0.52511916  0.69532670  1
  Bi2+  Bi126  1  0.82362058  0.75593897  0.17227081  1
  Bi2+  Bi127  1  0.98901243  0.77499639  0.69426178  1
  S2-  S128  1  0.11359004  0.11320223  0.14183669  1
  S2-  S129  1  0.01295581  0.14994281  0.65729015  1
  S2-  S130  1  -0.04692751  0.38185696  0.15391612  1
  S2-  S131  1  -0.01397276  0.38838274  0.66108153  1
  S2-  S132  1  0.07021520  0.62231379  0.13366017  1
  S2-  S133  1  0.01958073  0.60195828  0.66236068  1
  S2-  S134  1  0.08565522  0.86448151  0.13626955  1
  S2-  S135  1  -0.00395196  0.92556501  0.65308459  1
  S2-  S136  1  0.35106144  0.11950202  0.14883704  1
  S2-  S137  1  0.21691646  0.24732128  0.64488257  1
  S2-  S138  1  0.32882862  0.38462494  0.14765677  1
  S2-  S139  1  0.27434575  0.45599409  0.65243346  1
  S2-  S140  1  0.30839861  0.63047499  0.14525547  1
  S2-  S141  1  0.39462109  0.63728125  0.63832505  1
  S2-  S142  1  0.33525941  0.87386799  0.15005764  1
  S2-  S143  1  0.26524461  0.98194580  0.65021528  1
  S2-  S144  1  0.59107211  0.11309883  0.15825239  1
  S2-  S145  1  0.40603839  0.14604117  0.64912018  1
  S2-  S146  1  0.52189377  0.31256393  0.17908166  1
  S2-  S147  1  0.53560716  0.37533159  0.64513747  1
  S2-  S148  1  0.50883224  0.51484002  0.15770222  1
  S2-  S149  1  0.60683119  0.61466998  0.63978970  1
  S2-  S150  1  0.49725263  0.74802377  0.15513355  1
  S2-  S151  1  0.52436609  0.86343320  0.64391872  1
  S2-  S152  1  0.87775977  0.13665881  0.15436448  1
  S2-  S153  1  0.64460530  0.14304955  0.63808848  1
  S2-  S154  1  0.73621991  0.31615812  0.17617292  1
  S2-  S155  1  0.75267219  0.45544592  0.63775391  1
  S2-  S156  1  0.74639670  0.52209139  0.14847240  1
  S2-  S157  1  0.79988513  0.67317467  0.66334250  1
  S2-  S158  1  0.74845887  0.97158636  0.15430643  1
  S2-  S159  1  0.74849068  0.89642088  0.65724823  1
  S2-  S160  1  0.09731823  -0.02170598  0.35211715  1
  S2-  S161  1  0.11864809  0.11532661  0.85890827  1
  S2-  S162  1  0.02794612  0.24945092  0.35065331  1
  S2-  S163  1  0.13035333  0.35087786  0.85202488  1
  S2-  S164  1  0.14257948  0.47589270  0.35020859  1
  S2-  S165  1  0.08685406  0.54560125  0.83526622  1
  S2-  S166  1  0.21396223  0.72792397  0.35798264  1
  S2-  S167  1  0.11859912  0.87405619  0.85712059  1
  S2-  S168  1  0.34238610  -0.09941826  0.35609890  1
  S2-  S169  1  0.36671946  0.00478560  0.84901621  1
  S2-  S170  1  0.34480484  0.11590457  0.36300239  1
  S2-  S171  1  0.35610253  0.23339364  0.84264805  1
  S2-  S172  1  0.37036491  0.54613293  0.34287421  1
  S2-  S173  1  0.48362151  0.50092333  0.86204849  1
  S2-  S174  1  0.43502982  0.73409991  0.30803797  1
  S2-  S175  1  0.47460546  0.74311270  0.86456824  1
  S2-  S176  1  0.63721660  0.09102768  0.34896541  1
  S2-  S177  1  0.60098128  0.00294822  0.85113950  1
  S2-  S178  1  0.49544219  0.25201745  0.34896708  1
  S2-  S179  1  0.60523664  0.23802282  0.85572389  1
  S2-  S180  1  0.58084961  0.44038886  0.31279377  1
  S2-  S181  1  0.69431229  0.52408142  0.85018888  1
  S2-  S182  1  0.61579530  0.63823370  0.34865098  1
  S2-  S183  1  0.70920553  0.75963581  0.85865858  1
  S2-  S184  1  0.87713165  0.07892650  0.35031081  1
  S2-  S185  1  0.84069275  0.11205859  0.86585386  1
  S2-  S186  1  0.75563867  0.26594367  0.33614173  1
  S2-  S187  1  0.86459107  0.33867943  0.85078625  1
  S2-  S188  1  0.78826484  0.49496002  0.34694936  1
  S2-  S189  1  0.88680514  0.52362254  0.79896180  1
  S2-  S190  1  0.78118356  0.75614575  0.35941782  1
  S2-  S191  1  0.92323731  0.73503511  0.84080075  1
  S2-  S192  1  0.00498151  0.11960744  0.45539225  1
  S2-  S193  1  -0.01838965  0.12062882  0.96132978  1
  S2-  S194  1  0.00224165  0.36881759  0.45456952  1
  S2-  S195  1  -0.02044662  0.37310435  0.94930179  1
  S2-  S196  1  0.00553760  0.61980357  0.45171325  1
  S2-  S197  1  -0.02216940  0.61432813  0.94382298  1
  S2-  S198  1  0.00494918  0.86648657  0.45454583  1
  S2-  S199  1  -0.02431649  0.86992250  0.95134847  1
  S2-  S200  1  0.25048352  0.12049080  0.46746343  1
  S2-  S201  1  0.23606152  0.11914053  0.96103273  1
  S2-  S202  1  0.25729553  0.36725322  0.45280030  1
  S2-  S203  1  0.23511045  0.37345221  0.95711924  1
  S2-  S204  1  0.25492122  0.61683160  0.46295200  1
  S2-  S205  1  0.22705951  0.62209160  0.94776888  1
  S2-  S206  1  0.25251418  0.86988059  0.46403180  1
  S2-  S207  1  0.23556506  0.86872415  0.95605619  1
  S2-  S208  1  0.50886529  0.11462536  0.45593487  1
  S2-  S209  1  0.47871652  0.12074938  0.96743159  1
  S2-  S210  1  0.50977861  0.37477891  0.44287516  1
  S2-  S211  1  0.47906404  0.37150851  0.96420034  1
  S2-  S212  1  0.50079596  0.62621850  0.44791817  1
  S2-  S213  1  0.47593499  0.62243107  0.96819038  1
  S2-  S214  1  0.51039968  0.86452902  0.44005650  1
  S2-  S215  1  0.47611418  0.87249974  0.96611448  1
  S2-  S216  1  0.76042494  0.11931166  0.45418620  1
  S2-  S217  1  0.72754105  0.11956069  0.97437597  1
  S2-  S218  1  0.76176436  0.36362122  0.44531628  1
  S2-  S219  1  0.73160952  0.37364565  0.95867702  1
  S2-  S220  1  0.76058165  0.61891668  0.45761960  1
  S2-  S221  1  0.73411313  0.61816247  0.95939854  1
  S2-  S222  1  0.75870323  0.87258892  0.45455709  1
  S2-  S223  1  0.73060157  0.87490113  0.96279819  1
  S2-  S224  1  0.10430274  -0.00493203  0.03833841  1
  S2-  S225  1  0.12704546  -0.00470597  0.55393778  1
  S2-  S226  1  0.10727765  0.25141529  0.04304557  1
  S2-  S227  1  0.11920016  0.24681532  0.54119506  1
  S2-  S228  1  0.10555967  0.49523713  0.03556422  1
  S2-  S229  1  0.12665868  0.49170078  0.55458777  1
  S2-  S230  1  0.10289632  0.74478827  0.03001035  1
  S2-  S231  1  0.13085540  0.74530032  0.55207214  1
  S2-  S232  1  0.35514432  -0.00518383  0.05124332  1
  S2-  S233  1  0.38671624  -0.01008215  0.54492023  1
  S2-  S234  1  0.35831436  0.25227675  0.05094812  1
  S2-  S235  1  0.38473254  0.24613449  0.54009901  1
  S2-  S236  1  0.34815466  0.50170504  0.04291837  1
  S2-  S237  1  0.38214157  0.49036999  0.54342046  1
  S2-  S238  1  0.34670772  0.74620790  0.04336645  1
  S2-  S239  1  0.37931971  0.74990779  0.54043408  1
  S2-  S240  1  0.59835325  -0.01053819  0.05828471  1
  S2-  S241  1  0.63217084  -0.00961660  0.53889203  1
  S2-  S242  1  0.60570667  0.25433703  0.06255926  1
  S2-  S243  1  0.63341457  0.24599528  0.53123432  1
  S2-  S244  1  0.60515784  0.49833213  0.04882791  1
  S2-  S245  1  0.63008353  0.49544888  0.52891035  1
  S2-  S246  1  0.60738711  0.74647373  0.05134324  1
  S2-  S247  1  0.63353802  0.74328936  0.53606797  1
  S2-  S248  1  0.86302993  -0.00795556  0.04995708  1
  S2-  S249  1  0.88089156  -0.00544905  0.54554834  1
  S2-  S250  1  0.85313452  0.25076889  0.04859691  1
  S2-  S251  1  0.87847144  0.24421872  0.55280834  1
  S2-  S252  1  0.85953862  0.49899558  0.04330131  1
  S2-  S253  1  0.88111136  0.49565056  0.54043534  1
  S2-  S254  1  0.85966562  0.74592680  0.04116937  1
  S2-  S255  1  0.88008601  0.74507375  0.54633360  1
