# generated using pymatgen
data_La6Ce6Pr19Nd20Sm13(BiS2)64
_symmetry_space_group_name_H-M   'P 1'
_cell_length_a   16.09141454
_cell_length_b   16.13882045
_cell_length_c   27.37071936
_cell_angle_alpha   90.14504337
_cell_angle_beta   90.00153088
_cell_angle_gamma   90.13326993
_symmetry_Int_Tables_number   1
_chemical_formula_structural   La6Ce6Pr19Nd20Sm13(BiS2)64
_chemical_formula_sum   'La6 Ce6 Pr19 Nd20 Sm13 Bi64 S128'
_cell_volume   7108.03664485
_cell_formula_units_Z   1
loop_
 _symmetry_equiv_pos_site_id
 _symmetry_equiv_pos_as_xyz
  1  'x, y, z'
loop_
 _atom_type_symbol
 _atom_type_oxidation_number
  La3+  3.0
  Ce3+  3.0
  Pr3+  3.0
  Nd3+  3.0
  Sm3+  3.0
  Bi2+  2.0
  S2-  -2.0
loop_
 _atom_site_type_symbol
 _atom_site_label
 _atom_site_symmetry_multiplicity
 _atom_site_fract_x
 _atom_site_fract_y
 _atom_site_fract_z
 _atom_site_occupancy
  La3+  La0  1  0.26107366  0.36880114  0.57526913  1
  La3+  La1  1  0.13808508  -0.00601827  0.92902962  1
  La3+  La2  1  0.76917628  0.12436179  0.56803059  1
  La3+  La3  1  0.88369259  -0.00716897  0.40203497  1
  La3+  La4  1  0.50064729  0.35505877  0.10736782  1
  La3+  La5  1  0.73991334  0.39368019  0.61862630  1
  Ce3+  Ce6  1  0.88427764  0.74957814  0.44172482  1
  Ce3+  Ce7  1  0.01813930  0.12016302  0.07100097  1
  Ce3+  Ce8  1  0.38441263  0.24479093  0.43638285  1
  Ce3+  Ce9  1  0.76004306  0.87534871  0.06158312  1
  Ce3+  Ce10  1  0.37997063  -0.00764800  0.43437504  1
  Ce3+  Ce11  1  0.88745705  0.49149525  0.94457009  1
  Pr3+  Pr12  1  0.88946421  0.24586357  0.43174121  1
  Pr3+  Pr13  1  0.62866261  0.49754978  0.42202549  1
  Pr3+  Pr14  1  0.00475644  0.36466177  0.57138656  1
  Pr3+  Pr15  1  0.38888699  0.73926734  0.44489256  1
  Pr3+  Pr16  1  0.76253173  0.36999890  0.07402779  1
  Pr3+  Pr17  1  0.01001464  0.36789661  0.06858505  1
  Pr3+  Pr18  1  0.26114938  0.62522251  0.06411552  1
  Pr3+  Pr19  1  0.26353814  0.12353067  0.06629404  1
  Pr3+  Pr20  1  0.88817244  -0.00190694  0.94208218  1
  Pr3+  Pr21  1  0.88221011  0.49047082  0.44248979  1
  Pr3+  Pr22  1  0.76062052  0.61975357  0.55611658  1
  Pr3+  Pr23  1  0.51429501  0.61353398  0.56517985  1
  Pr3+  Pr24  1  0.64330834  0.24224113  0.42448407  1
  Pr3+  Pr25  1  0.00897560  0.61779831  0.55577270  1
  Pr3+  Pr26  1  0.01349646  0.86990275  0.06427693  1
  Pr3+  Pr27  1  0.64177186  -0.00422114  0.93309729  1
  Pr3+  Pr28  1  0.01330087  0.62219939  0.05371057  1
  Pr3+  Pr29  1  0.38791865  0.49017353  0.94082069  1
  Pr3+  Pr30  1  0.64008225  0.74295577  0.94212603  1
  Nd3+  Nd31  1  0.76697975  0.11506246  0.09524890  1
  Nd3+  Nd32  1  0.38470028  0.24573104  0.93828528  1
  Nd3+  Nd33  1  0.26261325  0.86911108  0.55866770  1
  Nd3+  Nd34  1  0.13815542  0.74756785  0.92494923  1
  Nd3+  Nd35  1  0.13687449  0.74274685  0.44414144  1
  Nd3+  Nd36  1  0.13899718  0.48722810  0.93657878  1
  Nd3+  Nd37  1  0.51330177  0.12164598  0.05454122  1
  Nd3+  Nd38  1  0.51112282  0.61692410  0.05557741  1
  Nd3+  Nd39  1  0.63829334  -0.00510194  0.44250335  1
  Nd3+  Nd40  1  0.25782753  0.11792998  0.56136913  1
  Nd3+  Nd41  1  0.26512700  0.87022831  0.06227096  1
  Nd3+  Nd42  1  0.13171699  0.49022229  0.44244018  1
  Nd3+  Nd43  1  0.51191403  0.12175091  0.55338142  1
  Nd3+  Nd44  1  0.13230397  0.24239098  0.43861776  1
  Nd3+  Nd45  1  0.36796877  0.48390483  0.41661386  1
  Nd3+  Nd46  1  0.63818518  0.49025967  0.94354559  1
  Nd3+  Nd47  1  0.38465717  0.74207092  0.93345193  1
  Nd3+  Nd48  1  0.01350633  0.11563709  0.55823087  1
  Nd3+  Nd49  1  0.75865277  0.61841384  0.06340343  1
  Nd3+  Nd50  1  0.38552061  -0.00433449  0.93178705  1
  Sm3+  Sm51  1  0.13394529  0.23718935  0.93815879  1
  Sm3+  Sm52  1  0.88808036  0.74402613  0.94548919  1
  Sm3+  Sm53  1  0.26244649  0.61631316  0.55898431  1
  Sm3+  Sm54  1  0.76322437  0.87619699  0.56598663  1
  Sm3+  Sm55  1  0.51651090  0.36653712  0.54748641  1
  Sm3+  Sm56  1  0.51140155  0.87238872  0.04634927  1
  Sm3+  Sm57  1  0.13726232  -0.00894685  0.43099049  1
  Sm3+  Sm58  1  0.63855803  0.24505482  0.94664305  1
  Sm3+  Sm59  1  0.26137734  0.37884186  0.06517350  1
  Sm3+  Sm60  1  0.88548307  0.24323772  0.94697313  1
  Sm3+  Sm61  1  0.50961859  0.87143156  0.55718328  1
  Sm3+  Sm62  1  0.01218598  0.87165476  0.55621646  1
  Sm3+  Sm63  1  0.63536824  0.74555291  0.45028432  1
  Bi2+  Bi64  1  0.04718411  0.12856027  0.28223045  1
  Bi2+  Bi65  1  0.00861997  0.11456834  0.76910795  1
  Bi2+  Bi66  1  0.06901462  0.38904702  0.30445282  1
  Bi2+  Bi67  1  -0.00608728  0.46049867  0.77218098  1
  Bi2+  Bi68  1  -0.02450327  0.64167850  0.28767046  1
  Bi2+  Bi69  1  -0.00259161  0.66201013  0.81070017  1
  Bi2+  Bi70  1  0.00997147  0.85081663  0.29128693  1
  Bi2+  Bi71  1  -0.01971945  0.84820505  0.77641951  1
  Bi2+  Bi72  1  0.24087475  0.13576710  0.29907759  1
  Bi2+  Bi73  1  0.22509716  0.15377317  0.80711001  1
  Bi2+  Bi74  1  0.24121294  0.34720279  0.24609754  1
  Bi2+  Bi75  1  0.29571483  0.37921314  0.79859123  1
  Bi2+  Bi76  1  0.25653039  0.61383396  0.29064661  1
  Bi2+  Bi77  1  0.22313407  0.62573565  0.78524706  1
  Bi2+  Bi78  1  0.24898527  0.85790669  0.28838900  1
  Bi2+  Bi79  1  0.23395244  0.87460074  0.79442663  1
  Bi2+  Bi80  1  0.43460181  0.05232160  0.27449687  1
  Bi2+  Bi81  1  0.41985607  0.13620448  0.77078942  1
  Bi2+  Bi82  1  0.50283613  0.37954349  0.30802459  1
  Bi2+  Bi83  1  0.41936074  0.36166937  0.70996717  1
  Bi2+  Bi84  1  0.51158567  0.67522844  0.29142242  1
  Bi2+  Bi85  1  0.47473441  0.73200183  0.79183058  1
  Bi2+  Bi86  1  0.46139250  0.87013411  0.30472950  1
  Bi2+  Bi87  1  0.43804305  0.92794293  0.79152602  1
  Bi2+  Bi88  1  0.71203427  0.11554581  0.29527864  1
  Bi2+  Bi89  1  0.75947710  0.12374460  0.81410145  1
  Bi2+  Bi90  1  0.79866847  0.37046032  0.28583309  1
  Bi2+  Bi91  1  0.75009836  0.36623006  0.82082938  1
  Bi2+  Bi92  1  0.78040361  0.63910027  0.27091224  1
  Bi2+  Bi93  1  0.73588529  0.62459754  0.80943302  1
  Bi2+  Bi94  1  0.73455272  0.83876794  0.29016988  1
  Bi2+  Bi95  1  0.70850221  0.88825982  0.79040247  1
  Bi2+  Bi96  1  0.16488506  0.00055737  0.22180998  1
  Bi2+  Bi97  1  0.12375367  -0.00738028  0.70812738  1
  Bi2+  Bi98  1  0.10106294  0.27681623  0.17967138  1
  Bi2+  Bi99  1  0.13319456  0.23630930  0.71591753  1
  Bi2+  Bi100  1  0.11422278  0.47401332  0.19711584  1
  Bi2+  Bi101  1  0.12906795  0.51419130  0.69932014  1
  Bi2+  Bi102  1  0.13275926  0.67711444  0.21346924  1
  Bi2+  Bi103  1  0.09849194  0.72600687  0.71823671  1
  Bi2+  Bi104  1  0.33867402  -0.00483744  0.17016752  1
  Bi2+  Bi105  1  0.34145027  0.01138507  0.69657917  1
  Bi2+  Bi106  1  0.35591838  0.19059768  0.20855727  1
  Bi2+  Bi107  1  0.31645756  0.21009034  0.67423861  1
  Bi2+  Bi108  1  0.37125498  0.60316960  0.20354196  1
  Bi2+  Bi109  1  0.38661486  0.55167459  0.73447572  1
  Bi2+  Bi110  1  0.36511973  0.80356771  0.19687403  1
  Bi2+  Bi111  1  0.36342069  0.80636911  0.70908849  1
  Bi2+  Bi112  1  0.59335682  -0.06993694  0.22394858  1
  Bi2+  Bi113  1  0.60883704  -0.00480373  0.70859587  1
  Bi2+  Bi114  1  0.60051341  0.24961038  0.22420570  1
  Bi2+  Bi115  1  0.61065985  0.24568981  0.71248624  1
  Bi2+  Bi116  1  0.62864391  0.50483949  0.21161599  1
  Bi2+  Bi117  1  0.62656020  0.54711231  0.72745778  1
  Bi2+  Bi118  1  0.63572901  0.73701514  0.20843449  1
  Bi2+  Bi119  1  0.62714950  0.76150374  0.71319691  1
  Bi2+  Bi120  1  0.87377859  -0.00152356  0.21055730  1
  Bi2+  Bi121  1  0.87458814  -0.00131673  0.70430382  1
  Bi2+  Bi122  1  0.92669827  0.26205536  0.22578150  1
  Bi2+  Bi123  1  0.88028311  0.24444129  0.71247459  1
  Bi2+  Bi124  1  0.90695668  0.50850848  0.20938570  1
  Bi2+  Bi125  1  0.86820461  0.59572293  0.72550755  1
  Bi2+  Bi126  1  0.89369475  0.76741506  0.20676561  1
  Bi2+  Bi127  1  0.82028233  0.79662814  0.70638340  1
  S2-  S128  1  -0.08326274  0.12027671  0.15217367  1
  S2-  S129  1  -0.08347918  0.13151996  0.64275296  1
  S2-  S130  1  -0.10698387  0.36823411  0.14723832  1
  S2-  S131  1  -0.09552182  0.37251939  0.65688578  1
  S2-  S132  1  0.00026726  0.65980920  0.15055766  1
  S2-  S133  1  0.00063258  0.62282637  0.65512127  1
  S2-  S134  1  -0.00886664  0.89361071  0.16387413  1
  S2-  S135  1  0.00211857  0.90958866  0.65173740  1
  S2-  S136  1  0.14261929  0.11555581  0.14148393  1
  S2-  S137  1  0.13552398  0.11186763  0.63614221  1
  S2-  S138  1  0.33056198  0.31980871  0.14789632  1
  S2-  S139  1  0.13406843  0.36769886  0.64534384  1
  S2-  S140  1  0.26336947  0.51546757  0.14140055  1
  S2-  S141  1  0.26673770  0.56781489  0.65234933  1
  S2-  S142  1  0.23316879  0.75497464  0.13580464  1
  S2-  S143  1  0.23356120  0.87785957  0.65581928  1
  S2-  S144  1  0.51142456  0.18859908  0.14687058  1
  S2-  S145  1  0.54068996  0.11783137  0.65328844  1
  S2-  S146  1  0.48990768  0.41907420  0.20875585  1
  S2-  S147  1  0.55952105  0.36560592  0.64237300  1
  S2-  S148  1  0.53090298  0.62115804  0.15422456  1
  S2-  S149  1  0.50598949  0.60135277  0.66601699  1
  S2-  S150  1  0.49897032  0.89235785  0.14284553  1
  S2-  S151  1  0.53155475  0.87335497  0.65469544  1
  S2-  S152  1  0.72220266  0.16162721  0.19195117  1
  S2-  S153  1  0.73534446  0.22451158  0.65143241  1
  S2-  S154  1  0.65930477  0.36839963  0.15611753  1
  S2-  S155  1  0.71150904  0.38574157  0.72729030  1
  S2-  S156  1  0.76983036  0.56225708  0.15599013  1
  S2-  S157  1  0.74022737  0.56301934  0.65048541  1
  S2-  S158  1  0.74960478  0.96064208  0.14612285  1
  S2-  S159  1  0.74620324  0.98872319  0.64239456  1
  S2-  S160  1  0.04017392  -0.01191608  0.34887320  1
  S2-  S161  1  0.08596011  0.11864684  0.86132793  1
  S2-  S162  1  0.02509117  0.24967892  0.35825500  1
  S2-  S163  1  0.17661809  0.30993326  0.85188864  1
  S2-  S164  1  0.21188312  0.49529266  0.35431426  1
  S2-  S165  1  0.12312173  0.52155463  0.83952252  1
  S2-  S166  1  0.13149524  0.76962536  0.34650432  1
  S2-  S167  1  0.09495335  0.87141994  0.85399632  1
  S2-  S168  1  0.26550811  -0.01186277  0.35953216  1
  S2-  S169  1  0.27343941  0.00582958  0.85652750  1
  S2-  S170  1  0.36363007  0.33965039  0.35590144  1
  S2-  S171  1  0.40455077  0.25971162  0.83899468  1
  S2-  S172  1  0.48802383  0.53276035  0.35227320  1
  S2-  S173  1  0.37901384  0.51217259  0.84084578  1
  S2-  S174  1  0.35872346  0.73345556  0.34621420  1
  S2-  S175  1  0.27052052  0.73930858  0.85825926  1
  S2-  S176  1  0.69429599  -0.02124393  0.35014113  1
  S2-  S177  1  0.62143292  0.01935568  0.83396741  1
  S2-  S178  1  0.56676921  0.22150201  0.33041033  1
  S2-  S179  1  0.64404294  0.24823168  0.84751521  1
  S2-  S180  1  0.66833836  0.44728325  0.32328508  1
  S2-  S181  1  0.63649823  0.49850764  0.84376172  1
  S2-  S182  1  0.63257288  0.73338551  0.35321077  1
  S2-  S183  1  0.62535155  0.75527025  0.84347103  1
  S2-  S184  1  0.86721148  0.06554553  0.30507057  1
  S2-  S185  1  0.84308346  -0.00207995  0.84487731  1
  S2-  S186  1  0.77829209  0.24179873  0.35092842  1
  S2-  S187  1  0.86845272  0.24232715  0.84794011  1
  S2-  S188  1  0.92164790  0.44335521  0.34782521  1
  S2-  S189  1  0.88470276  0.47450112  0.84824361  1
  S2-  S190  1  0.87539666  0.83329266  0.35643076  1
  S2-  S191  1  0.85771859  0.74219404  0.84958533  1
  S2-  S192  1  0.01237303  0.11116341  0.45111242  1
  S2-  S193  1  0.00784927  0.12234780  0.96521611  1
  S2-  S194  1  0.01171039  0.37086725  0.46278887  1
  S2-  S195  1  0.01254533  0.36508781  0.95605006  1
  S2-  S196  1  0.00966257  0.61945422  0.44889108  1
  S2-  S197  1  0.01329212  0.61981525  0.94819431  1
  S2-  S198  1  0.01391769  0.86775570  0.45338873  1
  S2-  S199  1  0.00625796  0.86788906  0.95771647  1
  S2-  S200  1  0.25886571  0.12173316  0.45568534  1
  S2-  S201  1  0.26306781  0.12286121  0.95900034  1
  S2-  S202  1  0.25452233  0.36644448  0.46296358  1
  S2-  S203  1  0.26215710  0.36885207  0.95964136  1
  S2-  S204  1  0.26151615  0.61596850  0.45528684  1
  S2-  S205  1  0.26163211  0.61436539  0.95710159  1
  S2-  S206  1  0.26231673  0.86350650  0.45507692  1
  S2-  S207  1  0.26579455  0.86854975  0.95690784  1
  S2-  S208  1  0.50710477  0.11559946  0.44614600  1
  S2-  S209  1  0.51239446  0.12004867  0.94680410  1
  S2-  S210  1  0.50916067  0.37040433  0.44556305  1
  S2-  S211  1  0.51509497  0.36704645  0.94602851  1
  S2-  S212  1  0.51348844  0.62012068  0.45998132  1
  S2-  S213  1  0.51209721  0.61890393  0.94899533  1
  S2-  S214  1  0.51055040  0.86976257  0.45262974  1
  S2-  S215  1  0.51028285  0.86977216  0.94238011  1
  S2-  S216  1  0.76734690  0.11253357  0.45139688  1
  S2-  S217  1  0.76149954  0.12198772  0.95337628  1
  S2-  S218  1  0.75497551  0.37524629  0.44432027  1
  S2-  S219  1  0.76266218  0.36722717  0.96205583  1
  S2-  S220  1  0.75895381  0.62056078  0.44856914  1
  S2-  S221  1  0.76372616  0.61831039  0.95681035  1
  S2-  S222  1  0.75779196  0.86857547  0.46144684  1
  S2-  S223  1  0.76380662  0.86884063  0.95462944  1
  S2-  S224  1  0.14106494  -0.00956293  0.04272258  1
  S2-  S225  1  0.13910477  -0.01210716  0.53742696  1
  S2-  S226  1  0.14102164  0.25162760  0.04351591  1
  S2-  S227  1  0.13736496  0.24439566  0.54248063  1
  S2-  S228  1  0.13212760  0.49341302  0.04371526  1
  S2-  S229  1  0.13628745  0.49737406  0.54649356  1
  S2-  S230  1  0.13469486  0.74765063  0.03319154  1
  S2-  S231  1  0.13772043  0.74233208  0.55063658  1
  S2-  S232  1  0.38784815  -0.00373003  0.03708428  1
  S2-  S233  1  0.38572581  -0.00571709  0.54453832  1
  S2-  S234  1  0.38989169  0.24619326  0.04243426  1
  S2-  S235  1  0.38642501  0.24565550  0.54350550  1
  S2-  S236  1  0.39719687  0.48626191  0.04799975  1
  S2-  S237  1  0.38735089  0.49150166  0.54858336  1
  S2-  S238  1  0.39116689  0.74598759  0.03993242  1
  S2-  S239  1  0.38766910  0.74186433  0.55296119  1
  S2-  S240  1  0.63532534  -0.00290664  0.04092786  1
  S2-  S241  1  0.63187709  -0.00668150  0.54523777  1
  S2-  S242  1  0.64446948  0.23716625  0.05114331  1
  S2-  S243  1  0.63322468  0.24092358  0.53391423  1
  S2-  S244  1  0.63405614  0.49217350  0.04928043  1
  S2-  S245  1  0.63755570  0.49130315  0.54185591  1
  S2-  S246  1  0.63495558  0.74701106  0.04888193  1
  S2-  S247  1  0.63568554  0.74836457  0.55483890  1
  S2-  S248  1  0.88756186  -0.00483696  0.04827069  1
  S2-  S249  1  0.88842145  -0.01191913  0.54321982  1
  S2-  S250  1  0.88397434  0.23959555  0.05064704  1
  S2-  S251  1  0.89278068  0.24154161  0.53760600  1
  S2-  S252  1  0.88772722  0.49743354  0.04822010  1
  S2-  S253  1  0.88204841  0.49327524  0.54918711  1
  S2-  S254  1  0.88233416  0.74611032  0.05004812  1
  S2-  S255  1  0.88507332  0.74854733  0.54959504  1
