# generated using pymatgen
data_La6Ce6Pr19Nd20Sm13(BiS2)64
_symmetry_space_group_name_H-M   'P 1'
_cell_length_a   16.14380336
_cell_length_b   16.14561868
_cell_length_c   27.23843596
_cell_angle_alpha   90.06569155
_cell_angle_beta   90.25295510
_cell_angle_gamma   89.90900316
_symmetry_Int_Tables_number   1
_chemical_formula_structural   La6Ce6Pr19Nd20Sm13(BiS2)64
_chemical_formula_sum   'La6 Ce6 Pr19 Nd20 Sm13 Bi64 S128'
_cell_volume   7099.66169252
_cell_formula_units_Z   1
loop_
 _symmetry_equiv_pos_site_id
 _symmetry_equiv_pos_as_xyz
  1  'x, y, z'
loop_
 _atom_type_symbol
 _atom_type_oxidation_number
  La3+  3.0
  Ce3+  3.0
  Pr3+  3.0
  Nd3+  3.0
  Sm3+  3.0
  Bi2+  2.0
  S2-  -2.0
loop_
 _atom_site_type_symbol
 _atom_site_label
 _atom_site_symmetry_multiplicity
 _atom_site_fract_x
 _atom_site_fract_y
 _atom_site_fract_z
 _atom_site_occupancy
  La3+  La0  1  -0.00276703  0.38891669  0.60415106  1
  La3+  La1  1  0.01702637  0.11881372  0.57207978  1
  La3+  La2  1  0.12071261  0.76384203  0.92764076  1
  La3+  La3  1  0.87289936  -0.00180550  0.43645795  1
  La3+  La4  1  0.24607781  0.13468746  0.11414590  1
  La3+  La5  1  0.12745470  0.50654191  0.92596061  1
  Ce3+  Ce6  1  0.12788686  0.49512220  0.44200235  1
  Ce3+  Ce7  1  0.50266072  0.37015900  0.56228987  1
  Ce3+  Ce8  1  0.24720612  0.63133420  0.06059162  1
  Ce3+  Ce9  1  0.75413154  0.87679508  0.56798330  1
  Ce3+  Ce10  1  0.00017923  0.38307959  0.05120321  1
  Ce3+  Ce11  1  0.75524914  0.63379893  0.05397455  1
  Pr3+  Pr12  1  0.49799730  0.38290134  0.06304999  1
  Pr3+  Pr13  1  0.49819916  0.63102390  0.07477570  1
  Pr3+  Pr14  1  0.37708431  0.25433540  0.42441922  1
  Pr3+  Pr15  1  0.87414237  0.76169705  0.93505728  1
  Pr3+  Pr16  1  0.51054765  0.13300264  0.09515735  1
  Pr3+  Pr17  1  0.63197852  0.24552011  0.44092777  1
  Pr3+  Pr18  1  0.75266815  0.38546609  0.06074678  1
  Pr3+  Pr19  1  0.37365271  0.25644136  0.94767239  1
  Pr3+  Pr20  1  0.01045370  0.86963677  0.55803461  1
  Pr3+  Pr21  1  0.87349219  0.01084837  0.94350951  1
  Pr3+  Pr22  1  0.37890999  -0.00294787  0.42770321  1
  Pr3+  Pr23  1  0.37563991  0.75739973  0.93550732  1
  Pr3+  Pr24  1  0.00269796  0.13549685  0.05929243  1
  Pr3+  Pr25  1  0.87679417  0.49281262  0.43611260  1
  Pr3+  Pr26  1  0.62889605  0.74673041  0.44285485  1
  Pr3+  Pr27  1  0.86042376  0.26407589  0.90398002  1
  Pr3+  Pr28  1  0.62186582  0.00783431  0.94007954  1
  Pr3+  Pr29  1  0.62398587  0.51017868  0.94277842  1
  Pr3+  Pr30  1  0.25181211  0.88491610  0.06407028  1
  Nd3+  Nd31  1  0.75035680  0.88426331  0.06200898  1
  Nd3+  Nd32  1  0.62867218  -0.00447879  0.43572686  1
  Nd3+  Nd33  1  0.11579690  -0.01143624  0.41326852  1
  Nd3+  Nd34  1  0.12554538  0.25585166  0.94154127  1
  Nd3+  Nd35  1  0.37246562  0.51433967  0.92937412  1
  Nd3+  Nd36  1  0.25104290  0.38678259  0.06557619  1
  Nd3+  Nd37  1  0.37952296  0.74506179  0.44155579  1
  Nd3+  Nd38  1  0.12423503  0.01147260  0.94316597  1
  Nd3+  Nd39  1  0.87969532  0.50896832  0.92441249  1
  Nd3+  Nd40  1  0.50301443  0.87664342  0.55918929  1
  Nd3+  Nd41  1  0.38357591  0.49606833  0.43234794  1
  Nd3+  Nd42  1  0.87618786  0.74699232  0.44686520  1
  Nd3+  Nd43  1  0.61992211  0.26150106  0.93543456  1
  Nd3+  Nd44  1  0.12900407  0.74222790  0.42791645  1
  Nd3+  Nd45  1  0.74415587  0.36914556  0.57233350  1
  Nd3+  Nd46  1  0.63004257  0.49006404  0.42839299  1
  Nd3+  Nd47  1  0.50167439  0.12247180  0.55179710  1
  Nd3+  Nd48  1  0.50687433  0.62091593  0.56483308  1
  Nd3+  Nd49  1  0.12384254  0.24798591  0.43644508  1
  Nd3+  Nd50  1  0.25644686  0.62017031  0.56119498  1
  Sm3+  Sm51  1  0.00316705  0.88447466  0.06371243  1
  Sm3+  Sm52  1  0.00603656  0.62122014  0.55515925  1
  Sm3+  Sm53  1  0.75448371  0.61768440  0.55672464  1
  Sm3+  Sm54  1  0.49826780  0.88473358  0.06183281  1
  Sm3+  Sm55  1  0.62367963  0.75827728  0.95220156  1
  Sm3+  Sm56  1  0.88060362  0.24722823  0.45593638  1
  Sm3+  Sm57  1  0.37509219  0.01028463  0.94912743  1
  Sm3+  Sm58  1  0.74786512  0.13579879  0.05582670  1
  Sm3+  Sm59  1  0.25238392  0.87230950  0.54470384  1
  Sm3+  Sm60  1  0.76274374  0.11882671  0.57467948  1
  Sm3+  Sm61  1  0.25174559  0.12201119  0.54378346  1
  Sm3+  Sm62  1  0.00053214  0.63298811  0.05553781  1
  Sm3+  Sm63  1  0.25296739  0.37035439  0.55966935  1
  Bi2+  Bi64  1  0.01039763  0.15480344  0.31662314  1
  Bi2+  Bi65  1  0.05976843  0.12367907  0.81288540  1
  Bi2+  Bi66  1  -0.03941659  0.42610970  0.28715499  1
  Bi2+  Bi67  1  -0.00184247  0.37482891  0.80298979  1
  Bi2+  Bi68  1  -0.00061323  0.61690061  0.28862969  1
  Bi2+  Bi69  1  0.04892589  0.66417254  0.78533204  1
  Bi2+  Bi70  1  -0.00323866  0.80693850  0.28282443  1
  Bi2+  Bi71  1  0.00833658  0.90701887  0.79522385  1
  Bi2+  Bi72  1  0.27158901  0.14015770  0.31095634  1
  Bi2+  Bi73  1  0.29440221  0.17887577  0.74657382  1
  Bi2+  Bi74  1  0.23735767  0.45267606  0.27983900  1
  Bi2+  Bi75  1  0.23369963  0.36985361  0.73941892  1
  Bi2+  Bi76  1  0.19536452  0.63919571  0.30561202  1
  Bi2+  Bi77  1  0.28617437  0.60876978  0.79119232  1
  Bi2+  Bi78  1  0.27111115  0.81398819  0.27387287  1
  Bi2+  Bi79  1  0.27945716  0.85411897  0.74727377  1
  Bi2+  Bi80  1  0.56478762  0.10948103  0.29086532  1
  Bi2+  Bi81  1  0.46108377  0.12820004  0.80447629  1
  Bi2+  Bi82  1  0.48575121  0.37914734  0.29688079  1
  Bi2+  Bi83  1  0.50570820  0.33844527  0.79890790  1
  Bi2+  Bi84  1  0.48525179  0.64252183  0.28679426  1
  Bi2+  Bi85  1  0.55628649  0.64259850  0.79325926  1
  Bi2+  Bi86  1  0.52738697  0.92143994  0.31732758  1
  Bi2+  Bi87  1  0.51080747  0.90723037  0.80149962  1
  Bi2+  Bi88  1  0.76623945  0.09717213  0.27102384  1
  Bi2+  Bi89  1  0.65424548  0.12709918  0.76894269  1
  Bi2+  Bi90  1  0.76009142  0.35623264  0.29944658  1
  Bi2+  Bi91  1  0.69577465  0.38115722  0.78881504  1
  Bi2+  Bi92  1  0.73956391  0.61098261  0.28142415  1
  Bi2+  Bi93  1  0.78251728  0.64461117  0.78994080  1
  Bi2+  Bi94  1  0.71365711  0.85138136  0.31782520  1
  Bi2+  Bi95  1  0.75840576  0.83250229  0.80935537  1
  Bi2+  Bi96  1  0.10832799  -0.00031193  0.21417050  1
  Bi2+  Bi97  1  0.15180694  -0.01889573  0.70170782  1
  Bi2+  Bi98  1  0.11521085  0.27459803  0.20975491  1
  Bi2+  Bi99  1  0.08793572  0.18733749  0.70952268  1
  Bi2+  Bi100  1  0.09950095  0.52577239  0.19531685  1
  Bi2+  Bi101  1  0.12208961  0.52917368  0.71099624  1
  Bi2+  Bi102  1  0.18105460  0.72036617  0.19067901  1
  Bi2+  Bi103  1  0.10463637  0.77859111  0.68755455  1
  Bi2+  Bi104  1  0.38648608  -0.02820085  0.21964021  1
  Bi2+  Bi105  1  0.39107612  0.01317553  0.71622120  1
  Bi2+  Bi106  1  0.39177911  0.27526911  0.21793840  1
  Bi2+  Bi107  1  0.37429598  0.29537326  0.66240146  1
  Bi2+  Bi108  1  0.36978303  0.53386562  0.21316791  1
  Bi2+  Bi109  1  0.40461493  0.46092772  0.72816424  1
  Bi2+  Bi110  1  0.38105828  0.72993564  0.18677929  1
  Bi2+  Bi111  1  0.42346793  0.73237672  0.72212520  1
  Bi2+  Bi112  1  0.64044075  -0.04143725  0.22310302  1
  Bi2+  Bi113  1  0.61450831  -0.03300201  0.69855762  1
  Bi2+  Bi114  1  0.63702653  0.23939769  0.21530201  1
  Bi2+  Bi115  1  0.55713350  0.24648905  0.69677276  1
  Bi2+  Bi116  1  0.62333690  0.51253115  0.21151653  1
  Bi2+  Bi117  1  0.58072713  0.53127394  0.69604629  1
  Bi2+  Bi118  1  0.58514487  0.70276969  0.19385982  1
  Bi2+  Bi119  1  0.64457591  0.77273239  0.71774767  1
  Bi2+  Bi120  1  0.91640995  -0.02671391  0.24838108  1
  Bi2+  Bi121  1  0.84323814  -0.03730690  0.74029611  1
  Bi2+  Bi122  1  0.89295838  0.24628397  0.24177113  1
  Bi2+  Bi123  1  0.84766937  0.24505190  0.71323794  1
  Bi2+  Bi124  1  0.85692420  0.45685069  0.19105837  1
  Bi2+  Bi125  1  0.85129205  0.52991642  0.71157451  1
  Bi2+  Bi126  1  0.77899443  0.74604708  0.20748909  1
  Bi2+  Bi127  1  0.89223321  0.77133671  0.72196955  1
  S2-  S128  1  0.05960981  0.13773214  0.15391309  1
  S2-  S129  1  -0.06290167  0.13796656  0.66323465  1
  S2-  S130  1  0.01429728  0.38542302  0.14958336  1
  S2-  S131  1  0.00133613  0.33468692  0.70708656  1
  S2-  S132  1  0.02996244  0.65920885  0.15211859  1
  S2-  S133  1  -0.01217692  0.55442208  0.64576896  1
  S2-  S134  1  0.00323331  0.90418303  0.16201719  1
  S2-  S135  1  0.01782480  0.92758495  0.65236636  1
  S2-  S136  1  0.21571556  0.14533260  0.22028542  1
  S2-  S137  1  0.17255630  0.11108825  0.63027513  1
  S2-  S138  1  0.25329568  0.30147236  0.15462382  1
  S2-  S139  1  0.16659317  0.39195164  0.64469954  1
  S2-  S140  1  0.24771155  0.51821643  0.13575969  1
  S2-  S141  1  0.19802402  0.64446112  0.65461967  1
  S2-  S142  1  0.24570209  0.96370519  0.15498097  1
  S2-  S143  1  0.25403574  0.87254542  0.64262272  1
  S2-  S144  1  0.39757726  0.12139356  0.17198498  1
  S2-  S145  1  0.49808829  0.07516174  0.64752983  1
  S2-  S146  1  0.50813992  0.28687885  0.15077330  1
  S2-  S147  1  0.60790203  0.38958679  0.64064464  1
  S2-  S148  1  0.49576935  0.49878945  0.14308637  1
  S2-  S149  1  0.42664055  0.60024465  0.65223904  1
  S2-  S150  1  0.50476419  0.94014487  0.15504860  1
  S2-  S151  1  0.51074695  0.83128685  0.65469750  1
  S2-  S152  1  0.66991972  0.12929590  0.14317297  1
  S2-  S153  1  0.72322794  0.20505739  0.65728512  1
  S2-  S154  1  0.72062864  0.37461275  0.16040196  1
  S2-  S155  1  0.83688664  0.39377976  0.65555618  1
  S2-  S156  1  0.80765305  0.60253708  0.14474109  1
  S2-  S157  1  0.72562808  0.59818871  0.65268378  1
  S2-  S158  1  0.76639542  0.89558907  0.16022965  1
  S2-  S159  1  0.75968423  0.98582139  0.64432813  1
  S2-  S160  1  0.14627631  0.04168708  0.31766321  1
  S2-  S161  1  0.13771291  -0.03096033  0.84691441  1
  S2-  S162  1  0.15233743  0.25281984  0.33700698  1
  S2-  S163  1  0.12534729  0.27556161  0.84182505  1
  S2-  S164  1  0.10410976  0.46417008  0.34683259  1
  S2-  S165  1  0.01132958  0.52558859  0.84921335  1
  S2-  S166  1  0.12064069  0.84183130  0.34701328  1
  S2-  S167  1  0.19245983  0.71918292  0.83799423  1
  S2-  S168  1  0.35635209  -0.01534331  0.32719395  1
  S2-  S169  1  0.38953451  -0.03365864  0.85324201  1
  S2-  S170  1  0.43729590  0.20485594  0.32961604  1
  S2-  S171  1  0.37275733  0.26030142  0.84495501  1
  S2-  S172  1  0.34542166  0.38816251  0.35418845  1
  S2-  S173  1  0.25484397  0.48786698  0.85456315  1
  S2-  S174  1  0.36242385  0.72052657  0.34385503  1
  S2-  S175  1  0.40606179  0.64273069  0.86064322  1
  S2-  S176  1  0.74419635  0.01323917  0.36301135  1
  S2-  S177  1  0.63972117  0.01222832  0.84012665  1
  S2-  S178  1  0.62579775  0.32513497  0.35132701  1
  S2-  S179  1  0.70604023  0.24296358  0.84852934  1
  S2-  S180  1  0.50740216  0.51168216  0.35713342  1
  S2-  S181  1  0.59765234  0.48890599  0.84396888  1
  S2-  S182  1  0.62672940  0.70422799  0.34510039  1
  S2-  S183  1  0.59901647  0.77769391  0.85618839  1
  S2-  S184  1  0.96428212  0.00265380  0.35101616  1
  S2-  S185  1  0.88271053  -0.00014583  0.84341274  1
  S2-  S186  1  0.86730831  0.24556478  0.35648422  1
  S2-  S187  1  0.92055607  0.21382975  0.81248853  1
  S2-  S188  1  0.76231542  0.49873370  0.35889640  1
  S2-  S189  1  0.84001278  0.40988157  0.84382995  1
  S2-  S190  1  0.86090428  0.78092850  0.34980743  1
  S2-  S191  1  0.98367836  0.76899754  0.85687932  1
  S2-  S192  1  0.00434518  0.12334774  0.45809843  1
  S2-  S193  1  -0.00541289  0.13758144  0.95155872  1
  S2-  S194  1  0.00113546  0.37068970  0.44982662  1
  S2-  S195  1  -0.00646687  0.37413656  0.94614540  1
  S2-  S196  1  0.00149307  0.62218033  0.44876360  1
  S2-  S197  1  -0.00145807  0.63566715  0.95276723  1
  S2-  S198  1  0.00262077  0.86558214  0.45241623  1
  S2-  S199  1  -0.00170518  0.88901649  0.95905362  1
  S2-  S200  1  0.25161708  0.12112877  0.44001023  1
  S2-  S201  1  0.25081875  0.12983259  0.94301167  1
  S2-  S202  1  0.24991098  0.37237635  0.45639663  1
  S2-  S203  1  0.24919118  0.37982538  0.95837404  1
  S2-  S204  1  0.25553061  0.61995969  0.45215839  1
  S2-  S205  1  0.24761952  0.63792087  0.95540390  1
  S2-  S206  1  0.25505657  0.87062531  0.44142089  1
  S2-  S207  1  0.25219333  0.88440529  0.95568797  1
  S2-  S208  1  0.50408122  0.12112311  0.44563093  1
  S2-  S209  1  0.50045449  0.13249327  0.94864304  1
  S2-  S210  1  0.50420015  0.36927356  0.45632267  1
  S2-  S211  1  0.49739942  0.38624920  0.95351763  1
  S2-  S212  1  0.50365927  0.62404966  0.45872895  1
  S2-  S213  1  0.50437806  0.63639608  0.96579591  1
  S2-  S214  1  0.50211364  0.87194217  0.45249704  1
  S2-  S215  1  0.49919006  0.88144586  0.95839091  1
  S2-  S216  1  0.75476768  0.12574389  0.46714592  1
  S2-  S217  1  0.74946572  0.13571399  0.95232278  1
  S2-  S218  1  0.75547500  0.36840063  0.46323381  1
  S2-  S219  1  0.74865606  0.38299831  0.95396368  1
  S2-  S220  1  0.75322133  0.62289592  0.45418662  1
  S2-  S221  1  0.75068027  0.63549849  0.94601665  1
  S2-  S222  1  0.75137557  0.87031134  0.46252755  1
  S2-  S223  1  0.74836744  0.88316131  0.95533564  1
  S2-  S224  1  0.12560348  0.00862661  0.04890877  1
  S2-  S225  1  0.13287785  -0.00769899  0.52876841  1
  S2-  S226  1  0.12811764  0.25768052  0.04733139  1
  S2-  S227  1  0.13159203  0.25128298  0.54243861  1
  S2-  S228  1  0.11972420  0.50923064  0.03669840  1
  S2-  S229  1  0.12766227  0.49965755  0.54534904  1
  S2-  S230  1  0.12272794  0.76152435  0.04325690  1
  S2-  S231  1  0.13244046  0.74313733  0.53637668  1
  S2-  S232  1  0.37827542  0.01066246  0.05173878  1
  S2-  S233  1  0.37473411  -0.00308823  0.53776222  1
  S2-  S234  1  0.37428078  0.25214091  0.05272007  1
  S2-  S235  1  0.37482433  0.24469069  0.53456667  1
  S2-  S236  1  0.37512071  0.51076855  0.03718990  1
  S2-  S237  1  0.37819822  0.49499299  0.54257421  1
  S2-  S238  1  0.37622606  0.75893993  0.04635082  1
  S2-  S239  1  0.37903281  0.74847457  0.54764788  1
  S2-  S240  1  0.62366995  0.00596045  0.04606990  1
  S2-  S241  1  0.62773444  -0.00154760  0.54219595  1
  S2-  S242  1  0.62718530  0.25989347  0.04101802  1
  S2-  S243  1  0.62640859  0.24138319  0.54653690  1
  S2-  S244  1  0.62926485  0.51168200  0.04858175  1
  S2-  S245  1  0.62844807  0.50019334  0.53827943  1
  S2-  S246  1  0.62488642  0.76021240  0.05635615  1
  S2-  S247  1  0.62998687  0.74682316  0.55132152  1
  S2-  S248  1  0.87392743  0.01028265  0.05212005  1
  S2-  S249  1  0.88525490  -0.00363405  0.54588374  1
  S2-  S250  1  0.87240939  0.25561522  0.05736264  1
  S2-  S251  1  0.88490160  0.25118899  0.55823075  1
  S2-  S252  1  0.87838750  0.50906512  0.03461597  1
  S2-  S253  1  0.87943807  0.49941471  0.54270878  1
  S2-  S254  1  0.87940403  0.76209896  0.04528058  1
  S2-  S255  1  0.87920768  0.74445695  0.55463003  1
