# generated using pymatgen
data_La6Ce6Pr19Nd20Sm13(BiS2)64
_symmetry_space_group_name_H-M   'P 1'
_cell_length_a   15.99543549
_cell_length_b   16.10162897
_cell_length_c   27.27665400
_cell_angle_alpha   89.45997593
_cell_angle_beta   89.58231634
_cell_angle_gamma   89.81738843
_symmetry_Int_Tables_number   1
_chemical_formula_structural   La6Ce6Pr19Nd20Sm13(BiS2)64
_chemical_formula_sum   'La6 Ce6 Pr19 Nd20 Sm13 Bi64 S128'
_cell_volume   7024.63940779
_cell_formula_units_Z   1
loop_
 _symmetry_equiv_pos_site_id
 _symmetry_equiv_pos_as_xyz
  1  'x, y, z'
loop_
 _atom_type_symbol
 _atom_type_oxidation_number
  La3+  3.0
  Ce3+  3.0
  Pr3+  3.0
  Nd3+  3.0
  Sm3+  3.0
  Bi2+  2.0
  S2-  -2.0
loop_
 _atom_site_type_symbol
 _atom_site_label
 _atom_site_symmetry_multiplicity
 _atom_site_fract_x
 _atom_site_fract_y
 _atom_site_fract_z
 _atom_site_occupancy
  La3+  La0  1  0.36328524  0.76261989  0.42001457  1
  La3+  La1  1  0.09196384  0.76030561  0.40939079  1
  La3+  La2  1  0.25671417  0.89608813  0.11598083  1
  La3+  La3  1  0.85343500  0.51281245  0.42656237  1
  La3+  La4  1  0.62391340  0.25254046  0.92807958  1
  La3+  La5  1  0.46767509  0.62533412  0.57016456  1
  Ce3+  Ce6  1  0.72191311  0.38205776  0.55366440  1
  Ce3+  Ce7  1  0.10566648  0.50956561  0.41947244  1
  Ce3+  Ce8  1  0.24452498  0.13137048  0.05827980  1
  Ce3+  Ce9  1  0.09986098  0.00451723  0.43881144  1
  Ce3+  Ce10  1  0.36750380  0.75538520  0.93425146  1
  Ce3+  Ce11  1  0.49376839  0.37783613  0.05555692  1
  Pr3+  Pr12  1  0.85012536  0.76763064  0.43931635  1
  Pr3+  Pr13  1  0.59830853  0.51146013  0.43136612  1
  Pr3+  Pr14  1  -0.01287967  0.37329879  0.08439541  1
  Pr3+  Pr15  1  0.73667887  0.37713594  0.06465026  1
  Pr3+  Pr16  1  0.59913131  0.25700942  0.43025169  1
  Pr3+  Pr17  1  0.36167276  0.50633934  0.92428774  1
  Pr3+  Pr18  1  0.87554607  0.75492109  0.93631874  1
  Pr3+  Pr19  1  -0.02493256  0.62729850  0.56095996  1
  Pr3+  Pr20  1  0.46965434  0.13270036  0.57118151  1
  Pr3+  Pr21  1  0.74425129  0.87522412  0.07043405  1
  Pr3+  Pr22  1  0.85350813  0.25470506  0.43392206  1
  Pr3+  Pr23  1  0.73779317  0.12761270  0.07283872  1
  Pr3+  Pr24  1  0.71870922  0.63033620  0.56892738  1
  Pr3+  Pr25  1  0.36834850  0.00075330  0.93132214  1
  Pr3+  Pr26  1  -0.01955763  0.13337480  0.57062583  1
  Pr3+  Pr27  1  0.37301972  0.25870912  0.89348797  1
  Pr3+  Pr28  1  0.46642842  0.37592516  0.56744851  1
  Pr3+  Pr29  1  0.22606641  0.63213088  0.54822847  1
  Pr3+  Pr30  1  0.72379277  0.13532869  0.56852500  1
  Nd3+  Nd31  1  0.47371708  0.87822537  0.57089011  1
  Nd3+  Nd32  1  -0.01158503  0.12917290  0.07326082  1
  Nd3+  Nd33  1  0.11852587  0.50167793  0.94313769  1
  Nd3+  Nd34  1  -0.00417946  0.86797788  0.08177288  1
  Nd3+  Nd35  1  0.12243285  0.25410687  0.93698791  1
  Nd3+  Nd36  1  0.60465809  0.76591117  0.44029455  1
  Nd3+  Nd37  1  -0.00968959  0.61945490  0.07498553  1
  Nd3+  Nd38  1  0.60069381  0.00740997  0.44611294  1
  Nd3+  Nd39  1  0.34886620  0.00907456  0.44259998  1
  Nd3+  Nd40  1  0.11919644  0.00343476  0.95192480  1
  Nd3+  Nd41  1  0.35263130  0.50854296  0.42795424  1
  Nd3+  Nd42  1  0.74248404  0.62777141  0.06011297  1
  Nd3+  Nd43  1  0.24460444  0.38052436  0.06280703  1
  Nd3+  Nd44  1  0.62851812  0.75639268  0.92443038  1
  Nd3+  Nd45  1  0.72578052  0.88129941  0.57894163  1
  Nd3+  Nd46  1  0.61703860  0.50500506  0.93288521  1
  Nd3+  Nd47  1  0.24356262  0.62886265  0.06788985  1
  Nd3+  Nd48  1  0.62307003  0.00415980  0.94020540  1
  Nd3+  Nd49  1  0.48932716  0.63060570  0.05489052  1
  Nd3+  Nd50  1  0.11637196  0.75371802  0.94665798  1
  Sm3+  Sm51  1  0.86843469  0.25364232  0.94066587  1
  Sm3+  Sm52  1  0.49400387  0.12637943  0.05586796  1
  Sm3+  Sm53  1  0.85382007  0.00795262  0.45400036  1
  Sm3+  Sm54  1  0.22343049  0.12968829  0.56346252  1
  Sm3+  Sm55  1  -0.02487261  0.38263834  0.55366884  1
  Sm3+  Sm56  1  0.22262507  0.38059094  0.55183314  1
  Sm3+  Sm57  1  0.34936966  0.25703229  0.43241916  1
  Sm3+  Sm58  1  0.10152614  0.25669710  0.43055069  1
  Sm3+  Sm59  1  -0.02166003  0.87569167  0.57033646  1
  Sm3+  Sm60  1  0.48999171  0.87621886  0.05455372  1
  Sm3+  Sm61  1  0.86987540  0.50416234  0.94454831  1
  Sm3+  Sm62  1  0.87087780  0.00413333  0.95058162  1
  Sm3+  Sm63  1  0.22481965  0.87613675  0.56049509  1
  Bi2+  Bi64  1  -0.08513924  0.07778829  0.31212075  1
  Bi2+  Bi65  1  -0.03394016  0.16804113  0.78471495  1
  Bi2+  Bi66  1  0.02768030  0.34290566  0.28867130  1
  Bi2+  Bi67  1  0.04585929  0.33615412  0.81635623  1
  Bi2+  Bi68  1  -0.01958278  0.61591850  0.28552922  1
  Bi2+  Bi69  1  0.05787439  0.54479757  0.81210021  1
  Bi2+  Bi70  1  0.02110631  0.94575954  0.25636254  1
  Bi2+  Bi71  1  0.01438597  0.90324469  0.80601795  1
  Bi2+  Bi72  1  0.23986773  0.10611008  0.30831566  1
  Bi2+  Bi73  1  0.17117292  0.13209725  0.79007376  1
  Bi2+  Bi74  1  0.28835455  0.33186380  0.27144993  1
  Bi2+  Bi75  1  0.19562081  0.36389234  0.72416173  1
  Bi2+  Bi76  1  0.34248141  0.56512056  0.28987956  1
  Bi2+  Bi77  1  0.23673560  0.64223072  0.78892624  1
  Bi2+  Bi78  1  0.25482232  0.90357317  0.31761273  1
  Bi2+  Bi79  1  0.25445459  0.84290248  0.78264162  1
  Bi2+  Bi80  1  0.52236701  0.12325043  0.29246785  1
  Bi2+  Bi81  1  0.51157342  0.09851067  0.79898909  1
  Bi2+  Bi82  1  0.53586160  0.33588805  0.27729720  1
  Bi2+  Bi83  1  0.46357914  0.33872692  0.76051640  1
  Bi2+  Bi84  1  0.55925429  0.61859792  0.28667613  1
  Bi2+  Bi85  1  0.49473720  0.58569945  0.79734428  1
  Bi2+  Bi86  1  0.53014178  0.87364362  0.29303216  1
  Bi2+  Bi87  1  0.48255279  0.85506347  0.77675420  1
  Bi2+  Bi88  1  0.71608058  0.10040843  0.30452410  1
  Bi2+  Bi89  1  0.76475981  0.08587571  0.80523876  1
  Bi2+  Bi90  1  0.74688283  0.37067018  0.28169639  1
  Bi2+  Bi91  1  0.77955470  0.29926014  0.76316354  1
  Bi2+  Bi92  1  0.75901726  0.64937366  0.30400929  1
  Bi2+  Bi93  1  0.73236630  0.63378280  0.80537974  1
  Bi2+  Bi94  1  0.76126914  0.84532104  0.30119893  1
  Bi2+  Bi95  1  0.81778699  0.85672689  0.74545127  1
  Bi2+  Bi96  1  0.08274316  0.13119212  0.24336643  1
  Bi2+  Bi97  1  0.14325921  0.00712474  0.70433451  1
  Bi2+  Bi98  1  0.21231933  0.25568982  0.17407585  1
  Bi2+  Bi99  1  0.02440133  0.27938264  0.68690049  1
  Bi2+  Bi100  1  0.14640795  0.43359884  0.21744206  1
  Bi2+  Bi101  1  0.08886764  0.52554615  0.69452744  1
  Bi2+  Bi102  1  0.13169182  0.76658154  0.22377415  1
  Bi2+  Bi103  1  0.13893922  0.74473646  0.70562633  1
  Bi2+  Bi104  1  0.37271706  0.11909739  0.22109411  1
  Bi2+  Bi105  1  0.34544357  -0.01021211  0.71286566  1
  Bi2+  Bi106  1  0.41030663  0.30480290  0.17851890  1
  Bi2+  Bi107  1  0.32753888  0.21094889  0.73040992  1
  Bi2+  Bi108  1  0.40725510  0.50106966  0.18703291  1
  Bi2+  Bi109  1  0.35235557  0.50084359  0.70368417  1
  Bi2+  Bi110  1  0.38298050  0.75563222  0.21604506  1
  Bi2+  Bi111  1  0.38223342  0.74251011  0.70836475  1
  Bi2+  Bi112  1  0.59238742  -0.06694138  0.18704821  1
  Bi2+  Bi113  1  0.54638536  0.00546873  0.70370955  1
  Bi2+  Bi114  1  0.65263521  0.21214694  0.21505745  1
  Bi2+  Bi115  1  0.63268109  0.22750956  0.69930724  1
  Bi2+  Bi116  1  0.62302084  0.48006097  0.21335823  1
  Bi2+  Bi117  1  0.64638749  0.50336291  0.69518671  1
  Bi2+  Bi118  1  0.65355295  0.75288707  0.21307757  1
  Bi2+  Bi119  1  0.68397736  0.73911796  0.70223745  1
  Bi2+  Bi120  1  0.77317113  -0.00398362  0.21038306  1
  Bi2+  Bi121  1  0.94242110  0.00141250  0.70833985  1
  Bi2+  Bi122  1  0.89842896  0.23430993  0.21756322  1
  Bi2+  Bi123  1  0.85178903  0.17431529  0.67991433  1
  Bi2+  Bi124  1  0.86970121  0.47782160  0.21381036  1
  Bi2+  Bi125  1  0.90629357  0.44698634  0.76412409  1
  Bi2+  Bi126  1  0.86400221  0.73948818  0.20485100  1
  Bi2+  Bi127  1  0.96487298  0.72677864  0.76069789  1
  S2-  S128  1  0.02908745  0.23956917  0.14987741  1
  S2-  S129  1  0.10992813  0.14165790  0.64080434  1
  S2-  S130  1  0.01040859  0.49582088  0.15606586  1
  S2-  S131  1  -0.03425249  0.43564396  0.64811852  1
  S2-  S132  1  0.01129341  0.71365689  0.15980785  1
  S2-  S133  1  0.00027380  0.66511337  0.65960181  1
  S2-  S134  1  0.09168192  0.90440039  0.16494531  1
  S2-  S135  1  0.10851340  0.87761101  0.63890754  1
  S2-  S136  1  0.26463277  0.06784717  0.14885027  1
  S2-  S137  1  0.33452720  0.12626302  0.64270507  1
  S2-  S138  1  0.25107075  0.49833586  0.14003632  1
  S2-  S139  1  0.30181330  0.37499780  0.63928051  1
  S2-  S140  1  0.25100724  0.72437253  0.15442357  1
  S2-  S141  1  0.31999781  0.62842401  0.63710901  1
  S2-  S142  1  0.27503128  0.88571347  0.22354945  1
  S2-  S143  1  0.34073860  0.86650961  0.63960602  1
  S2-  S144  1  0.59410525  0.12597710  0.13825088  1
  S2-  S145  1  0.50500204  0.25423438  0.64393421  1
  S2-  S146  1  0.60204199  0.38119452  0.13488003  1
  S2-  S147  1  0.48971036  0.48021045  0.64951286  1
  S2-  S148  1  0.48051342  0.64634195  0.15520466  1
  S2-  S149  1  0.58544899  0.64766049  0.64762603  1
  S2-  S150  1  0.43380646  0.88130521  0.14775944  1
  S2-  S151  1  0.59472737  0.86866932  0.64876776  1
  S2-  S152  1  0.85735313  0.11456673  0.14969779  1
  S2-  S153  1  0.70109742  0.07079132  0.66317366  1
  S2-  S154  1  0.83834322  0.35589774  0.14785194  1
  S2-  S155  1  0.71588270  0.37489506  0.65286456  1
  S2-  S156  1  0.79036179  0.60158471  0.15479676  1
  S2-  S157  1  0.77728272  0.60315793  0.66623798  1
  S2-  S158  1  0.85730117  0.87790230  0.14872074  1
  S2-  S159  1  0.85970968  0.87204946  0.64775065  1
  S2-  S160  1  0.08783943  -0.08690290  0.35367049  1
  S2-  S161  1  0.13260387  -0.00164841  0.85113535  1
  S2-  S162  1  0.22999101  0.25492377  0.35717586  1
  S2-  S163  1  0.21009572  0.26719206  0.85033535  1
  S2-  S164  1  0.23558313  0.49460890  0.34943463  1
  S2-  S165  1  0.20967528  0.50839256  0.85699514  1
  S2-  S166  1  0.11787401  0.67750154  0.31771952  1
  S2-  S167  1  0.00985135  0.75967173  0.86453106  1
  S2-  S168  1  0.40590788  -0.05348802  0.35483193  1
  S2-  S169  1  0.37339801  -0.12601366  0.85540350  1
  S2-  S170  1  0.46957366  0.24918894  0.35829579  1
  S2-  S171  1  0.36896905  0.10079914  0.84547372  1
  S2-  S172  1  0.47589309  0.50820343  0.35336925  1
  S2-  S173  1  0.39443869  0.40930113  0.83552619  1
  S2-  S174  1  0.31847194  0.73758407  0.31832768  1
  S2-  S175  1  0.37301936  0.64475146  0.85686487  1
  S2-  S176  1  0.63326703  -0.09896701  0.36769546  1
  S2-  S177  1  0.64073939  -0.01063115  0.84075599  1
  S2-  S178  1  0.73235752  0.25412379  0.35750959  1
  S2-  S179  1  0.53083291  0.25229060  0.84153903  1
  S2-  S180  1  0.72486358  0.50578559  0.35368815  1
  S2-  S181  1  0.62765235  0.49628753  0.83186326  1
  S2-  S182  1  0.51210648  0.73664953  0.35564994  1
  S2-  S183  1  0.57084367  0.72412951  0.82808545  1
  S2-  S184  1  0.85558725  -0.06731370  0.36619075  1
  S2-  S185  1  0.87383702  -0.00736600  0.85139411  1
  S2-  S186  1  0.97834779  0.23593866  0.35812795  1
  S2-  S187  1  0.76484622  0.24160981  0.86029415  1
  S2-  S188  1  0.97763463  0.48387307  0.34948153  1
  S2-  S189  1  0.85593988  0.54069384  0.84712437  1
  S2-  S190  1  0.93006531  0.72967698  0.35165912  1
  S2-  S191  1  0.76623038  0.76745254  0.85701107  1
  S2-  S192  1  -0.02150111  0.12907456  0.46222241  1
  S2-  S193  1  -0.00770760  0.13102069  0.95665062  1
  S2-  S194  1  -0.02043099  0.38125222  0.45227389  1
  S2-  S195  1  -0.00982118  0.37776488  0.95138361  1
  S2-  S196  1  -0.01961889  0.63266388  0.45355314  1
  S2-  S197  1  -0.00753692  0.62255232  0.96298373  1
  S2-  S198  1  -0.02186521  0.88271885  0.46524293  1
  S2-  S199  1  -0.00676823  0.88202300  0.96820072  1
  S2-  S200  1  0.22263452  0.13071128  0.45720001  1
  S2-  S201  1  0.24518555  0.12945260  0.95333255  1
  S2-  S202  1  0.22438425  0.38192984  0.45088127  1
  S2-  S203  1  0.24751832  0.37485305  0.95715685  1
  S2-  S204  1  0.22624505  0.63993025  0.44275870  1
  S2-  S205  1  0.23965155  0.63018077  0.96063941  1
  S2-  S206  1  0.22603144  0.87971148  0.45181943  1
  S2-  S207  1  0.23839864  0.87700095  0.95159872  1
  S2-  S208  1  0.47374162  0.12904793  0.45928001  1
  S2-  S209  1  0.49503228  0.12722503  0.95236525  1
  S2-  S210  1  0.47325787  0.37967079  0.45607179  1
  S2-  S211  1  0.49338843  0.37887800  0.94883644  1
  S2-  S212  1  0.47608995  0.63393481  0.45904307  1
  S2-  S213  1  0.50246175  0.63461237  0.95048039  1
  S2-  S214  1  0.47685816  0.88640574  0.46455223  1
  S2-  S215  1  0.50277996  0.87572921  0.95067521  1
  S2-  S216  1  0.72833406  0.12814617  0.46008377  1
  S2-  S217  1  0.74730267  0.12501044  0.96272369  1
  S2-  S218  1  0.72777580  0.38286577  0.45172063  1
  S2-  S219  1  0.74626537  0.38271616  0.95408045  1
  S2-  S220  1  0.72686998  0.63864489  0.45577443  1
  S2-  S221  1  0.74419502  0.62747166  0.95494387  1
  S2-  S222  1  0.72934998  0.88797840  0.47319559  1
  S2-  S223  1  0.74675753  0.88043575  0.96175097  1
  S2-  S224  1  0.11630483  0.00698993  0.05634233  1
  S2-  S225  1  0.10095057  0.00463405  0.54293980  1
  S2-  S226  1  0.11682223  0.25555693  0.04224830  1
  S2-  S227  1  0.10013472  0.25997983  0.53749945  1
  S2-  S228  1  0.11380625  0.49734123  0.04665193  1
  S2-  S229  1  0.10135656  0.50440689  0.53812990  1
  S2-  S230  1  0.11420792  0.74682163  0.05037658  1
  S2-  S231  1  0.09931072  0.75382863  0.54130497  1
  S2-  S232  1  0.37073804  0.00354015  0.04228330  1
  S2-  S233  1  0.34618234  0.00488459  0.54552787  1
  S2-  S234  1  0.37247445  0.25179086  0.05246725  1
  S2-  S235  1  0.34316916  0.25282264  0.53716155  1
  S2-  S236  1  0.37094718  0.50379616  0.03722795  1
  S2-  S237  1  0.34603499  0.50134316  0.53429050  1
  S2-  S238  1  0.36686080  0.75611202  0.04285261  1
  S2-  S239  1  0.34989001  0.75761121  0.53465051  1
  S2-  S240  1  0.61788943  -0.00292703  0.04494474  1
  S2-  S241  1  0.59782090  0.01022285  0.55073393  1
  S2-  S242  1  0.61665025  0.25101852  0.03607720  1
  S2-  S243  1  0.60102331  0.25548679  0.53810769  1
  S2-  S244  1  0.61708083  0.50901117  0.03976689  1
  S2-  S245  1  0.59957137  0.50431466  0.53987989  1
  S2-  S246  1  0.61788181  0.75375365  0.04880714  1
  S2-  S247  1  0.59967340  0.75797404  0.54479567  1
  S2-  S248  1  0.86974162  0.00221609  0.05152490  1
  S2-  S249  1  0.85348468  0.00994969  0.55625993  1
  S2-  S250  1  0.86625251  0.25210565  0.04306141  1
  S2-  S251  1  0.85294331  0.25823987  0.54513184  1
  S2-  S252  1  0.86601284  0.49929945  0.04733193  1
  S2-  S253  1  0.84917440  0.50559774  0.53975555  1
  S2-  S254  1  0.86917212  0.74832692  0.04670364  1
  S2-  S255  1  0.84953537  0.75255543  0.54796212  1
