# generated using pymatgen
data_La6Ce6Pr19Nd20Sm13(BiS2)64
_symmetry_space_group_name_H-M   'P 1'
_cell_length_a   16.13062018
_cell_length_b   16.10591011
_cell_length_c   27.33686121
_cell_angle_alpha   90.25486891
_cell_angle_beta   89.88753812
_cell_angle_gamma   90.17807869
_symmetry_Int_Tables_number   1
_chemical_formula_structural   La6Ce6Pr19Nd20Sm13(BiS2)64
_chemical_formula_sum   'La6 Ce6 Pr19 Nd20 Sm13 Bi64 S128'
_cell_volume   7101.95252079
_cell_formula_units_Z   1
loop_
 _symmetry_equiv_pos_site_id
 _symmetry_equiv_pos_as_xyz
  1  'x, y, z'
loop_
 _atom_type_symbol
 _atom_type_oxidation_number
  La3+  3.0
  Ce3+  3.0
  Pr3+  3.0
  Nd3+  3.0
  Sm3+  3.0
  Bi2+  2.0
  S2-  -2.0
loop_
 _atom_site_type_symbol
 _atom_site_label
 _atom_site_symmetry_multiplicity
 _atom_site_fract_x
 _atom_site_fract_y
 _atom_site_fract_z
 _atom_site_occupancy
  La3+  La0  1  0.87840946  0.02222118  0.90763250  1
  La3+  La1  1  0.26010741  0.39822899  0.07485548  1
  La3+  La2  1  0.12054275  0.25082608  0.38616515  1
  La3+  La3  1  0.13884806  0.51632476  0.93436441  1
  La3+  La4  1  0.14127642  0.76188550  0.92622794  1
  La3+  La5  1  0.00502272  0.65383353  0.08201488  1
  Ce3+  Ce6  1  0.38568440  0.01505186  0.94661957  1
  Ce3+  Ce7  1  0.88372623  0.75597075  0.92195332  1
  Ce3+  Ce8  1  0.24237292  0.86713869  0.56520365  1
  Ce3+  Ce9  1  0.13723294  0.26258871  0.94120381  1
  Ce3+  Ce10  1  0.88674906  0.51707364  0.94193868  1
  Ce3+  Ce11  1  0.25665182  0.14166063  0.06610316  1
  Pr3+  Pr12  1  0.36591473  0.48596327  0.42993970  1
  Pr3+  Pr13  1  0.76275373  0.38794614  0.06443173  1
  Pr3+  Pr14  1  0.62253158  0.49022214  0.43167911  1
  Pr3+  Pr15  1  0.00529426  0.12080531  0.56870786  1
  Pr3+  Pr16  1  0.87341375  -0.00858788  0.45079042  1
  Pr3+  Pr17  1  0.87456706  0.24206189  0.44116950  1
  Pr3+  Pr18  1  0.74415377  0.36536503  0.56135671  1
  Pr3+  Pr19  1  -0.00740269  0.86579058  0.58013308  1
  Pr3+  Pr20  1  0.00113433  0.61203333  0.58105060  1
  Pr3+  Pr21  1  0.38583996  0.26437477  0.94949555  1
  Pr3+  Pr22  1  0.50951800  0.13690750  0.07489885  1
  Pr3+  Pr23  1  0.62576151  -0.01308636  0.43453802  1
  Pr3+  Pr24  1  0.62157016  0.74110947  0.43067246  1
  Pr3+  Pr25  1  0.36653411  0.74154366  0.43787301  1
  Pr3+  Pr26  1  0.37535944  0.23090397  0.42139408  1
  Pr3+  Pr27  1  0.88580106  0.26065899  0.94467606  1
  Pr3+  Pr28  1  0.74189621  0.61858334  0.56504329  1
  Pr3+  Pr29  1  0.36881680  -0.00990779  0.44292148  1
  Pr3+  Pr30  1  0.51271026  0.89009584  0.05958525  1
  Nd3+  Nd31  1  0.74897753  0.12524564  0.56950622  1
  Nd3+  Nd32  1  0.49618915  0.86774906  0.56140559  1
  Nd3+  Nd33  1  0.76590651  0.12674639  0.07284202  1
  Nd3+  Nd34  1  0.87416387  0.74071810  0.45145060  1
  Nd3+  Nd35  1  0.11521955  0.73968648  0.43827395  1
  Nd3+  Nd36  1  0.14454732  0.01311138  0.92865682  1
  Nd3+  Nd37  1  0.63519241  0.76716603  0.93445530  1
  Nd3+  Nd38  1  0.24746035  0.61711148  0.55869566  1
  Nd3+  Nd39  1  0.24549346  0.12107204  0.56051737  1
  Nd3+  Nd40  1  0.76193895  0.64283233  0.06132573  1
  Nd3+  Nd41  1  0.49444245  0.36640282  0.55263030  1
  Nd3+  Nd42  1  0.26053107  0.64257243  0.06743726  1
  Nd3+  Nd43  1  0.49726905  0.12062803  0.55706192  1
  Nd3+  Nd44  1  0.38621529  0.51053124  0.93651865  1
  Nd3+  Nd45  1  0.51065910  0.39252880  0.06862539  1
  Nd3+  Nd46  1  0.63798475  0.51461253  0.94360854  1
  Nd3+  Nd47  1  0.63116343  0.02680799  0.93170526  1
  Nd3+  Nd48  1  0.00834099  0.88841563  0.04141278  1
  Nd3+  Nd49  1  0.73864007  0.87465410  0.57965675  1
  Nd3+  Nd50  1  0.11937621  -0.00536439  0.43959799  1
  Sm3+  Sm51  1  0.01033873  0.13444041  0.05208978  1
  Sm3+  Sm52  1  0.38667641  0.76487698  0.93868561  1
  Sm3+  Sm53  1  0.76192189  0.89075795  0.04728235  1
  Sm3+  Sm54  1  0.24581632  0.36823982  0.54580388  1
  Sm3+  Sm55  1  0.51074700  0.64078449  0.05122179  1
  Sm3+  Sm56  1  0.25690484  0.88494410  0.06215847  1
  Sm3+  Sm57  1  0.00124239  0.37163414  0.55788567  1
  Sm3+  Sm58  1  0.62112726  0.23279989  0.42496908  1
  Sm3+  Sm59  1  0.63579510  0.26399246  0.95368402  1
  Sm3+  Sm60  1  0.87393554  0.49225393  0.44757716  1
  Sm3+  Sm61  1  0.01162852  0.39071415  0.05745147  1
  Sm3+  Sm62  1  0.11478436  0.49729572  0.43025187  1
  Sm3+  Sm63  1  0.49601220  0.61701452  0.55139208  1
  Bi2+  Bi64  1  -0.02584993  0.08864516  0.29340211  1
  Bi2+  Bi65  1  0.01592803  0.14519213  0.79656883  1
  Bi2+  Bi66  1  -0.01025058  0.35586926  0.27782592  1
  Bi2+  Bi67  1  0.00030157  0.37356212  0.74112321  1
  Bi2+  Bi68  1  -0.00297043  0.62104431  0.29708296  1
  Bi2+  Bi69  1  -0.02361163  0.63719707  0.78559346  1
  Bi2+  Bi70  1  0.01046346  0.86786122  0.31122832  1
  Bi2+  Bi71  1  0.02292569  0.88768766  0.77700316  1
  Bi2+  Bi72  1  0.25907763  0.10041979  0.29174518  1
  Bi2+  Bi73  1  0.28815896  0.18012389  0.77245238  1
  Bi2+  Bi74  1  0.26161022  0.39990644  0.28241803  1
  Bi2+  Bi75  1  0.25966453  0.37530168  0.78839216  1
  Bi2+  Bi76  1  0.25876736  0.69185212  0.29420626  1
  Bi2+  Bi77  1  0.21153886  0.62622680  0.80395861  1
  Bi2+  Bi78  1  0.20427531  0.86441598  0.33885887  1
  Bi2+  Bi79  1  0.28207348  0.90021161  0.79483916  1
  Bi2+  Bi80  1  0.51571990  0.12984698  0.29017681  1
  Bi2+  Bi81  1  0.46036142  0.03814596  0.81945931  1
  Bi2+  Bi82  1  0.57311161  0.41772169  0.30487483  1
  Bi2+  Bi83  1  0.47281037  0.40255291  0.80662739  1
  Bi2+  Bi84  1  0.54930991  0.66919973  0.24164197  1
  Bi2+  Bi85  1  0.44361603  0.59134812  0.78115678  1
  Bi2+  Bi86  1  0.49688172  0.86504396  0.28965305  1
  Bi2+  Bi87  1  0.48544982  0.84898507  0.83057087  1
  Bi2+  Bi88  1  0.73805123  0.14317118  0.27021700  1
  Bi2+  Bi89  1  0.73041098  0.15149236  0.79417749  1
  Bi2+  Bi90  1  0.73857151  0.32683592  0.32289066  1
  Bi2+  Bi91  1  0.73635131  0.35295657  0.79388770  1
  Bi2+  Bi92  1  0.73645080  0.64102877  0.28626764  1
  Bi2+  Bi93  1  0.72110735  0.58199686  0.79104892  1
  Bi2+  Bi94  1  0.74695206  0.84759334  0.28243558  1
  Bi2+  Bi95  1  0.67179803  0.86604044  0.79383216  1
  Bi2+  Bi96  1  0.12779406  -0.05625138  0.23364031  1
  Bi2+  Bi97  1  0.20584454  0.00204332  0.70396706  1
  Bi2+  Bi98  1  0.11400604  0.19171023  0.18140940  1
  Bi2+  Bi99  1  0.15060899  0.26762044  0.70573769  1
  Bi2+  Bi100  1  0.13438490  0.46047552  0.20176066  1
  Bi2+  Bi101  1  0.13154881  0.49837270  0.70188617  1
  Bi2+  Bi102  1  0.12657927  0.74587957  0.21267053  1
  Bi2+  Bi103  1  0.14796727  0.75419833  0.69202111  1
  Bi2+  Bi104  1  0.32559860  -0.06579907  0.24834345  1
  Bi2+  Bi105  1  0.40272734  0.02344758  0.70832150  1
  Bi2+  Bi106  1  0.37545945  0.22607949  0.19609613  1
  Bi2+  Bi107  1  0.40163648  0.22114341  0.68433980  1
  Bi2+  Bi108  1  0.39214943  0.51009874  0.21265106  1
  Bi2+  Bi109  1  0.37159175  0.45405118  0.70555259  1
  Bi2+  Bi110  1  0.37940701  0.75487457  0.20423242  1
  Bi2+  Bi111  1  0.38641958  0.76621698  0.73822077  1
  Bi2+  Bi112  1  0.62499265  -0.07277957  0.20617886  1
  Bi2+  Bi113  1  0.59737843  -0.01090056  0.71576004  1
  Bi2+  Bi114  1  0.62729974  0.29472552  0.22298579  1
  Bi2+  Bi115  1  0.57111124  0.24972267  0.76638595  1
  Bi2+  Bi116  1  0.64280416  0.49374242  0.20385782  1
  Bi2+  Bi117  1  0.59628133  0.53531467  0.69882528  1
  Bi2+  Bi118  1  0.70564283  0.73167015  0.17915329  1
  Bi2+  Bi119  1  0.57199040  0.72977255  0.70627382  1
  Bi2+  Bi120  1  0.84530469  -0.01858410  0.21766029  1
  Bi2+  Bi121  1  0.85190880  0.00046547  0.70633833  1
  Bi2+  Bi122  1  0.88805718  0.20471950  0.20839305  1
  Bi2+  Bi123  1  0.85691861  0.25658686  0.70880782  1
  Bi2+  Bi124  1  0.82972495  0.47097816  0.25966838  1
  Bi2+  Bi125  1  0.75010011  0.42084131  0.68730852  1
  Bi2+  Bi126  1  0.89382210  0.78927831  0.20171083  1
  Bi2+  Bi127  1  0.80042724  0.76220081  0.73001915  1
  S2-  S128  1  -0.02257455  0.09574413  0.14572503  1
  S2-  S129  1  -0.07631598  0.12176744  0.65896971  1
  S2-  S130  1  0.01784745  0.37356566  0.15514322  1
  S2-  S131  1  0.00064624  0.46536170  0.64291671  1
  S2-  S132  1  0.05864766  0.60019014  0.17727779  1
  S2-  S133  1  0.00631795  0.68306054  0.67629282  1
  S2-  S134  1  0.01472942  0.81818267  0.13314638  1
  S2-  S135  1  0.06662983  0.91026534  0.67159055  1
  S2-  S136  1  0.26430561  0.10215234  0.16147440  1
  S2-  S137  1  0.14398443  0.12257039  0.64302260  1
  S2-  S138  1  0.23347967  0.30691351  0.15990113  1
  S2-  S139  1  0.23834149  0.38623781  0.64492599  1
  S2-  S140  1  0.26807774  0.53081282  0.14668651  1
  S2-  S141  1  0.22679406  0.62015671  0.65771781  1
  S2-  S142  1  0.25188281  0.77209067  0.13670601  1
  S2-  S143  1  0.29490063  0.84139345  0.65644951  1
  S2-  S144  1  0.49593357  0.12552880  0.17647845  1
  S2-  S145  1  0.53534047  0.11844604  0.65366141  1
  S2-  S146  1  0.43816985  0.38334344  0.15973121  1
  S2-  S147  1  0.48820314  0.36184728  0.65185528  1
  S2-  S148  1  0.47482508  0.62635969  0.14683683  1
  S2-  S149  1  0.47000676  0.61691236  0.64756506  1
  S2-  S150  1  0.48443420  0.87909328  0.15753745  1
  S2-  S151  1  0.59492229  0.85655217  0.64283077  1
  S2-  S152  1  0.73086546  0.19574552  0.16327634  1
  S2-  S153  1  0.72654546  0.01738899  0.64744547  1
  S2-  S154  1  0.77764484  0.42329518  0.16163650  1
  S2-  S155  1  0.72497299  0.25475791  0.63874564  1
  S2-  S156  1  0.85792395  0.64906678  0.14316000  1
  S2-  S157  1  0.74937004  0.65435093  0.66446226  1
  S2-  S158  1  0.75139500  0.97877187  0.13327333  1
  S2-  S159  1  0.86000573  0.85595355  0.65288436  1
  S2-  S160  1  0.12011451  0.08143843  0.35269673  1
  S2-  S161  1  0.09970477  0.00814873  0.83057590  1
  S2-  S162  1  0.11139562  0.24350525  0.27047728  1
  S2-  S163  1  0.10687602  0.25128278  0.84512179  1
  S2-  S164  1  0.11741798  0.41302828  0.34260406  1
  S2-  S165  1  0.06879657  0.53711927  0.83650057  1
  S2-  S166  1  0.12252728  0.62669608  0.35837169  1
  S2-  S167  1  0.09134609  0.74879822  0.82637331  1
  S2-  S168  1  0.38962640  0.06833897  0.35351123  1
  S2-  S169  1  0.29286603  0.02095427  0.86428200  1
  S2-  S170  1  0.28019661  0.25340763  0.33807662  1
  S2-  S171  1  0.36909411  0.27619169  0.84999026  1
  S2-  S172  1  0.36955140  0.49627010  0.32786401  1
  S2-  S173  1  0.27122302  0.50499213  0.86155381  1
  S2-  S174  1  0.40750710  0.73669793  0.34049315  1
  S2-  S175  1  0.28406294  0.75108200  0.86056253  1
  S2-  S176  1  0.64042626  0.09899260  0.35560052  1
  S2-  S177  1  0.72531383  0.00741247  0.84973114  1
  S2-  S178  1  0.50388062  0.25905062  0.34827451  1
  S2-  S179  1  0.61089863  0.19069685  0.86654935  1
  S2-  S180  1  0.62575933  0.61324908  0.35886454  1
  S2-  S181  1  0.62815737  0.46517973  0.84896625  1
  S2-  S182  1  0.62603717  0.86553413  0.35838196  1
  S2-  S183  1  0.66076080  0.70389916  0.84212185  1
  S2-  S184  1  0.89153695  -0.01422135  0.34972967  1
  S2-  S185  1  0.91396831  -0.00425816  0.80608547  1
  S2-  S186  1  0.95066707  0.24097678  0.35096142  1
  S2-  S187  1  0.87895143  0.18516908  0.85489932  1
  S2-  S188  1  0.91709917  0.51439176  0.35300343  1
  S2-  S189  1  0.86089858  0.57841220  0.85163834  1
  S2-  S190  1  0.92827782  0.73813586  0.35505262  1
  S2-  S191  1  0.89006745  0.78352100  0.82309242  1
  S2-  S192  1  -0.00236840  0.11749548  0.46063073  1
  S2-  S193  1  0.01462245  0.13312723  0.94933893  1
  S2-  S194  1  -0.00153149  0.37099111  0.45444362  1
  S2-  S195  1  0.01005990  0.38852635  0.95098667  1
  S2-  S196  1  -0.00409681  0.61535046  0.46686859  1
  S2-  S197  1  0.00983858  0.64150249  0.95023866  1
  S2-  S198  1  -0.00136046  0.86581754  0.46443357  1
  S2-  S199  1  0.00995972  0.89092861  0.93643690  1
  S2-  S200  1  0.24578951  0.11614749  0.45573839  1
  S2-  S201  1  0.25952979  0.14131163  0.96004476  1
  S2-  S202  1  0.23920390  0.36506587  0.44389460  1
  S2-  S203  1  0.26005813  0.38730558  0.96354974  1
  S2-  S204  1  0.24630629  0.61519953  0.45306518  1
  S2-  S205  1  0.26836034  0.63732452  0.96189107  1
  S2-  S206  1  0.24259058  0.86555889  0.45998600  1
  S2-  S207  1  0.26420559  0.88799339  0.95945767  1
  S2-  S208  1  0.49966505  0.11251023  0.45392624  1
  S2-  S209  1  0.50796555  0.14134466  0.96773661  1
  S2-  S210  1  0.49560397  0.36667930  0.44817232  1
  S2-  S211  1  0.51342028  0.38877992  0.96073198  1
  S2-  S212  1  0.48967596  0.61254692  0.44928598  1
  S2-  S213  1  0.50987330  0.63823964  0.94592846  1
  S2-  S214  1  0.49269864  0.86486417  0.45579414  1
  S2-  S215  1  0.51230313  0.89192196  0.95353204  1
  S2-  S216  1  0.74970362  0.11909958  0.45999965  1
  S2-  S217  1  0.75802003  0.14049631  0.96351789  1
  S2-  S218  1  0.74799422  0.36854563  0.45427959  1
  S2-  S219  1  0.76057213  0.38733787  0.95632537  1
  S2-  S220  1  0.75129724  0.61387628  0.45787618  1
  S2-  S221  1  0.75754253  0.64001449  0.95595010  1
  S2-  S222  1  0.75073080  0.86295631  0.46258687  1
  S2-  S223  1  0.76052302  0.88865740  0.94491253  1
  S2-  S224  1  0.13615188  0.01021091  0.04380812  1
  S2-  S225  1  0.12203457  -0.01015784  0.54630595  1
  S2-  S226  1  0.13040701  0.26338807  0.04690675  1
  S2-  S227  1  0.12244805  0.25195898  0.54773287  1
  S2-  S228  1  0.12765062  0.51983709  0.04653383  1
  S2-  S229  1  0.12530245  0.49387167  0.53906792  1
  S2-  S230  1  0.13470311  0.76424064  0.03463669  1
  S2-  S231  1  0.11955507  0.74036731  0.54980095  1
  S2-  S232  1  0.38198578  0.01082791  0.05406298  1
  S2-  S233  1  0.37089666  -0.00586417  0.55144208  1
  S2-  S234  1  0.38692099  0.26424740  0.05525571  1
  S2-  S235  1  0.36908170  0.24325583  0.53792320  1
  S2-  S236  1  0.39147854  0.51558824  0.04170731  1
  S2-  S237  1  0.37113428  0.49270239  0.53938505  1
  S2-  S238  1  0.38946173  0.76474872  0.04201261  1
  S2-  S239  1  0.37284852  0.74200726  0.54568725  1
  S2-  S240  1  0.63275034  0.01630431  0.04016038  1
  S2-  S241  1  0.61861408  -0.00489647  0.54135752  1
  S2-  S242  1  0.63377426  0.26394931  0.05714412  1
  S2-  S243  1  0.61741615  0.24315766  0.53369211  1
  S2-  S244  1  0.63562248  0.51645815  0.05057880  1
  S2-  S245  1  0.61875351  0.49215012  0.54263306  1
  S2-  S246  1  0.63614089  0.76547245  0.04215883  1
  S2-  S247  1  0.61804260  0.73932156  0.53937781  1
  S2-  S248  1  0.88686413  0.01216668  0.03327375  1
  S2-  S249  1  0.87344717  -0.00557805  0.55408332  1
  S2-  S250  1  0.88798104  0.26105776  0.05136214  1
  S2-  S251  1  0.87878884  0.24905857  0.54760379  1
  S2-  S252  1  0.88859241  0.51359534  0.04720708  1
  S2-  S253  1  0.86864486  0.49339684  0.55059523  1
  S2-  S254  1  0.88101407  0.76718468  0.03243095  1
  S2-  S255  1  0.87349564  0.73652405  0.55490523  1
