# generated using pymatgen
data_La6Ce6Pr19Nd20Sm13(BiS2)64
_symmetry_space_group_name_H-M   'P 1'
_cell_length_a   16.14038645
_cell_length_b   16.13548735
_cell_length_c   27.24831164
_cell_angle_alpha   89.87015505
_cell_angle_beta   90.02969858
_cell_angle_gamma   89.95993930
_symmetry_Int_Tables_number   1
_chemical_formula_structural   La6Ce6Pr19Nd20Sm13(BiS2)64
_chemical_formula_sum   'La6 Ce6 Pr19 Nd20 Sm13 Bi64 S128'
_cell_volume   7096.33866790
_cell_formula_units_Z   1
loop_
 _symmetry_equiv_pos_site_id
 _symmetry_equiv_pos_as_xyz
  1  'x, y, z'
loop_
 _atom_type_symbol
 _atom_type_oxidation_number
  La3+  3.0
  Ce3+  3.0
  Pr3+  3.0
  Nd3+  3.0
  Sm3+  3.0
  Bi2+  2.0
  S2-  -2.0
loop_
 _atom_site_type_symbol
 _atom_site_label
 _atom_site_symmetry_multiplicity
 _atom_site_fract_x
 _atom_site_fract_y
 _atom_site_fract_z
 _atom_site_occupancy
  La3+  La0  1  0.75234603  0.35963998  0.07228324  1
  La3+  La1  1  0.12147996  0.23223711  0.90803136  1
  La3+  La2  1  0.49424666  0.62767329  0.61005225  1
  La3+  La3  1  0.75947002  0.61727347  0.58348568  1
  La3+  La4  1  0.25849769  0.60802037  0.09729439  1
  La3+  La5  1  0.12848185  0.51252646  0.41762668  1
  Ce3+  Ce6  1  0.87619586  0.00049861  0.43563782  1
  Ce3+  Ce7  1  0.24937311  0.87665601  0.55871107  1
  Ce3+  Ce8  1  0.12497639  0.49229713  0.93309460  1
  Ce3+  Ce9  1  0.62241167  0.23783750  0.93958027  1
  Ce3+  Ce10  1  0.74196595  0.11614510  0.07161212  1
  Ce3+  Ce11  1  0.87208926  0.48917762  0.93936263  1
  Pr3+  Pr12  1  0.50058110  0.36776217  0.05820041  1
  Pr3+  Pr13  1  0.50223587  0.13138366  0.56813444  1
  Pr3+  Pr14  1  0.87305077  0.74170615  0.93615672  1
  Pr3+  Pr15  1  0.37666320  0.25334160  0.44047587  1
  Pr3+  Pr16  1  0.25000975  0.63451510  0.56965023  1
  Pr3+  Pr17  1  0.50824678  0.61432648  0.06191510  1
  Pr3+  Pr18  1  0.37682006  0.73858410  0.94465659  1
  Pr3+  Pr19  1  0.50408442  0.86363460  0.06896680  1
  Pr3+  Pr20  1  0.87172254  0.75615466  0.43480251  1
  Pr3+  Pr21  1  0.62518325  0.75005368  0.45964320  1
  Pr3+  Pr22  1  0.62445196  0.00013373  0.43883214  1
  Pr3+  Pr23  1  0.62552920  0.50534864  0.44379312  1
  Pr3+  Pr24  1  0.12755648  0.00334827  0.42315483  1
  Pr3+  Pr25  1  0.24248302  0.11843440  0.07123143  1
  Pr3+  Pr26  1  0.62987958  0.24768933  0.42104156  1
  Pr3+  Pr27  1  0.62427098  0.48101306  0.92191266  1
  Pr3+  Pr28  1  0.12434534  -0.01031351  0.94049841  1
  Pr3+  Pr29  1  0.50198734  0.88036213  0.57291818  1
  Pr3+  Pr30  1  0.50245108  0.37695476  0.56367616  1
  Nd3+  Nd31  1  0.75403826  0.87845565  0.56876807  1
  Nd3+  Nd32  1  0.00012177  0.86029454  0.06031052  1
  Nd3+  Nd33  1  0.24440123  0.36926321  0.05420530  1
  Nd3+  Nd34  1  0.00171997  0.62710629  0.55484286  1
  Nd3+  Nd35  1  0.13156569  0.75858741  0.42861588  1
  Nd3+  Nd36  1  0.88387869  0.26805716  0.42088311  1
  Nd3+  Nd37  1  0.00373515  0.37631399  0.55438153  1
  Nd3+  Nd38  1  0.62219845  -0.00282942  0.93974785  1
  Nd3+  Nd39  1  0.24749673  0.12898746  0.55908392  1
  Nd3+  Nd40  1  0.74928451  0.86379990  0.06366099  1
  Nd3+  Nd41  1  0.12616267  0.73881379  0.94285306  1
  Nd3+  Nd42  1  0.75141651  0.37324115  0.55692666  1
  Nd3+  Nd43  1  0.62404970  0.75254898  0.92281581  1
  Nd3+  Nd44  1  0.49519628  0.11595769  0.07127457  1
  Nd3+  Nd45  1  0.87174611  0.23788915  0.93442455  1
  Nd3+  Nd46  1  0.00116334  0.87852683  0.55455791  1
  Nd3+  Nd47  1  0.12961378  0.25323234  0.43254502  1
  Nd3+  Nd48  1  0.37325003  0.49036049  0.93831556  1
  Nd3+  Nd49  1  0.37724857  0.50563003  0.44349863  1
  Nd3+  Nd50  1  0.37936053  0.00396437  0.44534855  1
  Sm3+  Sm51  1  0.37030620  0.23878617  0.94526417  1
  Sm3+  Sm52  1  0.75327694  0.13397123  0.55158512  1
  Sm3+  Sm53  1  0.87305193  0.51194886  0.43234505  1
  Sm3+  Sm54  1  0.87313334  -0.00841304  0.95249885  1
  Sm3+  Sm55  1  0.24957689  0.86297750  0.06081002  1
  Sm3+  Sm56  1  0.37252246  -0.00735221  0.94728685  1
  Sm3+  Sm57  1  0.00276143  0.36744602  0.04850727  1
  Sm3+  Sm58  1  0.00059588  0.61441068  0.05231938  1
  Sm3+  Sm59  1  0.37759617  0.75304527  0.44628437  1
  Sm3+  Sm60  1  0.74534395  0.61432846  0.04699105  1
  Sm3+  Sm61  1  0.00231222  0.13070547  0.54591225  1
  Sm3+  Sm62  1  0.00129041  0.11858817  0.05976632  1
  Sm3+  Sm63  1  0.25109275  0.38176902  0.55424389  1
  Bi2+  Bi64  1  0.00486454  0.07313134  0.30418692  1
  Bi2+  Bi65  1  0.01492218  0.11710321  0.77584396  1
  Bi2+  Bi66  1  -0.00125238  0.32298756  0.24842228  1
  Bi2+  Bi67  1  -0.05548625  0.37086080  0.78544923  1
  Bi2+  Bi68  1  -0.03178909  0.68684007  0.28724058  1
  Bi2+  Bi69  1  -0.00745864  0.69659288  0.79837053  1
  Bi2+  Bi70  1  -0.01688082  0.88414809  0.29714376  1
  Bi2+  Bi71  1  -0.00807925  0.92108457  0.77275679  1
  Bi2+  Bi72  1  0.19342269  0.13266914  0.31267947  1
  Bi2+  Bi73  1  0.26092111  0.13025284  0.79383670  1
  Bi2+  Bi74  1  0.24101368  0.33724025  0.29799921  1
  Bi2+  Bi75  1  0.27864598  0.37971374  0.79307718  1
  Bi2+  Bi76  1  0.24637714  0.61394637  0.29942708  1
  Bi2+  Bi77  1  0.24229368  0.65039097  0.80868366  1
  Bi2+  Bi78  1  0.22994836  0.86552461  0.26582880  1
  Bi2+  Bi79  1  0.28066776  0.91874975  0.76391153  1
  Bi2+  Bi80  1  0.47529311  0.12253204  0.29171253  1
  Bi2+  Bi81  1  0.58142196  0.11579190  0.82540447  1
  Bi2+  Bi82  1  0.49863639  0.40133419  0.30952336  1
  Bi2+  Bi83  1  0.50784846  0.28794520  0.78652768  1
  Bi2+  Bi84  1  0.56085122  0.62523539  0.28792420  1
  Bi2+  Bi85  1  0.48651588  0.61847845  0.80947796  1
  Bi2+  Bi86  1  0.52416667  0.91157055  0.31705904  1
  Bi2+  Bi87  1  0.49289521  0.94849776  0.79232703  1
  Bi2+  Bi88  1  0.72442769  0.04725432  0.28252296  1
  Bi2+  Bi89  1  0.77729388  0.12185636  0.82471274  1
  Bi2+  Bi90  1  0.76212498  0.38521921  0.29964407  1
  Bi2+  Bi91  1  0.76150852  0.31014814  0.78536463  1
  Bi2+  Bi92  1  0.77713084  0.64354615  0.26284408  1
  Bi2+  Bi93  1  0.76012242  0.61873968  0.79996721  1
  Bi2+  Bi94  1  0.72589678  0.84711482  0.28542379  1
  Bi2+  Bi95  1  0.76396236  0.92634805  0.79739122  1
  Bi2+  Bi96  1  0.13990173  0.02353078  0.22200619  1
  Bi2+  Bi97  1  0.13470509  0.00688978  0.71270391  1
  Bi2+  Bi98  1  0.16179427  0.25172476  0.19936841  1
  Bi2+  Bi99  1  0.13026930  0.28128068  0.68796719  1
  Bi2+  Bi100  1  0.10999800  0.49421638  0.19295266  1
  Bi2+  Bi101  1  0.11033488  0.56670075  0.73931150  1
  Bi2+  Bi102  1  0.09080691  0.75061615  0.19394142  1
  Bi2+  Bi103  1  0.09405273  0.74921010  0.70506415  1
  Bi2+  Bi104  1  0.34773812  0.01321195  0.22069764  1
  Bi2+  Bi105  1  0.41347932  0.00638691  0.68603090  1
  Bi2+  Bi106  1  0.34902980  0.22792918  0.22573197  1
  Bi2+  Bi107  1  0.38719138  0.19557953  0.71235054  1
  Bi2+  Bi108  1  0.41737861  0.51734259  0.23241291  1
  Bi2+  Bi109  1  0.36578034  0.47087762  0.71275186  1
  Bi2+  Bi110  1  0.41825588  0.77349027  0.26584552  1
  Bi2+  Bi111  1  0.34054483  0.75334663  0.71674509  1
  Bi2+  Bi112  1  0.58296808  -0.02345645  0.21017406  1
  Bi2+  Bi113  1  0.60104290  0.03727540  0.70850907  1
  Bi2+  Bi114  1  0.64929852  0.26076753  0.19723154  1
  Bi2+  Bi115  1  0.63713551  0.22959540  0.70562526  1
  Bi2+  Bi116  1  0.59704281  0.48250104  0.19274030  1
  Bi2+  Bi117  1  0.64322837  0.49458167  0.71371902  1
  Bi2+  Bi118  1  0.55577986  0.72698953  0.18975101  1
  Bi2+  Bi119  1  0.61932684  0.77259319  0.72206249  1
  Bi2+  Bi120  1  0.85819814  -0.01477179  0.20638579  1
  Bi2+  Bi121  1  0.84851222  0.04871193  0.72120768  1
  Bi2+  Bi122  1  0.87054464  0.17692621  0.23771608  1
  Bi2+  Bi123  1  0.88774260  0.24256469  0.69967493  1
  Bi2+  Bi124  1  0.91555617  0.50253680  0.25479926  1
  Bi2+  Bi125  1  0.90216575  0.49884824  0.70554911  1
  Bi2+  Bi126  1  0.83575132  0.79108460  0.19304094  1
  Bi2+  Bi127  1  0.87023766  0.76808870  0.70182773  1
  S2-  S128  1  0.10453012  0.12247082  0.13929788  1
  S2-  S129  1  0.01241521  0.17710861  0.64031590  1
  S2-  S130  1  0.01028313  0.36855237  0.14635956  1
  S2-  S131  1  0.01493946  0.40650066  0.65265845  1
  S2-  S132  1  0.00666438  0.61551724  0.15005380  1
  S2-  S133  1  -0.08498496  0.62912971  0.64169346  1
  S2-  S134  1  -0.01708424  0.88039498  0.15818477  1
  S2-  S135  1  -0.01858737  0.85904970  0.65336010  1
  S2-  S136  1  0.36858630  0.12447240  0.14282332  1
  S2-  S137  1  0.23562861  0.17442583  0.65536453  1
  S2-  S138  1  0.24448950  0.44799471  0.14343559  1
  S2-  S139  1  0.25038278  0.39122547  0.65336847  1
  S2-  S140  1  0.20916834  0.63778237  0.19622129  1
  S2-  S141  1  0.33673860  0.60795782  0.65848012  1
  S2-  S142  1  0.22017394  0.84892819  0.15697296  1
  S2-  S143  1  0.23170021  0.78269370  0.64009781  1
  S2-  S144  1  0.61322903  0.11436821  0.14597773  1
  S2-  S145  1  0.50187749  0.25253834  0.63945148  1
  S2-  S146  1  0.51780676  0.33204151  0.15740575  1
  S2-  S147  1  0.50944159  0.46267536  0.65365714  1
  S2-  S148  1  0.41412224  0.61851218  0.15016424  1
  S2-  S149  1  0.53046868  0.62495923  0.71598383  1
  S2-  S150  1  0.44279468  0.91476960  0.16256578  1
  S2-  S151  1  0.48529541  0.79260522  0.65940731  1
  S2-  S152  1  0.78981172  0.22416856  0.14315050  1
  S2-  S153  1  0.75766115  0.24120997  0.62733846  1
  S2-  S154  1  0.73793594  0.41018417  0.17206819  1
  S2-  S155  1  0.76423861  0.46310707  0.64463825  1
  S2-  S156  1  0.64699438  0.61549155  0.12777050  1
  S2-  S157  1  0.71552268  0.65109604  0.68573047  1
  S2-  S158  1  0.64031069  0.85567763  0.14067192  1
  S2-  S159  1  0.74215764  0.86272283  0.66797208  1
  S2-  S160  1  0.13870135  -0.12182131  0.35105822  1
  S2-  S161  1  0.13320713  0.07868463  0.85512424  1
  S2-  S162  1  0.08665007  0.27131790  0.33697508  1
  S2-  S163  1  0.16078574  0.27605856  0.80679699  1
  S2-  S164  1  0.15363654  0.47046308  0.31689248  1
  S2-  S165  1  0.14885416  0.50073766  0.83609376  1
  S2-  S166  1  0.11375150  0.65283632  0.35047314  1
  S2-  S167  1  0.13005472  0.77067070  0.84513321  1
  S2-  S168  1  0.38011767  0.00934343  0.34597319  1
  S2-  S169  1  0.35628980  0.00734953  0.84937848  1
  S2-  S170  1  0.40178263  0.26726961  0.34179976  1
  S2-  S171  1  0.36434353  0.24847083  0.84656787  1
  S2-  S172  1  0.36877250  0.51151232  0.34357404  1
  S2-  S173  1  0.40169748  0.48167074  0.84036677  1
  S2-  S174  1  0.33110508  0.74285588  0.35142813  1
  S2-  S175  1  0.37412728  0.74295111  0.84377056  1
  S2-  S176  1  0.61245536  0.10211254  0.35694561  1
  S2-  S177  1  0.62916585  -0.10139278  0.85882583  1
  S2-  S178  1  0.62054450  0.29848602  0.32083329  1
  S2-  S179  1  0.63092643  0.33416351  0.85862958  1
  S2-  S180  1  0.64991534  0.50700408  0.34287727  1
  S2-  S181  1  0.63197285  0.52120783  0.82012976  1
  S2-  S182  1  0.62436307  0.79324690  0.36103649  1
  S2-  S183  1  0.62219483  0.71571806  0.82319383  1
  S2-  S184  1  0.85434911  -0.11453517  0.36185326  1
  S2-  S185  1  0.89790544  -0.01766658  0.85577117  1
  S2-  S186  1  0.81367104  0.23148081  0.33275855  1
  S2-  S187  1  0.96747828  0.23279593  0.85107061  1
  S2-  S188  1  0.90346260  0.41822187  0.35117318  1
  S2-  S189  1  0.86754358  0.50318728  0.84154979  1
  S2-  S190  1  0.85039721  0.63852465  0.36105816  1
  S2-  S191  1  0.83666172  0.76008463  0.83844191  1
  S2-  S192  1  0.00133678  0.12974419  0.44168308  1
  S2-  S193  1  -0.00191877  0.11299656  0.95706516  1
  S2-  S194  1  0.01225143  0.38426909  0.44879304  1
  S2-  S195  1  0.00108390  0.36716342  0.94430772  1
  S2-  S196  1  0.00032126  0.62955383  0.45183584  1
  S2-  S197  1  -0.00157198  0.61613736  0.94683100  1
  S2-  S198  1  0.00354945  0.88111560  0.45091404  1
  S2-  S199  1  -0.00118779  0.86517793  0.95386290  1
  S2-  S200  1  0.25108095  0.12555490  0.45201507  1
  S2-  S201  1  0.24874139  0.11672801  0.96031068  1
  S2-  S202  1  0.25032100  0.38073422  0.44770639  1
  S2-  S203  1  0.24672884  0.36326025  0.94648175  1
  S2-  S204  1  0.25325485  0.62972076  0.45820194  1
  S2-  S205  1  0.24984904  0.61538385  0.94938001  1
  S2-  S206  1  0.25555410  0.88107596  0.45459875  1
  S2-  S207  1  0.25070967  0.86568604  0.95388679  1
  S2-  S208  1  0.50014693  0.12860840  0.45980391  1
  S2-  S209  1  0.49320301  0.11651226  0.96081372  1
  S2-  S210  1  0.50191758  0.37732372  0.45271973  1
  S2-  S211  1  0.49329243  0.36219572  0.95198597  1
  S2-  S212  1  0.49882697  0.63041311  0.44779384  1
  S2-  S213  1  0.50494954  0.61375085  0.94906545  1
  S2-  S214  1  0.49950192  0.87856024  0.46490307  1
  S2-  S215  1  0.49541979  0.87026091  0.95707945  1
  S2-  S216  1  0.75655928  0.12750091  0.44908961  1
  S2-  S217  1  0.75057115  0.11493944  0.96147192  1
  S2-  S218  1  0.75163048  0.37884416  0.44861178  1
  S2-  S219  1  0.75419732  0.36297249  0.95723637  1
  S2-  S220  1  0.74995203  0.62699383  0.46845286  1
  S2-  S221  1  0.74485373  0.61637935  0.94356444  1
  S2-  S222  1  0.74681599  0.88113324  0.46376942  1
  S2-  S223  1  0.75237849  0.86931442  0.95781207  1
  S2-  S224  1  0.12314347  -0.01523957  0.04695585  1
  S2-  S225  1  0.12463163  0.00430906  0.54113316  1
  S2-  S226  1  0.12161758  0.24467523  0.03790304  1
  S2-  S227  1  0.12901908  0.25445872  0.53836061  1
  S2-  S228  1  0.12346294  0.49555914  0.03981966  1
  S2-  S229  1  0.12898974  0.50579262  0.54402526  1
  S2-  S230  1  0.12835274  0.73527315  0.04958011  1
  S2-  S231  1  0.12239478  0.75378923  0.53751629  1
  S2-  S232  1  0.36941218  -0.01299858  0.04970374  1
  S2-  S233  1  0.37450212  0.00502388  0.55145119  1
  S2-  S234  1  0.37023540  0.24695410  0.04849936  1
  S2-  S235  1  0.36979354  0.25388719  0.54573803  1
  S2-  S236  1  0.37510130  0.49322556  0.04409073  1
  S2-  S237  1  0.37492039  0.50347579  0.54872243  1
  S2-  S238  1  0.37329483  0.74071127  0.05140297  1
  S2-  S239  1  0.38139790  0.75164482  0.54959364  1
  S2-  S240  1  0.62254906  -0.00937841  0.04423899  1
  S2-  S241  1  0.62962119  0.00685628  0.55191045  1
  S2-  S242  1  0.62177957  0.24139310  0.04433424  1
  S2-  S243  1  0.62620622  0.25093114  0.53129700  1
  S2-  S244  1  0.62950130  0.48383731  0.03314963  1
  S2-  S245  1  0.62370544  0.50590217  0.55028678  1
  S2-  S246  1  0.62798188  0.74373795  0.03089884  1
  S2-  S247  1  0.62833194  0.75114978  0.56447000  1
  S2-  S248  1  0.87632514  -0.00800280  0.05660875  1
  S2-  S249  1  0.87724357  0.00792755  0.54729825  1
  S2-  S250  1  0.88374163  0.24138101  0.03994308  1
  S2-  S251  1  0.88228923  0.25362936  0.52922750  1
  S2-  S252  1  0.87413091  0.49226130  0.04759200  1
  S2-  S253  1  0.88090506  0.49724096  0.53750812  1
  S2-  S254  1  0.87230065  0.73662981  0.04488704  1
  S2-  S255  1  0.87558443  0.75576687  0.54372131  1
