# generated using pymatgen
data_La6Ce6Pr19Nd20Sm13(BiS2)64
_symmetry_space_group_name_H-M   'P 1'
_cell_length_a   16.08148319
_cell_length_b   16.07560455
_cell_length_c   27.21725022
_cell_angle_alpha   89.86100786
_cell_angle_beta   90.04637711
_cell_angle_gamma   90.08420814
_symmetry_Int_Tables_number   1
_chemical_formula_structural   La6Ce6Pr19Nd20Sm13(BiS2)64
_chemical_formula_sum   'La6 Ce6 Pr19 Nd20 Sm13 Bi64 S128'
_cell_volume   7036.16108676
_cell_formula_units_Z   1
loop_
 _symmetry_equiv_pos_site_id
 _symmetry_equiv_pos_as_xyz
  1  'x, y, z'
loop_
 _atom_type_symbol
 _atom_type_oxidation_number
  La3+  3.0
  Ce3+  3.0
  Pr3+  3.0
  Nd3+  3.0
  Sm3+  3.0
  Bi2+  2.0
  S2-  -2.0
loop_
 _atom_site_type_symbol
 _atom_site_label
 _atom_site_symmetry_multiplicity
 _atom_site_fract_x
 _atom_site_fract_y
 _atom_site_fract_z
 _atom_site_occupancy
  La3+  La0  1  0.25480938  0.85657615  0.08997050  1
  La3+  La1  1  0.01150865  0.37819815  0.55367074  1
  La3+  La2  1  0.25165637  0.12590382  0.58393734  1
  La3+  La3  1  0.87938826  -0.01243491  0.91584586  1
  La3+  La4  1  0.50482361  0.37772607  0.57192454  1
  La3+  La5  1  0.00284855  0.37269546  0.11173922  1
  Ce3+  Ce6  1  0.75750245  0.12631283  0.55896664  1
  Ce3+  Ce7  1  0.37623625  0.74103706  0.94519694  1
  Ce3+  Ce8  1  0.62765439  0.23875490  0.94157864  1
  Ce3+  Ce9  1  0.38027933  0.50632951  0.43314615  1
  Ce3+  Ce10  1  0.87712775  0.00097397  0.43985087  1
  Ce3+  Ce11  1  0.50897786  0.62541676  0.57869636  1
  Pr3+  Pr12  1  0.00379076  0.11583187  0.07300632  1
  Pr3+  Pr13  1  0.75593854  0.88336079  0.57665475  1
  Pr3+  Pr14  1  0.25020559  0.60917733  0.05953369  1
  Pr3+  Pr15  1  0.62875196  -0.01053309  0.93053291  1
  Pr3+  Pr16  1  0.75130972  0.11492327  0.06363579  1
  Pr3+  Pr17  1  0.50691765  0.88393988  0.57463983  1
  Pr3+  Pr18  1  0.11842100  0.23542858  0.93577566  1
  Pr3+  Pr19  1  0.50217992  0.60837867  0.06095591  1
  Pr3+  Pr20  1  0.75878246  0.62704436  0.56438799  1
  Pr3+  Pr21  1  0.37495800  0.48518145  0.93232895  1
  Pr3+  Pr22  1  -0.00006658  0.86085409  0.06199225  1
  Pr3+  Pr23  1  0.76027831  0.38119247  0.55434784  1
  Pr3+  Pr24  1  0.74766769  0.86239906  0.06168222  1
  Pr3+  Pr25  1  0.12306288  0.00004032  0.42156394  1
  Pr3+  Pr26  1  0.88843204  0.51043842  0.41200402  1
  Pr3+  Pr27  1  0.12388163  -0.01715342  0.93791010  1
  Pr3+  Pr28  1  0.00278195  0.88215482  0.57183180  1
  Pr3+  Pr29  1  0.39021052  0.01104688  0.41782304  1
  Pr3+  Pr30  1  0.62671107  0.48544583  0.93754592  1
  Nd3+  Nd31  1  0.49947820  0.11044025  0.05544347  1
  Nd3+  Nd32  1  0.25342573  0.62727652  0.56581895  1
  Nd3+  Nd33  1  0.50394678  0.12901654  0.56757432  1
  Nd3+  Nd34  1  0.24756741  0.36196199  0.05793290  1
  Nd3+  Nd35  1  0.49899553  0.36324447  0.06910854  1
  Nd3+  Nd36  1  0.25770261  0.88611998  0.55375618  1
  Nd3+  Nd37  1  0.62935619  0.75284118  0.44583786  1
  Nd3+  Nd38  1  0.12243053  0.48906571  0.94502021  1
  Nd3+  Nd39  1  0.12404829  0.74200558  0.93601887  1
  Nd3+  Nd40  1  0.13255861  0.75673840  0.44350923  1
  Nd3+  Nd41  1  0.75173536  0.61017834  0.05740010  1
  Nd3+  Nd42  1  0.62948688  0.25478076  0.44123897  1
  Nd3+  Nd43  1  0.13101987  0.24867528  0.42741305  1
  Nd3+  Nd44  1  0.74539536  0.35778143  0.08336073  1
  Nd3+  Nd45  1  0.62767163  0.50461892  0.43890132  1
  Nd3+  Nd46  1  0.13798131  0.50698228  0.42738153  1
  Nd3+  Nd47  1  0.00635984  0.62642721  0.56321113  1
  Nd3+  Nd48  1  0.61514831  0.74423630  0.92152787  1
  Nd3+  Nd49  1  0.88100942  0.25392103  0.44058815  1
  Nd3+  Nd50  1  0.50898932  0.85496499  0.07476873  1
  Sm3+  Sm51  1  0.24716502  0.11214151  0.05747638  1
  Sm3+  Sm52  1  0.38368810  0.75707841  0.44479497  1
  Sm3+  Sm53  1  0.01245982  0.12643254  0.55950690  1
  Sm3+  Sm54  1  0.86467568  0.73891304  0.93368313  1
  Sm3+  Sm55  1  0.87695132  0.48582942  0.94591500  1
  Sm3+  Sm56  1  0.37382503  -0.01511263  0.94836428  1
  Sm3+  Sm57  1  0.87786130  0.23978356  0.95147058  1
  Sm3+  Sm58  1  0.37408003  0.23779063  0.94443556  1
  Sm3+  Sm59  1  0.88124622  0.75119186  0.44102055  1
  Sm3+  Sm60  1  0.63320085  -0.00030949  0.44251601  1
  Sm3+  Sm61  1  -0.00172144  0.61348191  0.05657698  1
  Sm3+  Sm62  1  0.25740280  0.37828500  0.54706680  1
  Sm3+  Sm63  1  0.38184968  0.24810489  0.44208526  1
  Bi2+  Bi64  1  0.02575356  0.11384540  0.29658626  1
  Bi2+  Bi65  1  0.01789947  0.14856813  0.78335281  1
  Bi2+  Bi66  1  0.00050620  0.37055593  0.30089340  1
  Bi2+  Bi67  1  -0.01230848  0.37147696  0.81675774  1
  Bi2+  Bi68  1  -0.04155507  0.66510694  0.26082993  1
  Bi2+  Bi69  1  0.05331640  0.67141575  0.80058660  1
  Bi2+  Bi70  1  -0.00888785  0.84659381  0.30025260  1
  Bi2+  Bi71  1  0.01245922  0.89089669  0.79241224  1
  Bi2+  Bi72  1  0.33208945  0.14631244  0.26230640  1
  Bi2+  Bi73  1  0.34179142  0.12953665  0.77164511  1
  Bi2+  Bi74  1  0.26756172  0.39513849  0.28955891  1
  Bi2+  Bi75  1  0.23119799  0.39175816  0.79454090  1
  Bi2+  Bi76  1  0.32163613  0.60352522  0.26234736  1
  Bi2+  Bi77  1  0.24935384  0.69305238  0.78121526  1
  Bi2+  Bi78  1  0.24682897  0.84795396  0.29921641  1
  Bi2+  Bi79  1  0.22493418  0.89772397  0.77228220  1
  Bi2+  Bi80  1  0.54325750  0.13764715  0.29885186  1
  Bi2+  Bi81  1  0.53720343  0.11745436  0.77901448  1
  Bi2+  Bi82  1  0.45675841  0.38169368  0.31038471  1
  Bi2+  Bi83  1  0.49213717  0.35925880  0.80757974  1
  Bi2+  Bi84  1  0.49515682  0.57186668  0.31987178  1
  Bi2+  Bi85  1  0.44229130  0.62179043  0.77785020  1
  Bi2+  Bi86  1  0.56169712  0.86707252  0.28653373  1
  Bi2+  Bi87  1  0.44612471  0.88081691  0.79901690  1
  Bi2+  Bi88  1  0.76491228  0.13431733  0.30043923  1
  Bi2+  Bi89  1  0.74847697  0.14014303  0.77815677  1
  Bi2+  Bi90  1  0.69825693  0.39218360  0.28098761  1
  Bi2+  Bi91  1  0.75675363  0.43023973  0.78657013  1
  Bi2+  Bi92  1  0.74352554  0.75096060  0.31061607  1
  Bi2+  Bi93  1  0.72777690  0.63778463  0.74772093  1
  Bi2+  Bi94  1  0.75241390  0.94342282  0.33166019  1
  Bi2+  Bi95  1  0.73915769  0.85769834  0.80075816  1
  Bi2+  Bi96  1  0.10420328  0.00193482  0.20971535  1
  Bi2+  Bi97  1  0.12811184  0.04383241  0.70906751  1
  Bi2+  Bi98  1  0.14305983  0.22955530  0.21582457  1
  Bi2+  Bi99  1  0.14375249  0.29921668  0.70779776  1
  Bi2+  Bi100  1  0.19092670  0.49701468  0.19982693  1
  Bi2+  Bi101  1  0.03319413  0.52321208  0.72386664  1
  Bi2+  Bi102  1  0.10596645  0.73915612  0.19468081  1
  Bi2+  Bi103  1  0.09385048  0.78806607  0.70632047  1
  Bi2+  Bi104  1  0.42333970  -0.00578877  0.22331987  1
  Bi2+  Bi105  1  0.37424709  -0.10580239  0.69053450  1
  Bi2+  Bi106  1  0.38874719  0.30761785  0.20452595  1
  Bi2+  Bi107  1  0.39635822  0.31876950  0.70891489  1
  Bi2+  Bi108  1  0.38910057  0.50032358  0.16149957  1
  Bi2+  Bi109  1  0.23755343  0.53287241  0.70743622  1
  Bi2+  Bi110  1  0.43915050  0.75164413  0.22576022  1
  Bi2+  Bi111  1  0.35256948  0.69490516  0.67617948  1
  Bi2+  Bi112  1  0.69135874  -0.00624687  0.22178268  1
  Bi2+  Bi113  1  0.62147634  -0.00564835  0.70753157  1
  Bi2+  Bi114  1  0.57662351  0.23211497  0.20067451  1
  Bi2+  Bi115  1  0.63909336  0.25677030  0.71437754  1
  Bi2+  Bi116  1  0.56223578  0.49854018  0.22038764  1
  Bi2+  Bi117  1  0.60153089  0.50090967  0.71004355  1
  Bi2+  Bi118  1  0.66342347  0.74564967  0.20120706  1
  Bi2+  Bi119  1  0.53027599  0.76193114  0.71654363  1
  Bi2+  Bi120  1  0.88237325  0.04837703  0.21082596  1
  Bi2+  Bi121  1  0.87926704  -0.02397048  0.70892553  1
  Bi2+  Bi122  1  0.84664198  0.24446463  0.21656543  1
  Bi2+  Bi123  1  0.88175754  0.25243321  0.72680428  1
  Bi2+  Bi124  1  0.84619820  0.53351077  0.21839840  1
  Bi2+  Bi125  1  0.85483296  0.43726198  0.68638880  1
  Bi2+  Bi126  1  0.84884661  0.84714568  0.21896425  1
  Bi2+  Bi127  1  0.90726405  0.70046694  0.72108383  1
  S2-  S128  1  0.00063039  0.21419555  0.15826939  1
  S2-  S129  1  0.11080717  0.18185814  0.64208801  1
  S2-  S130  1  0.03144233  0.43978766  0.21112339  1
  S2-  S131  1  0.02473775  0.39118528  0.65448994  1
  S2-  S132  1  -0.02181037  0.63462282  0.15344398  1
  S2-  S133  1  -0.11665722  0.60106492  0.63651908  1
  S2-  S134  1  0.00825260  0.87775898  0.16204920  1
  S2-  S135  1  -0.00090689  1.01696551  0.64033237  1
  S2-  S136  1  0.21737340  0.10658675  0.15484457  1
  S2-  S137  1  0.32198792  0.17240737  0.68068325  1
  S2-  S138  1  0.17508170  0.34269427  0.14767727  1
  S2-  S139  1  0.26372081  0.37986116  0.64632232  1
  S2-  S140  1  0.23586727  0.69718751  0.14564094  1
  S2-  S141  1  0.12986141  0.60411876  0.63904698  1
  S2-  S142  1  0.21021699  0.88270826  0.19345879  1
  S2-  S143  1  0.23563333  0.97432689  0.64023539  1
  S2-  S144  1  0.50901262  0.09949075  0.15472391  1
  S2-  S145  1  0.49161088  0.01628391  0.64534664  1
  S2-  S146  1  0.60841286  0.38556274  0.14824809  1
  S2-  S147  1  0.51057587  0.25038686  0.64470225  1
  S2-  S148  1  0.52104526  0.70437575  0.14542626  1
  S2-  S149  1  0.47563589  0.49613362  0.64668032  1
  S2-  S150  1  0.40063127  0.87675966  0.15320077  1
  S2-  S151  1  0.63391525  0.85760551  0.65144808  1
  S2-  S152  1  0.73303986  0.20975158  0.14880017  1
  S2-  S153  1  0.75946918  0.04324830  0.64481881  1
  S2-  S154  1  0.84651686  0.39920610  0.16219524  1
  S2-  S155  1  0.69712292  0.38172402  0.64927027  1
  S2-  S156  1  0.73914109  0.60920044  0.15766480  1
  S2-  S157  1  0.64861794  0.62688697  0.64725902  1
  S2-  S158  1  0.64272996  0.88964530  0.14166746  1
  S2-  S159  1  0.87869246  0.84735803  0.65111316  1
  S2-  S160  1  0.15295439  0.00958356  0.31732241  1
  S2-  S161  1  0.01998264  0.03258467  0.85704326  1
  S2-  S162  1  0.13615076  0.25590917  0.32574072  1
  S2-  S163  1  0.13365150  0.25493375  0.83480508  1
  S2-  S164  1  0.03486111  0.50607356  0.34786142  1
  S2-  S165  1  0.12384357  0.48558668  0.84557041  1
  S2-  S166  1  0.11307867  0.75692743  0.34384998  1
  S2-  S167  1  0.15024240  0.85982630  0.86335751  1
  S2-  S168  1  0.35119348  -0.03646572  0.31959803  1
  S2-  S169  1  0.36060808  0.00092592  0.85001903  1
  S2-  S170  1  0.39289649  0.17067325  0.35338518  1
  S2-  S171  1  0.36755150  0.25331480  0.84717102  1
  S2-  S172  1  0.26508949  0.52596998  0.35633014  1
  S2-  S173  1  0.37395846  0.48897147  0.83167253  1
  S2-  S174  1  0.34725733  0.75166028  0.34730165  1
  S2-  S175  1  0.46041457  0.72914207  0.85914305  1
  S2-  S176  1  0.54230242  0.00208320  0.35951301  1
  S2-  S177  1  0.60183720  -0.11939990  0.85284367  1
  S2-  S178  1  0.60523841  0.28863263  0.34412822  1
  S2-  S179  1  0.60902226  0.24089971  0.84458324  1
  S2-  S180  1  0.66114881  0.52201226  0.34061135  1
  S2-  S181  1  0.60776739  0.47868992  0.83758415  1
  S2-  S182  1  0.57464488  0.73240034  0.35048442  1
  S2-  S183  1  0.72505061  0.70493254  0.84573215  1
  S2-  S184  1  0.97121601  -0.01071331  0.35883403  1
  S2-  S185  1  0.75169041  0.01695963  0.84730149  1
  S2-  S186  1  0.90031451  0.22690389  0.34253205  1
  S2-  S187  1  0.89869536  0.24238817  0.85282762  1
  S2-  S188  1  0.84691083  0.43384233  0.32024812  1
  S2-  S189  1  0.88008840  0.49462751  0.84620544  1
  S2-  S190  1  0.87272029  0.66152968  0.35561191  1
  S2-  S191  1  0.88517009  0.84037715  0.85417843  1
  S2-  S192  1  0.00468685  0.12898101  0.45413828  1
  S2-  S193  1  -0.00371041  0.11213772  0.96503933  1
  S2-  S194  1  0.00818572  0.37531328  0.44548076  1
  S2-  S195  1  0.00034472  0.36479146  0.95247305  1
  S2-  S196  1  0.01008452  0.63244146  0.45620168  1
  S2-  S197  1  -0.00335781  0.61740278  0.95048081  1
  S2-  S198  1  0.00304151  0.87466581  0.45912857  1
  S2-  S199  1  -0.00490058  0.86074118  0.95744664  1
  S2-  S200  1  0.25294761  0.12502422  0.44030052  1
  S2-  S201  1  0.24948059  0.11264297  0.95149042  1
  S2-  S202  1  0.25908543  0.37095111  0.44302655  1
  S2-  S203  1  0.24737335  0.36104509  0.95125473  1
  S2-  S204  1  0.25851409  0.63642450  0.46004832  1
  S2-  S205  1  0.24936920  0.61454151  0.94917539  1
  S2-  S206  1  0.25871785  0.88266307  0.44762893  1
  S2-  S207  1  0.25352035  0.86272634  0.96695179  1
  S2-  S208  1  0.51121339  0.12970720  0.46032566  1
  S2-  S209  1  0.49667321  0.11345449  0.94857516  1
  S2-  S210  1  0.50237787  0.37629916  0.45750623  1
  S2-  S211  1  0.49851292  0.36070494  0.95770913  1
  S2-  S212  1  0.50300911  0.62891569  0.46226608  1
  S2-  S213  1  0.50102818  0.60790122  0.95374854  1
  S2-  S214  1  0.50582251  0.87869142  0.46009993  1
  S2-  S215  1  0.49764653  0.86641652  0.96364480  1
  S2-  S216  1  0.75383134  0.12904321  0.45137915  1
  S2-  S217  1  0.75483596  0.11603157  0.95702411  1
  S2-  S218  1  0.75660186  0.37975694  0.44690065  1
  S2-  S219  1  0.75430933  0.36262370  0.95216169  1
  S2-  S220  1  0.75329952  0.62738545  0.45596593  1
  S2-  S221  1  0.75263625  0.60904602  0.95246128  1
  S2-  S222  1  0.75625147  0.87428531  0.46140135  1
  S2-  S223  1  0.75100209  0.86472018  0.95575550  1
  S2-  S224  1  0.12697449  -0.01408137  0.05065505  1
  S2-  S225  1  0.12971980  0.00501312  0.53417442  1
  S2-  S226  1  0.12623535  0.23582415  0.04326338  1
  S2-  S227  1  0.13695992  0.25222536  0.53368132  1
  S2-  S228  1  0.11848885  0.48680320  0.05142681  1
  S2-  S229  1  0.13585803  0.50100530  0.53433335  1
  S2-  S230  1  0.12273884  0.73577539  0.04241541  1
  S2-  S231  1  0.13199382  0.76061091  0.54970172  1
  S2-  S232  1  0.37183518  -0.00979889  0.05248168  1
  S2-  S233  1  0.37771980  0.01039739  0.53924867  1
  S2-  S234  1  0.37335315  0.23701960  0.05070611  1
  S2-  S235  1  0.37359901  0.25016108  0.54542206  1
  S2-  S236  1  0.37448159  0.48374723  0.03885142  1
  S2-  S237  1  0.37499136  0.50541317  0.54114860  1
  S2-  S238  1  0.37663728  0.73402346  0.04854585  1
  S2-  S239  1  0.38206633  0.75582889  0.55055270  1
  S2-  S240  1  0.62601460  -0.00649511  0.03959609  1
  S2-  S241  1  0.63050801  0.00560529  0.54452088  1
  S2-  S242  1  0.62083143  0.23935684  0.04532848  1
  S2-  S243  1  0.63677206  0.25188199  0.54599037  1
  S2-  S244  1  0.62851532  0.48490776  0.04450369  1
  S2-  S245  1  0.63103920  0.50071919  0.54384068  1
  S2-  S246  1  0.62887417  0.73385377  0.03635257  1
  S2-  S247  1  0.63036318  0.75445938  0.54848579  1
  S2-  S248  1  0.87469339  -0.01116757  0.05921173  1
  S2-  S249  1  0.88069771  0.00515473  0.54182634  1
  S2-  S250  1  0.87845967  0.24513748  0.05468710  1
  S2-  S251  1  0.88510326  0.25052588  0.54939013  1
  S2-  S252  1  0.87877909  0.48589323  0.05066552  1
  S2-  S253  1  0.88690817  0.49990643  0.53150575  1
  S2-  S254  1  0.87342069  0.73722147  0.04431318  1
  S2-  S255  1  0.88314355  0.75328165  0.54382816  1
