# generated using pymatgen
data_La6Ce6Pr19Nd20Sm13(BiS2)64
_symmetry_space_group_name_H-M   'P 1'
_cell_length_a   16.04216364
_cell_length_b   16.10878950
_cell_length_c   27.20695937
_cell_angle_alpha   89.94909632
_cell_angle_beta   90.28373406
_cell_angle_gamma   90.08966778
_symmetry_Int_Tables_number   1
_chemical_formula_structural   La6Ce6Pr19Nd20Sm13(BiS2)64
_chemical_formula_sum   'La6 Ce6 Pr19 Nd20 Sm13 Bi64 S128'
_cell_volume   7030.72046723
_cell_formula_units_Z   1
loop_
 _symmetry_equiv_pos_site_id
 _symmetry_equiv_pos_as_xyz
  1  'x, y, z'
loop_
 _atom_type_symbol
 _atom_type_oxidation_number
  La3+  3.0
  Ce3+  3.0
  Pr3+  3.0
  Nd3+  3.0
  Sm3+  3.0
  Bi2+  2.0
  S2-  -2.0
loop_
 _atom_site_type_symbol
 _atom_site_label
 _atom_site_symmetry_multiplicity
 _atom_site_fract_x
 _atom_site_fract_y
 _atom_site_fract_z
 _atom_site_occupancy
  La3+  La0  1  0.48680564  0.63425699  0.08799296  1
  La3+  La1  1  0.11775420  0.75285321  0.89313918  1
  La3+  La2  1  -0.00450343  0.87645138  0.05482625  1
  La3+  La3  1  0.51109078  0.37589484  0.56989780  1
  La3+  La4  1  0.38172275  0.50462451  0.93988409  1
  La3+  La5  1  0.50088781  0.37423067  0.08972648  1
  Ce3+  Ce6  1  0.86833656  0.00403754  0.93653403  1
  Ce3+  Ce7  1  0.63844534  -0.01215288  0.44383335  1
  Ce3+  Ce8  1  0.64173626  0.49123455  0.41980985  1
  Ce3+  Ce9  1  0.61827986  0.50549711  0.96157030  1
  Ce3+  Ce10  1  0.01718860  0.86022216  0.57094569  1
  Ce3+  Ce11  1  0.51403793  0.85948165  0.56133534  1
  Pr3+  Pr12  1  0.12603700  0.25878877  0.93014887  1
  Pr3+  Pr13  1  0.24769165  0.38172949  0.06883330  1
  Pr3+  Pr14  1  0.37743511  0.48176558  0.41163567  1
  Pr3+  Pr15  1  0.76435197  0.36482591  0.56039319  1
  Pr3+  Pr16  1  0.26513377  0.11684319  0.55921222  1
  Pr3+  Pr17  1  0.86928900  0.26102753  0.93305530  1
  Pr3+  Pr18  1  0.63720350  0.24446266  0.42491985  1
  Pr3+  Pr19  1  0.39383451  0.23965710  0.43216324  1
  Pr3+  Pr20  1  0.27003021  0.85519858  0.57767901  1
  Pr3+  Pr21  1  0.12245030  0.50415609  0.92605205  1
  Pr3+  Pr22  1  0.74841522  0.63583752  0.07602872  1
  Pr3+  Pr23  1  0.24513458  0.62979202  0.05393107  1
  Pr3+  Pr24  1  0.75108063  0.37120791  0.07941083  1
  Pr3+  Pr25  1  0.36841692  0.00611954  0.94094933  1
  Pr3+  Pr26  1  0.76265962  0.11733543  0.56145959  1
  Pr3+  Pr27  1  0.88640238  0.23816988  0.42789441  1
  Pr3+  Pr28  1  0.13999657  0.75294250  0.42712425  1
  Pr3+  Pr29  1  0.49447261  0.87978399  0.06781225  1
  Pr3+  Pr30  1  0.48664479  0.12971482  0.07780349  1
  Nd3+  Nd31  1  -0.00253284  0.13167144  0.05731943  1
  Nd3+  Nd32  1  0.13704376  0.24028734  0.43583798  1
  Nd3+  Nd33  1  0.01030609  0.36431304  0.57059856  1
  Nd3+  Nd34  1  0.01439332  0.11294879  0.55911892  1
  Nd3+  Nd35  1  0.51373845  0.11759584  0.55892576  1
  Nd3+  Nd36  1  -0.00525170  0.63024699  0.04788002  1
  Nd3+  Nd37  1  0.64563842  0.74109524  0.42814926  1
  Nd3+  Nd38  1  0.86522827  0.50788175  0.93953387  1
  Nd3+  Nd39  1  0.11823704  0.00358650  0.92704662  1
  Nd3+  Nd40  1  0.76404941  0.61152246  0.55796608  1
  Nd3+  Nd41  1  0.00019422  0.38167195  0.06480924  1
  Nd3+  Nd42  1  0.88774239  0.49047131  0.43257017  1
  Nd3+  Nd43  1  0.26005741  0.36764854  0.56390993  1
  Nd3+  Nd44  1  0.74408366  0.87936980  0.06294749  1
  Nd3+  Nd45  1  0.76073689  0.86089383  0.56415265  1
  Nd3+  Nd46  1  0.13346356  0.48669295  0.43166391  1
  Nd3+  Nd47  1  0.61825835  0.00474716  0.94255869  1
  Nd3+  Nd48  1  0.61670236  0.75161632  0.93853864  1
  Nd3+  Nd49  1  0.86359875  0.75994806  0.90240995  1
  Nd3+  Nd50  1  0.24381519  0.87827596  0.05141791  1
  Sm3+  Sm51  1  0.37166318  0.25602075  0.94610238  1
  Sm3+  Sm52  1  0.01631199  0.61641942  0.55295536  1
  Sm3+  Sm53  1  0.23642176  0.12882074  0.06730740  1
  Sm3+  Sm54  1  0.74453770  0.13030922  0.05638857  1
  Sm3+  Sm55  1  0.37056381  0.75517673  0.93392126  1
  Sm3+  Sm56  1  0.14007299  -0.00973373  0.44916749  1
  Sm3+  Sm57  1  0.61424897  0.25830100  0.94484766  1
  Sm3+  Sm58  1  0.38949471  -0.01384667  0.44627471  1
  Sm3+  Sm59  1  0.89126561  0.74210284  0.44241751  1
  Sm3+  Sm60  1  0.88870248  -0.01199096  0.44838537  1
  Sm3+  Sm61  1  0.26343209  0.61255132  0.54729926  1
  Sm3+  Sm62  1  0.51250909  0.60881950  0.53900349  1
  Sm3+  Sm63  1  0.38750722  0.73923944  0.43538154  1
  Bi2+  Bi64  1  0.00135858  0.14868289  0.30355609  1
  Bi2+  Bi65  1  0.07398082  0.13488147  0.81875898  1
  Bi2+  Bi66  1  -0.00178295  0.37600159  0.34359821  1
  Bi2+  Bi67  1  -0.03746211  0.30656587  0.79679310  1
  Bi2+  Bi68  1  -0.01455175  0.57909247  0.30107950  1
  Bi2+  Bi69  1  -0.04039293  0.59027073  0.77936876  1
  Bi2+  Bi70  1  0.02460715  0.87238598  0.29521969  1
  Bi2+  Bi71  1  -0.01377897  0.89639194  0.77409247  1
  Bi2+  Bi72  1  0.27604967  0.09834140  0.24741296  1
  Bi2+  Bi73  1  0.27673193  0.12091577  0.79620354  1
  Bi2+  Bi74  1  0.18410036  0.33443618  0.30841698  1
  Bi2+  Bi75  1  0.22457850  0.36785051  0.78504707  1
  Bi2+  Bi76  1  0.23216987  0.71161766  0.27561246  1
  Bi2+  Bi77  1  0.39207406  0.64259821  0.80792949  1
  Bi2+  Bi78  1  0.26102134  0.91085076  0.28457214  1
  Bi2+  Bi79  1  0.25329015  0.88220553  0.77662746  1
  Bi2+  Bi80  1  0.46978640  0.10179968  0.28067183  1
  Bi2+  Bi81  1  0.51137248  0.18271453  0.78001135  1
  Bi2+  Bi82  1  0.47488646  0.35409147  0.28961070  1
  Bi2+  Bi83  1  0.44242173  0.39572741  0.80974711  1
  Bi2+  Bi84  1  0.48317802  0.66337319  0.27235361  1
  Bi2+  Bi85  1  0.53959898  0.59380076  0.73267748  1
  Bi2+  Bi86  1  0.52553876  0.90794732  0.29228024  1
  Bi2+  Bi87  1  0.50856953  0.91807072  0.79167630  1
  Bi2+  Bi88  1  0.73241907  0.08991532  0.27831139  1
  Bi2+  Bi89  1  0.87106132  0.13386730  0.82236016  1
  Bi2+  Bi90  1  0.81736626  0.35382113  0.29731128  1
  Bi2+  Bi91  1  0.68983996  0.43445912  0.83144134  1
  Bi2+  Bi92  1  0.76251840  0.64573209  0.28980516  1
  Bi2+  Bi93  1  0.71408223  0.63078438  0.78378796  1
  Bi2+  Bi94  1  0.82985110  0.89156511  0.28242842  1
  Bi2+  Bi95  1  0.73105374  0.89376751  0.78432364  1
  Bi2+  Bi96  1  0.08540793  0.02539415  0.22774837  1
  Bi2+  Bi97  1  0.12752730  0.07370171  0.71261432  1
  Bi2+  Bi98  1  0.08203479  0.26068083  0.20165733  1
  Bi2+  Bi99  1  0.09669182  0.27532245  0.71368042  1
  Bi2+  Bi100  1  0.15279070  0.51249899  0.25492871  1
  Bi2+  Bi101  1  0.12460748  0.52538581  0.74639329  1
  Bi2+  Bi102  1  0.13772231  0.75669153  0.18207064  1
  Bi2+  Bi103  1  0.13019667  0.72314743  0.69178735  1
  Bi2+  Bi104  1  0.49612278  -0.00457928  0.18492098  1
  Bi2+  Bi105  1  0.42197783  0.05028009  0.70519826  1
  Bi2+  Bi106  1  0.28129802  0.27481544  0.20467088  1
  Bi2+  Bi107  1  0.35085056  0.25682239  0.72085295  1
  Bi2+  Bi108  1  0.33429255  0.53031727  0.21766811  1
  Bi2+  Bi109  1  0.36722538  0.51857031  0.68749351  1
  Bi2+  Bi110  1  0.37277458  0.84286398  0.19933430  1
  Bi2+  Bi111  1  0.43952924  0.77029605  0.72543607  1
  Bi2+  Bi112  1  0.69398170  0.01104270  0.17114925  1
  Bi2+  Bi113  1  0.62099592  0.04145357  0.70352910  1
  Bi2+  Bi114  1  0.64230335  0.23694298  0.21495178  1
  Bi2+  Bi115  1  0.70034795  0.23939534  0.80827610  1
  Bi2+  Bi116  1  0.65096671  0.49744833  0.23415737  1
  Bi2+  Bi117  1  0.59089890  0.38953654  0.73335841  1
  Bi2+  Bi118  1  0.65001771  0.83238006  0.21539630  1
  Bi2+  Bi119  1  0.61735704  0.84519861  0.69059989  1
  Bi2+  Bi120  1  0.88688490  0.02256454  0.20087825  1
  Bi2+  Bi121  1  0.91140583  0.05859001  0.72064457  1
  Bi2+  Bi122  1  0.88896227  0.22087921  0.21603999  1
  Bi2+  Bi123  1  0.77572869  0.28610892  0.69988694  1
  Bi2+  Bi124  1  0.90532415  0.47370906  0.22089849  1
  Bi2+  Bi125  1  0.79587077  0.48150679  0.72408688  1
  Bi2+  Bi126  1  0.90817864  0.70963111  0.19069988  1
  Bi2+  Bi127  1  0.87466642  0.72204984  0.69164643  1
  S2-  S128  1  0.10458989  0.11675564  0.13712785  1
  S2-  S129  1  -0.00126709  0.15761289  0.65431210  1
  S2-  S130  1  -0.10789615  0.37549758  0.14457200  1
  S2-  S131  1  -0.11852923  0.37042880  0.64082397  1
  S2-  S132  1  0.02830504  0.62152737  0.14860922  1
  S2-  S133  1  0.00242683  0.61399854  0.65126133  1
  S2-  S134  1  -0.00868802  0.83916360  0.15577850  1
  S2-  S135  1  0.00026293  0.84025715  0.66958380  1
  S2-  S136  1  0.33251795  0.12619269  0.15051978  1
  S2-  S137  1  0.27141041  0.12722122  0.65961597  1
  S2-  S138  1  0.12163982  0.38675683  0.14143396  1
  S2-  S139  1  0.13887575  0.37991119  0.63963286  1
  S2-  S140  1  0.31792740  0.63884595  0.14778048  1
  S2-  S141  1  0.26107748  0.64373148  0.64545606  1
  S2-  S142  1  0.21819992  0.88927677  0.15096446  1
  S2-  S143  1  0.20461345  0.86572258  0.67331044  1
  S2-  S144  1  0.51310196  0.23442088  0.15906964  1
  S2-  S145  1  0.52608409  0.16327433  0.65455685  1
  S2-  S146  1  0.36023008  0.39793990  0.15355523  1
  S2-  S147  1  0.37709948  0.37087336  0.64129014  1
  S2-  S148  1  0.53056012  0.57262570  0.18714356  1
  S2-  S149  1  0.50348257  0.54483581  0.63029914  1
  S2-  S150  1  0.51036633  0.77787439  0.15124540  1
  S2-  S151  1  0.41364937  0.85514380  0.63974776  1
  S2-  S152  1  0.75719687  0.21587088  0.14140003  1
  S2-  S153  1  0.76938548  0.11263375  0.66262583  1
  S2-  S154  1  0.64194512  0.39050080  0.16288461  1
  S2-  S155  1  0.64512231  0.36121632  0.63792707  1
  S2-  S156  1  0.77741055  0.57694714  0.17565447  1
  S2-  S157  1  0.75390829  0.61058435  0.65797507  1
  S2-  S158  1  0.76001948  0.77741130  0.14541817  1
  S2-  S159  1  0.78968270  0.85359052  0.66314267  1
  S2-  S160  1  0.14999570  -0.09633954  0.36539880  1
  S2-  S161  1  0.12329862  -0.08653921  0.83798194  1
  S2-  S162  1  0.15391459  0.16301772  0.34596188  1
  S2-  S163  1  0.09280371  0.37667041  0.85493776  1
  S2-  S164  1  0.22561817  0.50117676  0.34785591  1
  S2-  S165  1  0.11615004  0.59699049  0.83587374  1
  S2-  S166  1  0.07080218  0.71631413  0.33417297  1
  S2-  S167  1  0.27140500  0.75724521  0.83926968  1
  S2-  S168  1  0.38811217  -0.01547011  0.34802951  1
  S2-  S169  1  0.36015192  -0.02314929  0.84082470  1
  S2-  S170  1  0.34850327  0.33292917  0.35010119  1
  S2-  S171  1  0.26845176  0.24302763  0.86312812  1
  S2-  S172  1  0.43357814  0.52381695  0.31311394  1
  S2-  S173  1  0.31331917  0.49151739  0.84498729  1
  S2-  S174  1  0.36720197  0.73891279  0.33730308  1
  S2-  S175  1  0.49096267  0.74019800  0.86323851  1
  S2-  S176  1  0.65766045  -0.02477889  0.34656002  1
  S2-  S177  1  0.62943562  0.00113157  0.84232335  1
  S2-  S178  1  0.51457501  0.21432096  0.35073258  1
  S2-  S179  1  0.49225814  0.25685079  0.87034971  1
  S2-  S180  1  0.60885225  0.40503462  0.33243341  1
  S2-  S181  1  0.53762466  0.49940720  0.87335929  1
  S2-  S182  1  0.61638955  0.68706264  0.33325312  1
  S2-  S183  1  0.70942987  0.76812559  0.84910821  1
  S2-  S184  1  0.92213059  -0.01071909  0.35159920  1
  S2-  S185  1  0.86327652  -0.07976674  0.84902594  1
  S2-  S186  1  0.76404234  0.22058062  0.35228151  1
  S2-  S187  1  0.85658958  0.38897024  0.86228969  1
  S2-  S188  1  0.78017055  0.50935482  0.35265134  1
  S2-  S189  1  0.84571559  0.60422682  0.85267225  1
  S2-  S190  1  0.81544541  0.75767593  0.35371466  1
  S2-  S191  1  0.98099761  0.75602860  0.82242354  1
  S2-  S192  1  0.01389074  0.11106387  0.45345805  1
  S2-  S193  1  -0.00468380  0.12991649  0.95121464  1
  S2-  S194  1  0.01203714  0.36203420  0.46015058  1
  S2-  S195  1  -0.00582691  0.38351332  0.95923565  1
  S2-  S196  1  0.01394031  0.61855240  0.44775145  1
  S2-  S197  1  -0.00544091  0.63519982  0.94312429  1
  S2-  S198  1  0.01212454  0.86695385  0.46205523  1
  S2-  S199  1  -0.00536581  0.87808925  0.94622250  1
  S2-  S200  1  0.26624800  0.11091176  0.45244885  1
  S2-  S201  1  0.24214192  0.12486056  0.95952954  1
  S2-  S202  1  0.25659488  0.36328744  0.45672296  1
  S2-  S203  1  0.24996485  0.38295051  0.95971405  1
  S2-  S204  1  0.25903480  0.62142394  0.44388891  1
  S2-  S205  1  0.24752617  0.63362729  0.94744092  1
  S2-  S206  1  0.26941134  0.86442000  0.46331338  1
  S2-  S207  1  0.24421230  0.87730592  0.94667467  1
  S2-  S208  1  0.51361565  0.10847877  0.45369724  1
  S2-  S209  1  0.49429869  0.12650308  0.96432135  1
  S2-  S210  1  0.51244477  0.37083901  0.44991868  1
  S2-  S211  1  0.49636076  0.37556080  0.97563558  1
  S2-  S212  1  0.51097586  0.61569707  0.43692702  1
  S2-  S213  1  0.49485263  0.63294902  0.97203164  1
  S2-  S214  1  0.51355462  0.85975369  0.45204826  1
  S2-  S215  1  0.49431930  0.88321090  0.95848074  1
  S2-  S216  1  0.76461603  0.10958604  0.45470870  1
  S2-  S217  1  0.74158609  0.13263747  0.95135420  1
  S2-  S218  1  0.76574182  0.36523062  0.45079619  1
  S2-  S219  1  0.73907834  0.37693224  0.96713125  1
  S2-  S220  1  0.76631977  0.62017351  0.45303500  1
  S2-  S221  1  0.74062543  0.63050651  0.96138194  1
  S2-  S222  1  0.76568120  0.86464064  0.45760151  1
  S2-  S223  1  0.74333905  0.88148538  0.95706840  1
  S2-  S224  1  0.11931948  0.00206910  0.03478420  1
  S2-  S225  1  0.14167692  -0.01301307  0.55434560  1
  S2-  S226  1  0.12136723  0.25444299  0.03847634  1
  S2-  S227  1  0.13695282  0.23694245  0.54370358  1
  S2-  S228  1  0.12078149  0.50772541  0.03620048  1
  S2-  S229  1  0.13604916  0.49516683  0.53813610  1
  S2-  S230  1  0.12090648  0.75379557  0.04335331  1
  S2-  S231  1  0.13995204  0.73988556  0.54156577  1
  S2-  S232  1  0.36650947  0.00330267  0.04775023  1
  S2-  S233  1  0.38930939  -0.00955770  0.54989433  1
  S2-  S234  1  0.36441999  0.25049880  0.04953330  1
  S2-  S235  1  0.38964222  0.24062751  0.54095910  1
  S2-  S236  1  0.37402901  0.50631875  0.04898727  1
  S2-  S237  1  0.38222430  0.49187912  0.52750783  1
  S2-  S238  1  0.36924887  0.75916612  0.04185179  1
  S2-  S239  1  0.39061580  0.73196183  0.54009348  1
  S2-  S240  1  0.61891301  0.00711287  0.04857398  1
  S2-  S241  1  0.63763530  -0.01186722  0.55179242  1
  S2-  S242  1  0.61866385  0.24817589  0.04767900  1
  S2-  S243  1  0.63729324  0.23840859  0.53629221  1
  S2-  S244  1  0.62054486  0.51067031  0.06430590  1
  S2-  S245  1  0.64152731  0.49228234  0.53144230  1
  S2-  S246  1  0.62029241  0.75648039  0.04653905  1
  S2-  S247  1  0.63713804  0.73460568  0.54121383  1
  S2-  S248  1  0.86997622  0.00700085  0.04623696  1
  S2-  S249  1  0.88818371  -0.01362887  0.55448247  1
  S2-  S250  1  0.87416075  0.25042955  0.03975549  1
  S2-  S251  1  0.89027450  0.23617225  0.53886882  1
  S2-  S252  1  0.86805272  0.50782661  0.04716040  1
  S2-  S253  1  0.89249736  0.49418182  0.53954116  1
  S2-  S254  1  0.87071162  0.75505996  0.04215185  1
  S2-  S255  1  0.88916060  0.73927603  0.54751189  1
