# generated using pymatgen
data_La6Ce6Pr19Nd20Sm13(BiS2)64
_symmetry_space_group_name_H-M   'P 1'
_cell_length_a   16.05385849
_cell_length_b   16.11344523
_cell_length_c   27.36063131
_cell_angle_alpha   90.30620875
_cell_angle_beta   89.85901887
_cell_angle_gamma   90.15111391
_symmetry_Int_Tables_number   1
_chemical_formula_structural   La6Ce6Pr19Nd20Sm13(BiS2)64
_chemical_formula_sum   'La6 Ce6 Pr19 Nd20 Sm13 Bi64 S128'
_cell_volume   7077.58248319
_cell_formula_units_Z   1
loop_
 _symmetry_equiv_pos_site_id
 _symmetry_equiv_pos_as_xyz
  1  'x, y, z'
loop_
 _atom_type_symbol
 _atom_type_oxidation_number
  La3+  3.0
  Ce3+  3.0
  Pr3+  3.0
  Nd3+  3.0
  Sm3+  3.0
  Bi2+  2.0
  S2-  -2.0
loop_
 _atom_site_type_symbol
 _atom_site_label
 _atom_site_symmetry_multiplicity
 _atom_site_fract_x
 _atom_site_fract_y
 _atom_site_fract_z
 _atom_site_occupancy
  La3+  La0  1  0.86882731  -0.02109539  0.41823760  1
  La3+  La1  1  0.48555450  0.11878056  0.07861428  1
  La3+  La2  1  0.24928493  0.11574743  0.61346036  1
  La3+  La3  1  0.50468043  0.61913484  0.10854623  1
  La3+  La4  1  0.11157510  0.23000610  0.43095805  1
  La3+  La5  1  0.87133975  0.72762974  0.41622391  1
  Ce3+  Ce6  1  0.87512881  -0.00956996  0.94680410  1
  Ce3+  Ce7  1  0.12444573  0.24694175  0.92729957  1
  Ce3+  Ce8  1  0.11313098  -0.00340302  0.90823181  1
  Ce3+  Ce9  1  0.24604084  0.37202165  0.05993473  1
  Ce3+  Ce10  1  0.23382116  0.85724830  0.56586610  1
  Ce3+  Ce11  1  -0.02051737  0.60582880  0.55993915  1
  Pr3+  Pr12  1  0.74226579  0.86805720  0.06679664  1
  Pr3+  Pr13  1  0.36069093  0.72998002  0.43137816  1
  Pr3+  Pr14  1  0.73523194  0.35481800  0.55479451  1
  Pr3+  Pr15  1  0.24712226  0.62045091  0.06088356  1
  Pr3+  Pr16  1  0.61828392  0.74307441  0.93823230  1
  Pr3+  Pr17  1  0.74512384  0.36973582  0.06259141  1
  Pr3+  Pr18  1  -0.02512566  0.85527466  0.56771471  1
  Pr3+  Pr19  1  -0.01282419  0.10774032  0.56265820  1
  Pr3+  Pr20  1  0.74133210  0.10551827  0.55676820  1
  Pr3+  Pr21  1  0.11738504  0.74636736  0.89842330  1
  Pr3+  Pr22  1  0.62464935  0.49754324  0.94647286  1
  Pr3+  Pr23  1  0.48746547  0.09751417  0.57107245  1
  Pr3+  Pr24  1  0.48742575  0.85136059  0.56792763  1
  Pr3+  Pr25  1  0.48360657  0.60340822  0.56407557  1
  Pr3+  Pr26  1  0.60246391  -0.01675993  0.42793296  1
  Pr3+  Pr27  1  0.23414795  0.35701967  0.56084616  1
  Pr3+  Pr28  1  0.87305709  0.23973546  0.94067639  1
  Pr3+  Pr29  1  0.48483638  0.86625890  0.07012255  1
  Pr3+  Pr30  1  -0.00312955  0.36582696  0.06052140  1
  Nd3+  Nd31  1  0.85605654  0.22411418  0.41488988  1
  Nd3+  Nd32  1  0.60873300  0.47982984  0.43527777  1
  Nd3+  Nd33  1  0.73432509  0.60662667  0.54784636  1
  Nd3+  Nd34  1  0.36594137  0.48338610  0.42530515  1
  Nd3+  Nd35  1  0.37174183  0.74388594  0.93346534  1
  Nd3+  Nd36  1  -0.00112581  0.61921619  0.06602603  1
  Nd3+  Nd37  1  0.11003004  -0.02098705  0.44512468  1
  Nd3+  Nd38  1  0.35787327  0.22800468  0.43788598  1
  Nd3+  Nd39  1  0.85909050  0.48037399  0.42681370  1
  Nd3+  Nd40  1  0.37230681  0.49485364  0.94295225  1
  Nd3+  Nd41  1  0.12384211  0.49192115  0.93041200  1
  Nd3+  Nd42  1  0.75295129  0.62102808  0.06856252  1
  Nd3+  Nd43  1  0.11156773  0.48109395  0.44409119  1
  Nd3+  Nd44  1  0.87527400  0.49657097  0.93998169  1
  Nd3+  Nd45  1  0.60540403  0.73245469  0.42298017  1
  Nd3+  Nd46  1  0.00151987  0.87221269  0.06430088  1
  Nd3+  Nd47  1  0.48093414  0.35052341  0.56267221  1
  Nd3+  Nd48  1  0.38137131  -0.00345990  0.92599336  1
  Nd3+  Nd49  1  0.23592606  0.60606070  0.56205693  1
  Nd3+  Nd50  1  0.62243789  0.24163161  0.94965230  1
  Sm3+  Sm51  1  0.74381320  0.11670223  0.06494399  1
  Sm3+  Sm52  1  0.35976220  -0.02001113  0.44645856  1
  Sm3+  Sm53  1  0.60151296  0.22862216  0.43800787  1
  Sm3+  Sm54  1  0.49733628  0.37186038  0.05773573  1
  Sm3+  Sm55  1  0.11053802  0.72995094  0.44918227  1
  Sm3+  Sm56  1  0.87870363  0.74676114  0.94823521  1
  Sm3+  Sm57  1  0.24697387  0.11913803  0.05275993  1
  Sm3+  Sm58  1  0.73709372  0.85519436  0.54120231  1
  Sm3+  Sm59  1  0.37397129  0.24249101  0.94358045  1
  Sm3+  Sm60  1  0.61893007  -0.00743095  0.95233402  1
  Sm3+  Sm61  1  0.24676505  0.87020762  0.04656283  1
  Sm3+  Sm62  1  -0.00097073  0.11786410  0.05812180  1
  Sm3+  Sm63  1  -0.01727922  0.35346509  0.54936160  1
  Bi2+  Bi64  1  0.07486604  0.12693499  0.28752912  1
  Bi2+  Bi65  1  -0.03866756  0.12367680  0.78439699  1
  Bi2+  Bi66  1  -0.02974021  0.39061963  0.29904647  1
  Bi2+  Bi67  1  0.03151777  0.44294671  0.72065485  1
  Bi2+  Bi68  1  0.05539078  0.59760756  0.28460787  1
  Bi2+  Bi69  1  -0.01695834  0.60768290  0.78638948  1
  Bi2+  Bi70  1  0.02432962  0.86131752  0.29617662  1
  Bi2+  Bi71  1  -0.03217888  0.86148229  0.79127311  1
  Bi2+  Bi72  1  0.28432922  0.11051060  0.29984145  1
  Bi2+  Bi73  1  0.26637636  0.16704817  0.81199623  1
  Bi2+  Bi74  1  0.26280062  0.39362779  0.30140317  1
  Bi2+  Bi75  1  0.26903460  0.38870156  0.79090130  1
  Bi2+  Bi76  1  0.24463480  0.72018833  0.29942266  1
  Bi2+  Bi77  1  0.25747695  0.60708029  0.78614453  1
  Bi2+  Bi78  1  0.25253973  0.91228220  0.31900399  1
  Bi2+  Bi79  1  0.25219307  0.80463394  0.75659276  1
  Bi2+  Bi80  1  0.54637737  0.11678526  0.30494790  1
  Bi2+  Bi81  1  0.51091428  0.14157424  0.80851296  1
  Bi2+  Bi82  1  0.45519574  0.35081872  0.28328721  1
  Bi2+  Bi83  1  0.55018901  0.39375701  0.76427213  1
  Bi2+  Bi84  1  0.49371758  0.61771925  0.30406733  1
  Bi2+  Bi85  1  0.52352995  0.67004200  0.76592992  1
  Bi2+  Bi86  1  0.46198994  0.88982351  0.28366113  1
  Bi2+  Bi87  1  0.55206197  0.86714996  0.79362343  1
  Bi2+  Bi88  1  0.78498714  0.19589022  0.26968251  1
  Bi2+  Bi89  1  0.76464778  0.15743322  0.79986459  1
  Bi2+  Bi90  1  0.77644275  0.37314900  0.32179145  1
  Bi2+  Bi91  1  0.76664071  0.44928190  0.78730779  1
  Bi2+  Bi92  1  0.73769112  0.55308764  0.29426007  1
  Bi2+  Bi93  1  0.69335738  0.62729089  0.81861459  1
  Bi2+  Bi94  1  0.79490242  0.95710422  0.27760713  1
  Bi2+  Bi95  1  0.74965859  0.88799061  0.79527452  1
  Bi2+  Bi96  1  0.18499349  0.00360446  0.22121248  1
  Bi2+  Bi97  1  0.12811224  -0.01329623  0.71513638  1
  Bi2+  Bi98  1  0.14803697  0.30724401  0.21939386  1
  Bi2+  Bi99  1  0.10067730  0.25688616  0.70993193  1
  Bi2+  Bi100  1  0.12292055  0.60985696  0.17601644  1
  Bi2+  Bi101  1  0.20315404  0.51314547  0.68340222  1
  Bi2+  Bi102  1  0.15540206  0.80662097  0.20495071  1
  Bi2+  Bi103  1  0.07886223  0.73767884  0.71683705  1
  Bi2+  Bi104  1  0.39178442  -0.00098149  0.20330879  1
  Bi2+  Bi105  1  0.41460000  0.04286726  0.72708468  1
  Bi2+  Bi106  1  0.33563900  0.24336288  0.21718913  1
  Bi2+  Bi107  1  0.39804609  0.31703275  0.71046939  1
  Bi2+  Bi108  1  0.28165164  0.52800834  0.21987770  1
  Bi2+  Bi109  1  0.39030886  0.58006717  0.69740915  1
  Bi2+  Bi110  1  0.36885878  0.76949278  0.21116827  1
  Bi2+  Bi111  1  0.42472582  0.82707471  0.70620080  1
  Bi2+  Bi112  1  0.65883998  0.00393018  0.20463440  1
  Bi2+  Bi113  1  0.67719211  0.04635082  0.71469707  1
  Bi2+  Bi114  1  0.60527691  0.27600332  0.22056923  1
  Bi2+  Bi115  1  0.60758361  0.23044968  0.71201467  1
  Bi2+  Bi116  1  0.63809489  0.47173844  0.20545617  1
  Bi2+  Bi117  1  0.67376879  0.47626891  0.68745669  1
  Bi2+  Bi118  1  0.64023576  0.75188818  0.22099215  1
  Bi2+  Bi119  1  0.67868236  0.85245910  0.68685985  1
  Bi2+  Bi120  1  0.93450695  0.03153587  0.20878237  1
  Bi2+  Bi121  1  0.86637420  -0.02411843  0.70064702  1
  Bi2+  Bi122  1  0.94918442  0.26098718  0.20895075  1
  Bi2+  Bi123  1  0.85694115  0.23744474  0.70912772  1
  Bi2+  Bi124  1  0.89188143  0.47397010  0.20480863  1
  Bi2+  Bi125  1  0.86436195  0.53687998  0.68448368  1
  Bi2+  Bi126  1  0.96874993  0.72498922  0.20907128  1
  Bi2+  Bi127  1  0.79185581  0.71663669  0.73824579  1
  S2-  S128  1  0.03258638  0.13914148  0.15332055  1
  S2-  S129  1  0.08197037  0.11712714  0.65083652  1
  S2-  S130  1  0.03563420  0.39628648  0.15688300  1
  S2-  S131  1  -0.02700788  0.32505945  0.64649232  1
  S2-  S132  1  -0.11694666  0.61158703  0.14286157  1
  S2-  S133  1  -0.02921790  0.66830139  0.65033025  1
  S2-  S134  1  -0.03941817  0.88619196  0.16140618  1
  S2-  S135  1  0.03189391  0.88398205  0.66525984  1
  S2-  S136  1  0.33592698  0.12410274  0.13764186  1
  S2-  S137  1  0.25218626  0.10632130  0.72226631  1
  S2-  S138  1  0.27748554  0.38333950  0.15627179  1
  S2-  S139  1  0.23011039  0.28763136  0.65339227  1
  S2-  S140  1  0.34005900  0.63237153  0.14653589  1
  S2-  S141  1  0.25783150  0.67805449  0.65157819  1
  S2-  S142  1  0.33647985  0.88465986  0.13239626  1
  S2-  S143  1  0.24313467  0.94491678  0.65081584  1
  S2-  S144  1  0.56562796  0.12383091  0.17004130  1
  S2-  S145  1  0.41584544  0.16963541  0.65557893  1
  S2-  S146  1  0.51817275  0.37000859  0.15432453  1
  S2-  S147  1  0.45850773  0.44722678  0.64525427  1
  S2-  S148  1  0.49926226  0.56689799  0.21297990  1
  S2-  S149  1  0.49885999  0.72108932  0.63829272  1
  S2-  S150  1  0.52450740  0.77927710  0.15673526  1
  S2-  S151  1  0.48787376  0.96957735  0.64621560  1
  S2-  S152  1  0.78314809  0.09036639  0.15885808  1
  S2-  S153  1  0.85563296  0.10885065  0.63537074  1
  S2-  S154  1  0.77715701  0.37477497  0.16057877  1
  S2-  S155  1  0.73061259  0.31030688  0.65235571  1
  S2-  S156  1  0.66793800  0.62098176  0.15580110  1
  S2-  S157  1  0.71885907  0.62673283  0.64695678  1
  S2-  S158  1  0.73457117  0.84961434  0.16754820  1
  S2-  S159  1  0.82370862  0.85749094  0.62799096  1
  S2-  S160  1  0.03739852  -0.00549715  0.35334733  1
  S2-  S161  1  0.11303160  0.13681731  0.84880190  1
  S2-  S162  1  0.24087882  0.24348303  0.35801403  1
  S2-  S163  1  0.14134535  0.36736865  0.85488927  1
  S2-  S164  1  0.11742834  0.47581815  0.34467854  1
  S2-  S165  1  0.11635803  0.59316802  0.84856625  1
  S2-  S166  1  0.04841065  0.72653728  0.35776446  1
  S2-  S167  1  0.11733461  0.88428079  0.83257803  1
  S2-  S168  1  0.45648383  0.00225364  0.36447749  1
  S2-  S169  1  0.32846347  0.01853947  0.83017286  1
  S2-  S170  1  0.47556054  0.23281464  0.36117446  1
  S2-  S171  1  0.40352037  0.26432185  0.84746156  1
  S2-  S172  1  0.33899894  0.60631624  0.35331839  1
  S2-  S173  1  0.35958520  0.50029539  0.84315948  1
  S2-  S174  1  0.47543949  0.76914126  0.35580241  1
  S2-  S175  1  0.27701156  0.74636853  0.84833308  1
  S2-  S176  1  0.64993282  -0.03165259  0.32547626  1
  S2-  S177  1  0.53538554  0.00035993  0.86696394  1
  S2-  S178  1  0.67135650  0.20277615  0.34720732  1
  S2-  S179  1  0.63408907  0.23296088  0.85167371  1
  S2-  S180  1  0.50801378  0.47087923  0.35476226  1
  S2-  S181  1  0.61363639  0.47318333  0.84748513  1
  S2-  S182  1  0.65923826  0.69924598  0.32374808  1
  S2-  S183  1  0.49974113  0.74794114  0.86044569  1
  S2-  S184  1  0.84594976  0.09641518  0.34279583  1
  S2-  S185  1  0.94118848  -0.00477376  0.85779722  1
  S2-  S186  1  1.00156721  0.24078577  0.35007375  1
  S2-  S187  1  0.90459758  0.24999120  0.84193246  1
  S2-  S188  1  0.87171418  0.59157982  0.34862844  1
  S2-  S189  1  0.90514923  0.48695843  0.84250002  1
  S2-  S190  1  0.86766347  0.84866866  0.34323366  1
  S2-  S191  1  0.94525372  0.73658832  0.85819745  1
  S2-  S192  1  -0.01480809  0.10828273  0.45471616  1
  S2-  S193  1  -0.00039569  0.11775065  0.95675146  1
  S2-  S194  1  -0.01845500  0.35980376  0.44720299  1
  S2-  S195  1  -0.00425973  0.36808073  0.95416235  1
  S2-  S196  1  -0.01234677  0.60120846  0.45549591  1
  S2-  S197  1  -0.00154911  0.62062703  0.96012512  1
  S2-  S198  1  -0.01195038  0.85204427  0.45862804  1
  S2-  S199  1  0.00468095  0.86978166  0.95835029  1
  S2-  S200  1  0.23640035  0.09913325  0.44808677  1
  S2-  S201  1  0.24921851  0.11860060  0.95002187  1
  S2-  S202  1  0.24036246  0.36373856  0.45498420  1
  S2-  S203  1  0.25169382  0.36656690  0.95590755  1
  S2-  S204  1  0.23299707  0.60617082  0.45591989  1
  S2-  S205  1  0.24564591  0.61779296  0.95378645  1
  S2-  S206  1  0.23513671  0.85372170  0.45647740  1
  S2-  S207  1  0.24446361  0.87815193  0.94506149  1
  S2-  S208  1  0.48285018  0.10618240  0.46516019  1
  S2-  S209  1  0.49855341  0.12184885  0.96641533  1
  S2-  S210  1  0.48327583  0.35715390  0.45947459  1
  S2-  S211  1  0.49929484  0.36804945  0.95350310  1
  S2-  S212  1  0.48727716  0.60599881  0.45658285  1
  S2-  S213  1  0.49684118  0.61519499  0.95161942  1
  S2-  S214  1  0.48476974  0.85873772  0.46190839  1
  S2-  S215  1  0.49707342  0.86974291  0.96300380  1
  S2-  S216  1  0.72840229  0.10651740  0.45156465  1
  S2-  S217  1  0.74589538  0.11375850  0.95901573  1
  S2-  S218  1  0.73097451  0.35241812  0.44872105  1
  S2-  S219  1  0.74981072  0.36797957  0.95444795  1
  S2-  S220  1  0.73136526  0.60481668  0.44356590  1
  S2-  S221  1  0.75298516  0.62396351  0.95820532  1
  S2-  S222  1  0.73095388  0.85560813  0.43943799  1
  S2-  S223  1  0.74599696  0.86802389  0.95645454  1
  S2-  S224  1  0.12639691  -0.00340156  0.05711685  1
  S2-  S225  1  0.10624758  -0.02348944  0.54813464  1
  S2-  S226  1  0.12395481  0.24235318  0.04438917  1
  S2-  S227  1  0.10884606  0.23631228  0.53994697  1
  S2-  S228  1  0.12022536  0.49345710  0.04240659  1
  S2-  S229  1  0.10590977  0.48105768  0.55003085  1
  S2-  S230  1  0.12295252  0.74778191  0.05649422  1
  S2-  S231  1  0.10784289  0.73047331  0.55186070  1
  S2-  S232  1  0.36914544  -0.00285634  0.03404592  1
  S2-  S233  1  0.35473688  -0.01559482  0.54820443  1
  S2-  S234  1  0.37224890  0.25041482  0.04656007  1
  S2-  S235  1  0.35580818  0.22878620  0.54518092  1
  S2-  S236  1  0.37846852  0.49480582  0.04979752  1
  S2-  S237  1  0.35867142  0.48222673  0.53894286  1
  S2-  S238  1  0.36838150  0.74392679  0.03852423  1
  S2-  S239  1  0.35793904  0.73097314  0.54022617  1
  S2-  S240  1  0.61712721  -0.00680386  0.05639010  1
  S2-  S241  1  0.61723008  -0.02129292  0.54231906  1
  S2-  S242  1  0.62103936  0.24201404  0.05510597  1
  S2-  S243  1  0.60768168  0.22917600  0.54659072  1
  S2-  S244  1  0.62075847  0.49728854  0.05221213  1
  S2-  S245  1  0.60829205  0.47894003  0.54232136  1
  S2-  S246  1  0.62055064  0.74073750  0.04641000  1
  S2-  S247  1  0.61456272  0.73109650  0.53367829  1
  S2-  S248  1  0.87100329  -0.00516646  0.05146080  1
  S2-  S249  1  0.85982254  -0.01872729  0.53009730  1
  S2-  S250  1  0.86991988  0.23866814  0.04966204  1
  S2-  S251  1  0.86022079  0.23460170  0.53154155  1
  S2-  S252  1  0.87273311  0.49122426  0.04501936  1
  S2-  S253  1  0.85850938  0.47893443  0.53790832  1
  S2-  S254  1  0.87454780  0.75036623  0.05051116  1
  S2-  S255  1  0.85812646  0.72692440  0.53026536  1
