# generated using pymatgen
data_La6Ce6Pr19Nd20Sm13(BiS2)64
_symmetry_space_group_name_H-M   'P 1'
_cell_length_a   16.18874279
_cell_length_b   16.17969435
_cell_length_c   27.10355773
_cell_angle_alpha   89.96755141
_cell_angle_beta   89.97892404
_cell_angle_gamma   89.98000742
_symmetry_Int_Tables_number   1
_chemical_formula_structural   La6Ce6Pr19Nd20Sm13(BiS2)64
_chemical_formula_sum   'La6 Ce6 Pr19 Nd20 Sm13 Bi64 S128'
_cell_volume   7099.20329016
_cell_formula_units_Z   1
loop_
 _symmetry_equiv_pos_site_id
 _symmetry_equiv_pos_as_xyz
  1  'x, y, z'
loop_
 _atom_type_symbol
 _atom_type_oxidation_number
  La3+  3.0
  Ce3+  3.0
  Pr3+  3.0
  Nd3+  3.0
  Sm3+  3.0
  Bi2+  2.0
  S2-  -2.0
loop_
 _atom_site_type_symbol
 _atom_site_label
 _atom_site_symmetry_multiplicity
 _atom_site_fract_x
 _atom_site_fract_y
 _atom_site_fract_z
 _atom_site_occupancy
  La3+  La0  1  0.74864355  0.63508910  0.09115829  1
  La3+  La1  1  0.13233418  0.73481023  0.88697970  1
  La3+  La2  1  -0.00260947  0.11555899  0.07717664  1
  La3+  La3  1  0.74306377  0.61317782  0.57555689  1
  La3+  La4  1  0.86455302  0.25242200  0.38698286  1
  La3+  La5  1  -0.01443650  0.88033619  0.59852099  1
  Ce3+  Ce6  1  0.62561494  0.49717663  0.43656117  1
  Ce3+  Ce7  1  -0.00155969  0.12350398  0.56106439  1
  Ce3+  Ce8  1  0.49752871  0.12405451  0.06201027  1
  Ce3+  Ce9  1  0.12338049  -0.00782280  0.93405565  1
  Ce3+  Ce10  1  0.49814868  0.37822848  0.06038373  1
  Ce3+  Ce11  1  0.50039604  0.62184855  0.56241204  1
  Pr3+  Pr12  1  0.87356527  0.50646543  0.43001532  1
  Pr3+  Pr13  1  0.37169202  0.25004188  0.94605294  1
  Pr3+  Pr14  1  0.74995653  0.12276276  0.55692814  1
  Pr3+  Pr15  1  0.62294908  0.25109420  0.94982860  1
  Pr3+  Pr16  1  0.87065081  0.49408649  0.93042558  1
  Pr3+  Pr17  1  0.12188402  0.24957690  0.43092812  1
  Pr3+  Pr18  1  -0.00278916  0.37177185  0.55798728  1
  Pr3+  Pr19  1  0.24642948  0.87266245  0.56634734  1
  Pr3+  Pr20  1  0.24818699  0.62426047  0.56647550  1
  Pr3+  Pr21  1  0.36919832  0.50315103  0.93689582  1
  Pr3+  Pr22  1  0.62784402  0.74697538  0.93270131  1
  Pr3+  Pr23  1  0.87467245  -0.00108742  0.93772197  1
  Pr3+  Pr24  1  0.24638651  0.12076426  0.55586570  1
  Pr3+  Pr25  1  0.37121028  0.24767107  0.42429694  1
  Pr3+  Pr26  1  0.62636814  0.74627828  0.43427473  1
  Pr3+  Pr27  1  0.74902584  0.37147136  0.55342740  1
  Pr3+  Pr28  1  0.37239682  0.49947550  0.44027673  1
  Pr3+  Pr29  1  0.49802941  0.12328858  0.55375181  1
  Pr3+  Pr30  1  0.37343242  0.74824719  0.44638032  1
  Nd3+  Nd31  1  0.11987629  0.74925219  0.45447422  1
  Nd3+  Nd32  1  0.74699685  0.12338038  0.06168448  1
  Nd3+  Nd33  1  0.62778085  0.50174334  0.95015639  1
  Nd3+  Nd34  1  0.24571732  0.62642539  0.06294833  1
  Nd3+  Nd35  1  0.24616004  0.87389560  0.05685572  1
  Nd3+  Nd36  1  0.62736694  -0.00007606  0.43353997  1
  Nd3+  Nd37  1  -0.00349735  0.87211216  0.05665264  1
  Nd3+  Nd38  1  0.49490940  0.37087818  0.55377286  1
  Nd3+  Nd39  1  0.87289180  0.74612558  0.92548583  1
  Nd3+  Nd40  1  0.37388523  0.75129308  0.93843731  1
  Nd3+  Nd41  1  0.37380725  -0.00383953  0.44588329  1
  Nd3+  Nd42  1  0.75226090  0.37865958  0.07085673  1
  Nd3+  Nd43  1  -0.00673502  0.62550351  0.05356538  1
  Nd3+  Nd44  1  0.49230042  0.62540438  0.06301161  1
  Nd3+  Nd45  1  0.74199055  0.87251265  0.56826242  1
  Nd3+  Nd46  1  0.24796525  0.37033951  0.55921207  1
  Nd3+  Nd47  1  0.87526224  0.24949753  0.94339740  1
  Nd3+  Nd48  1  0.87433942  0.74679336  0.45164340  1
  Nd3+  Nd49  1  -0.01057132  0.61348509  0.58291666  1
  Nd3+  Nd50  1  0.24730100  0.37434260  0.06204413  1
  Sm3+  Sm51  1  0.50364385  0.87251177  0.55768908  1
  Sm3+  Sm52  1  -0.00223958  0.37457631  0.06078549  1
  Sm3+  Sm53  1  0.62535308  0.24837959  0.43974492  1
  Sm3+  Sm54  1  0.49877435  0.87339019  0.05190965  1
  Sm3+  Sm55  1  0.12326170  0.24887732  0.94768552  1
  Sm3+  Sm56  1  0.24832102  0.12352942  0.05616275  1
  Sm3+  Sm57  1  0.12179515  0.50133860  0.94491384  1
  Sm3+  Sm58  1  0.62459325  0.00121473  0.94213334  1
  Sm3+  Sm59  1  0.11954902  -0.00291534  0.44566268  1
  Sm3+  Sm60  1  0.87614952  0.00095814  0.44097572  1
  Sm3+  Sm61  1  0.74677557  0.87185911  0.05586351  1
  Sm3+  Sm62  1  0.12100018  0.49958613  0.44708835  1
  Sm3+  Sm63  1  0.37293228  -0.00081186  0.94432866  1
  Bi2+  Bi64  1  0.01500013  0.09515300  0.28936019  1
  Bi2+  Bi65  1  0.00494408  0.12475201  0.78723612  1
  Bi2+  Bi66  1  0.02796791  0.38369055  0.28688489  1
  Bi2+  Bi67  1  -0.00996158  0.34651897  0.79350029  1
  Bi2+  Bi68  1  -0.00312152  0.66589400  0.29539078  1
  Bi2+  Bi69  1  0.00863534  0.61084947  0.78123964  1
  Bi2+  Bi70  1  -0.02703651  0.88311660  0.29618038  1
  Bi2+  Bi71  1  -0.00645713  0.91016876  0.79885901  1
  Bi2+  Bi72  1  0.26454040  0.14532987  0.27398479  1
  Bi2+  Bi73  1  0.28644735  0.11634765  0.78898030  1
  Bi2+  Bi74  1  0.27019005  0.40360410  0.29768626  1
  Bi2+  Bi75  1  0.24961428  0.34054852  0.79418130  1
  Bi2+  Bi76  1  0.23911230  0.67621352  0.28787142  1
  Bi2+  Bi77  1  0.26284577  0.58613034  0.78599036  1
  Bi2+  Bi78  1  0.26595406  0.87231395  0.29339055  1
  Bi2+  Bi79  1  0.29264929  0.86644246  0.79046169  1
  Bi2+  Bi80  1  0.46055919  0.13090577  0.30478337  1
  Bi2+  Bi81  1  0.48031721  0.16383868  0.77512496  1
  Bi2+  Bi82  1  0.45517394  0.34200318  0.30583592  1
  Bi2+  Bi83  1  0.48802474  0.37184245  0.75129615  1
  Bi2+  Bi84  1  0.48704116  0.63888371  0.29386421  1
  Bi2+  Bi85  1  0.50573913  0.65179262  0.78848133  1
  Bi2+  Bi86  1  0.46437286  0.92753318  0.27722334  1
  Bi2+  Bi87  1  0.49440832  0.85888985  0.79397237  1
  Bi2+  Bi88  1  0.73830205  0.10674678  0.28728887  1
  Bi2+  Bi89  1  0.74155135  0.14421177  0.79508627  1
  Bi2+  Bi90  1  0.74560049  0.38079337  0.28405346  1
  Bi2+  Bi91  1  0.72407111  0.35402965  0.79596693  1
  Bi2+  Bi92  1  0.73967585  0.64122486  0.29456218  1
  Bi2+  Bi93  1  0.72195861  0.60646111  0.79644501  1
  Bi2+  Bi94  1  0.77047785  0.86174600  0.24949641  1
  Bi2+  Bi95  1  0.70595959  0.88717488  0.79386598  1
  Bi2+  Bi96  1  0.12173659  -0.08027391  0.22039946  1
  Bi2+  Bi97  1  0.14769625  0.05063388  0.71714802  1
  Bi2+  Bi98  1  0.15827317  0.26803863  0.21447860  1
  Bi2+  Bi99  1  0.06778303  0.23085959  0.69257724  1
  Bi2+  Bi100  1  0.11399223  0.54045279  0.23669750  1
  Bi2+  Bi101  1  0.11703427  0.41712940  0.71772335  1
  Bi2+  Bi102  1  0.12131266  0.72338915  0.19493154  1
  Bi2+  Bi103  1  0.16254022  0.75882317  0.68624755  1
  Bi2+  Bi104  1  0.37497517  0.04598158  0.19395762  1
  Bi2+  Bi105  1  0.41161063  -0.00021724  0.71440710  1
  Bi2+  Bi106  1  0.40407739  0.24511228  0.20633071  1
  Bi2+  Bi107  1  0.34701429  0.26487983  0.70102892  1
  Bi2+  Bi108  1  0.35229112  0.49481370  0.20617063  1
  Bi2+  Bi109  1  0.40806954  0.56819942  0.69615748  1
  Bi2+  Bi110  1  0.36113509  0.77760771  0.20472695  1
  Bi2+  Bi111  1  0.40546866  0.76299374  0.70507235  1
  Bi2+  Bi112  1  0.62341883  -0.00749581  0.22254755  1
  Bi2+  Bi113  1  0.60333234  -0.00291002  0.70850418  1
  Bi2+  Bi114  1  0.58910371  0.24275604  0.24600721  1
  Bi2+  Bi115  1  0.63363572  0.22278875  0.70938121  1
  Bi2+  Bi116  1  0.56903514  0.51393233  0.22322689  1
  Bi2+  Bi117  1  0.60853055  0.49337720  0.70433608  1
  Bi2+  Bi118  1  0.60428735  0.77449118  0.20593860  1
  Bi2+  Bi119  1  0.61914511  0.75679904  0.71792983  1
  Bi2+  Bi120  1  0.89244061  0.00058877  0.21169959  1
  Bi2+  Bi121  1  0.85879976  0.03239727  0.71140494  1
  Bi2+  Bi122  1  0.88629995  0.25911294  0.18443861  1
  Bi2+  Bi123  1  0.87195904  0.24100055  0.72133009  1
  Bi2+  Bi124  1  0.86677333  0.49995174  0.20473089  1
  Bi2+  Bi125  1  0.86475406  0.48001571  0.71007289  1
  Bi2+  Bi126  1  0.92830799  0.76731620  0.20326315  1
  Bi2+  Bi127  1  0.88223037  0.75485340  0.71557538  1
  S2-  S128  1  0.02875639  0.18336796  0.16959100  1
  S2-  S129  1  -0.01360989  0.04213425  0.64688176  1
  S2-  S130  1  -0.01879228  0.39977502  0.15761953  1
  S2-  S131  1  -0.01274514  0.46223731  0.64496062  1
  S2-  S132  1  -0.09437803  0.62459534  0.14020936  1
  S2-  S133  1  0.02016041  0.66219741  0.67864447  1
  S2-  S134  1  0.01261007  0.96753311  0.14075196  1
  S2-  S135  1  0.02467426  0.85662070  0.69971704  1
  S2-  S136  1  0.23863029  0.12194299  0.15419383  1
  S2-  S137  1  0.24270810  0.14637594  0.65478770  1
  S2-  S138  1  0.23165646  0.38839030  0.16056818  1
  S2-  S139  1  0.25820128  0.38823899  0.65784247  1
  S2-  S140  1  0.33399382  0.62518186  0.14916265  1
  S2-  S141  1  0.24392711  0.60749716  0.66760302  1
  S2-  S142  1  0.26025895  0.88159632  0.15628353  1
  S2-  S143  1  0.23091874  0.91213910  0.66425637  1
  S2-  S144  1  0.53811231  0.09306324  0.15504805  1
  S2-  S145  1  0.49562542  0.11104620  0.65371241  1
  S2-  S146  1  0.48852228  0.40820287  0.15668593  1
  S2-  S147  1  0.52651300  0.35547133  0.65154125  1
  S2-  S148  1  0.54695758  0.64226451  0.15710865  1
  S2-  S149  1  0.60492083  0.62702241  0.64117682  1
  S2-  S150  1  0.49148230  0.85553954  0.14941727  1
  S2-  S151  1  0.60745684  0.87435246  0.63660373  1
  S2-  S152  1  0.79450296  0.11894186  0.15638888  1
  S2-  S153  1  0.72213219  0.09918930  0.65557160  1
  S2-  S154  1  0.75173901  0.37528104  0.17133986  1
  S2-  S155  1  0.74734238  0.43960377  0.64662522  1
  S2-  S156  1  0.72406140  0.58233770  0.19340662  1
  S2-  S157  1  0.82702422  0.63104546  0.66545201  1
  S2-  S158  1  0.74162437  0.79061940  0.14199031  1
  S2-  S159  1  0.83152326  0.88139866  0.65516583  1
  S2-  S160  1  0.10132591  -0.00019673  0.34689480  1
  S2-  S161  1  0.14283667  -0.09429388  0.84867992  1
  S2-  S162  1  0.02788165  0.24410913  0.34507528  1
  S2-  S163  1  0.12674635  0.28070228  0.85083098  1
  S2-  S164  1  0.13308248  0.47724190  0.34919409  1
  S2-  S165  1  0.12526981  0.55440323  0.85107361  1
  S2-  S166  1  0.12104189  0.73369452  0.35544648  1
  S2-  S167  1  0.14354868  0.71837386  0.77940920  1
  S2-  S168  1  0.34904490  -0.01001828  0.34773960  1
  S2-  S169  1  0.36619848  -0.01078195  0.84655503  1
  S2-  S170  1  0.24619698  0.25268486  0.35390905  1
  S2-  S171  1  0.37320007  0.24035160  0.84653527  1
  S2-  S172  1  0.40208080  0.51089634  0.34112987  1
  S2-  S173  1  0.34646734  0.47760104  0.83787690  1
  S2-  S174  1  0.38641428  0.73569750  0.34617767  1
  S2-  S175  1  0.30497497  0.72254978  0.84920804  1
  S2-  S176  1  0.65609616  -0.01059680  0.33559171  1
  S2-  S177  1  0.63876556  0.01625305  0.84415416  1
  S2-  S178  1  0.68404643  0.25318019  0.34763225  1
  S2-  S179  1  0.63317722  0.25100832  0.84933903  1
  S2-  S180  1  0.66218305  0.50772862  0.34008098  1
  S2-  S181  1  0.64712207  0.48524007  0.85096081  1
  S2-  S182  1  0.62405123  0.73881044  0.33266283  1
  S2-  S183  1  0.74068429  0.74598705  0.85539640  1
  S2-  S184  1  0.87329676  0.08088448  0.35297000  1
  S2-  S185  1  0.85375341  -0.05112749  0.84134347  1
  S2-  S186  1  0.84992882  0.25056040  0.27910869  1
  S2-  S187  1  0.86303736  0.35164344  0.86367521  1
  S2-  S188  1  0.88502335  0.42198661  0.34001857  1
  S2-  S189  1  0.86767058  0.56329917  0.83415989  1
  S2-  S190  1  0.86251309  0.65516720  0.36585002  1
  S2-  S191  1  0.97232281  0.75089253  0.84158927  1
  S2-  S192  1  -0.00008881  0.12137661  0.45601318  1
  S2-  S193  1  0.00001653  0.12502722  0.95496462  1
  S2-  S194  1  -0.00112185  0.37652674  0.45198025  1
  S2-  S195  1  0.00350323  0.37388384  0.95639872  1
  S2-  S196  1  0.00117055  0.62277267  0.46563029  1
  S2-  S197  1  -0.00156235  0.62252348  0.94955063  1
  S2-  S198  1  -0.00452493  0.87444728  0.45392787  1
  S2-  S199  1  -0.00292389  0.87305683  0.95161635  1
  S2-  S200  1  0.24765992  0.11748783  0.44993966  1
  S2-  S201  1  0.24674424  0.12260120  0.95011942  1
  S2-  S202  1  0.24829468  0.37738422  0.45387146  1
  S2-  S203  1  0.24487404  0.37582578  0.95532814  1
  S2-  S204  1  0.24603944  0.62353494  0.45764838  1
  S2-  S205  1  0.24339129  0.62653763  0.95670048  1
  S2-  S206  1  0.24650801  0.87394333  0.45737231  1
  S2-  S207  1  0.25216465  0.87350663  0.95231725  1
  S2-  S208  1  0.50030289  0.12334977  0.44594986  1
  S2-  S209  1  0.49796485  0.12217864  0.95318106  1
  S2-  S210  1  0.49911801  0.37046076  0.44673664  1
  S2-  S211  1  0.49705151  0.37828788  0.95209796  1
  S2-  S212  1  0.49994003  0.62301147  0.45351467  1
  S2-  S213  1  0.49837865  0.62477474  0.95180280  1
  S2-  S214  1  0.50157009  0.87452756  0.45073150  1
  S2-  S215  1  0.50036563  0.87642236  0.94653604  1
  S2-  S216  1  0.74902997  0.12590135  0.45097405  1
  S2-  S217  1  0.74926606  0.12540971  0.95388055  1
  S2-  S218  1  0.75209929  0.36988644  0.44743590  1
  S2-  S219  1  0.74641680  0.37302686  0.96406665  1
  S2-  S220  1  0.74434663  0.62193408  0.46246459  1
  S2-  S221  1  0.75103760  0.62171000  0.95700022  1
  S2-  S222  1  0.75140493  0.87425769  0.45062627  1
  S2-  S223  1  0.74566291  0.87816360  0.95280135  1
  S2-  S224  1  0.12678547  0.00028921  0.04137344  1
  S2-  S225  1  0.12023796  -0.00536824  0.55074771  1
  S2-  S226  1  0.12301311  0.24825991  0.05213591  1
  S2-  S227  1  0.12381249  0.24844001  0.54307739  1
  S2-  S228  1  0.12104357  0.50038123  0.05190648  1
  S2-  S229  1  0.12602174  0.49872854  0.55192690  1
  S2-  S230  1  0.12101777  0.74953567  0.05513046  1
  S2-  S231  1  0.11584893  0.74954719  0.56112433  1
  S2-  S232  1  0.37302621  -0.00166137  0.04875966  1
  S2-  S233  1  0.37574781  -0.00584424  0.55210802  1
  S2-  S234  1  0.37159388  0.24921632  0.05294761  1
  S2-  S235  1  0.37148723  0.24633492  0.53822418  1
  S2-  S236  1  0.36997019  0.49985604  0.04487423  1
  S2-  S237  1  0.37200304  0.49742544  0.54827935  1
  S2-  S238  1  0.37309730  0.75161536  0.04455606  1
  S2-  S239  1  0.37719229  0.75025388  0.55393985  1
  S2-  S240  1  0.62427607  -0.00392408  0.04779179  1
  S2-  S241  1  0.62244163  -0.00015329  0.53960711  1
  S2-  S242  1  0.62489958  0.25220511  0.05798078  1
  S2-  S243  1  0.62245043  0.24788434  0.54489695  1
  S2-  S244  1  0.62749206  0.50491764  0.05692569  1
  S2-  S245  1  0.61803861  0.49179452  0.54149803  1
  S2-  S246  1  0.61966603  0.74945578  0.04042458  1
  S2-  S247  1  0.62289023  0.74758253  0.54022400  1
  S2-  S248  1  0.86794707  -0.00372597  0.04557830  1
  S2-  S249  1  0.86889345  -0.00539625  0.54441445  1
  S2-  S250  1  0.87523637  0.24864111  0.05000761  1
  S2-  S251  1  0.87335955  0.24745783  0.55932338  1
  S2-  S252  1  0.87468482  0.49597218  0.04265614  1
  S2-  S253  1  0.87180003  0.49763770  0.53984150  1
  S2-  S254  1  0.87180295  0.75253015  0.03764321  1
  S2-  S255  1  0.87394107  0.74712112  0.55614344  1
