# generated using pymatgen
data_La6Ce6Pr19Nd20Sm13(BiS2)64
_symmetry_space_group_name_H-M   'P 1'
_cell_length_a   16.12215840
_cell_length_b   16.10483529
_cell_length_c   27.36792405
_cell_angle_alpha   89.93707070
_cell_angle_beta   89.97273425
_cell_angle_gamma   89.99704485
_symmetry_Int_Tables_number   1
_chemical_formula_structural   La6Ce6Pr19Nd20Sm13(BiS2)64
_chemical_formula_sum   'La6 Ce6 Pr19 Nd20 Sm13 Bi64 S128'
_cell_volume   7105.93148007
_cell_formula_units_Z   1
loop_
 _symmetry_equiv_pos_site_id
 _symmetry_equiv_pos_as_xyz
  1  'x, y, z'
loop_
 _atom_type_symbol
 _atom_type_oxidation_number
  La3+  3.0
  Ce3+  3.0
  Pr3+  3.0
  Nd3+  3.0
  Sm3+  3.0
  Bi2+  2.0
  S2-  -2.0
loop_
 _atom_site_type_symbol
 _atom_site_label
 _atom_site_symmetry_multiplicity
 _atom_site_fract_x
 _atom_site_fract_y
 _atom_site_fract_z
 _atom_site_occupancy
  La3+  La0  1  0.23594698  0.87525411  0.10646834  1
  La3+  La1  1  0.86474806  0.50533130  0.42703390  1
  La3+  La2  1  0.75389283  0.36444801  0.09911748  1
  La3+  La3  1  0.12088596  0.01504536  0.42334868  1
  La3+  La4  1  0.62086776  0.00541890  0.41103810  1
  La3+  La5  1  0.00543651  0.87503974  0.60257487  1
  Ce3+  Ce6  1  0.86559083  0.23682223  0.94170070  1
  Ce3+  Ce7  1  0.36742670  0.50570505  0.44158650  1
  Ce3+  Ce8  1  0.86843096  0.76212506  0.43782979  1
  Ce3+  Ce9  1  0.61631297  0.25871779  0.44040026  1
  Ce3+  Ce10  1  -0.00556635  0.36161286  0.05713683  1
  Ce3+  Ce11  1  0.37347903  0.00631476  0.44486326  1
  Pr3+  Pr12  1  0.49590601  0.12772411  0.56024783  1
  Pr3+  Pr13  1  0.48377045  0.37956210  0.56862416  1
  Pr3+  Pr14  1  0.62649992  0.75789549  0.42897648  1
  Pr3+  Pr15  1  0.49500476  0.36376349  0.07545929  1
  Pr3+  Pr16  1  0.74674227  0.86271576  0.07182434  1
  Pr3+  Pr17  1  0.12139940  0.48511019  0.94516359  1
  Pr3+  Pr18  1  0.23848253  0.38236754  0.57034947  1
  Pr3+  Pr19  1  0.50035538  0.87700367  0.56649879  1
  Pr3+  Pr20  1  0.61772448  -0.01424725  0.94222615  1
  Pr3+  Pr21  1  0.12142104  0.23694803  0.94084946  1
  Pr3+  Pr22  1  0.23822711  0.12448695  0.56341419  1
  Pr3+  Pr23  1  0.74760256  0.11121502  0.07121896  1
  Pr3+  Pr24  1  0.36993908  0.73781971  0.94158075  1
  Pr3+  Pr25  1  0.74108301  0.38193301  0.56209438  1
  Pr3+  Pr26  1  0.38066320  0.24135886  0.90814623  1
  Pr3+  Pr27  1  0.49176010  0.61512177  0.06852562  1
  Pr3+  Pr28  1  0.12016005  -0.01445401  0.93638511  1
  Pr3+  Pr29  1  -0.00734670  0.63515815  0.54878618  1
  Pr3+  Pr30  1  0.11839942  0.73662988  0.93431088  1
  Nd3+  Nd31  1  0.36997929  0.25787934  0.44473979  1
  Nd3+  Nd32  1  0.49398793  0.10887334  0.06941706  1
  Nd3+  Nd33  1  0.74367501  0.88590445  0.56377451  1
  Nd3+  Nd34  1  0.86578982  0.48528199  0.94054416  1
  Nd3+  Nd35  1  0.37119066  0.75870901  0.43481187  1
  Nd3+  Nd36  1  0.24193219  0.61952107  0.06414196  1
  Nd3+  Nd37  1  0.37329996  0.48437494  0.94295557  1
  Nd3+  Nd38  1  -0.00666393  0.38008876  0.56619519  1
  Nd3+  Nd39  1  0.24051017  0.63710973  0.55519293  1
  Nd3+  Nd40  1  0.49532909  0.63175170  0.55068348  1
  Nd3+  Nd41  1  0.61940859  0.23577618  0.95209453  1
  Nd3+  Nd42  1  0.85549098  0.72870770  0.90923911  1
  Nd3+  Nd43  1  0.37017702  -0.01560364  0.94721447  1
  Nd3+  Nd44  1  0.12047374  0.25945038  0.44047585  1
  Nd3+  Nd45  1  0.86836626  0.25880382  0.44308364  1
  Nd3+  Nd46  1  0.86878641  0.00777170  0.43243997  1
  Nd3+  Nd47  1  0.74748897  0.63516863  0.56089564  1
  Nd3+  Nd48  1  0.61928054  0.48584582  0.95133027  1
  Nd3+  Nd49  1  0.11961279  0.76043058  0.42768481  1
  Nd3+  Nd50  1  0.49359959  0.85858144  0.07379638  1
  Sm3+  Sm51  1  0.61939230  0.73623725  0.94523907  1
  Sm3+  Sm52  1  -0.00806984  0.12398913  0.55553323  1
  Sm3+  Sm53  1  0.11913225  0.50652773  0.44137757  1
  Sm3+  Sm54  1  0.86635295  -0.01699076  0.94311489  1
  Sm3+  Sm55  1  0.74339584  0.12848813  0.55057585  1
  Sm3+  Sm56  1  -0.00148316  0.86057822  0.05364875  1
  Sm3+  Sm57  1  -0.00753237  0.61446511  0.05323372  1
  Sm3+  Sm58  1  0.74705377  0.61611710  0.06795737  1
  Sm3+  Sm59  1  -0.00210693  0.10982640  0.05294135  1
  Sm3+  Sm60  1  0.24774331  0.11404111  0.05326002  1
  Sm3+  Sm61  1  0.24586639  0.36224155  0.06408376  1
  Sm3+  Sm62  1  0.62085545  0.50671918  0.43853312  1
  Sm3+  Sm63  1  0.24223509  0.88084196  0.54853896  1
  Bi2+  Bi64  1  -0.00505170  0.03368007  0.30825180  1
  Bi2+  Bi65  1  -0.01058132  0.10574553  0.74050351  1
  Bi2+  Bi66  1  0.06422807  0.40271328  0.27140207  1
  Bi2+  Bi67  1  -0.07042260  0.35148053  0.79857277  1
  Bi2+  Bi68  1  -0.03505440  0.65008143  0.28532168  1
  Bi2+  Bi69  1  0.00633255  0.61346599  0.80526804  1
  Bi2+  Bi70  1  -0.04764150  0.84217822  0.30434371  1
  Bi2+  Bi71  1  0.01153236  0.87230162  0.80277813  1
  Bi2+  Bi72  1  0.27171587  0.11176230  0.29716950  1
  Bi2+  Bi73  1  0.21220272  0.10680844  0.79049072  1
  Bi2+  Bi74  1  0.27551519  0.37026025  0.30536345  1
  Bi2+  Bi75  1  0.20834079  0.36256605  0.79650272  1
  Bi2+  Bi76  1  0.24896519  0.59508464  0.28204600  1
  Bi2+  Bi77  1  0.26940752  0.59462659  0.75930347  1
  Bi2+  Bi78  1  0.25145672  0.84665463  0.28568626  1
  Bi2+  Bi79  1  0.25518803  0.86641216  0.73626968  1
  Bi2+  Bi80  1  0.51634413  0.21758363  0.28635879  1
  Bi2+  Bi81  1  0.51059643  0.11363362  0.80047450  1
  Bi2+  Bi82  1  0.49237480  0.43925853  0.28255716  1
  Bi2+  Bi83  1  0.50924482  0.39143055  0.80448516  1
  Bi2+  Bi84  1  0.56272005  0.64536045  0.28986635  1
  Bi2+  Bi85  1  0.44071200  0.64995957  0.80914920  1
  Bi2+  Bi86  1  0.47680304  0.90880547  0.28948670  1
  Bi2+  Bi87  1  0.48310675  0.88264884  0.80092115  1
  Bi2+  Bi88  1  0.82359278  0.12649743  0.28162506  1
  Bi2+  Bi89  1  0.73590489  0.16180930  0.74865156  1
  Bi2+  Bi90  1  0.80241279  0.38107011  0.30284629  1
  Bi2+  Bi91  1  0.73683767  0.32900332  0.81758611  1
  Bi2+  Bi92  1  0.76432926  0.62595347  0.28538566  1
  Bi2+  Bi93  1  0.73516313  0.51976745  0.78553551  1
  Bi2+  Bi94  1  0.74363811  0.87073925  0.28535885  1
  Bi2+  Bi95  1  0.73024890  0.90084616  0.80067667  1
  Bi2+  Bi96  1  0.09387680  0.01155139  0.20954086  1
  Bi2+  Bi97  1  0.15625231  0.02035675  0.69612992  1
  Bi2+  Bi98  1  0.11879025  0.21575359  0.25695786  1
  Bi2+  Bi99  1  0.10241961  0.26428553  0.71255261  1
  Bi2+  Bi100  1  0.21190464  0.47046759  0.19534142  1
  Bi2+  Bi101  1  0.07374772  0.46803644  0.73439650  1
  Bi2+  Bi102  1  0.09625532  0.72601596  0.20432848  1
  Bi2+  Bi103  1  0.12607104  0.70398348  0.69803177  1
  Bi2+  Bi104  1  0.36252851  0.05161614  0.20720990  1
  Bi2+  Bi105  1  0.42421425  -0.07300021  0.69086159  1
  Bi2+  Bi106  1  0.36469052  0.31990094  0.20847066  1
  Bi2+  Bi107  1  0.37859520  0.24583478  0.70726645  1
  Bi2+  Bi108  1  0.41798273  0.50228637  0.17485872  1
  Bi2+  Bi109  1  0.41789589  0.48737697  0.72142320  1
  Bi2+  Bi110  1  0.39957839  0.67645333  0.22678924  1
  Bi2+  Bi111  1  0.37743528  0.72933550  0.69831775  1
  Bi2+  Bi112  1  0.62319282  0.04441594  0.21069136  1
  Bi2+  Bi113  1  0.59807854  0.01892108  0.68936341  1
  Bi2+  Bi114  1  0.69243312  0.28283392  0.23162518  1
  Bi2+  Bi115  1  0.62092819  0.31067500  0.71993975  1
  Bi2+  Bi116  1  0.62109906  0.51613042  0.20949839  1
  Bi2+  Bi117  1  0.60483609  0.57653480  0.70645665  1
  Bi2+  Bi118  1  0.61586317  0.78491848  0.21029490  1
  Bi2+  Bi119  1  0.60857044  0.74541420  0.77086191  1
  Bi2+  Bi120  1  0.88251123  -0.02620569  0.21053492  1
  Bi2+  Bi121  1  0.82830095  -0.00381856  0.72107793  1
  Bi2+  Bi122  1  0.93891300  0.24254963  0.21537405  1
  Bi2+  Bi123  1  0.90515267  0.26695990  0.69188832  1
  Bi2+  Bi124  1  0.90671636  0.51111555  0.20883958  1
  Bi2+  Bi125  1  0.87609585  0.46711336  0.70851670  1
  Bi2+  Bi126  1  0.87591797  0.77246063  0.20472491  1
  Bi2+  Bi127  1  0.86679507  0.73322591  0.70685229  1
  S2-  S128  1  -0.00596615  0.11144264  0.15082097  1
  S2-  S129  1  0.00442784  0.04087219  0.64050587  1
  S2-  S130  1  -0.06626870  0.36896793  0.14848671  1
  S2-  S131  1  0.10950127  0.38863533  0.64056951  1
  S2-  S132  1  0.01299186  0.60786171  0.15084281  1
  S2-  S133  1  -0.00852932  0.65347955  0.64871964  1
  S2-  S134  1  0.07135523  0.86966903  0.14446897  1
  S2-  S135  1  0.01072412  0.83926043  0.70892228  1
  S2-  S136  1  0.22695872  0.05422944  0.14406320  1
  S2-  S137  1  0.26714328  0.14571963  0.66176291  1
  S2-  S138  1  0.21510473  0.30898108  0.15609910  1
  S2-  S139  1  0.35239223  0.37342324  0.64716430  1
  S2-  S140  1  0.23189983  0.70942804  0.14929534  1
  S2-  S141  1  0.23272984  0.60089906  0.65193479  1
  S2-  S142  1  0.33154570  0.89402224  0.19364315  1
  S2-  S143  1  0.17976615  0.86299656  0.63873579  1
  S2-  S144  1  0.50619636  0.14063294  0.16787423  1
  S2-  S145  1  0.49927498  0.16585048  0.65913528  1
  S2-  S146  1  0.60308924  0.36333321  0.15573212  1
  S2-  S147  1  0.55500864  0.42882491  0.65517220  1
  S2-  S148  1  0.49011934  0.72825277  0.14573577  1
  S2-  S149  1  0.51051156  0.67978567  0.64459114  1
  S2-  S150  1  0.54363769  0.92918119  0.16506944  1
  S2-  S151  1  0.62221270  0.88157828  0.63974221  1
  S2-  S152  1  0.76683272  0.21480304  0.15415056  1
  S2-  S153  1  0.74367730  0.09797193  0.64704664  1
  S2-  S154  1  0.76878837  0.51599712  0.15111021  1
  S2-  S155  1  0.75853101  0.36260058  0.66053791  1
  S2-  S156  1  0.74157204  0.73516773  0.14441949  1
  S2-  S157  1  0.75216698  0.64922856  0.66000674  1
  S2-  S158  1  0.74813271  0.98859255  0.14608131  1
  S2-  S159  1  0.84392389  0.87098318  0.64641932  1
  S2-  S160  1  0.15120265  -0.06352018  0.33317414  1
  S2-  S161  1  0.14515699  -0.01759366  0.83745918  1
  S2-  S162  1  0.13148218  0.16529546  0.35789259  1
  S2-  S163  1  0.12663898  0.23317735  0.84128484  1
  S2-  S164  1  0.15357284  0.47795268  0.34746119  1
  S2-  S165  1  0.11419242  0.48434792  0.84567052  1
  S2-  S166  1  0.17821880  0.71887493  0.33582509  1
  S2-  S167  1  0.11148194  0.73474005  0.83355006  1
  S2-  S168  1  0.37056960  0.00278395  0.34694383  1
  S2-  S169  1  0.40638493  0.01096183  0.85132001  1
  S2-  S170  1  0.37009040  0.23765276  0.34663702  1
  S2-  S171  1  0.35702675  0.19579999  0.80860970  1
  S2-  S172  1  0.37541475  0.51090278  0.34381353  1
  S2-  S173  1  0.35581015  0.39589291  0.85846070  1
  S2-  S174  1  0.38930937  0.78236613  0.33678132  1
  S2-  S175  1  0.35920761  0.78627127  0.84458899  1
  S2-  S176  1  0.56939013  0.07195347  0.31420596  1
  S2-  S177  1  0.64327942  0.02125990  0.84451834  1
  S2-  S178  1  0.63408626  0.28876442  0.34459186  1
  S2-  S179  1  0.54127173  0.23797930  0.86253021  1
  S2-  S180  1  0.72298372  0.50658070  0.35883460  1
  S2-  S181  1  0.59675464  0.51089664  0.85317139  1
  S2-  S182  1  0.59090445  0.86524782  0.35060552  1
  S2-  S183  1  0.70150842  0.74882971  0.85968188  1
  S2-  S184  1  0.76862904  0.00311559  0.35043535  1
  S2-  S185  1  0.87673882  -0.03839234  0.84649958  1
  S2-  S186  1  0.88718056  0.25040012  0.34497086  1
  S2-  S187  1  0.85791333  0.20795961  0.84638782  1
  S2-  S188  1  0.93886876  0.46114344  0.33814663  1
  S2-  S189  1  0.85647051  0.57258094  0.85545580  1
  S2-  S190  1  0.76548760  0.74444437  0.35906281  1
  S2-  S191  1  0.90067010  0.75173355  0.81070050  1
  S2-  S192  1  -0.00884052  0.13438679  0.45267290  1
  S2-  S193  1  -0.00701260  0.10922184  0.94825782  1
  S2-  S194  1  -0.00358968  0.38220423  0.45839745  1
  S2-  S195  1  -0.00678347  0.36184439  0.94999237  1
  S2-  S196  1  -0.00445000  0.63183426  0.44195457  1
  S2-  S197  1  -0.00780109  0.61183485  0.94994525  1
  S2-  S198  1  -0.00554073  0.88405610  0.43737865  1
  S2-  S199  1  -0.01092714  0.85819339  0.94872960  1
  S2-  S200  1  0.24825358  0.13265187  0.45749279  1
  S2-  S201  1  0.25227677  0.11672421  0.94859025  1
  S2-  S202  1  0.24284319  0.38195373  0.46009904  1
  S2-  S203  1  0.24807048  0.35776227  0.95974507  1
  S2-  S204  1  0.24322130  0.63251819  0.44918877  1
  S2-  S205  1  0.24663908  0.60993683  0.95262873  1
  S2-  S206  1  0.24575806  0.88155977  0.44609377  1
  S2-  S207  1  0.24377095  0.86250325  0.94699110  1
  S2-  S208  1  0.49598434  0.13195395  0.45139326  1
  S2-  S209  1  0.49099870  0.11328724  0.96246099  1
  S2-  S210  1  0.49446696  0.38503182  0.45596991  1
  S2-  S211  1  0.49407819  0.36082714  0.96675777  1
  S2-  S212  1  0.49689825  0.63143670  0.44428014  1
  S2-  S213  1  0.49496273  0.61242645  0.96047145  1
  S2-  S214  1  0.49426997  0.88083516  0.45791224  1
  S2-  S215  1  0.49662624  0.85946111  0.95918139  1
  S2-  S216  1  0.74260335  0.13565084  0.44709015  1
  S2-  S217  1  0.74442521  0.10880484  0.95983446  1
  S2-  S218  1  0.74204932  0.38041268  0.45675219  1
  S2-  S219  1  0.74228320  0.36179389  0.95639417  1
  S2-  S220  1  0.74521127  0.62937768  0.45751576  1
  S2-  S221  1  0.74287806  0.61326706  0.96243992  1
  S2-  S222  1  0.74531046  0.88537092  0.45617623  1
  S2-  S223  1  0.74558880  0.86122210  0.95987353  1
  S2-  S224  1  0.12205109  -0.01292553  0.04120452  1
  S2-  S225  1  0.11640902  0.00142161  0.53633504  1
  S2-  S226  1  0.12126506  0.23509450  0.04701478  1
  S2-  S227  1  0.11446468  0.25043977  0.54609948  1
  S2-  S228  1  0.12082256  0.48810188  0.05124573  1
  S2-  S229  1  0.11727751  0.51027781  0.54353427  1
  S2-  S230  1  0.11716070  0.73674805  0.04039161  1
  S2-  S231  1  0.11491465  0.76108473  0.53592627  1
  S2-  S232  1  0.36728633  -0.01719670  0.05359521  1
  S2-  S233  1  0.36838401  0.00206273  0.55144208  1
  S2-  S234  1  0.36829106  0.23714958  0.06080141  1
  S2-  S235  1  0.36491814  0.25035958  0.54853503  1
  S2-  S236  1  0.36476149  0.48906896  0.04867621  1
  S2-  S237  1  0.36601073  0.51131695  0.54761947  1
  S2-  S238  1  0.36362828  0.74303318  0.04764655  1
  S2-  S239  1  0.36786985  0.75785770  0.54253713  1
  S2-  S240  1  0.61659140  -0.01495873  0.04792863  1
  S2-  S241  1  0.61977714  0.00912727  0.53710923  1
  S2-  S242  1  0.61859267  0.23478400  0.05509600  1
  S2-  S243  1  0.61862320  0.25589859  0.54846003  1
  S2-  S244  1  0.62004883  0.49230216  0.05512371  1
  S2-  S245  1  0.62004123  0.50882857  0.54303645  1
  S2-  S246  1  0.62006271  0.73788957  0.04653423  1
  S2-  S247  1  0.62249362  0.75283582  0.53717656  1
  S2-  S248  1  0.87721969  -0.01432680  0.04728868  1
  S2-  S249  1  0.86840489  0.00760926  0.53867505  1
  S2-  S250  1  0.87436530  0.23446637  0.04613143  1
  S2-  S251  1  0.86979967  0.25317879  0.54905558  1
  S2-  S252  1  0.87143937  0.48914998  0.04481377  1
  S2-  S253  1  0.87020941  0.50479876  0.54456197  1
  S2-  S254  1  0.87493062  0.73871339  0.04665861  1
  S2-  S255  1  0.87240947  0.76124214  0.54316696  1
