# generated using pymatgen
data_La6Ce6Pr19Nd20Sm13(BiS2)64
_symmetry_space_group_name_H-M   'P 1'
_cell_length_a   16.17643458
_cell_length_b   16.18637208
_cell_length_c   27.17013077
_cell_angle_alpha   89.93931201
_cell_angle_beta   90.13314126
_cell_angle_gamma   90.02142458
_symmetry_Int_Tables_number   1
_chemical_formula_structural   La6Ce6Pr19Nd20Sm13(BiS2)64
_chemical_formula_sum   'La6 Ce6 Pr19 Nd20 Sm13 Bi64 S128'
_cell_volume   7114.14328323
_cell_formula_units_Z   1
loop_
 _symmetry_equiv_pos_site_id
 _symmetry_equiv_pos_as_xyz
  1  'x, y, z'
loop_
 _atom_type_symbol
 _atom_type_oxidation_number
  La3+  3.0
  Ce3+  3.0
  Pr3+  3.0
  Nd3+  3.0
  Sm3+  3.0
  Bi2+  2.0
  S2-  -2.0
loop_
 _atom_site_type_symbol
 _atom_site_label
 _atom_site_symmetry_multiplicity
 _atom_site_fract_x
 _atom_site_fract_y
 _atom_site_fract_z
 _atom_site_occupancy
  La3+  La0  1  0.11684846  0.25605970  0.41011792  1
  La3+  La1  1  0.25589577  0.13506845  0.08351907  1
  La3+  La2  1  0.11522485  -0.00749695  0.40772026  1
  La3+  La3  1  0.50948677  0.13620156  0.61784613  1
  La3+  La4  1  0.50162091  0.87178923  0.07729325  1
  La3+  La5  1  0.14141497  0.50985812  0.89052149  1
  Ce3+  Ce6  1  0.87082155  0.49870295  0.44331112  1
  Ce3+  Ce7  1  0.87371613  0.24897730  0.44301481  1
  Ce3+  Ce8  1  0.24399080  0.62504164  0.56295922  1
  Ce3+  Ce9  1  0.49340307  0.37113634  0.56223430  1
  Ce3+  Ce10  1  0.62249676  0.49975079  0.93588328  1
  Ce3+  Ce11  1  -0.00252449  0.37332793  0.55809802  1
  Pr3+  Pr12  1  -0.00010586  0.87260280  0.06688414  1
  Pr3+  Pr13  1  0.11526833  0.25139755  0.93575995  1
  Pr3+  Pr14  1  0.87445661  -0.00157157  0.94252830  1
  Pr3+  Pr15  1  0.50208485  0.13496612  0.07245998  1
  Pr3+  Pr16  1  0.50293536  0.62077313  0.07229135  1
  Pr3+  Pr17  1  0.24628163  0.37560914  0.05741043  1
  Pr3+  Pr18  1  0.74907019  0.87727765  0.06239123  1
  Pr3+  Pr19  1  0.36005747  0.24892895  0.93042915  1
  Pr3+  Pr20  1  0.24942576  0.87621733  0.06433690  1
  Pr3+  Pr21  1  0.87033846  0.74619903  0.43425884  1
  Pr3+  Pr22  1  0.36912772  0.49839991  0.44480668  1
  Pr3+  Pr23  1  0.37468528  -0.00101821  0.42530569  1
  Pr3+  Pr24  1  0.24278447  0.87914656  0.55411509  1
  Pr3+  Pr25  1  -0.00336206  0.37430455  0.06531968  1
  Pr3+  Pr26  1  0.49478586  0.62464549  0.56039956  1
  Pr3+  Pr27  1  0.87039312  0.00163949  0.43394487  1
  Pr3+  Pr28  1  0.00172722  0.11986863  0.56103384  1
  Pr3+  Pr29  1  0.24198154  0.37066939  0.56260011  1
  Pr3+  Pr30  1  0.74628587  0.37166432  0.55951008  1
  Nd3+  Nd31  1  0.61827449  0.00187966  0.43803994  1
  Nd3+  Nd32  1  0.61796796  0.25106847  0.93432446  1
  Nd3+  Nd33  1  0.49334968  0.88252174  0.56142914  1
  Nd3+  Nd34  1  0.12484916  0.00381628  0.94913480  1
  Nd3+  Nd35  1  0.24578411  0.12145285  0.55466499  1
  Nd3+  Nd36  1  0.12226474  0.74801727  0.43809394  1
  Nd3+  Nd37  1  0.37412086  0.74895792  0.94552051  1
  Nd3+  Nd38  1  0.24821860  0.62230301  0.06132430  1
  Nd3+  Nd39  1  -0.00136194  0.12488083  0.07005534  1
  Nd3+  Nd40  1  0.36826989  0.24618621  0.43915978  1
  Nd3+  Nd41  1  0.61894082  0.49642320  0.44434195  1
  Nd3+  Nd42  1  -0.00589892  0.62351501  0.56279656  1
  Nd3+  Nd43  1  -0.00147554  0.62200528  0.06073945  1
  Nd3+  Nd44  1  0.37234665  0.00170745  0.94790631  1
  Nd3+  Nd45  1  0.87495970  0.74971691  0.94583195  1
  Nd3+  Nd46  1  0.74413433  0.12114063  0.55882338  1
  Nd3+  Nd47  1  0.61705756  0.74979311  0.43483033  1
  Nd3+  Nd48  1  0.62083184  0.00034275  0.94501744  1
  Nd3+  Nd49  1  0.87883955  0.49954069  0.93277570  1
  Nd3+  Nd50  1  0.12229349  0.50168797  0.43777368  1
  Sm3+  Sm51  1  0.87723617  0.24951891  0.93808192  1
  Sm3+  Sm52  1  0.74902673  0.62192494  0.05152608  1
  Sm3+  Sm53  1  0.74401990  0.62585576  0.55263322  1
  Sm3+  Sm54  1  0.61695045  0.24823676  0.44265795  1
  Sm3+  Sm55  1  0.74574258  0.87378029  0.54788311  1
  Sm3+  Sm56  1  -0.00562140  0.87500171  0.55117351  1
  Sm3+  Sm57  1  0.62059616  0.74936630  0.94504642  1
  Sm3+  Sm58  1  0.74965784  0.12590518  0.05324715  1
  Sm3+  Sm59  1  0.37500033  0.50010316  0.94555438  1
  Sm3+  Sm60  1  0.37148451  0.75115495  0.44775715  1
  Sm3+  Sm61  1  0.50014267  0.37477594  0.05743348  1
  Sm3+  Sm62  1  0.75039663  0.37367435  0.05015584  1
  Sm3+  Sm63  1  0.12412349  0.74753305  0.94453748  1
  Bi2+  Bi64  1  -0.00489829  0.11943551  0.28931020  1
  Bi2+  Bi65  1  0.00785136  0.11412841  0.78896766  1
  Bi2+  Bi66  1  -0.02361184  0.40119369  0.29576371  1
  Bi2+  Bi67  1  -0.09950017  0.36175826  0.79586051  1
  Bi2+  Bi68  1  0.02344869  0.63533315  0.29944148  1
  Bi2+  Bi69  1  0.00038163  0.63376231  0.78519496  1
  Bi2+  Bi70  1  -0.01271973  0.84406028  0.29066386  1
  Bi2+  Bi71  1  -0.00786447  0.83233923  0.78083206  1
  Bi2+  Bi72  1  0.26632819  0.13717135  0.29127009  1
  Bi2+  Bi73  1  0.23965496  0.11634084  0.79886961  1
  Bi2+  Bi74  1  0.25895892  0.40952169  0.28754317  1
  Bi2+  Bi75  1  0.30151374  0.37466321  0.79532437  1
  Bi2+  Bi76  1  0.21104946  0.60856897  0.32471555  1
  Bi2+  Bi77  1  0.26498749  0.65454345  0.78850825  1
  Bi2+  Bi78  1  0.26028424  0.78820327  0.28592529  1
  Bi2+  Bi79  1  0.25302393  0.85448686  0.77571352  1
  Bi2+  Bi80  1  0.55566523  0.13616951  0.27972511  1
  Bi2+  Bi81  1  0.50493908  0.12694172  0.82161869  1
  Bi2+  Bi82  1  0.51724555  0.39389979  0.27656934  1
  Bi2+  Bi83  1  0.53062339  0.41537793  0.73842463  1
  Bi2+  Bi84  1  0.49915207  0.61098231  0.28064356  1
  Bi2+  Bi85  1  0.50802839  0.62517133  0.79695555  1
  Bi2+  Bi86  1  0.50034205  0.86819633  0.29583246  1
  Bi2+  Bi87  1  0.52209446  0.86419424  0.79468799  1
  Bi2+  Bi88  1  0.74997783  0.10659362  0.29088267  1
  Bi2+  Bi89  1  0.76343001  0.11756590  0.78129052  1
  Bi2+  Bi90  1  0.70509936  0.35179327  0.30598297  1
  Bi2+  Bi91  1  0.73831460  0.45685260  0.82149950  1
  Bi2+  Bi92  1  0.74605381  0.54165192  0.28564225  1
  Bi2+  Bi93  1  0.78354895  0.63319469  0.78415834  1
  Bi2+  Bi94  1  0.73948136  0.85382507  0.26624613  1
  Bi2+  Bi95  1  0.80537980  0.90416748  0.78224634  1
  Bi2+  Bi96  1  0.12016241  -0.03848974  0.20808942  1
  Bi2+  Bi97  1  0.12452577  -0.00631822  0.70320281  1
  Bi2+  Bi98  1  0.11242361  0.25767278  0.19954093  1
  Bi2+  Bi99  1  0.09853552  0.23219939  0.71334560  1
  Bi2+  Bi100  1  0.12982334  0.51649433  0.22805390  1
  Bi2+  Bi101  1  0.12913021  0.47328884  0.69450082  1
  Bi2+  Bi102  1  0.11834258  0.73881503  0.21098847  1
  Bi2+  Bi103  1  0.12770038  0.73880037  0.71894935  1
  Bi2+  Bi104  1  0.36162903  0.00065456  0.21604795  1
  Bi2+  Bi105  1  0.37606367  -0.00136704  0.70960838  1
  Bi2+  Bi106  1  0.39878501  0.27156399  0.20557021  1
  Bi2+  Bi107  1  0.35433817  0.25069498  0.71209031  1
  Bi2+  Bi108  1  0.40035040  0.47928998  0.19454569  1
  Bi2+  Bi109  1  0.39384600  0.54509939  0.71007344  1
  Bi2+  Bi110  1  0.36777258  0.67792483  0.21103973  1
  Bi2+  Bi111  1  0.40656908  0.75931930  0.72345179  1
  Bi2+  Bi112  1  0.63875927  0.01223992  0.20514219  1
  Bi2+  Bi113  1  0.66394719  -0.00135957  0.71060465  1
  Bi2+  Bi114  1  0.65967843  0.25264135  0.20496762  1
  Bi2+  Bi115  1  0.69517856  0.30760838  0.74808905  1
  Bi2+  Bi116  1  0.59063724  0.51954613  0.18825511  1
  Bi2+  Bi117  1  0.63777153  0.57041110  0.70956799  1
  Bi2+  Bi118  1  0.63054635  0.71454359  0.20768175  1
  Bi2+  Bi119  1  0.66397253  0.79873836  0.72202886  1
  Bi2+  Bi120  1  0.85417859  -0.00613006  0.21702986  1
  Bi2+  Bi121  1  0.91061727  0.03735036  0.69421891  1
  Bi2+  Bi122  1  0.84731950  0.27078516  0.24032657  1
  Bi2+  Bi123  1  0.88425471  0.22362180  0.70926274  1
  Bi2+  Bi124  1  0.86894295  0.46345894  0.20454224  1
  Bi2+  Bi125  1  0.85764275  0.49355042  0.70508644  1
  Bi2+  Bi126  1  0.86564210  0.66062705  0.22440480  1
  Bi2+  Bi127  1  0.85535763  0.76431135  0.70210071  1
  S2-  S128  1  -0.00974914  0.16556701  0.16708524  1
  S2-  S129  1  0.12476920  0.12450270  0.63489558  1
  S2-  S130  1  0.04842306  0.39464051  0.16239911  1
  S2-  S131  1  0.02380491  0.34701879  0.65426694  1
  S2-  S132  1  -0.00816250  0.66899930  0.15627182  1
  S2-  S133  1  0.00007191  0.57089269  0.65789345  1
  S2-  S134  1  -0.03413586  0.90653893  0.16381691  1
  S2-  S135  1  0.00649943  0.91769791  0.64625635  1
  S2-  S136  1  0.19090029  0.09491799  0.17794255  1
  S2-  S137  1  0.33666212  0.12366817  0.64358717  1
  S2-  S138  1  0.25790356  0.29153981  0.14536459  1
  S2-  S139  1  0.24692369  0.34790626  0.66411132  1
  S2-  S140  1  0.22422389  0.62241201  0.16014154  1
  S2-  S141  1  0.24491875  0.58528190  0.65794374  1
  S2-  S142  1  0.26092159  0.88431878  0.16462673  1
  S2-  S143  1  0.24978922  0.91560651  0.65290621  1
  S2-  S144  1  0.39329799  0.12338173  0.15256197  1
  S2-  S145  1  0.48853746  0.13122178  0.72677589  1
  S2-  S146  1  0.52302539  0.27805422  0.13826678  1
  S2-  S147  1  0.49576299  0.30835740  0.65348425  1
  S2-  S148  1  0.49735177  0.73732586  0.14728550  1
  S2-  S149  1  0.50606009  0.66068996  0.65787226  1
  S2-  S150  1  0.49429721  0.94524896  0.17137019  1
  S2-  S151  1  0.49642885  0.96333316  0.64903623  1
  S2-  S152  1  0.76284665  0.10202045  0.14930048  1
  S2-  S153  1  0.67798536  0.12915947  0.65079537  1
  S2-  S154  1  0.77346186  0.35837526  0.14704129  1
  S2-  S155  1  0.75515859  0.38615785  0.65985465  1
  S2-  S156  1  0.74456722  0.61690479  0.14897661  1
  S2-  S157  1  0.77247924  0.62621682  0.64884300  1
  S2-  S158  1  0.71044859  0.85301593  0.15886942  1
  S2-  S159  1  0.75329581  0.88621927  0.64515088  1
  S2-  S160  1  0.13802680  0.02551712  0.30388899  1
  S2-  S161  1  0.12432501  0.02450647  0.85048894  1
  S2-  S162  1  0.12422068  0.22083276  0.30585103  1
  S2-  S163  1  0.22547044  0.24759387  0.85692484  1
  S2-  S164  1  0.11566125  0.40833333  0.35415813  1
  S2-  S165  1  0.15156882  0.44268338  0.78935530  1
  S2-  S166  1  0.12644339  0.83510246  0.35185273  1
  S2-  S167  1  0.12809366  0.67455224  0.85544633  1
  S2-  S168  1  0.34677056  -0.00355061  0.32400042  1
  S2-  S169  1  0.36117556  0.03775223  0.85029266  1
  S2-  S170  1  0.31568110  0.27179588  0.34499164  1
  S2-  S171  1  0.43679555  0.27511940  0.84037309  1
  S2-  S172  1  0.35399904  0.50834430  0.34479532  1
  S2-  S173  1  0.31367921  0.51168516  0.85398983  1
  S2-  S174  1  0.39261237  0.76829992  0.35079893  1
  S2-  S175  1  0.35087969  0.77832216  0.84827729  1
  S2-  S176  1  0.55086958  -0.00612132  0.34624313  1
  S2-  S177  1  0.60200454  -0.01904746  0.84654051  1
  S2-  S178  1  0.56053489  0.26745613  0.34984777  1
  S2-  S179  1  0.65446714  0.21836922  0.83923401  1
  S2-  S180  1  0.60055208  0.53546403  0.34860906  1
  S2-  S181  1  0.55579021  0.48385888  0.84673960  1
  S2-  S182  1  0.62309621  0.78355981  0.33655114  1
  S2-  S183  1  0.60552899  0.74150109  0.84728560  1
  S2-  S184  1  0.95807333  -0.01057044  0.34843767  1
  S2-  S185  1  0.87492829  0.02596079  0.84438936  1
  S2-  S186  1  0.94124602  0.25058091  0.35366772  1
  S2-  S187  1  0.98340285  0.24797545  0.86063379  1
  S2-  S188  1  0.89190269  0.52805025  0.34834100  1
  S2-  S189  1  0.97713440  0.50476129  0.85026154  1
  S2-  S190  1  0.85622469  0.78491101  0.33603084  1
  S2-  S191  1  0.88639244  0.73818684  0.84760858  1
  S2-  S192  1  -0.00252833  0.12365220  0.45132963  1
  S2-  S193  1  -0.00349119  0.12275709  0.96147760  1
  S2-  S194  1  -0.00555899  0.37736059  0.45435583  1
  S2-  S195  1  -0.00526365  0.37660819  0.95816703  1
  S2-  S196  1  -0.00254251  0.62510910  0.45442275  1
  S2-  S197  1  -0.00026215  0.62660104  0.95608436  1
  S2-  S198  1  -0.00734925  0.87001018  0.44944475  1
  S2-  S199  1  0.00205264  0.87292389  0.95678840  1
  S2-  S200  1  0.24084068  0.12209689  0.44121422  1
  S2-  S201  1  0.24693062  0.12371182  0.96592667  1
  S2-  S202  1  0.24451528  0.37523278  0.45515882  1
  S2-  S203  1  0.24183766  0.38566869  0.95187291  1
  S2-  S204  1  0.24799314  0.62764129  0.45689186  1
  S2-  S205  1  0.24893255  0.62445248  0.95639922  1
  S2-  S206  1  0.24908501  0.87337242  0.44747019  1
  S2-  S207  1  0.24594928  0.87383919  0.95619170  1
  S2-  S208  1  0.49560004  0.12635086  0.44622399  1
  S2-  S209  1  0.49834973  0.12559357  0.95832787  1
  S2-  S210  1  0.49410962  0.37333573  0.45481099  1
  S2-  S211  1  0.49592364  0.37542729  0.95415812  1
  S2-  S212  1  0.49462238  0.62554622  0.45338895  1
  S2-  S213  1  0.49774442  0.62499398  0.96006452  1
  S2-  S214  1  0.49635401  0.87322419  0.45456431  1
  S2-  S215  1  0.49869710  0.87359351  0.96145852  1
  S2-  S216  1  0.74325661  0.12630142  0.44984555  1
  S2-  S217  1  0.74936022  0.12621269  0.94857835  1
  S2-  S218  1  0.74378777  0.37192953  0.45174193  1
  S2-  S219  1  0.75134383  0.37183794  0.94616729  1
  S2-  S220  1  0.74155791  0.62428079  0.44743390  1
  S2-  S221  1  0.74824848  0.62609346  0.94646583  1
  S2-  S222  1  0.74408091  0.87508502  0.44359884  1
  S2-  S223  1  0.74620964  0.87299767  0.95315293  1
  S2-  S224  1  0.12299838  0.00120110  0.05601853  1
  S2-  S225  1  0.11710275  -0.00534811  0.53100383  1
  S2-  S226  1  0.11931585  0.24929410  0.04641980  1
  S2-  S227  1  0.11976406  0.24987491  0.53572403  1
  S2-  S228  1  0.12221640  0.50119296  0.05610322  1
  S2-  S229  1  0.11997180  0.50076022  0.54492879  1
  S2-  S230  1  0.12461986  0.74818193  0.04985857  1
  S2-  S231  1  0.11741528  0.75004782  0.54750132  1
  S2-  S232  1  0.37697851  -0.00200859  0.05293305  1
  S2-  S233  1  0.36790213  -0.00286867  0.53441381  1
  S2-  S234  1  0.37724180  0.25536280  0.03950986  1
  S2-  S235  1  0.36945049  0.24998063  0.54483482  1
  S2-  S236  1  0.37610607  0.49883137  0.05094578  1
  S2-  S237  1  0.36964498  0.49839214  0.55266467  1
  S2-  S238  1  0.37145150  0.74740275  0.05106708  1
  S2-  S239  1  0.37038303  0.75257175  0.55348246  1
  S2-  S240  1  0.62391163  0.00370955  0.05122414  1
  S2-  S241  1  0.62364815  -0.00317698  0.54329438  1
  S2-  S242  1  0.63089364  0.25080489  0.04030332  1
  S2-  S243  1  0.61909579  0.24660454  0.54764432  1
  S2-  S244  1  0.62649017  0.49605654  0.04392642  1
  S2-  S245  1  0.62139003  0.49921394  0.55167708  1
  S2-  S246  1  0.62824184  0.74613362  0.04799182  1
  S2-  S247  1  0.62053455  0.75193944  0.54443805  1
  S2-  S248  1  0.87479899  0.00104332  0.04883812  1
  S2-  S249  1  0.86983487  -0.00198605  0.54107037  1
  S2-  S250  1  0.87291038  0.24803673  0.04390383  1
  S2-  S251  1  0.87125124  0.24427641  0.55043664  1
  S2-  S252  1  0.87206739  0.49981335  0.04298252  1
  S2-  S253  1  0.86851884  0.50066941  0.54862205  1
  S2-  S254  1  0.87139153  0.74864055  0.05201839  1
  S2-  S255  1  0.86990145  0.74893004  0.54284529  1
