# generated using pymatgen
data_La6Ce6Pr19Nd20Sm13(BiS2)64
_symmetry_space_group_name_H-M   'P 1'
_cell_length_a   16.07430322
_cell_length_b   16.10017287
_cell_length_c   27.46109789
_cell_angle_alpha   90.15496855
_cell_angle_beta   90.11049668
_cell_angle_gamma   90.01483018
_symmetry_Int_Tables_number   1
_chemical_formula_structural   La6Ce6Pr19Nd20Sm13(BiS2)64
_chemical_formula_sum   'La6 Ce6 Pr19 Nd20 Sm13 Bi64 S128'
_cell_volume   7106.86687660
_cell_formula_units_Z   1
loop_
 _symmetry_equiv_pos_site_id
 _symmetry_equiv_pos_as_xyz
  1  'x, y, z'
loop_
 _atom_type_symbol
 _atom_type_oxidation_number
  La3+  3.0
  Ce3+  3.0
  Pr3+  3.0
  Nd3+  3.0
  Sm3+  3.0
  Bi2+  2.0
  S2-  -2.0
loop_
 _atom_site_type_symbol
 _atom_site_label
 _atom_site_symmetry_multiplicity
 _atom_site_fract_x
 _atom_site_fract_y
 _atom_site_fract_z
 _atom_site_occupancy
  La3+  La0  1  0.12466132  0.26904275  0.38498766  1
  La3+  La1  1  0.88469880  0.50849735  0.91829666  1
  La3+  La2  1  0.11920086  0.00659305  0.42541109  1
  La3+  La3  1  0.49437729  0.36867591  0.60072244  1
  La3+  La4  1  0.65152418  -0.00922676  0.88674191  1
  La3+  La5  1  0.74097533  0.87921998  0.57577034  1
  Ce3+  Ce6  1  0.24353807  0.13082815  0.55782819  1
  Ce3+  Ce7  1  0.87543949  0.25584591  0.44089852  1
  Ce3+  Ce8  1  -0.00365447  0.63223478  0.56683430  1
  Ce3+  Ce9  1  0.74510063  0.13065353  0.55705316  1
  Ce3+  Ce10  1  0.13440639  0.01538866  0.93304895  1
  Ce3+  Ce11  1  0.36977480  0.75500920  0.44873934  1
  Pr3+  Pr12  1  0.51095633  0.63399923  0.05412156  1
  Pr3+  Pr13  1  0.64021009  0.26146908  0.93136339  1
  Pr3+  Pr14  1  0.00887854  0.39040656  0.06495612  1
  Pr3+  Pr15  1  0.75688930  0.39435656  0.07229750  1
  Pr3+  Pr16  1  0.13501523  0.76023210  0.93660600  1
  Pr3+  Pr17  1  0.51093352  0.89107421  0.05762548  1
  Pr3+  Pr18  1  0.26209214  0.89058461  0.05291996  1
  Pr3+  Pr19  1  0.38370930  0.26928640  0.93962580  1
  Pr3+  Pr20  1  0.38813469  0.02018388  0.92297919  1
  Pr3+  Pr21  1  0.36619206  0.50090630  0.43999006  1
  Pr3+  Pr22  1  0.24555834  0.37897218  0.56767587  1
  Pr3+  Pr23  1  0.01364506  0.63677244  0.06437342  1
  Pr3+  Pr24  1  0.27053487  0.40599150  0.08968363  1
  Pr3+  Pr25  1  0.11739460  0.75540800  0.43144822  1
  Pr3+  Pr26  1  0.49098132  0.62350220  0.58005859  1
  Pr3+  Pr27  1  0.74506343  0.37836066  0.57001302  1
  Pr3+  Pr28  1  0.61635007  0.75074426  0.44502631  1
  Pr3+  Pr29  1  -0.00671534  0.37875355  0.56906952  1
  Pr3+  Pr30  1  0.76254665  0.89420626  0.07077861  1
  Nd3+  Nd31  1  0.63968911  0.76368950  0.94464952  1
  Nd3+  Nd32  1  0.61643579  0.50152616  0.44660348  1
  Nd3+  Nd33  1  0.24473686  0.63015872  0.55912793  1
  Nd3+  Nd34  1  0.49807024  0.88208317  0.57281713  1
  Nd3+  Nd35  1  0.51669611  0.38601632  0.06050964  1
  Nd3+  Nd36  1  0.39224268  0.50835214  0.92604933  1
  Nd3+  Nd37  1  0.26276194  0.13986101  0.06096649  1
  Nd3+  Nd38  1  0.76402350  0.64551542  0.07275014  1
  Nd3+  Nd39  1  0.01297607  0.13833098  0.06210531  1
  Nd3+  Nd40  1  0.64023357  0.51229256  0.93262586  1
  Nd3+  Nd41  1  0.24359562  0.88133954  0.56353844  1
  Nd3+  Nd42  1  0.51374894  0.13685631  0.04999354  1
  Nd3+  Nd43  1  0.86652226  0.00351421  0.43888376  1
  Nd3+  Nd44  1  -0.00345234  0.12731508  0.55815793  1
  Nd3+  Nd45  1  0.13674991  0.26657298  0.94790775  1
  Nd3+  Nd46  1  0.01747448  0.88942900  0.06287241  1
  Nd3+  Nd47  1  0.75055329  0.62808082  0.56928423  1
  Nd3+  Nd48  1  0.76161208  0.13000246  0.05057262  1
  Nd3+  Nd49  1  0.61831371  0.00333516  0.43872090  1
  Nd3+  Nd50  1  0.61682391  0.25466493  0.44237419  1
  Sm3+  Sm51  1  0.88452135  0.26367946  0.94819755  1
  Sm3+  Sm52  1  0.26264746  0.63357853  0.04658416  1
  Sm3+  Sm53  1  0.36795365  0.00518692  0.44698139  1
  Sm3+  Sm54  1  -0.00437494  0.88053268  0.55440148  1
  Sm3+  Sm55  1  0.11722920  0.50203021  0.44371336  1
  Sm3+  Sm56  1  0.87069185  0.50274139  0.44694869  1
  Sm3+  Sm57  1  0.86639764  0.75339020  0.44666075  1
  Sm3+  Sm58  1  0.89198255  0.00936700  0.93361968  1
  Sm3+  Sm59  1  0.38726698  0.76517480  0.94290891  1
  Sm3+  Sm60  1  0.13354535  0.50883708  0.93788542  1
  Sm3+  Sm61  1  0.36526009  0.25465932  0.44613768  1
  Sm3+  Sm62  1  0.49808608  0.12782545  0.57147516  1
  Sm3+  Sm63  1  0.88461817  0.76250848  0.94673186  1
  Bi2+  Bi64  1  -0.02869114  0.11521221  0.28627154  1
  Bi2+  Bi65  1  0.02785606  0.15452718  0.79949248  1
  Bi2+  Bi66  1  -0.05488029  0.39281176  0.28929019  1
  Bi2+  Bi67  1  -0.00865099  0.37101464  0.78791532  1
  Bi2+  Bi68  1  0.05578059  0.65849371  0.31619469  1
  Bi2+  Bi69  1  0.01948203  0.62327741  0.78332680  1
  Bi2+  Bi70  1  -0.00265779  0.84992732  0.29356083  1
  Bi2+  Bi71  1  0.02803016  0.88788150  0.78123021  1
  Bi2+  Bi72  1  0.26840523  0.13062709  0.28983450  1
  Bi2+  Bi73  1  0.23849934  0.03616281  0.81606087  1
  Bi2+  Bi74  1  0.24494301  0.39398565  0.28115675  1
  Bi2+  Bi75  1  0.20982140  0.39206694  0.78687649  1
  Bi2+  Bi76  1  0.23359913  0.65707307  0.27212874  1
  Bi2+  Bi77  1  0.21562629  0.58622235  0.78177598  1
  Bi2+  Bi78  1  0.26975912  0.84748970  0.29471482  1
  Bi2+  Bi79  1  0.26680457  0.84845285  0.79412785  1
  Bi2+  Bi80  1  0.53534297  0.14279064  0.31006419  1
  Bi2+  Bi81  1  0.40585270  0.09608908  0.76822071  1
  Bi2+  Bi82  1  0.49859561  0.42829683  0.30258183  1
  Bi2+  Bi83  1  0.47255331  0.34169530  0.80765327  1
  Bi2+  Bi84  1  0.50238455  0.68508386  0.25120275  1
  Bi2+  Bi85  1  0.46834914  0.61450207  0.79078427  1
  Bi2+  Bi86  1  0.50644471  0.86284468  0.30131568  1
  Bi2+  Bi87  1  0.51273441  0.85306881  0.79085484  1
  Bi2+  Bi88  1  0.76503695  0.12972350  0.27672232  1
  Bi2+  Bi89  1  0.83044803  0.11555104  0.79106458  1
  Bi2+  Bi90  1  0.74126647  0.33093092  0.28263149  1
  Bi2+  Bi91  1  0.74150269  0.38323809  0.79972669  1
  Bi2+  Bi92  1  0.73261865  0.54573212  0.28938372  1
  Bi2+  Bi93  1  0.75988601  0.61749716  0.75986136  1
  Bi2+  Bi94  1  0.75052005  0.88556029  0.30498938  1
  Bi2+  Bi95  1  0.80167193  0.81829451  0.79185824  1
  Bi2+  Bi96  1  0.13409349  -0.00917275  0.19198351  1
  Bi2+  Bi97  1  0.16585588  -0.01983868  0.71201863  1
  Bi2+  Bi98  1  0.12461972  0.24167104  0.18403909  1
  Bi2+  Bi99  1  0.10652032  0.20234582  0.69871875  1
  Bi2+  Bi100  1  0.09411625  0.54748580  0.20879690  1
  Bi2+  Bi101  1  0.09904479  0.40437009  0.68453440  1
  Bi2+  Bi102  1  0.08329576  0.74554273  0.20126408  1
  Bi2+  Bi103  1  0.12883350  0.60020687  0.67683793  1
  Bi2+  Bi104  1  0.40875893  0.00993562  0.25335626  1
  Bi2+  Bi105  1  0.38346103  -0.06186445  0.70016190  1
  Bi2+  Bi106  1  0.42672389  0.27177677  0.25063766  1
  Bi2+  Bi107  1  0.29481666  0.24218596  0.72381081  1
  Bi2+  Bi108  1  0.36900561  0.55772514  0.20429567  1
  Bi2+  Bi109  1  0.36149968  0.49873163  0.72038969  1
  Bi2+  Bi110  1  0.38317045  0.82708326  0.20125252  1
  Bi2+  Bi111  1  0.38960767  0.74156672  0.70837360  1
  Bi2+  Bi112  1  0.61832685  -0.00483561  0.19536117  1
  Bi2+  Bi113  1  0.65762716  -0.02389507  0.70139441  1
  Bi2+  Bi114  1  0.59741350  0.21069814  0.20687875  1
  Bi2+  Bi115  1  0.62437686  0.21809642  0.71472483  1
  Bi2+  Bi116  1  0.58190197  0.47678813  0.18951037  1
  Bi2+  Bi117  1  0.62744393  0.47775970  0.72628523  1
  Bi2+  Bi118  1  0.69646971  0.71166258  0.22922449  1
  Bi2+  Bi119  1  0.59503056  0.72035371  0.72194113  1
  Bi2+  Bi120  1  0.81508441  -0.07121079  0.20624825  1
  Bi2+  Bi121  1  0.91046316  -0.00258405  0.71079529  1
  Bi2+  Bi122  1  0.86846478  0.23675639  0.20503280  1
  Bi2+  Bi123  1  0.87104929  0.25964662  0.72023734  1
  Bi2+  Bi124  1  0.84285227  0.42910516  0.19760297  1
  Bi2+  Bi125  1  0.90095585  0.50563904  0.71290289  1
  Bi2+  Bi126  1  0.88617568  0.68090337  0.25544131  1
  Bi2+  Bi127  1  1.00820729  0.75247036  0.69650386  1
  S2-  S128  1  0.01092575  0.10492533  0.15900803  1
  S2-  S129  1  -0.04197453  0.14540266  0.65515014  1
  S2-  S130  1  0.06311906  0.40291889  0.15983630  1
  S2-  S131  1  -0.12891076  0.37805919  0.64510205  1
  S2-  S132  1  -0.03850811  0.62987528  0.16048187  1
  S2-  S133  1  -0.10728020  0.64181980  0.64397071  1
  S2-  S134  1  -0.00156084  0.88257155  0.16152388  1
  S2-  S135  1  0.02268102  0.91159297  0.64908632  1
  S2-  S136  1  0.23762163  0.10558512  0.15810534  1
  S2-  S137  1  0.25114194  0.11462139  0.65524018  1
  S2-  S138  1  0.26078822  0.32687020  0.18037796  1
  S2-  S139  1  0.33529569  0.36701986  0.65432722  1
  S2-  S140  1  0.24790559  0.56686841  0.13663734  1
  S2-  S141  1  0.33846169  0.62880904  0.64289388  1
  S2-  S142  1  0.23073539  0.88117392  0.15086335  1
  S2-  S143  1  0.24099633  0.84792767  0.66020392  1
  S2-  S144  1  0.50530203  0.10224393  0.14778306  1
  S2-  S145  1  0.50780763  0.01073417  0.64664796  1
  S2-  S146  1  0.42697204  0.43174839  0.14216919  1
  S2-  S147  1  0.49858790  0.21937261  0.65776665  1
  S2-  S148  1  0.51334269  0.63359360  0.15397858  1
  S2-  S149  1  0.50200189  0.51093071  0.65985898  1
  S2-  S150  1  0.53960820  0.87038774  0.15650425  1
  S2-  S151  1  0.61100632  0.83857145  0.64691116  1
  S2-  S152  1  0.76585576  0.03991916  0.13772357  1
  S2-  S153  1  0.71490515  0.11744314  0.65333162  1
  S2-  S154  1  0.62738292  0.34598341  0.13866696  1
  S2-  S155  1  0.65212018  0.35392517  0.65715999  1
  S2-  S156  1  0.73136594  0.53093353  0.14507449  1
  S2-  S157  1  0.68612086  0.60800331  0.66111618  1
  S2-  S158  1  0.76400634  0.77332259  0.14639165  1
  S2-  S159  1  0.80342250  0.88667255  0.67373635  1
  S2-  S160  1  0.12271802  0.10537680  0.34125230  1
  S2-  S161  1  0.02096791  0.00718257  0.86009115  1
  S2-  S162  1  0.12303770  0.28225092  0.27657348  1
  S2-  S163  1  0.12146458  0.27649626  0.84872640  1
  S2-  S164  1  0.13221201  0.43943858  0.35371761  1
  S2-  S165  1  0.02910631  0.51211827  0.85831558  1
  S2-  S166  1  0.12663324  0.87388438  0.35504309  1
  S2-  S167  1  0.13023516  0.78020909  0.83743607  1
  S2-  S168  1  0.33148843  0.00866175  0.35137603  1
  S2-  S169  1  0.49028392  -0.00988644  0.84352707  1
  S2-  S170  1  0.29977517  0.26299745  0.35441686  1
  S2-  S171  1  0.40245304  0.19347044  0.84772939  1
  S2-  S172  1  0.36025014  0.49544198  0.33910493  1
  S2-  S173  1  0.34462846  0.38598439  0.86047808  1
  S2-  S174  1  0.38775265  0.76084713  0.35265225  1
  S2-  S175  1  0.39271083  0.75347196  0.84645669  1
  S2-  S176  1  0.66434107  0.02811317  0.34357569  1
  S2-  S177  1  0.66657649  0.06282338  0.78849287  1
  S2-  S178  1  0.60399003  0.29629305  0.34636855  1
  S2-  S179  1  0.62514522  0.26974118  0.83045909  1
  S2-  S180  1  0.59613510  0.54635106  0.35075007  1
  S2-  S181  1  0.52694673  0.49286839  0.85310322  1
  S2-  S182  1  0.63722453  0.78482840  0.34746344  1
  S2-  S183  1  0.65375648  0.81725084  0.85044814  1
  S2-  S184  1  0.92691780  -0.00152341  0.34513381  1
  S2-  S185  1  0.81537579  -0.04075932  0.84958574  1
  S2-  S186  1  0.95073525  0.25715574  0.35306354  1
  S2-  S187  1  0.87124435  0.34609129  0.86274679  1
  S2-  S188  1  0.87553575  0.50781560  0.34898360  1
  S2-  S189  1  0.75016364  0.53389855  0.85388465  1
  S2-  S190  1  0.86260778  0.77064471  0.34929632  1
  S2-  S191  1  0.89102468  0.72988091  0.85039855  1
  S2-  S192  1  -0.00717302  0.12638480  0.45403706  1
  S2-  S193  1  0.00925115  0.14343445  0.95617881  1
  S2-  S194  1  -0.00402567  0.38173144  0.46002952  1
  S2-  S195  1  0.00922820  0.38688522  0.95966482  1
  S2-  S196  1  -0.00707418  0.62974899  0.45773851  1
  S2-  S197  1  0.00992642  0.63758287  0.95738630  1
  S2-  S198  1  -0.01043836  0.87723689  0.45252287  1
  S2-  S199  1  0.01190061  0.88257572  0.95641243  1
  S2-  S200  1  0.24454020  0.12998236  0.45428353  1
  S2-  S201  1  0.25996453  0.13926674  0.95398555  1
  S2-  S202  1  0.23976440  0.37646690  0.46047947  1
  S2-  S203  1  0.25501663  0.39259673  0.96256099  1
  S2-  S204  1  0.24054528  0.62934799  0.45153230  1
  S2-  S205  1  0.26249836  0.63374731  0.94260042  1
  S2-  S206  1  0.24623676  0.87964966  0.45754893  1
  S2-  S207  1  0.26271512  0.88889478  0.94631483  1
  S2-  S208  1  0.49164857  0.12921096  0.45603874  1
  S2-  S209  1  0.51701194  0.13615146  0.94598862  1
  S2-  S210  1  0.49049878  0.37664850  0.45145659  1
  S2-  S211  1  0.51670594  0.38509215  0.95553634  1
  S2-  S212  1  0.49127423  0.62625675  0.46170975  1
  S2-  S213  1  0.51205354  0.64148128  0.94896122  1
  S2-  S214  1  0.49407485  0.88233663  0.46020089  1
  S2-  S215  1  0.51113676  0.88623171  0.95126647  1
  S2-  S216  1  0.74437375  0.13145086  0.45011455  1
  S2-  S217  1  0.76484961  0.13249594  0.94373493  1
  S2-  S218  1  0.74559865  0.37959875  0.45546897  1
  S2-  S219  1  0.76041157  0.38733957  0.96292657  1
  S2-  S220  1  0.74574119  0.62694795  0.45750074  1
  S2-  S221  1  0.76403099  0.64039722  0.96181175  1
  S2-  S222  1  0.74250926  0.87834679  0.46033391  1
  S2-  S223  1  0.76351561  0.88767929  0.96005247  1
  S2-  S224  1  0.13669129  0.01584161  0.04064074  1
  S2-  S225  1  0.12016211  0.00342917  0.54137297  1
  S2-  S226  1  0.13917547  0.26647306  0.05395377  1
  S2-  S227  1  0.11856937  0.25395291  0.55859465  1
  S2-  S228  1  0.13539257  0.51176971  0.04119699  1
  S2-  S229  1  0.12009265  0.50480550  0.54798404  1
  S2-  S230  1  0.14078529  0.75951316  0.04357610  1
  S2-  S231  1  0.11987273  0.75676916  0.54359810  1
  S2-  S232  1  0.38522660  0.01504282  0.03870431  1
  S2-  S233  1  0.37008827  0.00514271  0.54994693  1
  S2-  S234  1  0.38638874  0.26410501  0.04928644  1
  S2-  S235  1  0.37370721  0.25085490  0.54906277  1
  S2-  S236  1  0.38670950  0.51361017  0.03274309  1
  S2-  S237  1  0.36974854  0.50203287  0.54620242  1
  S2-  S238  1  0.38377562  0.76028290  0.04698410  1
  S2-  S239  1  0.37330473  0.75883453  0.55176343  1
  S2-  S240  1  0.63477667  0.01149753  0.04252155  1
  S2-  S241  1  0.62141538  0.00565701  0.54355451  1
  S2-  S242  1  0.64156913  0.25463864  0.03716444  1
  S2-  S243  1  0.61739010  0.25308735  0.54655397  1
  S2-  S244  1  0.63578694  0.51554944  0.03897240  1
  S2-  S245  1  0.62042096  0.50219620  0.55102772  1
  S2-  S246  1  0.63400027  0.76352082  0.04802527  1
  S2-  S247  1  0.61774629  0.74401158  0.54813288  1
  S2-  S248  1  0.89443292  0.01114506  0.03980742  1
  S2-  S249  1  0.86951328  0.00251086  0.54657531  1
  S2-  S250  1  0.88311475  0.26134344  0.05228832  1
  S2-  S251  1  0.87049782  0.25241662  0.54527737  1
  S2-  S252  1  0.88584074  0.51555278  0.04968180  1
  S2-  S253  1  0.87079142  0.50495559  0.54802428  1
  S2-  S254  1  0.89292770  0.76682681  0.05024345  1
  S2-  S255  1  0.86884102  0.76053435  0.54874807  1
