# generated using pymatgen
data_La6Ce6Pr19Nd20Sm13(BiS2)64
_symmetry_space_group_name_H-M   'P 1'
_cell_length_a   16.16426230
_cell_length_b   16.17687873
_cell_length_c   27.29576795
_cell_angle_alpha   90.01473717
_cell_angle_beta   89.90832701
_cell_angle_gamma   89.96246015
_symmetry_Int_Tables_number   1
_chemical_formula_structural   La6Ce6Pr19Nd20Sm13(BiS2)64
_chemical_formula_sum   'La6 Ce6 Pr19 Nd20 Sm13 Bi64 S128'
_cell_volume   7137.48606010
_cell_formula_units_Z   1
loop_
 _symmetry_equiv_pos_site_id
 _symmetry_equiv_pos_as_xyz
  1  'x, y, z'
loop_
 _atom_type_symbol
 _atom_type_oxidation_number
  La3+  3.0
  Ce3+  3.0
  Pr3+  3.0
  Nd3+  3.0
  Sm3+  3.0
  Bi2+  2.0
  S2-  -2.0
loop_
 _atom_site_type_symbol
 _atom_site_label
 _atom_site_symmetry_multiplicity
 _atom_site_fract_x
 _atom_site_fract_y
 _atom_site_fract_z
 _atom_site_occupancy
  La3+  La0  1  0.49617825  0.61395559  0.57134115  1
  La3+  La1  1  0.61752230  0.23445812  0.41847073  1
  La3+  La2  1  0.75233458  0.37958418  0.09838857  1
  La3+  La3  1  0.25344730  0.36043096  0.61417729  1
  La3+  La4  1  -0.00704445  0.11147509  0.56587021  1
  La3+  La5  1  0.02123951  0.12178713  0.08144673  1
  Ce3+  Ce6  1  0.13903811  0.49986327  0.93835961  1
  Ce3+  Ce7  1  0.24557326  0.86526806  0.55917645  1
  Ce3+  Ce8  1  0.86537422  -0.00442845  0.43585460  1
  Ce3+  Ce9  1  0.13822055  0.00610794  0.93729689  1
  Ce3+  Ce10  1  0.11934899  0.73875133  0.44324385  1
  Ce3+  Ce11  1  0.74722248  0.36082621  0.55255367  1
  Pr3+  Pr12  1  0.49389983  0.36157160  0.55964961  1
  Pr3+  Pr13  1  0.51352026  0.87446647  0.05723321  1
  Pr3+  Pr14  1  0.12189225  0.23895354  0.43753479  1
  Pr3+  Pr15  1  0.23787321  0.61316194  0.57272546  1
  Pr3+  Pr16  1  0.36987268  0.48966954  0.44435777  1
  Pr3+  Pr17  1  0.51257444  0.37521511  0.05798780  1
  Pr3+  Pr18  1  0.01107464  0.62407802  0.06222610  1
  Pr3+  Pr19  1  0.01181188  0.87702588  0.05865041  1
  Pr3+  Pr20  1  0.64558148  0.50170850  0.93330240  1
  Pr3+  Pr21  1  0.63908668  0.00359179  0.94329921  1
  Pr3+  Pr22  1  0.13928329  0.75034241  0.94013605  1
  Pr3+  Pr23  1  0.88905510  0.01901653  0.93573811  1
  Pr3+  Pr24  1  0.02917037  0.38060273  0.10057072  1
  Pr3+  Pr25  1  0.86955371  0.48490881  0.43383491  1
  Pr3+  Pr26  1  0.23608475  0.10748059  0.57741579  1
  Pr3+  Pr27  1  0.86995985  0.74336390  0.43571023  1
  Pr3+  Pr28  1  0.51300568  0.62234922  0.05699714  1
  Pr3+  Pr29  1  0.38957981  0.00356936  0.94178069  1
  Pr3+  Pr30  1  0.37004331  0.73643204  0.44226999  1
  Nd3+  Nd31  1  0.11903154  0.48934351  0.44362367  1
  Nd3+  Nd32  1  0.74650252  0.11570086  0.56835501  1
  Nd3+  Nd33  1  0.40088313  0.51217890  0.90583717  1
  Nd3+  Nd34  1  0.89070861  0.75442422  0.94029801  1
  Nd3+  Nd35  1  0.74147947  0.86542253  0.56392585  1
  Nd3+  Nd36  1  0.63947927  0.25658017  0.93476225  1
  Nd3+  Nd37  1  0.26274091  0.12988948  0.05801434  1
  Nd3+  Nd38  1  0.87149877  0.23528406  0.43120489  1
  Nd3+  Nd39  1  0.49390921  0.86497326  0.55261924  1
  Nd3+  Nd40  1  0.36941733  -0.00675328  0.43899290  1
  Nd3+  Nd41  1  0.49301273  0.11447944  0.56260888  1
  Nd3+  Nd42  1  0.61955098  0.74108766  0.43865629  1
  Nd3+  Nd43  1  0.39572276  0.25592354  0.92562414  1
  Nd3+  Nd44  1  0.12074792  -0.00946709  0.43627607  1
  Nd3+  Nd45  1  0.51425628  0.12839092  0.05724938  1
  Nd3+  Nd46  1  0.76552941  0.62282925  0.06000861  1
  Nd3+  Nd47  1  -0.00812920  0.86468749  0.55553211  1
  Nd3+  Nd48  1  0.26214614  0.62307259  0.05524503  1
  Nd3+  Nd49  1  0.13893033  0.25227191  0.93601543  1
  Nd3+  Nd50  1  0.74920251  0.61209595  0.55387892  1
  Sm3+  Sm51  1  0.61978994  0.49024351  0.44284916  1
  Sm3+  Sm52  1  -0.00567619  0.61312400  0.56139203  1
  Sm3+  Sm53  1  0.36644917  0.24125823  0.44905966  1
  Sm3+  Sm54  1  0.26215549  0.37520299  0.05270632  1
  Sm3+  Sm55  1  0.26328460  0.87556383  0.05154936  1
  Sm3+  Sm56  1  0.76396155  0.87824130  0.05285274  1
  Sm3+  Sm57  1  0.76358873  0.12932446  0.06636476  1
  Sm3+  Sm58  1  0.39069029  0.74868708  0.93701920  1
  Sm3+  Sm59  1  0.00240211  0.36110057  0.56015494  1
  Sm3+  Sm60  1  0.89201228  0.25537498  0.96133319  1
  Sm3+  Sm61  1  0.89023523  0.49894118  0.94813785  1
  Sm3+  Sm62  1  0.64157353  0.75102540  0.94457750  1
  Sm3+  Sm63  1  0.62092580  -0.00818177  0.43558845  1
  Bi2+  Bi64  1  0.00091614  0.10823856  0.30357194  1
  Bi2+  Bi65  1  -0.01254499  0.11635288  0.81170749  1
  Bi2+  Bi66  1  0.00175558  0.39863433  0.30326876  1
  Bi2+  Bi67  1  -0.07455130  0.38988746  0.77690275  1
  Bi2+  Bi68  1  0.00780039  0.64240087  0.30845131  1
  Bi2+  Bi69  1  -0.04344092  0.65166271  0.77868779  1
  Bi2+  Bi70  1  -0.03007229  0.86157700  0.30267775  1
  Bi2+  Bi71  1  -0.06128204  0.86012649  0.77266835  1
  Bi2+  Bi72  1  0.24656572  0.11991102  0.31247581  1
  Bi2+  Bi73  1  0.25265450  0.09139375  0.79935378  1
  Bi2+  Bi74  1  0.25091995  0.36521186  0.24235152  1
  Bi2+  Bi75  1  0.21572228  0.36995293  0.81627560  1
  Bi2+  Bi76  1  0.28962497  0.62933091  0.28855053  1
  Bi2+  Bi77  1  0.23362645  0.63460592  0.79038723  1
  Bi2+  Bi78  1  0.26944322  0.82039100  0.25139391  1
  Bi2+  Bi79  1  0.24105824  0.85006169  0.78532285  1
  Bi2+  Bi80  1  0.48844462  0.17702441  0.29917218  1
  Bi2+  Bi81  1  0.52581956  0.09979025  0.80156449  1
  Bi2+  Bi82  1  0.44147094  0.39239018  0.27326395  1
  Bi2+  Bi83  1  0.58766288  0.35384953  0.77365517  1
  Bi2+  Bi84  1  0.48102530  0.64966110  0.31421144  1
  Bi2+  Bi85  1  0.52242499  0.63895969  0.79303706  1
  Bi2+  Bi86  1  0.57986346  0.90810796  0.31160178  1
  Bi2+  Bi87  1  0.44118625  0.82734781  0.75733729  1
  Bi2+  Bi88  1  0.72977541  0.07189914  0.25190739  1
  Bi2+  Bi89  1  0.72534169  0.11481545  0.78306949  1
  Bi2+  Bi90  1  0.73870505  0.42498262  0.30021886  1
  Bi2+  Bi91  1  0.75194418  0.36512315  0.83045613  1
  Bi2+  Bi92  1  0.72434433  0.64927470  0.22645677  1
  Bi2+  Bi93  1  0.73077146  0.66591554  0.78915361  1
  Bi2+  Bi94  1  0.77793659  0.92003079  0.31960767  1
  Bi2+  Bi95  1  0.72967983  0.85056903  0.73012228  1
  Bi2+  Bi96  1  0.14267573  -0.02407371  0.20272317  1
  Bi2+  Bi97  1  0.10508045  -0.02826105  0.70646584  1
  Bi2+  Bi98  1  0.10843340  0.22923777  0.21083621  1
  Bi2+  Bi99  1  0.11627438  0.23644450  0.71258302  1
  Bi2+  Bi100  1  0.15872661  0.53968707  0.22101363  1
  Bi2+  Bi101  1  0.08978631  0.54285489  0.72883307  1
  Bi2+  Bi102  1  0.08655467  0.77488122  0.21615121  1
  Bi2+  Bi103  1  0.11164008  0.76739703  0.70631608  1
  Bi2+  Bi104  1  0.35075113  0.03005482  0.23335222  1
  Bi2+  Bi105  1  0.34342079  -0.01192869  0.72256198  1
  Bi2+  Bi106  1  0.37203071  0.22100248  0.20573191  1
  Bi2+  Bi107  1  0.38547371  0.24312235  0.72195704  1
  Bi2+  Bi108  1  0.36828808  0.51133490  0.19137947  1
  Bi2+  Bi109  1  0.39240042  0.49285089  0.71858868  1
  Bi2+  Bi110  1  0.45186860  0.77039553  0.22161860  1
  Bi2+  Bi111  1  0.30314853  0.73750833  0.69313199  1
  Bi2+  Bi112  1  0.54887682  0.01936129  0.21624246  1
  Bi2+  Bi113  1  0.59797401  0.01025567  0.70550659  1
  Bi2+  Bi114  1  0.62409520  0.26951741  0.20974374  1
  Bi2+  Bi115  1  0.64871908  0.22110457  0.69595411  1
  Bi2+  Bi116  1  0.55996117  0.52941685  0.22433505  1
  Bi2+  Bi117  1  0.72126919  0.48881529  0.74077042  1
  Bi2+  Bi118  1  0.64416179  0.81936946  0.21296407  1
  Bi2+  Bi119  1  0.57483031  0.74822070  0.68505852  1
  Bi2+  Bi120  1  0.87831397  -0.04574016  0.21670847  1
  Bi2+  Bi121  1  0.85301661  0.01044694  0.70704308  1
  Bi2+  Bi122  1  0.86761431  0.23801906  0.23956042  1
  Bi2+  Bi123  1  0.84595116  0.25167575  0.71675071  1
  Bi2+  Bi124  1  0.89916463  0.57571699  0.20911368  1
  Bi2+  Bi125  1  0.90116332  0.52585067  0.68957259  1
  Bi2+  Bi126  1  0.90546645  0.75970173  0.17868027  1
  Bi2+  Bi127  1  0.85801133  0.72451216  0.68272679  1
  S2-  S128  1  -0.03366177  0.15817242  0.17871142  1
  S2-  S129  1  0.09510709  0.11298194  0.64891057  1
  S2-  S130  1  -0.01292788  0.34986354  0.20148959  1
  S2-  S131  1  0.07805589  0.35247754  0.64936904  1
  S2-  S132  1  0.03689129  0.53770995  0.14795124  1
  S2-  S133  1  0.09438368  0.63144849  0.64199646  1
  S2-  S134  1  0.01360945  0.96992620  0.14272198  1
  S2-  S135  1  -0.02052317  0.93031855  0.64757427  1
  S2-  S136  1  0.17557150  0.11950699  0.14331082  1
  S2-  S137  1  0.26911670  0.19844688  0.66199433  1
  S2-  S138  1  0.19116926  0.35593199  0.14197966  1
  S2-  S139  1  0.24731574  0.35190439  0.72370283  1
  S2-  S140  1  0.25635699  0.62580766  0.15434587  1
  S2-  S141  1  0.27649490  0.52310148  0.65634722  1
  S2-  S142  1  0.24750251  0.87302558  0.14826106  1
  S2-  S143  1  0.24626094  0.95964247  0.64176807  1
  S2-  S144  1  0.50987816  0.17408376  0.15235482  1
  S2-  S145  1  0.48907704  0.14334186  0.66140647  1
  S2-  S146  1  0.58886317  0.38979687  0.14784321  1
  S2-  S147  1  0.42492074  0.36257142  0.65254005  1
  S2-  S148  1  0.50977279  0.64261621  0.15582234  1
  S2-  S149  1  0.50620596  0.58005186  0.67048842  1
  S2-  S150  1  0.48242010  0.89669514  0.15400407  1
  S2-  S151  1  0.49906990  0.89749387  0.64946167  1
  S2-  S152  1  0.73231101  0.15289363  0.16173292  1
  S2-  S153  1  0.87329461  0.13858535  0.64080715  1
  S2-  S154  1  0.77263750  0.35405374  0.20116435  1
  S2-  S155  1  0.74564477  0.34849406  0.64946672  1
  S2-  S156  1  0.76068568  0.54029961  0.14619762  1
  S2-  S157  1  0.71002855  0.66153398  0.64542734  1
  S2-  S158  1  0.75790814  0.89048475  0.15003668  1
  S2-  S159  1  0.72462201  0.98494607  0.63626452  1
  S2-  S160  1  0.11282503  0.00282913  0.33601320  1
  S2-  S161  1  0.11719651  0.00795304  0.84032879  1
  S2-  S162  1  0.08752556  0.25197256  0.33713815  1
  S2-  S163  1  0.08788083  0.24580725  0.83899504  1
  S2-  S164  1  0.11020484  0.50649164  0.34430079  1
  S2-  S165  1  0.12979745  0.51603247  0.84068004  1
  S2-  S166  1  0.10901352  0.75205621  0.34677162  1
  S2-  S167  1  0.13321431  0.74827791  0.84043484  1
  S2-  S168  1  0.35503972  0.00480351  0.34015738  1
  S2-  S169  1  0.39933141  0.01049443  0.84219350  1
  S2-  S170  1  0.35186592  0.23559358  0.35049206  1
  S2-  S171  1  0.30886796  0.22737521  0.84073676  1
  S2-  S172  1  0.38022684  0.50442049  0.34423608  1
  S2-  S173  1  0.36213214  0.43701952  0.81935574  1
  S2-  S174  1  0.35318039  0.76705239  0.34417318  1
  S2-  S175  1  0.38042466  0.66190939  0.85219105  1
  S2-  S176  1  0.60355236  0.09181401  0.35612673  1
  S2-  S177  1  0.64360540  -0.00115348  0.84328736  1
  S2-  S178  1  0.63471554  0.30199693  0.32264051  1
  S2-  S179  1  0.53104703  0.25666506  0.85491623  1
  S2-  S180  1  0.63280227  0.51501469  0.34659976  1
  S2-  S181  1  0.55274910  0.50863237  0.84842402  1
  S2-  S182  1  0.61640665  0.74426290  0.33995174  1
  S2-  S183  1  0.61951654  0.75051847  0.84777736  1
  S2-  S184  1  0.86559254  0.10675987  0.35935370  1
  S2-  S185  1  0.89708114  -0.02735074  0.83769518  1
  S2-  S186  1  0.86757332  0.32262968  0.34386732  1
  S2-  S187  1  0.88086915  0.17299476  0.87444160  1
  S2-  S188  1  0.88262820  0.51854129  0.33534225  1
  S2-  S189  1  0.86682380  0.49631498  0.85063340  1
  S2-  S190  1  0.86533407  0.74014173  0.33501651  1
  S2-  S191  1  0.86511585  0.74786088  0.84323469  1
  S2-  S192  1  -0.00153632  0.11384627  0.45579684  1
  S2-  S193  1  0.01868877  0.13110171  0.96687501  1
  S2-  S194  1  -0.00445982  0.36383902  0.45435803  1
  S2-  S195  1  0.01124325  0.37623691  0.94790880  1
  S2-  S196  1  -0.00818072  0.61492851  0.45617969  1
  S2-  S197  1  0.01136348  0.62570209  0.95382385  1
  S2-  S198  1  -0.00670131  0.86897507  0.44934665  1
  S2-  S199  1  0.01315282  0.87963075  0.95125983  1
  S2-  S200  1  0.24559220  0.11453029  0.45701820  1
  S2-  S201  1  0.26547730  0.12909409  0.95250113  1
  S2-  S202  1  0.24505739  0.36649277  0.44431180  1
  S2-  S203  1  0.26905827  0.37911245  0.94770532  1
  S2-  S204  1  0.24366251  0.61404415  0.45822550  1
  S2-  S205  1  0.26605446  0.62396573  0.95060093  1
  S2-  S206  1  0.24628327  0.86546553  0.45118343  1
  S2-  S207  1  0.26691231  0.87405986  0.94592539  1
  S2-  S208  1  0.49026131  0.11777854  0.45579089  1
  S2-  S209  1  0.51462395  0.12825016  0.95293209  1
  S2-  S210  1  0.49652123  0.36308136  0.45098229  1
  S2-  S211  1  0.51225178  0.38398892  0.95229727  1
  S2-  S212  1  0.49824831  0.61422007  0.46005771  1
  S2-  S213  1  0.51696703  0.62961346  0.95252785  1
  S2-  S214  1  0.49436147  0.86679897  0.44701677  1
  S2-  S215  1  0.51415270  0.87297559  0.95031008  1
  S2-  S216  1  0.73953533  0.11686478  0.45956032  1
  S2-  S217  1  0.75634342  0.13288349  0.96276992  1
  S2-  S218  1  0.74024601  0.36362742  0.44746230  1
  S2-  S219  1  0.76694743  0.37472909  0.95590425  1
  S2-  S220  1  0.74465573  0.61512939  0.44823725  1
  S2-  S221  1  0.76681831  0.62803760  0.95332006  1
  S2-  S222  1  0.74134000  0.86655437  0.45623101  1
  S2-  S223  1  0.76432410  0.87801126  0.94852995  1
  S2-  S224  1  0.14379832  -0.00251435  0.04119299  1
  S2-  S225  1  0.11775141  -0.01610371  0.54073989  1
  S2-  S226  1  0.13526016  0.25587559  0.04289966  1
  S2-  S227  1  0.12314221  0.24008566  0.54414681  1
  S2-  S228  1  0.13915306  0.49811965  0.04359679  1
  S2-  S229  1  0.11594548  0.48928599  0.54808290  1
  S2-  S230  1  0.13788805  0.75078044  0.04753460  1
  S2-  S231  1  0.11813113  0.74381202  0.54630111  1
  S2-  S232  1  0.38633600  0.00269123  0.04866571  1
  S2-  S233  1  0.37110547  -0.00894364  0.54475531  1
  S2-  S234  1  0.38683488  0.25272784  0.04095545  1
  S2-  S235  1  0.36653752  0.23839414  0.55070262  1
  S2-  S236  1  0.38557387  0.49876339  0.04822770  1
  S2-  S237  1  0.37035251  0.48875818  0.54892251  1
  S2-  S238  1  0.38650815  0.75004844  0.04302516  1
  S2-  S239  1  0.36980153  0.73770292  0.55051887  1
  S2-  S240  1  0.63889508  0.00303524  0.05121234  1
  S2-  S241  1  0.61440644  -0.00946228  0.53833386  1
  S2-  S242  1  0.64056535  0.25252953  0.04440886  1
  S2-  S243  1  0.61907829  0.23738968  0.54406759  1
  S2-  S244  1  0.64045034  0.50070119  0.04110064  1
  S2-  S245  1  0.62196900  0.48835984  0.54955728  1
  S2-  S246  1  0.64184512  0.75004715  0.05027382  1
  S2-  S247  1  0.61964025  0.74091992  0.54375390  1
  S2-  S248  1  0.88275212  0.00493973  0.04500640  1
  S2-  S249  1  0.86542601  -0.01253510  0.54052373  1
  S2-  S250  1  0.88624898  0.25636975  0.06519026  1
  S2-  S251  1  0.87317152  0.24397194  0.53849677  1
  S2-  S252  1  0.89172301  0.49215211  0.05193887  1
  S2-  S253  1  0.87413280  0.48732991  0.54408261  1
  S2-  S254  1  0.88549047  0.75181140  0.04559484  1
  S2-  S255  1  0.86948945  0.73930408  0.54350897  1
