# generated using pymatgen
data_La6Ce6Pr19Nd20Sm13(BiS2)64
_symmetry_space_group_name_H-M   'P 1'
_cell_length_a   16.10778164
_cell_length_b   16.13150948
_cell_length_c   27.40335649
_cell_angle_alpha   90.09807885
_cell_angle_beta   89.91706282
_cell_angle_gamma   89.99029255
_symmetry_Int_Tables_number   1
_chemical_formula_structural   La6Ce6Pr19Nd20Sm13(BiS2)64
_chemical_formula_sum   'La6 Ce6 Pr19 Nd20 Sm13 Bi64 S128'
_cell_volume   7120.54776370
_cell_formula_units_Z   1
loop_
 _symmetry_equiv_pos_site_id
 _symmetry_equiv_pos_as_xyz
  1  'x, y, z'
loop_
 _atom_type_symbol
 _atom_type_oxidation_number
  La3+  3.0
  Ce3+  3.0
  Pr3+  3.0
  Nd3+  3.0
  Sm3+  3.0
  Bi2+  2.0
  S2-  -2.0
loop_
 _atom_site_type_symbol
 _atom_site_label
 _atom_site_symmetry_multiplicity
 _atom_site_fract_x
 _atom_site_fract_y
 _atom_site_fract_z
 _atom_site_occupancy
  La3+  La0  1  0.73927724  0.11018720  0.61840999  1
  La3+  La1  1  -0.01170300  0.63773440  0.56855510  1
  La3+  La2  1  0.11594976  0.51795056  0.43094590  1
  La3+  La3  1  0.23726395  0.64308197  0.57590788  1
  La3+  La4  1  0.50084839  0.88811683  0.10858010  1
  La3+  La5  1  0.51099476  0.62772063  0.07429035  1
  Ce3+  Ce6  1  0.88371521  0.25518546  0.93724091  1
  Ce3+  Ce7  1  0.11760762  0.01418767  0.44715166  1
  Ce3+  Ce8  1  0.38353494  0.00485224  0.94351674  1
  Ce3+  Ce9  1  0.24423832  0.88586237  0.55544359  1
  Ce3+  Ce10  1  0.63255012  0.25372238  0.93303085  1
  Ce3+  Ce11  1  0.86428334  0.51351675  0.44145876  1
  Pr3+  Pr12  1  0.36576865  0.50612129  0.43838882  1
  Pr3+  Pr13  1  0.75840349  0.14000448  0.07224600  1
  Pr3+  Pr14  1  0.48903744  0.64189122  0.56497813  1
  Pr3+  Pr15  1  0.24075879  0.13799637  0.56554127  1
  Pr3+  Pr16  1  0.11439749  0.76172534  0.43536425  1
  Pr3+  Pr17  1  0.01127596  0.63045279  0.05387571  1
  Pr3+  Pr18  1  0.74209758  0.37869396  0.56735657  1
  Pr3+  Pr19  1  0.36478471  0.75328344  0.42699414  1
  Pr3+  Pr20  1  0.50804036  0.38565799  0.06073439  1
  Pr3+  Pr21  1  0.11213986  0.26376551  0.42563547  1
  Pr3+  Pr22  1  0.38497788  0.75645538  0.94062660  1
  Pr3+  Pr23  1  0.88467120  0.50851912  0.93863039  1
  Pr3+  Pr24  1  0.13642566  0.25509766  0.93806428  1
  Pr3+  Pr25  1  0.86589805  0.01501482  0.43339403  1
  Pr3+  Pr26  1  0.01286473  0.38454650  0.05883454  1
  Pr3+  Pr27  1  0.63327709  0.76027850  0.94666711  1
  Pr3+  Pr28  1  0.75576567  0.64180479  0.06702829  1
  Pr3+  Pr29  1  0.26019143  0.13075211  0.06538215  1
  Pr3+  Pr30  1  0.61498792  0.26003190  0.44405962  1
  Nd3+  Nd31  1  0.36210615  0.01360871  0.43462289  1
  Nd3+  Nd32  1  0.74280805  0.63738326  0.57157372  1
  Nd3+  Nd33  1  0.60813403  0.01351167  0.42848516  1
  Nd3+  Nd34  1  0.88298996  0.00800421  0.94072681  1
  Nd3+  Nd35  1  0.50857717  0.13201602  0.06024829  1
  Nd3+  Nd36  1  0.39062104  0.51300290  0.92442925  1
  Nd3+  Nd37  1  0.01212437  0.88220999  0.06165065  1
  Nd3+  Nd38  1  -0.01442930  0.89325178  0.55814722  1
  Nd3+  Nd39  1  0.86320443  0.26022632  0.44317294  1
  Nd3+  Nd40  1  0.73816376  0.89394637  0.54991102  1
  Nd3+  Nd41  1  0.61433197  0.75984052  0.44156074  1
  Nd3+  Nd42  1  0.13679014  0.00547942  0.94153248  1
  Nd3+  Nd43  1  0.75626626  0.38054394  0.05072890  1
  Nd3+  Nd44  1  0.75635806  0.89009288  0.07080225  1
  Nd3+  Nd45  1  0.48996114  0.38975811  0.56800472  1
  Nd3+  Nd46  1  0.86405296  0.76273030  0.44104077  1
  Nd3+  Nd47  1  0.61543402  0.51114727  0.44763365  1
  Nd3+  Nd48  1  0.25519063  0.87798079  0.06959183  1
  Nd3+  Nd49  1  0.01066701  0.13409333  0.05649387  1
  Nd3+  Nd50  1  0.23733769  0.38880953  0.56050039  1
  Sm3+  Sm51  1  0.13297602  0.75594917  0.93574461  1
  Sm3+  Sm52  1  0.49275532  0.88963763  0.55359080  1
  Sm3+  Sm53  1  0.88218714  0.75761402  0.94555400  1
  Sm3+  Sm54  1  -0.00785548  0.38686888  0.55169204  1
  Sm3+  Sm55  1  0.49314585  0.13705514  0.56336444  1
  Sm3+  Sm56  1  -0.00361716  0.14139012  0.56522202  1
  Sm3+  Sm57  1  0.26102344  0.63118504  0.05265504  1
  Sm3+  Sm58  1  0.36444292  0.26497822  0.44307996  1
  Sm3+  Sm59  1  0.14317155  0.50357720  0.92633291  1
  Sm3+  Sm60  1  0.26013723  0.38492035  0.05548936  1
  Sm3+  Sm61  1  0.63141689  0.51101711  0.93375809  1
  Sm3+  Sm62  1  0.63382742  0.00537940  0.94552746  1
  Sm3+  Sm63  1  0.38459501  0.25680757  0.94620914  1
  Bi2+  Bi64  1  0.01801328  0.13238612  0.29404840  1
  Bi2+  Bi65  1  -0.00566826  0.08867683  0.78660990  1
  Bi2+  Bi66  1  -0.03748399  0.37271723  0.29022916  1
  Bi2+  Bi67  1  -0.03655343  0.36669496  0.77635402  1
  Bi2+  Bi68  1  0.00947012  0.57496830  0.30674358  1
  Bi2+  Bi69  1  -0.01716733  0.63289964  0.78479360  1
  Bi2+  Bi70  1  0.01722273  0.83820282  0.30642671  1
  Bi2+  Bi71  1  -0.02049177  0.82948311  0.77506042  1
  Bi2+  Bi72  1  0.25842232  0.02260807  0.30909395  1
  Bi2+  Bi73  1  0.23503795  0.10934948  0.82062178  1
  Bi2+  Bi74  1  0.31692878  0.21346802  0.31499982  1
  Bi2+  Bi75  1  0.27988683  0.34950496  0.78962904  1
  Bi2+  Bi76  1  0.25222599  0.59880718  0.25140675  1
  Bi2+  Bi77  1  0.23349355  0.62798095  0.80266518  1
  Bi2+  Bi78  1  0.21618396  0.82422734  0.30031487  1
  Bi2+  Bi79  1  0.27291349  0.88396290  0.73557978  1
  Bi2+  Bi80  1  0.50080014  0.15262870  0.29166689  1
  Bi2+  Bi81  1  0.48320769  0.03519809  0.78618374  1
  Bi2+  Bi82  1  0.50472754  0.38806032  0.30904734  1
  Bi2+  Bi83  1  0.57442729  0.41923782  0.76610373  1
  Bi2+  Bi84  1  0.49010972  0.64575563  0.30917258  1
  Bi2+  Bi85  1  0.51005793  0.63202397  0.79350689  1
  Bi2+  Bi86  1  0.52800400  0.89987565  0.29328963  1
  Bi2+  Bi87  1  0.46752368  0.84288911  0.76020743  1
  Bi2+  Bi88  1  0.75368841  0.18876756  0.28837992  1
  Bi2+  Bi89  1  0.73966744  0.11428201  0.82059271  1
  Bi2+  Bi90  1  0.73940193  0.36234121  0.23285655  1
  Bi2+  Bi91  1  0.76541145  0.38182243  0.78638708  1
  Bi2+  Bi92  1  0.77202031  0.68288634  0.28441972  1
  Bi2+  Bi93  1  0.72007030  0.59328199  0.79499304  1
  Bi2+  Bi94  1  0.76493453  0.88619138  0.28674712  1
  Bi2+  Bi95  1  0.73606261  0.85861994  0.80860678  1
  Bi2+  Bi96  1  0.12153745  -0.04790308  0.22817870  1
  Bi2+  Bi97  1  0.14810487  0.03467444  0.71061107  1
  Bi2+  Bi98  1  0.12568080  0.23734008  0.19507476  1
  Bi2+  Bi99  1  0.09477227  0.23244368  0.73587520  1
  Bi2+  Bi100  1  0.11910780  0.47429411  0.19296667  1
  Bi2+  Bi101  1  0.14903425  0.48419773  0.69688070  1
  Bi2+  Bi102  1  0.09339190  0.72306004  0.20477215  1
  Bi2+  Bi103  1  0.11734512  0.76445826  0.70757813  1
  Bi2+  Bi104  1  0.37016068  0.03791990  0.21534938  1
  Bi2+  Bi105  1  0.33268987  0.04223551  0.67292876  1
  Bi2+  Bi106  1  0.40807510  0.26291193  0.21325468  1
  Bi2+  Bi107  1  0.37432920  0.19115335  0.74334545  1
  Bi2+  Bi108  1  0.38507842  0.46129193  0.22843302  1
  Bi2+  Bi109  1  0.39577195  0.44966788  0.70292847  1
  Bi2+  Bi110  1  0.34516765  0.75585776  0.21399485  1
  Bi2+  Bi111  1  0.38705411  0.71200463  0.68980974  1
  Bi2+  Bi112  1  0.64786216  0.10896496  0.20325233  1
  Bi2+  Bi113  1  0.59425486  -0.04423517  0.70180628  1
  Bi2+  Bi114  1  0.58819608  0.28883771  0.16888325  1
  Bi2+  Bi115  1  0.56966655  0.23078938  0.73170242  1
  Bi2+  Bi116  1  0.58657535  0.48706981  0.21384443  1
  Bi2+  Bi117  1  0.71527719  0.47897928  0.68618678  1
  Bi2+  Bi118  1  0.63400608  0.72747235  0.20491309  1
  Bi2+  Bi119  1  0.64293113  0.66613055  0.69338351  1
  Bi2+  Bi120  1  0.92056312  -0.03921740  0.22600400  1
  Bi2+  Bi121  1  0.89415523  -0.02254401  0.71042010  1
  Bi2+  Bi122  1  0.85504918  0.14276917  0.19607555  1
  Bi2+  Bi123  1  0.85709704  0.24654243  0.71355125  1
  Bi2+  Bi124  1  0.85724237  0.52012401  0.24024003  1
  Bi2+  Bi125  1  0.91058453  0.50247479  0.69987992  1
  Bi2+  Bi126  1  0.90128759  0.76607481  0.20879118  1
  Bi2+  Bi127  1  0.81344458  0.74626291  0.72342799  1
  S2-  S128  1  0.02159802  0.13286876  0.15548296  1
  S2-  S129  1  -0.08929927  0.11203687  0.64874498  1
  S2-  S130  1  0.00769288  0.36158070  0.15904222  1
  S2-  S131  1  0.02125885  0.39988542  0.64789501  1
  S2-  S132  1  0.01773152  0.59867015  0.15164098  1
  S2-  S133  1  0.09828811  0.63084539  0.64721431  1
  S2-  S134  1  0.11864224  0.86707741  0.14034980  1
  S2-  S135  1  -0.00148725  0.87463769  0.65637666  1
  S2-  S136  1  0.24003804  0.13333853  0.16507444  1
  S2-  S137  1  0.12395963  0.16485716  0.64023824  1
  S2-  S138  1  0.22540759  0.37180081  0.15169222  1
  S2-  S139  1  0.25675745  0.36808898  0.65941815  1
  S2-  S140  1  0.25538533  0.63674388  0.15111949  1
  S2-  S141  1  0.28403089  0.57392051  0.66990947  1
  S2-  S142  1  0.34026230  0.89374929  0.15673693  1
  S2-  S143  1  0.25105467  0.79373376  0.63837477  1
  S2-  S144  1  0.49661081  0.05616441  0.14978442  1
  S2-  S145  1  0.56753226  0.11201379  0.65075059  1
  S2-  S146  1  0.46288855  0.49233343  0.13860821  1
  S2-  S147  1  0.49090785  0.32756928  0.66034272  1
  S2-  S148  1  0.48228124  0.72837449  0.15689191  1
  S2-  S149  1  0.49274591  0.57691885  0.65847047  1
  S2-  S150  1  0.59133043  0.88508229  0.20177181  1
  S2-  S151  1  0.49416826  0.84059022  0.64751223  1
  S2-  S152  1  0.75954354  0.01486663  0.14379978  1
  S2-  S153  1  0.74298971  0.09700594  0.72729864  1
  S2-  S154  1  0.76829034  0.28696615  0.13436084  1
  S2-  S155  1  0.73911959  0.27958926  0.65119418  1
  S2-  S156  1  0.65699741  0.58765663  0.14316815  1
  S2-  S157  1  0.86675279  0.65076079  0.64350387  1
  S2-  S158  1  0.77116159  0.76838178  0.14272148  1
  S2-  S159  1  0.73904067  0.93277595  0.64588851  1
  S2-  S160  1  0.09051910  0.02916229  0.35288498  1
  S2-  S161  1  0.10715638  0.00375016  0.84405686  1
  S2-  S162  1  0.13813378  0.23112168  0.32603625  1
  S2-  S163  1  0.14418392  0.26652795  0.83835572  1
  S2-  S164  1  0.09263148  0.43074424  0.34094805  1
  S2-  S165  1  0.08966798  0.54279589  0.83452955  1
  S2-  S166  1  0.12534751  0.64756767  0.35901802  1
  S2-  S167  1  0.16541859  0.75810030  0.83969488  1
  S2-  S168  1  0.47371810  0.02356469  0.35918957  1
  S2-  S169  1  0.34474626  -0.00917816  0.84898099  1
  S2-  S170  1  0.36378088  0.37264005  0.36387349  1
  S2-  S171  1  0.37389604  0.25156796  0.84846665  1
  S2-  S172  1  0.35948416  0.61325987  0.35933873  1
  S2-  S173  1  0.27309160  0.47971339  0.85285983  1
  S2-  S174  1  0.38604796  0.81786598  0.33111974  1
  S2-  S175  1  0.38260160  0.66466757  0.85330833  1
  S2-  S176  1  0.66561041  -0.01067959  0.33189266  1
  S2-  S177  1  0.62398960  -0.01179307  0.84699365  1
  S2-  S178  1  0.61719909  0.26089408  0.34305583  1
  S2-  S179  1  0.61341010  0.23560269  0.83628087  1
  S2-  S180  1  0.59015178  0.52811875  0.34999804  1
  S2-  S181  1  0.52331001  0.49516627  0.85676326  1
  S2-  S182  1  0.60335629  0.76401390  0.34256947  1
  S2-  S183  1  0.63165552  0.73052840  0.84729395  1
  S2-  S184  1  0.88333948  -0.03263984  0.33628277  1
  S2-  S185  1  0.84150519  -0.01960462  0.84602621  1
  S2-  S186  1  0.90057054  0.23303804  0.34642353  1
  S2-  S187  1  0.88844009  0.19479314  0.84708223  1
  S2-  S188  1  0.85261770  0.47358791  0.34621282  1
  S2-  S189  1  0.86223126  0.54890238  0.84232691  1
  S2-  S190  1  0.90290763  0.72265584  0.34714227  1
  S2-  S191  1  0.86877021  0.77131772  0.84939703  1
  S2-  S192  1  -0.00830365  0.13822845  0.45721018  1
  S2-  S193  1  0.01062530  0.13000772  0.95098129  1
  S2-  S194  1  -0.01260791  0.38653699  0.44924289  1
  S2-  S195  1  0.01170269  0.38419930  0.94762410  1
  S2-  S196  1  -0.01422406  0.63832431  0.46000341  1
  S2-  S197  1  0.00941811  0.63442358  0.94804590  1
  S2-  S198  1  -0.01049956  0.88764145  0.45196322  1
  S2-  S199  1  0.00902738  0.87963797  0.95376653  1
  S2-  S200  1  0.24146747  0.14085668  0.45487184  1
  S2-  S201  1  0.26064118  0.13220673  0.95810102  1
  S2-  S202  1  0.23501455  0.38475416  0.45485411  1
  S2-  S203  1  0.26141137  0.37805259  0.95321793  1
  S2-  S204  1  0.24102338  0.63852991  0.46424311  1
  S2-  S205  1  0.25347450  0.63234184  0.95040339  1
  S2-  S206  1  0.24167750  0.88641816  0.44857045  1
  S2-  S207  1  0.25545726  0.87780962  0.95634866  1
  S2-  S208  1  0.48519936  0.14208613  0.45807940  1
  S2-  S209  1  0.50812783  0.13013136  0.95243262  1
  S2-  S210  1  0.49277087  0.38607837  0.46206351  1
  S2-  S211  1  0.50939462  0.37782046  0.95430344  1
  S2-  S212  1  0.49273276  0.63507186  0.45919077  1
  S2-  S213  1  0.51253964  0.63295983  0.96106180  1
  S2-  S214  1  0.48824221  0.88286441  0.45124659  1
  S2-  S215  1  0.50841434  0.88310749  0.94407919  1
  S2-  S216  1  0.73816029  0.13483249  0.44032765  1
  S2-  S217  1  0.75752824  0.13066325  0.95942563  1
  S2-  S218  1  0.73960046  0.38558732  0.45759388  1
  S2-  S219  1  0.75633877  0.38340982  0.94446228  1
  S2-  S220  1  0.73987191  0.63756761  0.45895351  1
  S2-  S221  1  0.75823545  0.63280603  0.95738277  1
  S2-  S222  1  0.73823490  0.88757885  0.44516366  1
  S2-  S223  1  0.76052057  0.88382064  0.96215239  1
  S2-  S224  1  0.13456328  0.00866013  0.04701114  1
  S2-  S225  1  0.11723315  0.01021775  0.55105701  1
  S2-  S226  1  0.13683760  0.25847231  0.04458687  1
  S2-  S227  1  0.11550102  0.26483307  0.53632987  1
  S2-  S228  1  0.13754897  0.50655832  0.03684336  1
  S2-  S229  1  0.11511819  0.51083549  0.54184909  1
  S2-  S230  1  0.13532224  0.75222672  0.04040890  1
  S2-  S231  1  0.10985991  0.76937322  0.54185143  1
  S2-  S232  1  0.38294156  0.00332535  0.04790208  1
  S2-  S233  1  0.36926607  0.01269527  0.54083731  1
  S2-  S234  1  0.38308918  0.25874770  0.05158436  1
  S2-  S235  1  0.36613376  0.26159381  0.54833805  1
  S2-  S236  1  0.37809965  0.50676779  0.03323383  1
  S2-  S237  1  0.36486317  0.51154292  0.54767463  1
  S2-  S238  1  0.37977147  0.75643213  0.04621873  1
  S2-  S239  1  0.37071307  0.76532159  0.53758824  1
  S2-  S240  1  0.62789638  0.00671115  0.04817626  1
  S2-  S241  1  0.61213710  0.01460483  0.53839210  1
  S2-  S242  1  0.63044202  0.25631263  0.03791104  1
  S2-  S243  1  0.61055806  0.26135199  0.54905952  1
  S2-  S244  1  0.63645255  0.50403835  0.03675521  1
  S2-  S245  1  0.61828671  0.51205466  0.55315229  1
  S2-  S246  1  0.62547884  0.76910076  0.05198966  1
  S2-  S247  1  0.61842700  0.76310568  0.54774561  1
  S2-  S248  1  0.88983216  0.00780921  0.04759245  1
  S2-  S249  1  0.86197429  0.01827855  0.54116455  1
  S2-  S250  1  0.88945428  0.25921830  0.04043268  1
  S2-  S251  1  0.87291217  0.26184375  0.54737149  1
  S2-  S252  1  0.88003676  0.50711923  0.04688402  1
  S2-  S253  1  0.86278711  0.50694185  0.54733400  1
  S2-  S254  1  0.88996352  0.76009015  0.04735559  1
  S2-  S255  1  0.86084498  0.76866854  0.54572698  1
