# generated using pymatgen
data_La6Ce6Pr19Nd20Sm13(BiS2)64
_symmetry_space_group_name_H-M   'P 1'
_cell_length_a   16.07206410
_cell_length_b   16.07152300
_cell_length_c   27.42418724
_cell_angle_alpha   89.96221079
_cell_angle_beta   89.87213810
_cell_angle_gamma   89.98813077
_symmetry_Int_Tables_number   1
_chemical_formula_structural   La6Ce6Pr19Nd20Sm13(BiS2)64
_chemical_formula_sum   'La6 Ce6 Pr19 Nd20 Sm13 Bi64 S128'
_cell_volume   7083.71810505
_cell_formula_units_Z   1
loop_
 _symmetry_equiv_pos_site_id
 _symmetry_equiv_pos_as_xyz
  1  'x, y, z'
loop_
 _atom_type_symbol
 _atom_type_oxidation_number
  La3+  3.0
  Ce3+  3.0
  Pr3+  3.0
  Nd3+  3.0
  Sm3+  3.0
  Bi2+  2.0
  S2-  -2.0
loop_
 _atom_site_type_symbol
 _atom_site_label
 _atom_site_symmetry_multiplicity
 _atom_site_fract_x
 _atom_site_fract_y
 _atom_site_fract_z
 _atom_site_occupancy
  La3+  La0  1  0.36261721  -0.00233414  0.38436810  1
  La3+  La1  1  0.14061000  0.27377337  0.91389919  1
  La3+  La2  1  -0.01412336  0.10475981  0.58858033  1
  La3+  La3  1  0.24186876  0.88354910  0.06860891  1
  La3+  La4  1  0.00673667  0.65559364  0.09546692  1
  La3+  La5  1  0.14127146  0.76086954  0.92380102  1
  Ce3+  Ce6  1  0.62213902  0.23793073  0.44276355  1
  Ce3+  Ce7  1  0.38001257  0.25752754  0.94878491  1
  Ce3+  Ce8  1  0.37939794  0.01587309  0.94491919  1
  Ce3+  Ce9  1  0.24318594  0.10935065  0.56051982  1
  Ce3+  Ce10  1  -0.00020480  0.13845856  0.03645930  1
  Ce3+  Ce11  1  0.75770994  0.63526712  0.07053221  1
  Pr3+  Pr12  1  0.76406982  0.38723253  0.07726962  1
  Pr3+  Pr13  1  0.25486825  0.13790310  0.07808926  1
  Pr3+  Pr14  1  0.62314248  0.48836404  0.43506244  1
  Pr3+  Pr15  1  0.88125557  0.76003908  0.93404841  1
  Pr3+  Pr16  1  0.74763788  0.61143250  0.55321640  1
  Pr3+  Pr17  1  0.24444295  0.35950856  0.56478681  1
  Pr3+  Pr18  1  0.25536940  0.38806597  0.07537761  1
  Pr3+  Pr19  1  0.62767887  0.76042792  0.92996181  1
  Pr3+  Pr20  1  0.49411757  0.36289007  0.55292363  1
  Pr3+  Pr21  1  0.87048621  0.27484783  0.91754642  1
  Pr3+  Pr22  1  0.61608598  -0.01127529  0.43303780  1
  Pr3+  Pr23  1  0.87017009  0.01642975  0.91554323  1
  Pr3+  Pr24  1  0.50805065  0.63945502  0.05950262  1
  Pr3+  Pr25  1  0.36517672  0.73624769  0.43379516  1
  Pr3+  Pr26  1  0.11055275  0.73787900  0.43261075  1
  Pr3+  Pr27  1  0.36600818  0.23644322  0.43780388  1
  Pr3+  Pr28  1  0.13874139  0.01333631  0.92450432  1
  Pr3+  Pr29  1  0.00476167  0.38414380  0.06358150  1
  Pr3+  Pr30  1  0.88502034  0.48380170  0.39114201  1
  Nd3+  Nd31  1  0.73814631  0.10671245  0.57101747  1
  Nd3+  Nd32  1  0.74720807  0.36479052  0.56154009  1
  Nd3+  Nd33  1  0.87149195  0.23976932  0.44366610  1
  Nd3+  Nd34  1  0.13031713  0.51196962  0.95130840  1
  Nd3+  Nd35  1  0.76458266  0.12476255  0.07100309  1
  Nd3+  Nd36  1  0.49210370  0.61282046  0.56866516  1
  Nd3+  Nd37  1  0.88193964  0.51340285  0.94746671  1
  Nd3+  Nd38  1  0.36689138  0.49071150  0.43662367  1
  Nd3+  Nd39  1  0.87115816  0.73662557  0.43525136  1
  Nd3+  Nd40  1  0.63101089  0.25809918  0.94688927  1
  Nd3+  Nd41  1  0.24669435  0.61487186  0.56698723  1
  Nd3+  Nd42  1  0.51149247  0.13678729  0.07655078  1
  Nd3+  Nd43  1  0.87201240  -0.01032058  0.44039795  1
  Nd3+  Nd44  1  -0.00825059  0.36091561  0.56939576  1
  Nd3+  Nd45  1  -0.00450011  0.85866967  0.57112737  1
  Nd3+  Nd46  1  0.24420758  0.86533620  0.55587283  1
  Nd3+  Nd47  1  0.25714398  0.63594295  0.06959089  1
  Nd3+  Nd48  1  0.50518958  0.88635281  0.05902387  1
  Nd3+  Nd49  1  0.61792570  0.73692092  0.44411297  1
  Nd3+  Nd50  1  0.63319690  0.50903796  0.94245396  1
  Sm3+  Sm51  1  0.49714807  0.11128265  0.56170964  1
  Sm3+  Sm52  1  0.11509054  -0.01157334  0.43899215  1
  Sm3+  Sm53  1  0.11674584  0.23748980  0.45219126  1
  Sm3+  Sm54  1  0.11530003  0.48819149  0.44868567  1
  Sm3+  Sm55  1  0.00106899  0.61699440  0.57009691  1
  Sm3+  Sm56  1  0.38768340  0.76273316  0.93717440  1
  Sm3+  Sm57  1  0.51025555  0.38454079  0.05552925  1
  Sm3+  Sm58  1  0.49284961  0.86350844  0.55545697  1
  Sm3+  Sm59  1  0.74570863  0.86117415  0.55199736  1
  Sm3+  Sm60  1  0.62835043  0.01715423  0.93997004  1
  Sm3+  Sm61  1  0.00589015  0.88611548  0.04293184  1
  Sm3+  Sm62  1  0.37842142  0.50878150  0.94842533  1
  Sm3+  Sm63  1  0.75896847  0.88612821  0.04768323  1
  Bi2+  Bi64  1  -0.04721347  0.11143333  0.30375115  1
  Bi2+  Bi65  1  0.01346478  0.11704538  0.78617509  1
  Bi2+  Bi66  1  0.04138044  0.35714980  0.28835050  1
  Bi2+  Bi67  1  0.00731985  0.38009605  0.80144352  1
  Bi2+  Bi68  1  0.04056877  0.62761424  0.29110227  1
  Bi2+  Bi69  1  -0.00802977  0.59027432  0.76474032  1
  Bi2+  Bi70  1  -0.03109931  0.87454212  0.28432377  1
  Bi2+  Bi71  1  -0.00723015  0.86841805  0.77892914  1
  Bi2+  Bi72  1  0.20834073  0.14599856  0.29585609  1
  Bi2+  Bi73  1  0.32805233  0.12296870  0.79274445  1
  Bi2+  Bi74  1  0.33220018  0.39178973  0.31832297  1
  Bi2+  Bi75  1  0.28898067  0.40055107  0.79751531  1
  Bi2+  Bi76  1  0.28240508  0.55494462  0.25762646  1
  Bi2+  Bi77  1  0.29456831  0.62014096  0.78349197  1
  Bi2+  Bi78  1  0.22944701  0.85172894  0.28828861  1
  Bi2+  Bi79  1  0.23562628  0.87164518  0.79815020  1
  Bi2+  Bi80  1  0.51870930  0.17925513  0.22804660  1
  Bi2+  Bi81  1  0.49985278  0.14313397  0.85323472  1
  Bi2+  Bi82  1  0.52382521  0.34447130  0.30087620  1
  Bi2+  Bi83  1  0.49526243  0.31831323  0.79104721  1
  Bi2+  Bi84  1  0.50133615  0.61285599  0.30550251  1
  Bi2+  Bi85  1  0.52171424  0.61324268  0.78866983  1
  Bi2+  Bi86  1  0.49865606  0.87547467  0.28681817  1
  Bi2+  Bi87  1  0.50376935  0.91702191  0.81278118  1
  Bi2+  Bi88  1  0.75809296  0.12490750  0.30165330  1
  Bi2+  Bi89  1  0.67288314  0.14802248  0.79338882  1
  Bi2+  Bi90  1  0.78019857  0.34284031  0.28541719  1
  Bi2+  Bi91  1  0.73972423  0.41135327  0.79737079  1
  Bi2+  Bi92  1  0.74893829  0.71536522  0.30801714  1
  Bi2+  Bi93  1  0.80395822  0.65170778  0.79815706  1
  Bi2+  Bi94  1  0.75784432  0.92191099  0.30654868  1
  Bi2+  Bi95  1  0.67383654  0.82410718  0.79516562  1
  Bi2+  Bi96  1  0.09091391  -0.00383759  0.22422919  1
  Bi2+  Bi97  1  0.14705753  0.00130284  0.69006307  1
  Bi2+  Bi98  1  0.05645910  0.19714278  0.22218388  1
  Bi2+  Bi99  1  0.15517080  0.26872537  0.70625099  1
  Bi2+  Bi100  1  0.18154682  0.40835946  0.21333592  1
  Bi2+  Bi101  1  0.16418205  0.50649584  0.73033006  1
  Bi2+  Bi102  1  0.13185011  0.74309510  0.20374415  1
  Bi2+  Bi103  1  0.10589034  0.73481589  0.70308586  1
  Bi2+  Bi104  1  0.36187148  -0.03204355  0.18002762  1
  Bi2+  Bi105  1  0.40760174  -0.01331948  0.72186349  1
  Bi2+  Bi106  1  0.33337573  0.25689592  0.23300021  1
  Bi2+  Bi107  1  0.42787257  0.19796866  0.70700184  1
  Bi2+  Bi108  1  0.44574670  0.47300085  0.21862241  1
  Bi2+  Bi109  1  0.44081619  0.48529676  0.71200085  1
  Bi2+  Bi110  1  0.41938229  0.74789880  0.20602693  1
  Bi2+  Bi111  1  0.38242111  0.73335185  0.70976113  1
  Bi2+  Bi112  1  0.64578638  0.02951771  0.22960566  1
  Bi2+  Bi113  1  0.60421618  0.00335553  0.72642452  1
  Bi2+  Bi114  1  0.65244264  0.31632655  0.19944532  1
  Bi2+  Bi115  1  0.61651467  0.26562224  0.70679300  1
  Bi2+  Bi116  1  0.65292193  0.52258986  0.26347077  1
  Bi2+  Bi117  1  0.62212054  0.54393172  0.69362823  1
  Bi2+  Bi118  1  0.62651361  0.70485169  0.21410243  1
  Bi2+  Bi119  1  0.58027845  0.73771554  0.70170155  1
  Bi2+  Bi120  1  0.89870457  0.00381000  0.19801650  1
  Bi2+  Bi121  1  0.84027853  -0.00348565  0.71288093  1
  Bi2+  Bi122  1  0.84058805  0.23986958  0.19631638  1
  Bi2+  Bi123  1  0.87832250  0.26708016  0.71009136  1
  Bi2+  Bi124  1  0.86808091  0.52586348  0.20046025  1
  Bi2+  Bi125  1  0.83546175  0.51198143  0.71682352  1
  Bi2+  Bi126  1  0.79842988  0.80796667  0.21181615  1
  Bi2+  Bi127  1  0.79592368  0.78053505  0.70907983  1
  S2-  S128  1  -0.08295891  0.13144098  0.12486663  1
  S2-  S129  1  0.04117500  0.14742003  0.68396359  1
  S2-  S130  1  -0.09484281  0.38144422  0.14755339  1
  S2-  S131  1  0.00871189  0.35238978  0.66981239  1
  S2-  S132  1  0.03894475  0.58627980  0.18869279  1
  S2-  S133  1  -0.02248019  0.73403320  0.64322842  1
  S2-  S134  1  0.04167230  0.82217806  0.13343926  1
  S2-  S135  1  -0.00634308  0.95781991  0.65491981  1
  S2-  S136  1  0.20847537  0.00602132  0.14335932  1
  S2-  S137  1  0.24516420  0.14053199  0.65684348  1
  S2-  S138  1  0.23690547  0.27107637  0.15053779  1
  S2-  S139  1  0.24422292  0.38637443  0.66365101  1
  S2-  S140  1  0.26464435  0.51675249  0.14830395  1
  S2-  S141  1  0.13276111  0.60515089  0.64326412  1
  S2-  S142  1  0.26782500  0.75905776  0.14458229  1
  S2-  S143  1  0.20816073  0.86165115  0.65535019  1
  S2-  S144  1  0.39683266  0.12620464  0.15169444  1
  S2-  S145  1  0.60499383  0.10427755  0.63935013  1
  S2-  S146  1  0.50257778  0.35816123  0.15171356  1
  S2-  S147  1  0.48264371  0.34634537  0.65168926  1
  S2-  S148  1  0.49793035  0.62309215  0.15905132  1
  S2-  S149  1  0.37140447  0.60799550  0.64191374  1
  S2-  S150  1  0.51287920  0.88051202  0.15825636  1
  S2-  S151  1  0.47654778  0.85817631  0.65374666  1
  S2-  S152  1  0.64044814  0.13105688  0.14723014  1
  S2-  S153  1  0.83823766  0.12547185  0.65313409  1
  S2-  S154  1  0.73209859  0.51618716  0.14697460  1
  S2-  S155  1  0.75921637  0.34160024  0.66077797  1
  S2-  S156  1  0.85601102  0.67726319  0.15071613  1
  S2-  S157  1  0.76256514  0.63179338  0.65219887  1
  S2-  S158  1  0.77745432  0.95689447  0.13515517  1
  S2-  S159  1  0.74977264  0.90919657  0.64579157  1
  S2-  S160  1  0.19583094  -0.00874747  0.35062863  1
  S2-  S161  1  0.10429215  -0.01750223  0.82326280  1
  S2-  S162  1  0.12852788  0.25735728  0.35468973  1
  S2-  S163  1  0.11631677  0.23905205  0.81170635  1
  S2-  S164  1  0.05764429  0.49241569  0.35600151  1
  S2-  S165  1  0.13854988  0.43598110  0.86146418  1
  S2-  S166  1  0.17599934  0.72193118  0.33712685  1
  S2-  S167  1  0.09917548  0.76752103  0.82278165  1
  S2-  S168  1  0.36271744  -0.01510712  0.27263865  1
  S2-  S169  1  0.28923789  0.00141564  0.86109644  1
  S2-  S170  1  0.35659410  0.16500221  0.34755589  1
  S2-  S171  1  0.30105506  0.27076971  0.86293602  1
  S2-  S172  1  0.36864684  0.60599800  0.36183184  1
  S2-  S173  1  0.38091876  0.51303297  0.85066352  1
  S2-  S174  1  0.36803300  0.82867284  0.34792041  1
  S2-  S175  1  0.28591360  0.75542100  0.85795549  1
  S2-  S176  1  0.53011487  -0.00021679  0.34696808  1
  S2-  S177  1  0.71569573  0.03022880  0.85695970  1
  S2-  S178  1  0.62910881  0.22923818  0.34633983  1
  S2-  S179  1  0.71351507  0.28926050  0.86123779  1
  S2-  S180  1  0.72022056  0.46987178  0.35212913  1
  S2-  S181  1  0.64882671  0.53185035  0.84469190  1
  S2-  S182  1  0.59162731  0.75453269  0.34686468  1
  S2-  S183  1  0.50358382  0.75488484  0.85821010  1
  S2-  S184  1  0.98828327  -0.01681396  0.36544317  1
  S2-  S185  1  0.89775974  0.00338809  0.81430221  1
  S2-  S186  1  0.89970515  0.31879182  0.35479840  1
  S2-  S187  1  0.90550193  0.23556702  0.81473130  1
  S2-  S188  1  0.88502186  0.57557496  0.30010296  1
  S2-  S189  1  0.88113270  0.43154535  0.85906180  1
  S2-  S190  1  0.97582216  0.74937088  0.35624707  1
  S2-  S191  1  0.87050519  0.79685428  0.83650472  1
  S2-  S192  1  -0.00633613  0.11734559  0.46245667  1
  S2-  S193  1  0.00556027  0.14366980  0.93147262  1
  S2-  S194  1  -0.00574092  0.36441725  0.46286824  1
  S2-  S195  1  0.00696765  0.38462737  0.95837737  1
  S2-  S196  1  -0.01172008  0.60677781  0.46004136  1
  S2-  S197  1  0.00760435  0.63377926  0.93303124  1
  S2-  S198  1  -0.00839701  0.86276622  0.46443135  1
  S2-  S199  1  0.00621356  0.88864592  0.93865671  1
  S2-  S200  1  0.24023078  0.11258034  0.45623587  1
  S2-  S201  1  0.25179465  0.13960968  0.96069809  1
  S2-  S202  1  0.24150800  0.36447358  0.45744120  1
  S2-  S203  1  0.25639821  0.38857603  0.96821520  1
  S2-  S204  1  0.23740364  0.61071474  0.45969533  1
  S2-  S205  1  0.26018065  0.63188976  0.96006892  1
  S2-  S206  1  0.23812492  0.86332680  0.45230414  1
  S2-  S207  1  0.25959313  0.88483325  0.96072349  1
  S2-  S208  1  0.49448033  0.11521339  0.45779115  1
  S2-  S209  1  0.50697471  0.13613134  0.97036030  1
  S2-  S210  1  0.49397752  0.36476570  0.44717915  1
  S2-  S211  1  0.50581722  0.38564158  0.95082602  1
  S2-  S212  1  0.49777797  0.61052754  0.46179687  1
  S2-  S213  1  0.50488683  0.63100167  0.95475054  1
  S2-  S214  1  0.49434228  0.86179953  0.45339901  1
  S2-  S215  1  0.50787243  0.89133630  0.95432236  1
  S2-  S216  1  0.74588731  0.11196526  0.45574696  1
  S2-  S217  1  0.75638237  0.13892747  0.95869280  1
  S2-  S218  1  0.74829866  0.36449850  0.45713297  1
  S2-  S219  1  0.75528468  0.39198392  0.96661715  1
  S2-  S220  1  0.74829778  0.61253623  0.44762041  1
  S2-  S221  1  0.75363597  0.63741232  0.95488393  1
  S2-  S222  1  0.74508423  0.86249869  0.44830716  1
  S2-  S223  1  0.75114527  0.88477578  0.94498918  1
  S2-  S224  1  0.12168772  0.01186234  0.03281833  1
  S2-  S225  1  0.11640641  -0.01128774  0.54640235  1
  S2-  S226  1  0.12622791  0.25782532  0.04791399  1
  S2-  S227  1  0.11565573  0.23501147  0.55583231  1
  S2-  S228  1  0.12256870  0.51903980  0.05557057  1
  S2-  S229  1  0.11751151  0.48343397  0.55051073  1
  S2-  S230  1  0.12682235  0.75326702  0.03337897  1
  S2-  S231  1  0.12136909  0.73862789  0.54150954  1
  S2-  S232  1  0.37874907  0.00869333  0.04907062  1
  S2-  S233  1  0.37357697  -0.01118752  0.55802362  1
  S2-  S234  1  0.38484519  0.26271935  0.05209693  1
  S2-  S235  1  0.37133070  0.23420474  0.54613091  1
  S2-  S236  1  0.38730751  0.50971281  0.05064019  1
  S2-  S237  1  0.36767969  0.48580616  0.54237767  1
  S2-  S238  1  0.38232454  0.76185313  0.04223960  1
  S2-  S239  1  0.36998870  0.74076634  0.54340070  1
  S2-  S240  1  0.63179008  0.00809570  0.04338892  1
  S2-  S241  1  0.61851951  -0.01780346  0.53977563  1
  S2-  S242  1  0.63757461  0.26412964  0.05068141  1
  S2-  S243  1  0.62179807  0.24049862  0.54684357  1
  S2-  S244  1  0.62924295  0.51014751  0.04691086  1
  S2-  S245  1  0.61857895  0.48876805  0.54539006  1
  S2-  S246  1  0.63394973  0.76350931  0.04338716  1
  S2-  S247  1  0.61858248  0.73784185  0.54993564  1
  S2-  S248  1  0.88227001  0.00523844  0.02408082  1
  S2-  S249  1  0.86620998  -0.01369312  0.54485678  1
  S2-  S250  1  0.87787831  0.26405267  0.03420464  1
  S2-  S251  1  0.86754985  0.23669465  0.54916386  1
  S2-  S252  1  0.89088246  0.52278500  0.05003649  1
  S2-  S253  1  0.87429871  0.49053664  0.56219107  1
  S2-  S254  1  0.88167756  0.76290425  0.03897840  1
  S2-  S255  1  0.86765597  0.73840661  0.54052167  1
