# generated using pymatgen
data_La6Ce6Pr19Nd20Sm13(BiS2)64
_symmetry_space_group_name_H-M   'P 1'
_cell_length_a   16.07621747
_cell_length_b   16.00593270
_cell_length_c   27.47243680
_cell_angle_alpha   90.51165447
_cell_angle_beta   89.55497149
_cell_angle_gamma   89.98723856
_symmetry_Int_Tables_number   1
_chemical_formula_structural   La6Ce6Pr19Nd20Sm13(BiS2)64
_chemical_formula_sum   'La6 Ce6 Pr19 Nd20 Sm13 Bi64 S128'
_cell_volume   7068.57069575
_cell_formula_units_Z   1
loop_
 _symmetry_equiv_pos_site_id
 _symmetry_equiv_pos_as_xyz
  1  'x, y, z'
loop_
 _atom_type_symbol
 _atom_type_oxidation_number
  La3+  3.0
  Ce3+  3.0
  Pr3+  3.0
  Nd3+  3.0
  Sm3+  3.0
  Bi2+  2.0
  S2-  -2.0
loop_
 _atom_site_type_symbol
 _atom_site_label
 _atom_site_symmetry_multiplicity
 _atom_site_fract_x
 _atom_site_fract_y
 _atom_site_fract_z
 _atom_site_occupancy
  La3+  La0  1  0.74228418  0.86885708  0.59857663  1
  La3+  La1  1  0.88648114  -0.00474766  0.89253268  1
  La3+  La2  1  0.62683903  -0.01393524  0.41434207  1
  La3+  La3  1  0.87390933  0.49891525  0.42173836  1
  La3+  La4  1  0.49724823  0.11964723  0.56345513  1
  La3+  La5  1  0.24868959  0.13122886  0.10462069  1
  Ce3+  Ce6  1  0.49326768  0.36772568  0.56999983  1
  Ce3+  Ce7  1  -0.00268477  0.86877581  0.57069935  1
  Ce3+  Ce8  1  0.27367582  0.88071346  0.06765145  1
  Ce3+  Ce9  1  0.37566369  0.23718089  0.43232110  1
  Ce3+  Ce10  1  0.39215950  0.49748869  0.93375270  1
  Ce3+  Ce11  1  -0.00459409  0.61717177  0.55647449  1
  Pr3+  Pr12  1  0.14736353  0.24548572  0.93436079  1
  Pr3+  Pr13  1  0.74919776  0.36997667  0.57414136  1
  Pr3+  Pr14  1  0.76664638  0.13590698  0.07135446  1
  Pr3+  Pr15  1  0.86483896  0.24851696  0.43272894  1
  Pr3+  Pr16  1  0.11908593  -0.01611868  0.43122770  1
  Pr3+  Pr17  1  0.26244195  0.38490210  0.06994099  1
  Pr3+  Pr18  1  0.76516317  0.87991307  0.06944887  1
  Pr3+  Pr19  1  0.49384005  0.87553419  0.57831971  1
  Pr3+  Pr20  1  0.37393635  0.48326799  0.42286490  1
  Pr3+  Pr21  1  0.51674214  0.88165242  0.08476474  1
  Pr3+  Pr22  1  0.01640843  0.12703451  0.05014588  1
  Pr3+  Pr23  1  0.14476824  0.75635619  0.94133923  1
  Pr3+  Pr24  1  0.01744219  0.62908398  0.05721728  1
  Pr3+  Pr25  1  0.37228683  -0.00734446  0.43438330  1
  Pr3+  Pr26  1  0.24604843  0.61444344  0.55804822  1
  Pr3+  Pr27  1  0.14920344  0.49963275  0.92876249  1
  Pr3+  Pr28  1  0.51166902  0.37858620  0.07226431  1
  Pr3+  Pr29  1  0.51882925  0.13006509  0.08363694  1
  Pr3+  Pr30  1  0.14608422  -0.00412415  0.92578704  1
  Nd3+  Nd31  1  0.12582370  0.49182199  0.43034419  1
  Nd3+  Nd32  1  0.01958934  0.37724203  0.05192792  1
  Nd3+  Nd33  1  0.64350680  0.25010769  0.94616790  1
  Nd3+  Nd34  1  -0.00625514  0.11943777  0.55298861  1
  Nd3+  Nd35  1  0.89910707  0.49780795  0.92229727  1
  Nd3+  Nd36  1  0.74685292  0.62120382  0.56558540  1
  Nd3+  Nd37  1  0.77011250  0.37963356  0.06472464  1
  Nd3+  Nd38  1  0.88984604  0.24909455  0.92950637  1
  Nd3+  Nd39  1  0.24439965  0.35960242  0.55990740  1
  Nd3+  Nd40  1  0.39745613  0.75440401  0.94092286  1
  Nd3+  Nd41  1  0.89016696  0.75687871  0.94158641  1
  Nd3+  Nd42  1  0.51816065  0.62658361  0.05347147  1
  Nd3+  Nd43  1  0.62197105  0.24440930  0.44650603  1
  Nd3+  Nd44  1  0.01970275  0.88550253  0.05928363  1
  Nd3+  Nd45  1  0.62122462  0.49288388  0.44994391  1
  Nd3+  Nd46  1  0.86974221  0.74484818  0.44041249  1
  Nd3+  Nd47  1  0.74545728  0.11805412  0.56821557  1
  Nd3+  Nd48  1  0.24316121  0.86735131  0.56928614  1
  Nd3+  Nd49  1  0.49224559  0.62086218  0.55461867  1
  Nd3+  Nd50  1  0.24214784  0.11770519  0.55697344  1
  Sm3+  Sm51  1  0.62069183  0.74684632  0.44635717  1
  Sm3+  Sm52  1  0.12319972  0.74458141  0.44102976  1
  Sm3+  Sm53  1  0.86751637  -0.00648926  0.44299561  1
  Sm3+  Sm54  1  0.63868182  0.00515141  0.94405210  1
  Sm3+  Sm55  1  -0.00494095  0.36910195  0.55001809  1
  Sm3+  Sm56  1  0.76885927  0.62824082  0.05093479  1
  Sm3+  Sm57  1  0.64417152  0.49884838  0.94387063  1
  Sm3+  Sm58  1  0.39913677  0.00355605  0.95152637  1
  Sm3+  Sm59  1  0.12296287  0.23820726  0.42860336  1
  Sm3+  Sm60  1  0.26786651  0.62757865  0.05722016  1
  Sm3+  Sm61  1  0.37386132  0.74965604  0.43609721  1
  Sm3+  Sm62  1  0.39321184  0.24811869  0.95582267  1
  Sm3+  Sm63  1  0.64568826  0.75500103  0.94329816  1
  Bi2+  Bi64  1  0.01099623  0.10032379  0.28689550  1
  Bi2+  Bi65  1  0.02520868  0.15102253  0.78436241  1
  Bi2+  Bi66  1  -0.06957118  0.44014243  0.27127073  1
  Bi2+  Bi67  1  -0.04438366  0.43338561  0.76980988  1
  Bi2+  Bi68  1  -0.01631709  0.65034799  0.30249529  1
  Bi2+  Bi69  1  0.00264356  0.63440862  0.79170238  1
  Bi2+  Bi70  1  -0.06146808  0.84814828  0.30376606  1
  Bi2+  Bi71  1  0.02193512  0.91156518  0.75804638  1
  Bi2+  Bi72  1  0.24047731  0.16575012  0.29402464  1
  Bi2+  Bi73  1  0.26210056  0.19222594  0.79509010  1
  Bi2+  Bi74  1  0.23701102  0.44475060  0.25987942  1
  Bi2+  Bi75  1  0.24814418  0.45494910  0.75812411  1
  Bi2+  Bi76  1  0.21090828  0.65310216  0.30556221  1
  Bi2+  Bi77  1  0.27664233  0.63282283  0.81014166  1
  Bi2+  Bi78  1  0.22033680  0.85507944  0.29356466  1
  Bi2+  Bi79  1  0.27085380  0.99798844  0.81058640  1
  Bi2+  Bi80  1  0.49850260  0.18842330  0.30451272  1
  Bi2+  Bi81  1  0.50190517  0.14822550  0.80470583  1
  Bi2+  Bi82  1  0.47550682  0.45197389  0.28704104  1
  Bi2+  Bi83  1  0.51250596  0.42438783  0.78896893  1
  Bi2+  Bi84  1  0.41695472  0.64110453  0.31469676  1
  Bi2+  Bi85  1  0.47296897  0.61998617  0.79172666  1
  Bi2+  Bi86  1  0.47658026  0.82266559  0.28894832  1
  Bi2+  Bi87  1  0.44952545  0.91282565  0.78958985  1
  Bi2+  Bi88  1  0.75260865  0.11643311  0.29971490  1
  Bi2+  Bi89  1  0.74667435  0.11684260  0.78996876  1
  Bi2+  Bi90  1  0.71898901  0.37065845  0.28619339  1
  Bi2+  Bi91  1  0.75190697  0.36879005  0.78191512  1
  Bi2+  Bi92  1  0.65785709  0.61627504  0.29277387  1
  Bi2+  Bi93  1  0.74124658  0.59711714  0.78624670  1
  Bi2+  Bi94  1  0.74593822  0.79343907  0.29640894  1
  Bi2+  Bi95  1  0.75413724  0.84546373  0.79737579  1
  Bi2+  Bi96  1  0.08475563  -0.01115609  0.20800560  1
  Bi2+  Bi97  1  0.15603714  0.01640649  0.70517749  1
  Bi2+  Bi98  1  0.08329384  0.27372469  0.20591704  1
  Bi2+  Bi99  1  0.12471500  0.29143290  0.68535431  1
  Bi2+  Bi100  1  0.09338168  0.52257037  0.20247025  1
  Bi2+  Bi101  1  0.12506693  0.56574942  0.69704584  1
  Bi2+  Bi102  1  0.13816646  0.74655007  0.21187392  1
  Bi2+  Bi103  1  0.14700321  0.76545823  0.77169030  1
  Bi2+  Bi104  1  0.35145275  -0.03183853  0.21366784  1
  Bi2+  Bi105  1  0.35228527  0.01862884  0.70772238  1
  Bi2+  Bi106  1  0.36569251  0.31220039  0.21773385  1
  Bi2+  Bi107  1  0.39605351  0.28994358  0.73225675  1
  Bi2+  Bi108  1  0.39347373  0.49871649  0.17968065  1
  Bi2+  Bi109  1  0.41573614  0.49762100  0.69594008  1
  Bi2+  Bi110  1  0.33155496  0.71184377  0.21541257  1
  Bi2+  Bi111  1  0.35709704  0.74110835  0.71070473  1
  Bi2+  Bi112  1  0.61761593  -0.00485934  0.21903849  1
  Bi2+  Bi113  1  0.59940595  -0.01933967  0.72004799  1
  Bi2+  Bi114  1  0.64704660  0.26565968  0.20179711  1
  Bi2+  Bi115  1  0.60953348  0.25358423  0.71187925  1
  Bi2+  Bi116  1  0.59397055  0.46098166  0.18849205  1
  Bi2+  Bi117  1  0.60777185  0.44155961  0.68192097  1
  Bi2+  Bi118  1  0.59972319  0.74059024  0.21357729  1
  Bi2+  Bi119  1  0.61083441  0.69760301  0.72010314  1
  Bi2+  Bi120  1  0.87107081  -0.01822096  0.22257317  1
  Bi2+  Bi121  1  0.89988975  0.03700592  0.68067876  1
  Bi2+  Bi122  1  0.87674330  0.17882077  0.21351044  1
  Bi2+  Bi123  1  0.88189371  0.28616793  0.70384722  1
  Bi2+  Bi124  1  0.78349413  0.51938690  0.21091584  1
  Bi2+  Bi125  1  0.79910966  0.49018003  0.68883981  1
  Bi2+  Bi126  1  0.87458757  0.72514293  0.21651662  1
  Bi2+  Bi127  1  0.87126642  0.69395908  0.72019032  1
  S2-  S128  1  0.07646589  0.13423643  0.14574852  1
  S2-  S129  1  0.01390213  0.16509472  0.64972580  1
  S2-  S130  1  0.00676919  0.39245020  0.15105392  1
  S2-  S131  1  -0.00387356  0.38995556  0.64781720  1
  S2-  S132  1  0.01764527  0.65155225  0.15620200  1
  S2-  S133  1  0.00138635  0.64876902  0.65215828  1
  S2-  S134  1  -0.02548966  0.89240017  0.15584086  1
  S2-  S135  1  0.12087959  0.88799341  0.64236718  1
  S2-  S136  1  0.32357224  0.12667774  0.20067689  1
  S2-  S137  1  0.24371639  0.22304969  0.63670038  1
  S2-  S138  1  0.22126292  0.29333135  0.15461119  1
  S2-  S139  1  0.21730742  0.42978364  0.65104551  1
  S2-  S140  1  0.23815050  0.52765140  0.13516818  1
  S2-  S141  1  0.23873792  0.67128387  0.65369075  1
  S2-  S142  1  0.21867133  0.96748358  0.14735479  1
  S2-  S143  1  0.35708012  0.86149573  0.64630167  1
  S2-  S144  1  0.49077668  0.01034752  0.15980842  1
  S2-  S145  1  0.49536484  0.02991984  0.65040458  1
  S2-  S146  1  0.49763000  0.26646483  0.15202006  1
  S2-  S147  1  0.48198898  0.25030044  0.64337889  1
  S2-  S148  1  0.52088133  0.62406586  0.15245955  1
  S2-  S149  1  0.48065143  0.64963749  0.65249416  1
  S2-  S150  1  0.37942163  0.83554638  0.14726147  1
  S2-  S151  1  0.59544250  0.84650160  0.66266118  1
  S2-  S152  1  0.66158885  0.11070571  0.15424847  1
  S2-  S153  1  0.73620501  0.02383624  0.65513498  1
  S2-  S154  1  0.79539757  0.27446353  0.14269739  1
  S2-  S155  1  0.75325249  0.24212404  0.64575331  1
  S2-  S156  1  0.77318449  0.65720298  0.14641855  1
  S2-  S157  1  0.74312975  0.70787515  0.65258564  1
  S2-  S158  1  0.65751779  0.87275992  0.15025170  1
  S2-  S159  1  0.89676397  0.87446925  0.65108416  1
  S2-  S160  1  0.16044399  0.04866101  0.33840435  1
  S2-  S161  1  0.04280990  0.01852764  0.84044992  1
  S2-  S162  1  0.13361879  0.27136363  0.33193247  1
  S2-  S163  1  0.11576083  0.26251420  0.83488077  1
  S2-  S164  1  0.01684827  0.49811311  0.35049827  1
  S2-  S165  1  0.03575428  0.50292947  0.85251696  1
  S2-  S166  1  0.09400571  0.84469082  0.36212668  1
  S2-  S167  1  0.17108392  0.85179210  0.85970417  1
  S2-  S168  1  0.37561178  0.11498530  0.35517267  1
  S2-  S169  1  0.50406720  0.01201843  0.87151686  1
  S2-  S170  1  0.41127664  0.34063257  0.35643234  1
  S2-  S171  1  0.39785365  0.25078073  0.85662928  1
  S2-  S172  1  0.24316705  0.49354081  0.35420332  1
  S2-  S173  1  0.28030027  0.47367460  0.85878962  1
  S2-  S174  1  0.36046476  0.86659242  0.36062609  1
  S2-  S175  1  0.40196811  0.76450107  0.84205121  1
  S2-  S176  1  0.57052391  0.04295981  0.31726398  1
  S2-  S177  1  0.71975901  -0.01101440  0.85577297  1
  S2-  S178  1  0.64393959  0.24235676  0.34745679  1
  S2-  S179  1  0.64116665  0.21720772  0.84804709  1
  S2-  S180  1  0.62504293  0.48181058  0.35112085  1
  S2-  S181  1  0.65650564  0.48242101  0.84682962  1
  S2-  S182  1  0.61071789  0.82732755  0.35853015  1
  S2-  S183  1  0.65323727  0.74947015  0.84559397  1
  S2-  S184  1  0.77912409  -0.00972061  0.35759486  1
  S2-  S185  1  0.85928571  -0.01584781  0.76815926  1
  S2-  S186  1  0.89491903  0.17048909  0.34389172  1
  S2-  S187  1  0.87802019  0.15474684  0.84332920  1
  S2-  S188  1  0.84460375  0.37199560  0.35252327  1
  S2-  S189  1  0.87211268  0.37070077  0.85339280  1
  S2-  S190  1  0.84310611  0.63992123  0.35915575  1
  S2-  S191  1  0.88965647  0.82657442  0.85233714  1
  S2-  S192  1  -0.00352860  0.11521905  0.44823923  1
  S2-  S193  1  0.01544622  0.12411320  0.94637825  1
  S2-  S194  1  0.00094353  0.36394070  0.44707521  1
  S2-  S195  1  0.02002903  0.37315601  0.94855761  1
  S2-  S196  1  0.00151661  0.62241043  0.45266776  1
  S2-  S197  1  0.01667555  0.63205338  0.95106791  1
  S2-  S198  1  -0.01007844  0.86802947  0.46234743  1
  S2-  S199  1  0.01366926  0.88027244  0.95430345  1
  S2-  S200  1  0.24126044  0.11634919  0.45307833  1
  S2-  S201  1  0.27412410  0.12207851  0.94449576  1
  S2-  S202  1  0.24510180  0.36111490  0.45216854  1
  S2-  S203  1  0.26976521  0.37130149  0.96126692  1
  S2-  S204  1  0.25070966  0.62354475  0.45166291  1
  S2-  S205  1  0.27072162  0.63038623  0.95395016  1
  S2-  S206  1  0.24510733  0.86581397  0.46115687  1
  S2-  S207  1  0.27728231  0.87863899  0.96068318  1
  S2-  S208  1  0.50586884  0.11232561  0.45437041  1
  S2-  S209  1  0.51910154  0.13165361  0.97108238  1
  S2-  S210  1  0.49818714  0.36921778  0.46290945  1
  S2-  S211  1  0.51769214  0.37681661  0.95834417  1
  S2-  S212  1  0.49490887  0.61957683  0.44913894  1
  S2-  S213  1  0.52202410  0.62540410  0.94757008  1
  S2-  S214  1  0.49740757  0.86950068  0.46153849  1
  S2-  S215  1  0.52135890  0.87377378  0.96544735  1
  S2-  S216  1  0.74505113  0.11813949  0.45868390  1
  S2-  S217  1  0.76677147  0.12603468  0.95960273  1
  S2-  S218  1  0.74464220  0.37264061  0.46340864  1
  S2-  S219  1  0.76742104  0.37922081  0.95837095  1
  S2-  S220  1  0.74080003  0.62020711  0.46102590  1
  S2-  S221  1  0.76968243  0.62371671  0.94667577  1
  S2-  S222  1  0.74691203  0.86591604  0.45611682  1
  S2-  S223  1  0.76551580  0.87874499  0.96179662  1
  S2-  S224  1  0.14387499  0.00496622  0.03698796  1
  S2-  S225  1  0.11878100  -0.00373543  0.53928951  1
  S2-  S226  1  0.14380732  0.25187924  0.04081443  1
  S2-  S227  1  0.11578812  0.24395838  0.53461714  1
  S2-  S228  1  0.13935096  0.50566443  0.03449946  1
  S2-  S229  1  0.12048411  0.49094934  0.53780493  1
  S2-  S230  1  0.14484710  0.75438552  0.04872635  1
  S2-  S231  1  0.12116150  0.74119916  0.54340943  1
  S2-  S232  1  0.38734103  0.01282591  0.05352496  1
  S2-  S233  1  0.36577894  -0.00470038  0.54326350  1
  S2-  S234  1  0.38112949  0.25073494  0.05713564  1
  S2-  S235  1  0.37072724  0.24170950  0.53723096  1
  S2-  S236  1  0.39258437  0.50360011  0.03986532  1
  S2-  S237  1  0.37009114  0.49001784  0.54218560  1
  S2-  S238  1  0.39351067  0.74647595  0.04468408  1
  S2-  S239  1  0.36950793  0.74289091  0.54007874  1
  S2-  S240  1  0.64143050  0.00420963  0.04819071  1
  S2-  S241  1  0.62481574  -0.00860534  0.54984717  1
  S2-  S242  1  0.64063517  0.26101047  0.05014841  1
  S2-  S243  1  0.62324527  0.24874368  0.54925125  1
  S2-  S244  1  0.64508177  0.50233399  0.04802480  1
  S2-  S245  1  0.61988498  0.49613711  0.55471785  1
  S2-  S246  1  0.64312297  0.74941800  0.04671780  1
  S2-  S247  1  0.61884201  0.74378825  0.54854360  1
  S2-  S248  1  0.88895146  0.00618308  0.05902249  1
  S2-  S249  1  0.86962393  -0.00519678  0.54598760  1
  S2-  S250  1  0.89426445  0.25575285  0.03728689  1
  S2-  S251  1  0.87241850  0.24612671  0.54078091  1
  S2-  S252  1  0.89240322  0.50379075  0.04021723  1
  S2-  S253  1  0.87076009  0.49413863  0.54276186  1
  S2-  S254  1  0.89191116  0.75553101  0.04731619  1
  S2-  S255  1  0.87030368  0.74292473  0.54573551  1
