# generated using pymatgen
data_La6Ce6Pr19Nd20Sm13(BiS2)64
_symmetry_space_group_name_H-M   'P 1'
_cell_length_a   16.10875650
_cell_length_b   16.10152412
_cell_length_c   27.33161772
_cell_angle_alpha   89.91742775
_cell_angle_beta   90.17547053
_cell_angle_gamma   89.87681400
_symmetry_Int_Tables_number   1
_chemical_formula_structural   La6Ce6Pr19Nd20Sm13(BiS2)64
_chemical_formula_sum   'La6 Ce6 Pr19 Nd20 Sm13 Bi64 S128'
_cell_volume   7089.09580855
_cell_formula_units_Z   1
loop_
 _symmetry_equiv_pos_site_id
 _symmetry_equiv_pos_as_xyz
  1  'x, y, z'
loop_
 _atom_type_symbol
 _atom_type_oxidation_number
  La3+  3.0
  Ce3+  3.0
  Pr3+  3.0
  Nd3+  3.0
  Sm3+  3.0
  Bi2+  2.0
  S2-  -2.0
loop_
 _atom_site_type_symbol
 _atom_site_label
 _atom_site_symmetry_multiplicity
 _atom_site_fract_x
 _atom_site_fract_y
 _atom_site_fract_z
 _atom_site_occupancy
  La3+  La0  1  0.62530334  0.24565685  0.92523484  1
  La3+  La1  1  0.37500438  0.49914828  0.93102981  1
  La3+  La2  1  0.87553185  -0.00693901  0.91223874  1
  La3+  La3  1  0.87244252  0.71828084  0.89266854  1
  La3+  La4  1  0.62323473  0.74500915  0.91638589  1
  La3+  La5  1  0.85772064  0.76121051  0.40820917  1
  Ce3+  Ce6  1  0.73839860  0.12726538  0.56146705  1
  Ce3+  Ce7  1  0.49245342  0.62644111  0.56571202  1
  Ce3+  Ce8  1  -0.01332598  0.87959771  0.56385200  1
  Ce3+  Ce9  1  0.86640182  0.25670154  0.44178351  1
  Ce3+  Ce10  1  0.24324167  0.87863324  0.56329036  1
  Ce3+  Ce11  1  0.11724772  0.50230681  0.94375784  1
  Pr3+  Pr12  1  0.00288472  0.11933449  0.05505445  1
  Pr3+  Pr13  1  0.11525637  0.25902800  0.44422911  1
  Pr3+  Pr14  1  -0.01357314  0.38325821  0.56111650  1
  Pr3+  Pr15  1  0.61974629  0.75784577  0.44670763  1
  Pr3+  Pr16  1  0.85721782  0.49683977  0.40907944  1
  Pr3+  Pr17  1  0.36651516  0.51213755  0.42954676  1
  Pr3+  Pr18  1  0.12516170  -0.00553246  0.92853022  1
  Pr3+  Pr19  1  0.36490236  0.75856390  0.43787667  1
  Pr3+  Pr20  1  -0.01004119  0.13205561  0.56927135  1
  Pr3+  Pr21  1  0.48186426  0.37515955  0.57533720  1
  Pr3+  Pr22  1  0.25635118  0.62127378  0.06097364  1
  Pr3+  Pr23  1  0.12117836  0.74755325  0.93561394  1
  Pr3+  Pr24  1  0.12355789  0.24799415  0.92557790  1
  Pr3+  Pr25  1  0.87114191  0.00829807  0.43478242  1
  Pr3+  Pr26  1  0.24350632  0.63069241  0.56564369  1
  Pr3+  Pr27  1  0.63529034  0.49844080  0.93696615  1
  Pr3+  Pr28  1  0.74793308  0.36225943  0.07465690  1
  Pr3+  Pr29  1  0.87886024  0.24994107  0.92996154  1
  Pr3+  Pr30  1  0.61041242  0.50336304  0.43295428  1
  Nd3+  Nd31  1  0.74141873  0.88673994  0.57530850  1
  Nd3+  Nd32  1  0.50110034  0.12315354  0.06100818  1
  Nd3+  Nd33  1  0.74679705  0.62248447  0.07769598  1
  Nd3+  Nd34  1  0.73811960  0.38240353  0.55729158  1
  Nd3+  Nd35  1  0.48537173  0.87149035  0.59443155  1
  Nd3+  Nd36  1  0.11040508  0.75617656  0.44685499  1
  Nd3+  Nd37  1  0.01320250  0.62598247  0.08148337  1
  Nd3+  Nd38  1  -0.00004636  0.86902982  0.05474870  1
  Nd3+  Nd39  1  0.37702401  0.24717205  0.93136882  1
  Nd3+  Nd40  1  0.23784186  0.39034216  0.56564193  1
  Nd3+  Nd41  1  0.48859520  0.13118809  0.56449475  1
  Nd3+  Nd42  1  0.87564457  0.50019887  0.96252333  1
  Nd3+  Nd43  1  0.50095900  0.37180434  0.05809752  1
  Nd3+  Nd44  1  0.61723404  0.00403764  0.44643090  1
  Nd3+  Nd45  1  0.37384329  0.74912506  0.93600516  1
  Nd3+  Nd46  1  0.11068067  0.51023095  0.43859286  1
  Nd3+  Nd47  1  -0.01816698  0.63141768  0.55492961  1
  Nd3+  Nd48  1  0.61347593  0.25491329  0.44113294  1
  Nd3+  Nd49  1  0.75170047  0.11996998  0.05873220  1
  Nd3+  Nd50  1  0.36496111  0.25853437  0.43887981  1
  Sm3+  Sm51  1  0.74054596  0.63140987  0.55702996  1
  Sm3+  Sm52  1  0.50469419  0.62255056  0.05553141  1
  Sm3+  Sm53  1  0.00362047  0.36950611  0.06627399  1
  Sm3+  Sm54  1  0.36717711  0.00428885  0.44860437  1
  Sm3+  Sm55  1  0.25284860  0.37100121  0.05088973  1
  Sm3+  Sm56  1  0.37786988  -0.00418702  0.94164870  1
  Sm3+  Sm57  1  0.11171022  0.00427258  0.44876253  1
  Sm3+  Sm58  1  0.25188242  0.12099860  0.04670718  1
  Sm3+  Sm59  1  0.75502686  0.86417604  0.05037050  1
  Sm3+  Sm60  1  0.62889123  -0.00555781  0.94289079  1
  Sm3+  Sm61  1  0.25370713  0.87149067  0.05737998  1
  Sm3+  Sm62  1  0.50525544  0.86998668  0.05342895  1
  Sm3+  Sm63  1  0.24052114  0.13051138  0.55514886  1
  Bi2+  Bi64  1  -0.04469490  0.15947625  0.31084390  1
  Bi2+  Bi65  1  -0.00902764  0.15160687  0.79761586  1
  Bi2+  Bi66  1  0.08030160  0.35652639  0.26556091  1
  Bi2+  Bi67  1  0.03879527  0.36902250  0.76644721  1
  Bi2+  Bi68  1  0.03925073  0.64386628  0.28794496  1
  Bi2+  Bi69  1  0.00373903  0.60400258  0.79493293  1
  Bi2+  Bi70  1  -0.00208374  0.89567280  0.30093112  1
  Bi2+  Bi71  1  -0.02343291  0.90319839  0.76597320  1
  Bi2+  Bi72  1  0.19013367  0.06454487  0.27991973  1
  Bi2+  Bi73  1  0.18946037  0.13220594  0.81305041  1
  Bi2+  Bi74  1  0.28495797  0.36196380  0.29067327  1
  Bi2+  Bi75  1  0.24976191  0.31284269  0.80602085  1
  Bi2+  Bi76  1  0.27286656  0.56601310  0.28745974  1
  Bi2+  Bi77  1  0.25670744  0.67662327  0.80288134  1
  Bi2+  Bi78  1  0.26823014  0.88510481  0.30522547  1
  Bi2+  Bi79  1  0.21671193  0.86126721  0.83134976  1
  Bi2+  Bi80  1  0.45873061  0.09592151  0.28820016  1
  Bi2+  Bi81  1  0.47032599  0.11795437  0.77853958  1
  Bi2+  Bi82  1  0.48242292  0.35393452  0.29413615  1
  Bi2+  Bi83  1  0.51097969  0.37414817  0.79192022  1
  Bi2+  Bi84  1  0.52896992  0.62709547  0.26000611  1
  Bi2+  Bi85  1  0.51934033  0.62206280  0.79135204  1
  Bi2+  Bi86  1  0.44162985  0.78504744  0.30875333  1
  Bi2+  Bi87  1  0.39754837  0.85796523  0.78535861  1
  Bi2+  Bi88  1  0.76095081  0.12722345  0.28838071  1
  Bi2+  Bi89  1  0.70176366  0.16744485  0.79496110  1
  Bi2+  Bi90  1  0.74290620  0.36309021  0.29352184  1
  Bi2+  Bi91  1  0.79137615  0.34456333  0.80457672  1
  Bi2+  Bi92  1  0.76650305  0.63077835  0.28717011  1
  Bi2+  Bi93  1  0.76826067  0.53472385  0.78687729  1
  Bi2+  Bi94  1  0.69793757  0.89164518  0.29936221  1
  Bi2+  Bi95  1  0.73027150  0.93554717  0.77778342  1
  Bi2+  Bi96  1  0.06582351  -0.01147840  0.20306215  1
  Bi2+  Bi97  1  0.16108768  -0.02582776  0.73792582  1
  Bi2+  Bi98  1  0.20424977  0.22947990  0.21771689  1
  Bi2+  Bi99  1  0.13274146  0.22756084  0.70808910  1
  Bi2+  Bi100  1  0.17279483  0.48686480  0.19489827  1
  Bi2+  Bi101  1  0.18569556  0.49327950  0.74825546  1
  Bi2+  Bi102  1  0.20721304  0.75180162  0.22713422  1
  Bi2+  Bi103  1  0.15194433  0.77819910  0.72446059  1
  Bi2+  Bi104  1  0.33415768  -0.00989949  0.21091557  1
  Bi2+  Bi105  1  0.34643847  0.01848044  0.71243077  1
  Bi2+  Bi106  1  0.40354512  0.18682835  0.19512402  1
  Bi2+  Bi107  1  0.36201731  0.24800309  0.71867888  1
  Bi2+  Bi108  1  0.39066240  0.51554756  0.19631686  1
  Bi2+  Bi109  1  0.35981979  0.49897797  0.70312005  1
  Bi2+  Bi110  1  0.38559369  0.71061783  0.19163956  1
  Bi2+  Bi111  1  0.33848715  0.72770317  0.70145994  1
  Bi2+  Bi112  1  0.53106538  -0.07589068  0.24506435  1
  Bi2+  Bi113  1  0.60287053  0.08917671  0.69270022  1
  Bi2+  Bi114  1  0.62193458  0.21500089  0.20849976  1
  Bi2+  Bi115  1  0.62437774  0.29775131  0.70660554  1
  Bi2+  Bi116  1  0.61379060  0.47644113  0.20530930  1
  Bi2+  Bi117  1  0.60671085  0.49689956  0.72096325  1
  Bi2+  Bi118  1  0.63992442  0.75951882  0.19421593  1
  Bi2+  Bi119  1  0.60399612  0.77773442  0.72285611  1
  Bi2+  Bi120  1  0.87520626  0.01748501  0.22178738  1
  Bi2+  Bi121  1  0.87758153  0.05374217  0.71317030  1
  Bi2+  Bi122  1  0.88785614  0.21583397  0.20972693  1
  Bi2+  Bi123  1  0.82761999  0.24372132  0.70850893  1
  Bi2+  Bi124  1  0.89877817  0.49576413  0.20994662  1
  Bi2+  Bi125  1  0.90651466  0.48741168  0.68363709  1
  Bi2+  Bi126  1  0.88783313  0.77333462  0.19495891  1
  Bi2+  Bi127  1  0.87355138  0.72524104  0.68930280  1
  S2-  S128  1  0.01021971  0.13970048  0.15440966  1
  S2-  S129  1  0.02335782  0.11544065  0.66716796  1
  S2-  S130  1  0.02091475  0.39357946  0.16330700  1
  S2-  S131  1  0.03144267  0.36909072  0.65790852  1
  S2-  S132  1  -0.01615494  0.62908861  0.18373319  1
  S2-  S133  1  -0.00015442  0.61142873  0.65493083  1
  S2-  S134  1  0.01862810  0.83832758  0.15337719  1
  S2-  S135  1  -0.03826675  0.86983147  0.65968651  1
  S2-  S136  1  0.26414371  0.11603172  0.14337288  1
  S2-  S137  1  0.26211799  0.14060117  0.65217298  1
  S2-  S138  1  0.29699169  0.39341774  0.14393405  1
  S2-  S139  1  0.33877548  0.36175867  0.64437152  1
  S2-  S140  1  0.16407242  0.63161095  0.14418510  1
  S2-  S141  1  0.22361189  0.52567251  0.64525554  1
  S2-  S142  1  0.26586187  0.85481363  0.15407483  1
  S2-  S143  1  0.33270015  0.88285485  0.64632677  1
  S2-  S144  1  0.54824908  0.09896098  0.15599988  1
  S2-  S145  1  0.49911065  0.23431331  0.64479900  1
  S2-  S146  1  0.55100776  0.34769623  0.15240283  1
  S2-  S147  1  0.49572084  0.50965972  0.64063207  1
  S2-  S148  1  0.60034912  0.61621438  0.13646296  1
  S2-  S149  1  0.49254990  0.72243474  0.64922346  1
  S2-  S150  1  0.50770825  0.84324422  0.15004506  1
  S2-  S151  1  0.54955338  0.93176135  0.68242689  1
  S2-  S152  1  0.74813216  0.21605150  0.14120367  1
  S2-  S153  1  0.74916206  0.03096940  0.64299626  1
  S2-  S154  1  0.76004201  0.42047991  0.17170723  1
  S2-  S155  1  0.77348889  0.37837969  0.65467735  1
  S2-  S156  1  0.79144809  0.62986998  0.18055525  1
  S2-  S157  1  0.77954345  0.60054773  0.65204465  1
  S2-  S158  1  0.74902670  0.85872202  0.14971418  1
  S2-  S159  1  0.73727791  0.81717131  0.66906951  1
  S2-  S160  1  0.02265268  0.01919740  0.36494056  1
  S2-  S161  1  0.02046525  -0.00182112  0.84662028  1
  S2-  S162  1  0.09343119  0.25391690  0.34516505  1
  S2-  S163  1  0.00139594  0.29475191  0.85719601  1
  S2-  S164  1  0.12202780  0.52496587  0.34044724  1
  S2-  S165  1  0.14095714  0.53682165  0.84935735  1
  S2-  S166  1  0.10283484  0.77067571  0.34834634  1
  S2-  S167  1  0.02883162  0.73353789  0.84954452  1
  S2-  S168  1  0.39244114  -0.01565555  0.35331083  1
  S2-  S169  1  0.41258762  -0.00390025  0.84565792  1
  S2-  S170  1  0.37362606  0.23145615  0.34129743  1
  S2-  S171  1  0.48734682  0.23509727  0.85613160  1
  S2-  S172  1  0.48868930  0.47122004  0.35920688  1
  S2-  S173  1  0.41190100  0.50181904  0.83286974  1
  S2-  S174  1  0.35708811  0.64782852  0.36076868  1
  S2-  S175  1  0.46778283  0.73911675  0.85352329  1
  S2-  S176  1  0.64750123  0.02879395  0.34953388  1
  S2-  S177  1  0.64620380  0.02934048  0.84736211  1
  S2-  S178  1  0.61856901  0.27968156  0.34145796  1
  S2-  S179  1  0.64801694  0.38144329  0.85919566  1
  S2-  S180  1  0.71026339  0.50377571  0.34689556  1
  S2-  S181  1  0.65815904  0.60533995  0.85528431  1
  S2-  S182  1  0.69767337  0.74722232  0.35505751  1
  S2-  S183  1  0.64850658  0.81809522  0.81853986  1
  S2-  S184  1  0.84628947  -0.08837905  0.35245548  1
  S2-  S185  1  0.85265023  -0.12634935  0.83712746  1
  S2-  S186  1  0.86518320  0.34084823  0.35530156  1
  S2-  S187  1  0.84855423  0.13616847  0.85208350  1
  S2-  S188  1  0.90944839  0.53834604  0.31226219  1
  S2-  S189  1  0.90126786  0.53850742  0.86643665  1
  S2-  S190  1  0.89873780  0.73855066  0.30470729  1
  S2-  S191  1  0.84392535  0.68275455  0.78602860  1
  S2-  S192  1  -0.00699744  0.13450005  0.46317206  1
  S2-  S193  1  0.00418013  0.12139250  0.95028298  1
  S2-  S194  1  -0.01072701  0.38521255  0.45334612  1
  S2-  S195  1  0.00191987  0.37473573  0.96290616  1
  S2-  S196  1  -0.01839102  0.63282671  0.44604959  1
  S2-  S197  1  -0.00009078  0.62641512  0.96870651  1
  S2-  S198  1  -0.01230500  0.87737746  0.45805388  1
  S2-  S199  1  -0.00356134  0.87104066  0.95086862  1
  S2-  S200  1  0.23892900  0.12676135  0.44942268  1
  S2-  S201  1  0.25305493  0.12113137  0.94375032  1
  S2-  S202  1  0.24020518  0.38555509  0.45124078  1
  S2-  S203  1  0.24823285  0.37236467  0.94638972  1
  S2-  S204  1  0.23481981  0.63306935  0.45903575  1
  S2-  S205  1  0.25043588  0.62452805  0.95382386  1
  S2-  S206  1  0.23789039  0.88320499  0.45670447  1
  S2-  S207  1  0.25244094  0.87354388  0.95354012  1
  S2-  S208  1  0.48848565  0.12962731  0.45640824  1
  S2-  S209  1  0.50037811  0.11542293  0.95560666  1
  S2-  S210  1  0.48877731  0.37446161  0.46366937  1
  S2-  S211  1  0.49830747  0.37451967  0.95351069  1
  S2-  S212  1  0.49514991  0.63421969  0.45792044  1
  S2-  S213  1  0.50099483  0.62007672  0.95361686  1
  S2-  S214  1  0.49143282  0.88132623  0.45482814  1
  S2-  S215  1  0.50221451  0.87440097  0.94985519  1
  S2-  S216  1  0.74144542  0.13176080  0.45476890  1
  S2-  S217  1  0.74975348  0.12019760  0.95563280  1
  S2-  S218  1  0.73760797  0.37816777  0.45352953  1
  S2-  S219  1  0.75796301  0.36930236  0.96401659  1
  S2-  S220  1  0.74624673  0.62905458  0.45269728  1
  S2-  S221  1  0.75847983  0.62900057  0.96247692  1
  S2-  S222  1  0.74287990  0.88367268  0.46262433  1
  S2-  S223  1  0.75005222  0.86955092  0.94707052  1
  S2-  S224  1  0.13082084  -0.00567048  0.04139737  1
  S2-  S225  1  0.11687257  0.00518536  0.55339509  1
  S2-  S226  1  0.13005604  0.24748499  0.04234794  1
  S2-  S227  1  0.11842973  0.25773151  0.55030980  1
  S2-  S228  1  0.12795417  0.49292669  0.04882169  1
  S2-  S229  1  0.10932071  0.50897547  0.54316476  1
  S2-  S230  1  0.13133093  0.75076825  0.04334643  1
  S2-  S231  1  0.11402713  0.75352130  0.55400500  1
  S2-  S232  1  0.37784417  -0.00516859  0.04740795  1
  S2-  S233  1  0.36704578  0.00656780  0.55126531  1
  S2-  S234  1  0.37569148  0.24562903  0.03866049  1
  S2-  S235  1  0.35877579  0.25196577  0.54240217  1
  S2-  S236  1  0.37916859  0.49749488  0.04041945  1
  S2-  S237  1  0.36307286  0.50632385  0.53789187  1
  S2-  S238  1  0.37989031  0.74804579  0.04213963  1
  S2-  S239  1  0.36662492  0.75541848  0.54404438  1
  S2-  S240  1  0.62959584  -0.00732502  0.04762935  1
  S2-  S241  1  0.60556577  0.00098063  0.55167668  1
  S2-  S242  1  0.62313170  0.24462922  0.03820873  1
  S2-  S243  1  0.61798848  0.25378183  0.54716429  1
  S2-  S244  1  0.62791220  0.49332929  0.04357127  1
  S2-  S245  1  0.61942715  0.50633722  0.54278999  1
  S2-  S246  1  0.62557261  0.74797024  0.03834095  1
  S2-  S247  1  0.61901910  0.75877213  0.55270455  1
  S2-  S248  1  0.87468641  -0.00531273  0.04992179  1
  S2-  S249  1  0.86935998  0.00719381  0.54421395  1
  S2-  S250  1  0.88156232  0.24777375  0.04425479  1
  S2-  S251  1  0.86373521  0.25435006  0.55055166  1
  S2-  S252  1  0.88053734  0.49661481  0.06609293  1
  S2-  S253  1  0.86204656  0.50575057  0.54238819  1
  S2-  S254  1  0.87766896  0.74197542  0.06065291  1
  S2-  S255  1  0.86020588  0.75761380  0.55096337  1
