# generated using pymatgen
data_La6Ce6Pr19Nd20Sm13(BiS2)64
_symmetry_space_group_name_H-M   'P 1'
_cell_length_a   16.06845296
_cell_length_b   16.06784022
_cell_length_c   27.53341812
_cell_angle_alpha   90.66779296
_cell_angle_beta   90.15062654
_cell_angle_gamma   90.00345989
_symmetry_Int_Tables_number   1
_chemical_formula_structural   La6Ce6Pr19Nd20Sm13(BiS2)64
_chemical_formula_sum   'La6 Ce6 Pr19 Nd20 Sm13 Bi64 S128'
_cell_volume   7108.21735101
_cell_formula_units_Z   1
loop_
 _symmetry_equiv_pos_site_id
 _symmetry_equiv_pos_as_xyz
  1  'x, y, z'
loop_
 _atom_type_symbol
 _atom_type_oxidation_number
  La3+  3.0
  Ce3+  3.0
  Pr3+  3.0
  Nd3+  3.0
  Sm3+  3.0
  Bi2+  2.0
  S2-  -2.0
loop_
 _atom_site_type_symbol
 _atom_site_label
 _atom_site_symmetry_multiplicity
 _atom_site_fract_x
 _atom_site_fract_y
 _atom_site_fract_z
 _atom_site_occupancy
  La3+  La0  1  0.76238813  0.38843652  0.58274440  1
  La3+  La1  1  0.51527528  0.37946612  0.07036101  1
  La3+  La2  1  0.61311453  0.25736235  0.38939307  1
  La3+  La3  1  0.87165940  0.75457413  0.41924160  1
  La3+  La4  1  -0.04273648  0.86584987  0.61557582  1
  La3+  La5  1  0.00802627  0.60066096  0.11426382  1
  Ce3+  Ce6  1  0.74868480  0.88598997  0.54371685  1
  Ce3+  Ce7  1  0.63549852  0.74665597  0.94049762  1
  Ce3+  Ce8  1  0.38420926  0.50182758  0.43837013  1
  Ce3+  Ce9  1  0.38307218  0.74795743  0.93078676  1
  Ce3+  Ce10  1  0.25534100  0.62631135  0.05954766  1
  Ce3+  Ce11  1  0.12032828  0.25518051  0.43612903  1
  Pr3+  Pr12  1  0.75912167  0.12895745  0.05972241  1
  Pr3+  Pr13  1  0.13365671  0.50397049  0.93237703  1
  Pr3+  Pr14  1  0.63829706  0.24757749  0.91534148  1
  Pr3+  Pr15  1  0.63692547  -0.00149984  0.93106760  1
  Pr3+  Pr16  1  0.50490935  0.38800224  0.57395046  1
  Pr3+  Pr17  1  0.88622598  0.49862883  0.94018095  1
  Pr3+  Pr18  1  0.50637251  0.14418082  0.57895064  1
  Pr3+  Pr19  1  0.01192728  0.12248786  0.07310252  1
  Pr3+  Pr20  1  0.87808848  0.00938685  0.43841420  1
  Pr3+  Pr21  1  0.12743030  0.00438592  0.44406055  1
  Pr3+  Pr22  1  -0.00378345  0.13040482  0.57152508  1
  Pr3+  Pr23  1  0.13163857  0.23515661  0.92198805  1
  Pr3+  Pr24  1  0.75836260  0.87608555  0.06372209  1
  Pr3+  Pr25  1  0.14459444  0.76758792  0.41797922  1
  Pr3+  Pr26  1  0.24998224  0.63530649  0.55604508  1
  Pr3+  Pr27  1  0.88817377  0.24382660  0.93199728  1
  Pr3+  Pr28  1  0.24438786  0.88352874  0.57144477  1
  Pr3+  Pr29  1  0.38529108  0.49837821  0.93119596  1
  Pr3+  Pr30  1  0.76557164  0.62759776  0.06282361  1
  Nd3+  Nd31  1  0.88679230  -0.00322064  0.94718730  1
  Nd3+  Nd32  1  0.01497458  0.87080646  0.07161148  1
  Nd3+  Nd33  1  0.26167110  0.12726251  0.05660057  1
  Nd3+  Nd34  1  0.87398277  0.25843487  0.43593458  1
  Nd3+  Nd35  1  0.38333262  -0.00098010  0.92491947  1
  Nd3+  Nd36  1  0.26338092  0.88254087  0.06791352  1
  Nd3+  Nd37  1  0.38613120  0.24941476  0.92951524  1
  Nd3+  Nd38  1  0.50837989  0.87788125  0.05063965  1
  Nd3+  Nd39  1  0.50963515  0.13155212  0.05431134  1
  Nd3+  Nd40  1  0.50826824  0.62614854  0.06141308  1
  Nd3+  Nd41  1  0.13354372  0.74754674  0.93951996  1
  Nd3+  Nd42  1  0.74854954  0.13566599  0.56429166  1
  Nd3+  Nd43  1  0.12858885  0.50796984  0.43551244  1
  Nd3+  Nd44  1  0.63534776  0.49523591  0.94143887  1
  Nd3+  Nd45  1  0.00552171  0.64482070  0.54772492  1
  Nd3+  Nd46  1  0.50652901  0.63089630  0.56500125  1
  Nd3+  Nd47  1  0.62592332  0.75293097  0.43538609  1
  Nd3+  Nd48  1  0.76766939  0.64486990  0.56990543  1
  Nd3+  Nd49  1  0.50331422  0.88422442  0.56074228  1
  Nd3+  Nd50  1  0.13537917  -0.01045724  0.93799719  1
  Sm3+  Sm51  1  0.88733355  0.74796435  0.94711025  1
  Sm3+  Sm52  1  0.38210263  0.01173183  0.45430695  1
  Sm3+  Sm53  1  0.01374370  0.37328130  0.05211589  1
  Sm3+  Sm54  1  0.24839327  0.38487815  0.55270413  1
  Sm3+  Sm55  1  0.25831173  0.37595313  0.05031022  1
  Sm3+  Sm56  1  0.24921363  0.13482996  0.55660034  1
  Sm3+  Sm57  1  0.38231084  0.75794873  0.44883192  1
  Sm3+  Sm58  1  0.87545698  0.50504714  0.44556054  1
  Sm3+  Sm59  1  0.63255641  0.49925847  0.44944769  1
  Sm3+  Sm60  1  0.00444241  0.38313152  0.56003917  1
  Sm3+  Sm61  1  0.38304670  0.25731366  0.44995303  1
  Sm3+  Sm62  1  0.76249736  0.37448925  0.05820126  1
  Sm3+  Sm63  1  0.62428983  0.01674859  0.44129917  1
  Bi2+  Bi64  1  0.01688753  0.11401644  0.29689424  1
  Bi2+  Bi65  1  -0.00483408  0.17363237  0.76678828  1
  Bi2+  Bi66  1  0.02404173  0.34884622  0.28019139  1
  Bi2+  Bi67  1  0.01881270  0.41908380  0.74545262  1
  Bi2+  Bi68  1  -0.00750387  0.60336410  0.31684564  1
  Bi2+  Bi69  1  -0.01483912  0.62125136  0.80243873  1
  Bi2+  Bi70  1  0.03858615  0.86888218  0.29021939  1
  Bi2+  Bi71  1  -0.01944592  0.88972588  0.81031216  1
  Bi2+  Bi72  1  0.21465228  0.11731417  0.28602087  1
  Bi2+  Bi73  1  0.18793795  0.22065973  0.79114320  1
  Bi2+  Bi74  1  0.23097281  0.30717550  0.25258395  1
  Bi2+  Bi75  1  0.17823142  0.41706110  0.81311038  1
  Bi2+  Bi76  1  0.33304918  0.58884308  0.26043161  1
  Bi2+  Bi77  1  0.26356161  0.59480469  0.79129249  1
  Bi2+  Bi78  1  0.29499662  0.87990129  0.29972416  1
  Bi2+  Bi79  1  0.23375885  0.95922328  0.80441385  1
  Bi2+  Bi80  1  0.41701478  0.11242384  0.28861548  1
  Bi2+  Bi81  1  0.48894008  0.03612316  0.79227302  1
  Bi2+  Bi82  1  0.48241950  0.38102331  0.29520951  1
  Bi2+  Bi83  1  0.48621360  0.44580397  0.79449532  1
  Bi2+  Bi84  1  0.52569667  0.60075773  0.29296539  1
  Bi2+  Bi85  1  0.42612568  0.66761895  0.73723642  1
  Bi2+  Bi86  1  0.49723072  0.78971511  0.32429470  1
  Bi2+  Bi87  1  0.48780378  0.83410219  0.78863414  1
  Bi2+  Bi88  1  0.76654368  0.12004321  0.28765291  1
  Bi2+  Bi89  1  0.76471503  0.10158332  0.79259079  1
  Bi2+  Bi90  1  0.75708981  0.39757043  0.29351175  1
  Bi2+  Bi91  1  0.74018842  0.40109143  0.80782682  1
  Bi2+  Bi92  1  0.72444933  0.62090711  0.26738629  1
  Bi2+  Bi93  1  0.69468292  0.63802219  0.77266857  1
  Bi2+  Bi94  1  0.67842725  0.83435277  0.29090142  1
  Bi2+  Bi95  1  0.69808955  0.91161732  0.80934117  1
  Bi2+  Bi96  1  0.17330527  -0.02499769  0.20274886  1
  Bi2+  Bi97  1  0.15340216  -0.00360263  0.70611331  1
  Bi2+  Bi98  1  0.08893787  0.19905358  0.19699890  1
  Bi2+  Bi99  1  0.10619622  0.26558037  0.68701617  1
  Bi2+  Bi100  1  0.13764854  0.47443814  0.21258712  1
  Bi2+  Bi101  1  0.08734201  0.58307167  0.70075406  1
  Bi2+  Bi102  1  0.14649730  0.72896582  0.21759061  1
  Bi2+  Bi103  1  0.18475857  0.75334807  0.72505418  1
  Bi2+  Bi104  1  0.44303110  -0.08516565  0.23030861  1
  Bi2+  Bi105  1  0.34904455  0.04073635  0.70489552  1
  Bi2+  Bi106  1  0.36180617  0.16196303  0.18729872  1
  Bi2+  Bi107  1  0.37535173  0.21614389  0.76184546  1
  Bi2+  Bi108  1  0.38007446  0.43349802  0.19732725  1
  Bi2+  Bi109  1  0.31407380  0.39750440  0.73060598  1
  Bi2+  Bi110  1  0.45053814  0.71513984  0.20514482  1
  Bi2+  Bi111  1  0.35582724  0.84046502  0.69517956  1
  Bi2+  Bi112  1  0.61173621  0.00786283  0.26152170  1
  Bi2+  Bi113  1  0.62474404  -0.00989397  0.71332201  1
  Bi2+  Bi114  1  0.60920544  0.21505998  0.18573870  1
  Bi2+  Bi115  1  0.58743392  0.24104032  0.72053088  1
  Bi2+  Bi116  1  0.62751154  0.49168890  0.20702792  1
  Bi2+  Bi117  1  0.60727648  0.49236949  0.70344458  1
  Bi2+  Bi118  1  0.64749301  0.74288658  0.18747441  1
  Bi2+  Bi119  1  0.59504443  0.70996419  0.68223144  1
  Bi2+  Bi120  1  0.92195109  -0.01171788  0.22936981  1
  Bi2+  Bi121  1  0.86572136  0.02771457  0.70798689  1
  Bi2+  Bi122  1  0.88465656  0.17728962  0.18612980  1
  Bi2+  Bi123  1  0.85912266  0.28382332  0.71374432  1
  Bi2+  Bi124  1  0.87516173  0.36813985  0.20594155  1
  Bi2+  Bi125  1  0.86379094  0.59673053  0.71416465  1
  Bi2+  Bi126  1  0.87921445  0.74687139  0.21114881  1
  Bi2+  Bi127  1  0.77344344  0.80090611  0.72508495  1
  S2-  S128  1  0.02196370  -0.00531890  0.14635632  1
  S2-  S129  1  0.00940451  0.02566169  0.65369837  1
  S2-  S130  1  0.00926307  0.42706247  0.14545178  1
  S2-  S131  1  -0.08169839  0.38135772  0.64487127  1
  S2-  S132  1  0.01480201  0.59661819  0.22292277  1
  S2-  S133  1  -0.08185971  0.68854978  0.63069346  1
  S2-  S134  1  0.01538919  0.76838802  0.15340176  1
  S2-  S135  1  -0.05923853  0.85168712  0.72226850  1
  S2-  S136  1  0.28084039  0.02424287  0.13665106  1
  S2-  S137  1  0.22294453  0.13840915  0.65322823  1
  S2-  S138  1  0.24151279  0.37136628  0.14801993  1
  S2-  S139  1  0.21329975  0.38595555  0.64844671  1
  S2-  S140  1  0.18322749  0.60375760  0.14786038  1
  S2-  S141  1  0.23442739  0.63067102  0.65569613  1
  S2-  S142  1  0.23828885  0.82513881  0.16465983  1
  S2-  S143  1  0.13065852  0.85090505  0.64627347  1
  S2-  S144  1  0.50513653  0.08798932  0.15073199  1
  S2-  S145  1  0.63494856  0.11871596  0.64950324  1
  S2-  S146  1  0.46137780  0.29203335  0.15229028  1
  S2-  S147  1  0.47823433  0.27370855  0.65303610  1
  S2-  S148  1  0.50200928  0.52089138  0.13994032  1
  S2-  S149  1  0.48321425  0.52212088  0.64299212  1
  S2-  S150  1  0.53184215  0.85943179  0.14793357  1
  S2-  S151  1  0.53487063  0.87353277  0.65669809  1
  S2-  S152  1  0.73343838  0.10087470  0.15720589  1
  S2-  S153  1  0.85629378  0.15283834  0.64365596  1
  S2-  S154  1  0.66979765  0.36236513  0.14055697  1
  S2-  S155  1  0.69897441  0.33707469  0.67900536  1
  S2-  S156  1  0.84069844  0.61656105  0.15235966  1
  S2-  S157  1  0.75081317  0.53620449  0.64717750  1
  S2-  S158  1  0.78108934  0.85412482  0.16246104  1
  S2-  S159  1  0.78420788  0.89674489  0.63876225  1
  S2-  S160  1  0.15817554  -0.08103494  0.35714666  1
  S2-  S161  1  0.15406646  0.08771322  0.85640965  1
  S2-  S162  1  0.00429730  0.25152242  0.36255724  1
  S2-  S163  1  0.00118565  0.25031384  0.85316387  1
  S2-  S164  1  0.10594045  0.47664550  0.33951090  1
  S2-  S165  1  0.12778854  0.63022521  0.85899457  1
  S2-  S166  1  0.11944376  0.70453008  0.32265447  1
  S2-  S167  1  0.13012626  0.86397799  0.86259058  1
  S2-  S168  1  0.39012093  -0.00161816  0.35709703  1
  S2-  S169  1  0.38568214  0.12950611  0.85356749  1
  S2-  S170  1  0.43920771  0.25168463  0.35828357  1
  S2-  S171  1  0.38662343  0.37514818  0.85691121  1
  S2-  S172  1  0.36050485  0.49397538  0.34207706  1
  S2-  S173  1  0.38848056  0.62384055  0.85749624  1
  S2-  S174  1  0.31487158  0.75494410  0.35967971  1
  S2-  S175  1  0.36115648  0.86637916  0.85537481  1
  S2-  S176  1  0.62264434  0.08649492  0.35295741  1
  S2-  S177  1  0.62666466  0.10360735  0.85148196  1
  S2-  S178  1  0.59908407  0.26754740  0.27688205  1
  S2-  S179  1  0.58685038  0.31250875  0.82043228  1
  S2-  S180  1  0.61678695  0.42961046  0.35917775  1
  S2-  S181  1  0.62758358  0.52562063  0.84439811  1
  S2-  S182  1  0.72550201  0.70805912  0.35808811  1
  S2-  S183  1  0.62659195  0.75940840  0.84439829  1
  S2-  S184  1  0.87016536  0.01958949  0.33710592  1
  S2-  S185  1  0.89785937  0.02381490  0.84977696  1
  S2-  S186  1  0.77968102  0.25512282  0.35063933  1
  S2-  S187  1  0.78137865  0.26228522  0.85083591  1
  S2-  S188  1  0.85761672  0.49197044  0.34735070  1
  S2-  S189  1  0.87554495  0.48793241  0.84018497  1
  S2-  S190  1  0.91634160  0.76813038  0.31825525  1
  S2-  S191  1  0.90103477  0.75618654  0.84887752  1
  S2-  S192  1  0.00339758  0.12946014  0.46056638  1
  S2-  S193  1  0.01060101  0.11978050  0.96312605  1
  S2-  S194  1  0.00342741  0.38665805  0.45693589  1
  S2-  S195  1  0.01291363  0.37378397  0.95044651  1
  S2-  S196  1  0.00313307  0.63266801  0.44321816  1
  S2-  S197  1  0.00576557  0.62543825  0.95544421  1
  S2-  S198  1  0.00087592  0.88078419  0.43596854  1
  S2-  S199  1  0.00641327  0.87184723  0.96417447  1
  S2-  S200  1  0.25506787  0.13380931  0.45159850  1
  S2-  S201  1  0.26220903  0.12286615  0.95516778  1
  S2-  S202  1  0.25204053  0.37803707  0.44844634  1
  S2-  S203  1  0.25014487  0.36810701  0.94842492  1
  S2-  S204  1  0.25773462  0.62867245  0.45052902  1
  S2-  S205  1  0.26101081  0.62430896  0.95698363  1
  S2-  S206  1  0.26417861  0.88629995  0.46513348  1
  S2-  S207  1  0.26381947  0.87296941  0.96160599  1
  S2-  S208  1  0.50350284  0.13654970  0.46560368  1
  S2-  S209  1  0.51193562  0.12564934  0.95085362  1
  S2-  S210  1  0.50537516  0.37941424  0.46343729  1
  S2-  S211  1  0.51409194  0.37265124  0.95602612  1
  S2-  S212  1  0.50490445  0.62880796  0.45545896  1
  S2-  S213  1  0.51256324  0.62274008  0.95759498  1
  S2-  S214  1  0.50496685  0.88453712  0.45580638  1
  S2-  S215  1  0.51206189  0.87390442  0.94679970  1
  S2-  S216  1  0.75034713  0.13296352  0.45796315  1
  S2-  S217  1  0.76207924  0.12232646  0.95392322  1
  S2-  S218  1  0.75707522  0.38478909  0.46213654  1
  S2-  S219  1  0.76100343  0.37238658  0.95554523  1
  S2-  S220  1  0.75290068  0.62726622  0.46330973  1
  S2-  S221  1  0.76165067  0.62404377  0.95407386  1
  S2-  S222  1  0.74498463  0.88787978  0.43926719  1
  S2-  S223  1  0.76049914  0.87237183  0.95577590  1
  S2-  S224  1  0.13637690  0.00129663  0.04307541  1
  S2-  S225  1  0.13015300  0.01248046  0.54690088  1
  S2-  S226  1  0.13480490  0.24844397  0.04438762  1
  S2-  S227  1  0.12575452  0.25783350  0.54226816  1
  S2-  S228  1  0.13324249  0.49829683  0.04007915  1
  S2-  S229  1  0.12414699  0.50994912  0.54263685  1
  S2-  S230  1  0.14177545  0.75563787  0.04529384  1
  S2-  S231  1  0.13254707  0.75871791  0.53193235  1
  S2-  S232  1  0.38997453  0.00271451  0.03390494  1
  S2-  S233  1  0.37849272  0.01265941  0.55822480  1
  S2-  S234  1  0.38238688  0.25327546  0.03748979  1
  S2-  S235  1  0.36937595  0.26218436  0.55148602  1
  S2-  S236  1  0.37981826  0.49947299  0.03962211  1
  S2-  S237  1  0.37290494  0.50656368  0.54307148  1
  S2-  S238  1  0.38522980  0.75034704  0.04673897  1
  S2-  S239  1  0.37983331  0.75738200  0.55311936  1
  S2-  S240  1  0.63419782  0.00112842  0.04070722  1
  S2-  S241  1  0.62294068  0.00968511  0.54493771  1
  S2-  S242  1  0.63678694  0.25138333  0.03706420  1
  S2-  S243  1  0.63262796  0.26710814  0.55859238  1
  S2-  S244  1  0.64217428  0.50354353  0.04485986  1
  S2-  S245  1  0.63360231  0.51255255  0.54991418  1
  S2-  S246  1  0.63425753  0.74856767  0.04601399  1
  S2-  S247  1  0.62742156  0.75668144  0.54229065  1
  S2-  S248  1  0.88338913  0.00004551  0.05211223  1
  S2-  S249  1  0.87778393  0.00340866  0.54371897  1
  S2-  S250  1  0.88804891  0.25144630  0.04593268  1
  S2-  S251  1  0.88120235  0.26048158  0.54166947  1
  S2-  S252  1  0.88701188  0.49660390  0.04649968  1
  S2-  S253  1  0.88673242  0.51315334  0.54657273  1
  S2-  S254  1  0.88550606  0.75359628  0.04945224  1
  S2-  S255  1  0.87916073  0.77051621  0.52855511  1
