# generated using pymatgen
data_La6Ce6Pr19Nd20Sm13(BiS2)64
_symmetry_space_group_name_H-M   'P 1'
_cell_length_a   16.15111970
_cell_length_b   16.14978026
_cell_length_c   27.27874716
_cell_angle_alpha   89.90918129
_cell_angle_beta   90.04854027
_cell_angle_gamma   89.98857420
_symmetry_Int_Tables_number   1
_chemical_formula_structural   La6Ce6Pr19Nd20Sm13(BiS2)64
_chemical_formula_sum   'La6 Ce6 Pr19 Nd20 Sm13 Bi64 S128'
_cell_volume   7115.29586620
_cell_formula_units_Z   1
loop_
 _symmetry_equiv_pos_site_id
 _symmetry_equiv_pos_as_xyz
  1  'x, y, z'
loop_
 _atom_type_symbol
 _atom_type_oxidation_number
  La3+  3.0
  Ce3+  3.0
  Pr3+  3.0
  Nd3+  3.0
  Sm3+  3.0
  Bi2+  2.0
  S2-  -2.0
loop_
 _atom_site_type_symbol
 _atom_site_label
 _atom_site_symmetry_multiplicity
 _atom_site_fract_x
 _atom_site_fract_y
 _atom_site_fract_z
 _atom_site_occupancy
  La3+  La0  1  0.51098459  0.89496176  0.61728275  1
  La3+  La1  1  0.38161520  -0.01269830  0.44200003  1
  La3+  La2  1  0.50294489  0.62589886  0.56517721  1
  La3+  La3  1  0.38121192  0.73648839  0.41906298  1
  La3+  La4  1  0.38727147  0.48645541  0.42208961  1
  La3+  La5  1  -0.01373132  0.60971024  0.09278164  1
  Ce3+  Ce6  1  0.75636500  0.86310639  0.55999662  1
  Ce3+  Ce7  1  0.50744853  0.11882985  0.55770063  1
  Ce3+  Ce8  1  0.75689732  0.11154821  0.55822401  1
  Ce3+  Ce9  1  0.48734934  0.86206764  0.05430649  1
  Ce3+  Ce10  1  0.61556260  0.73929308  0.94142416  1
  Ce3+  Ce11  1  0.11577193  -0.01251887  0.94694399  1
  Pr3+  Pr12  1  -0.01324020  0.35876563  0.07478070  1
  Pr3+  Pr13  1  0.36184081  -0.01291609  0.93401606  1
  Pr3+  Pr14  1  0.25513018  0.36900319  0.56246269  1
  Pr3+  Pr15  1  0.61221800  0.24147442  0.93967058  1
  Pr3+  Pr16  1  0.11168021  0.49181580  0.94471380  1
  Pr3+  Pr17  1  0.73974827  0.11583903  0.05383647  1
  Pr3+  Pr18  1  0.25925989  0.84789036  0.57197751  1
  Pr3+  Pr19  1  0.00615383  0.11374890  0.55680211  1
  Pr3+  Pr20  1  -0.00959616  0.86080997  0.06777692  1
  Pr3+  Pr21  1  0.62808804  0.74154969  0.43757324  1
  Pr3+  Pr22  1  0.86902495  0.23686953  0.93107759  1
  Pr3+  Pr23  1  0.87245110  0.73584505  0.93379878  1
  Pr3+  Pr24  1  0.88154725  0.24148897  0.43781428  1
  Pr3+  Pr25  1  0.61368405  -0.01148695  0.93672064  1
  Pr3+  Pr26  1  0.36077277  0.73107450  0.90787932  1
  Pr3+  Pr27  1  0.24208739  0.11553561  0.05756861  1
  Pr3+  Pr28  1  0.89011282  0.74585281  0.42349769  1
  Pr3+  Pr29  1  0.12760444  0.48321384  0.40166325  1
  Pr3+  Pr30  1  0.13168072  0.24227091  0.43706186  1
  Nd3+  Nd31  1  0.11432854  0.24124053  0.93871867  1
  Nd3+  Nd32  1  0.24005423  0.36686790  0.05823715  1
  Nd3+  Nd33  1  0.50954193  0.37620685  0.57423104  1
  Nd3+  Nd34  1  0.00421385  0.36780524  0.56003030  1
  Nd3+  Nd35  1  0.38183035  0.24708779  0.44464289  1
  Nd3+  Nd36  1  0.61328906  0.49352340  0.94260464  1
  Nd3+  Nd37  1  0.74156803  0.86488377  0.05248364  1
  Nd3+  Nd38  1  0.36478087  0.49241422  0.94113919  1
  Nd3+  Nd39  1  0.25927209  0.11509372  0.56236332  1
  Nd3+  Nd40  1  0.24118992  0.86230461  0.06316726  1
  Nd3+  Nd41  1  0.88081067  0.49661932  0.42176122  1
  Nd3+  Nd42  1  0.11368406  0.73841081  0.93914594  1
  Nd3+  Nd43  1  0.76000382  0.36928475  0.56483706  1
  Nd3+  Nd44  1  0.00920269  0.86022564  0.56550184  1
  Nd3+  Nd45  1  0.74042656  0.36416913  0.05379461  1
  Nd3+  Nd46  1  0.63294628  0.48868853  0.43862264  1
  Nd3+  Nd47  1  0.48983664  0.36606279  0.06362818  1
  Nd3+  Nd48  1  0.62914087  -0.01030787  0.44301343  1
  Nd3+  Nd49  1  0.74370600  0.61584480  0.05783858  1
  Nd3+  Nd50  1  0.36472957  0.24166682  0.93903805  1
  Sm3+  Sm51  1  0.00686141  0.61421657  0.54460214  1
  Sm3+  Sm52  1  0.13681826  0.74387345  0.42928197  1
  Sm3+  Sm53  1  0.48919935  0.61626647  0.06031281  1
  Sm3+  Sm54  1  0.48911809  0.11269443  0.05684132  1
  Sm3+  Sm55  1  -0.01003094  0.11428635  0.06373578  1
  Sm3+  Sm56  1  0.63363959  0.24311491  0.44717954  1
  Sm3+  Sm57  1  0.24078509  0.61479834  0.06443650  1
  Sm3+  Sm58  1  0.13309588  -0.00989419  0.44939376  1
  Sm3+  Sm59  1  0.86891543  0.48887026  0.94542670  1
  Sm3+  Sm60  1  0.86848829  -0.00936917  0.94287305  1
  Sm3+  Sm61  1  0.25606561  0.61329139  0.54316655  1
  Sm3+  Sm62  1  0.76027265  0.61723363  0.55308323  1
  Sm3+  Sm63  1  0.88233643  -0.01197978  0.43794866  1
  Bi2+  Bi64  1  0.01205886  0.10027528  0.30258233  1
  Bi2+  Bi65  1  0.00892001  0.19324563  0.80756575  1
  Bi2+  Bi66  1  -0.04902730  0.36381654  0.26406667  1
  Bi2+  Bi67  1  -0.02218328  0.38809997  0.81052089  1
  Bi2+  Bi68  1  -0.00782307  0.62258923  0.28724065  1
  Bi2+  Bi69  1  0.00289721  0.62968557  0.79494477  1
  Bi2+  Bi70  1  -0.00835854  0.88734873  0.29559506  1
  Bi2+  Bi71  1  -0.00834667  0.91215144  0.80907971  1
  Bi2+  Bi72  1  0.22351550  0.18086780  0.30594488  1
  Bi2+  Bi73  1  0.17501762  0.16630096  0.74359205  1
  Bi2+  Bi74  1  0.26900993  0.37049394  0.28366313  1
  Bi2+  Bi75  1  0.18069249  0.39773793  0.79517812  1
  Bi2+  Bi76  1  0.26105162  0.66878403  0.26903203  1
  Bi2+  Bi77  1  0.25148170  0.57904525  0.77068191  1
  Bi2+  Bi78  1  0.24521274  0.91115963  0.28725778  1
  Bi2+  Bi79  1  0.24545942  0.88815468  0.80052674  1
  Bi2+  Bi80  1  0.49349433  0.10747951  0.29232112  1
  Bi2+  Bi81  1  0.52333904  0.12762187  0.81052438  1
  Bi2+  Bi82  1  0.50878771  0.37173881  0.28906018  1
  Bi2+  Bi83  1  0.49841650  0.37954573  0.81138672  1
  Bi2+  Bi84  1  0.50059846  0.61669023  0.28670983  1
  Bi2+  Bi85  1  0.51408212  0.62403993  0.80529725  1
  Bi2+  Bi86  1  0.49581429  0.86986576  0.28849865  1
  Bi2+  Bi87  1  0.51906415  0.88556356  0.81934958  1
  Bi2+  Bi88  1  0.81470755  0.12424836  0.31578896  1
  Bi2+  Bi89  1  0.81689072  0.09829173  0.76267508  1
  Bi2+  Bi90  1  0.73127018  0.40465899  0.30631570  1
  Bi2+  Bi91  1  0.76798208  0.36946647  0.75393108  1
  Bi2+  Bi92  1  0.70911934  0.60860362  0.29647162  1
  Bi2+  Bi93  1  0.79415653  0.63962403  0.75481287  1
  Bi2+  Bi94  1  0.73563069  0.93948991  0.28733337  1
  Bi2+  Bi95  1  0.81525305  0.83065868  0.77634928  1
  Bi2+  Bi96  1  0.14515201  0.04241423  0.21974412  1
  Bi2+  Bi97  1  0.07022262  0.00608109  0.71247670  1
  Bi2+  Bi98  1  0.08370035  0.23202002  0.22527544  1
  Bi2+  Bi99  1  0.14276958  0.34007779  0.68748826  1
  Bi2+  Bi100  1  0.14528872  0.47139428  0.21122050  1
  Bi2+  Bi101  1  0.10927135  0.52899957  0.69789175  1
  Bi2+  Bi102  1  0.09964484  0.83343529  0.20536520  1
  Bi2+  Bi103  1  0.09923387  0.79873292  0.73403590  1
  Bi2+  Bi104  1  0.40483607  0.02305225  0.19552219  1
  Bi2+  Bi105  1  0.38036213  0.02145025  0.71498210  1
  Bi2+  Bi106  1  0.36722513  0.20962689  0.22656122  1
  Bi2+  Bi107  1  0.40307647  0.26873030  0.73182053  1
  Bi2+  Bi108  1  0.37563307  0.49596736  0.18755238  1
  Bi2+  Bi109  1  0.39352961  0.47048507  0.72516771  1
  Bi2+  Bi110  1  0.39836699  0.77323561  0.20661032  1
  Bi2+  Bi111  1  0.35540480  0.73363569  0.70531867  1
  Bi2+  Bi112  1  0.60618225  0.03991659  0.20398592  1
  Bi2+  Bi113  1  0.65996877  0.02502970  0.70783072  1
  Bi2+  Bi114  1  0.65234623  0.21315252  0.25526538  1
  Bi2+  Bi115  1  0.59969582  0.27145570  0.72966773  1
  Bi2+  Bi116  1  0.62602577  0.48359756  0.21669504  1
  Bi2+  Bi117  1  0.63068521  0.49051905  0.70583325  1
  Bi2+  Bi118  1  0.66690294  0.77310978  0.23747397  1
  Bi2+  Bi119  1  0.64755864  0.73771716  0.70970527  1
  Bi2+  Bi120  1  0.87560933  0.02320113  0.22016309  1
  Bi2+  Bi121  1  0.88265134  -0.04466063  0.69066621  1
  Bi2+  Bi122  1  0.82934899  0.22735469  0.20100783  1
  Bi2+  Bi123  1  0.90991084  0.24317725  0.70933518  1
  Bi2+  Bi124  1  0.82448720  0.49407177  0.21757006  1
  Bi2+  Bi125  1  0.90717810  0.49004418  0.71047184  1
  Bi2+  Bi126  1  0.85535258  0.76079230  0.20267714  1
  Bi2+  Bi127  1  0.91922566  0.76330980  0.68388398  1
  S2-  S128  1  -0.02073541  0.21965924  0.14034132  1
  S2-  S129  1  0.01486431  0.13865400  0.65565624  1
  S2-  S130  1  0.01282916  0.46687586  0.15380022  1
  S2-  S131  1  -0.11260772  0.37413607  0.63492725  1
  S2-  S132  1  0.01890310  0.68944891  0.18540420  1
  S2-  S133  1  -0.01487190  0.61346480  0.64280201  1
  S2-  S134  1  -0.02329470  0.93661298  0.15756885  1
  S2-  S135  1  0.12221648  0.85582055  0.64163256  1
  S2-  S136  1  0.26143904  0.11197828  0.15662781  1
  S2-  S137  1  0.26924717  0.10880488  0.66222524  1
  S2-  S138  1  0.25427340  0.37100203  0.15650584  1
  S2-  S139  1  0.32432530  0.35688776  0.65557602  1
  S2-  S140  1  0.23295678  0.59964271  0.16327741  1
  S2-  S141  1  0.26670126  0.68079683  0.63472439  1
  S2-  S142  1  0.26223348  0.84309627  0.16155358  1
  S2-  S143  1  0.34444653  0.89018893  0.65972731  1
  S2-  S144  1  0.49145982  0.15882864  0.15025087  1
  S2-  S145  1  0.50965060  0.06916727  0.65137421  1
  S2-  S146  1  0.49621828  0.39484181  0.16148933  1
  S2-  S147  1  0.49774813  0.50727540  0.64396604  1
  S2-  S148  1  0.46869819  0.62582227  0.15822342  1
  S2-  S149  1  0.50266222  0.72758739  0.65181648  1
  S2-  S150  1  0.49586715  0.88606521  0.15066013  1
  S2-  S151  1  0.51862691  0.91192994  0.72594817  1
  S2-  S152  1  0.74489557  0.08755345  0.15193382  1
  S2-  S153  1  0.74598042  0.13071836  0.65543602  1
  S2-  S154  1  0.78119907  0.36131566  0.14924911  1
  S2-  S155  1  0.64562735  0.36102450  0.64197146  1
  S2-  S156  1  0.82802450  0.62278286  0.14411943  1
  S2-  S157  1  0.72656366  0.61290298  0.65091973  1
  S2-  S158  1  0.74501935  0.84334031  0.15084374  1
  S2-  S159  1  0.68289829  0.87097970  0.64988479  1
  S2-  S160  1  0.11942603  -0.02699320  0.35228233  1
  S2-  S161  1  0.13851503  -0.01264436  0.85017685  1
  S2-  S162  1  0.14413694  0.32981467  0.34999409  1
  S2-  S163  1  0.16887640  0.23505966  0.84435099  1
  S2-  S164  1  0.15451553  0.56789086  0.30916311  1
  S2-  S165  1  0.13083901  0.54393138  0.84948945  1
  S2-  S166  1  0.02917129  0.74911468  0.35090007  1
  S2-  S167  1  0.21207745  0.76042371  0.85570944  1
  S2-  S168  1  0.36930993  -0.03809062  0.34138285  1
  S2-  S169  1  0.37770841  -0.00156211  0.83303994  1
  S2-  S170  1  0.38821015  0.33880921  0.35969739  1
  S2-  S171  1  0.39518349  0.23981684  0.84166330  1
  S2-  S172  1  0.36757123  0.60258214  0.34150622  1
  S2-  S173  1  0.36785607  0.57572838  0.85483331  1
  S2-  S174  1  0.24958689  0.77205717  0.34969812  1
  S2-  S175  1  0.40760526  0.76479815  0.80785833  1
  S2-  S176  1  0.59994611  -0.00959216  0.34398246  1
  S2-  S177  1  0.63721936  0.01213299  0.83799644  1
  S2-  S178  1  0.62229762  0.28207003  0.35222682  1
  S2-  S179  1  0.62507759  0.24361092  0.83989460  1
  S2-  S180  1  0.53354185  0.49121511  0.35603588  1
  S2-  S181  1  0.61213032  0.50531165  0.84318947  1
  S2-  S182  1  0.52445626  0.74971474  0.35256492  1
  S2-  S183  1  0.61854016  0.74250412  0.84360866  1
  S2-  S184  1  0.86258257  -0.11463675  0.35850254  1
  S2-  S185  1  0.88819188  0.04119118  0.85030067  1
  S2-  S186  1  0.87330436  0.28962390  0.34143610  1
  S2-  S187  1  0.84080215  0.30112866  0.83955183  1
  S2-  S188  1  0.98296936  0.47616249  0.34082224  1
  S2-  S189  1  0.89498736  0.53083577  0.85231312  1
  S2-  S190  1  0.85959493  0.63143411  0.34686169  1
  S2-  S191  1  0.99460549  0.74638796  0.86243418  1
  S2-  S192  1  0.00599154  0.11341488  0.44984699  1
  S2-  S193  1  -0.00724632  0.11483363  0.95873059  1
  S2-  S194  1  0.00558603  0.36744503  0.45397607  1
  S2-  S195  1  -0.01038688  0.36361875  0.95772115  1
  S2-  S196  1  0.01309007  0.61111841  0.44352271  1
  S2-  S197  1  -0.00992803  0.61357092  0.96559126  1
  S2-  S198  1  0.00926043  0.87079253  0.45901087  1
  S2-  S199  1  -0.00947488  0.86736962  0.96079889  1
  S2-  S200  1  0.25707702  0.11843656  0.45469681  1
  S2-  S201  1  0.24109997  0.11656887  0.95113183  1
  S2-  S202  1  0.25300657  0.36866130  0.45591090  1
  S2-  S203  1  0.24097732  0.36665112  0.95136664  1
  S2-  S204  1  0.24541444  0.60516278  0.44150054  1
  S2-  S205  1  0.24143765  0.61554378  0.95968112  1
  S2-  S206  1  0.25267015  0.86886832  0.45917636  1
  S2-  S207  1  0.24273533  0.86249389  0.95814248  1
  S2-  S208  1  0.50692916  0.12083776  0.45059579  1
  S2-  S209  1  0.48758230  0.11425686  0.95154048  1
  S2-  S210  1  0.51218302  0.36338584  0.46566256  1
  S2-  S211  1  0.48886142  0.36825645  0.95603194  1
  S2-  S212  1  0.50909974  0.61327717  0.45561600  1
  S2-  S213  1  0.48905281  0.61864807  0.95584569  1
  S2-  S214  1  0.50637581  0.86799717  0.45049713  1
  S2-  S215  1  0.48495854  0.85893549  0.94724314  1
  S2-  S216  1  0.75621073  0.11375021  0.45127830  1
  S2-  S217  1  0.74077773  0.11448613  0.94740567  1
  S2-  S218  1  0.75830233  0.36655205  0.45525590  1
  S2-  S219  1  0.73952696  0.36838653  0.94834141  1
  S2-  S220  1  0.75469095  0.61683308  0.44945667  1
  S2-  S221  1  0.74382682  0.61362799  0.95139706  1
  S2-  S222  1  0.75346225  0.86683926  0.45520777  1
  S2-  S223  1  0.74622645  0.86549698  0.94583888  1
  S2-  S224  1  0.11538077  -0.00949767  0.05448350  1
  S2-  S225  1  0.13447743  -0.00782081  0.55188104  1
  S2-  S226  1  0.11723787  0.24066686  0.04643428  1
  S2-  S227  1  0.13083543  0.24058407  0.54570877  1
  S2-  S228  1  0.11740132  0.49075433  0.05051776  1
  S2-  S229  1  0.12816503  0.49135572  0.55056067  1
  S2-  S230  1  0.11587466  0.73606720  0.05461940  1
  S2-  S231  1  0.12759128  0.73549652  0.53465460  1
  S2-  S232  1  0.36544604  -0.01049669  0.04328747  1
  S2-  S233  1  0.38429565  -0.00825154  0.54979719  1
  S2-  S234  1  0.36761693  0.24138451  0.04648144  1
  S2-  S235  1  0.38354598  0.24320949  0.55041152  1
  S2-  S236  1  0.36612215  0.49242406  0.04737026  1
  S2-  S237  1  0.37865421  0.49084334  0.53990570  1
  S2-  S238  1  0.36410839  0.73614888  0.05133605  1
  S2-  S239  1  0.37427788  0.73429419  0.52961622  1
  S2-  S240  1  0.61379396  -0.01060822  0.04390798  1
  S2-  S241  1  0.62912895  -0.00963937  0.54799840  1
  S2-  S242  1  0.61234574  0.24047931  0.04697005  1
  S2-  S243  1  0.63466777  0.23890393  0.54913854  1
  S2-  S244  1  0.61589009  0.49261343  0.05004694  1
  S2-  S245  1  0.63752436  0.49578495  0.54271765  1
  S2-  S246  1  0.61648457  0.73778462  0.04901754  1
  S2-  S247  1  0.63782895  0.73930158  0.54306982  1
  S2-  S248  1  0.86650090  -0.00859687  0.04702063  1
  S2-  S249  1  0.88345118  -0.01315407  0.54392964  1
  S2-  S250  1  0.86354354  0.23863854  0.03833388  1
  S2-  S251  1  0.88095820  0.23696997  0.54344603  1
  S2-  S252  1  0.86583118  0.48663810  0.04823657  1
  S2-  S253  1  0.88180075  0.49499939  0.53285132  1
  S2-  S254  1  0.86614326  0.74130841  0.04199408  1
  S2-  S255  1  0.88370257  0.74050505  0.53800347  1
