# generated using pymatgen
data_La6Ce6Pr19Nd20Sm13(BiS2)64
_symmetry_space_group_name_H-M   'P 1'
_cell_length_a   16.10497209
_cell_length_b   15.94765226
_cell_length_c   27.35999051
_cell_angle_alpha   90.33019289
_cell_angle_beta   89.58003777
_cell_angle_gamma   89.97423567
_symmetry_Int_Tables_number   1
_chemical_formula_structural   La6Ce6Pr19Nd20Sm13(BiS2)64
_chemical_formula_sum   'La6 Ce6 Pr19 Nd20 Sm13 Bi64 S128'
_cell_volume   7026.73775553
_cell_formula_units_Z   1
loop_
 _symmetry_equiv_pos_site_id
 _symmetry_equiv_pos_as_xyz
  1  'x, y, z'
loop_
 _atom_type_symbol
 _atom_type_oxidation_number
  La3+  3.0
  Ce3+  3.0
  Pr3+  3.0
  Nd3+  3.0
  Sm3+  3.0
  Bi2+  2.0
  S2-  -2.0
loop_
 _atom_site_type_symbol
 _atom_site_label
 _atom_site_symmetry_multiplicity
 _atom_site_fract_x
 _atom_site_fract_y
 _atom_site_fract_z
 _atom_site_occupancy
  La3+  La0  1  0.36922225  -0.02149029  0.92594162  1
  La3+  La1  1  0.47610160  0.60433456  0.07926368  1
  La3+  La2  1  0.85337715  0.23382851  0.93626776  1
  La3+  La3  1  0.85771801  0.73053854  0.93526605  1
  La3+  La4  1  0.86497069  -0.02196195  0.92217479  1
  La3+  La5  1  0.89851747  0.53265534  0.40502462  1
  Ce3+  Ce6  1  0.73848614  0.11291691  0.06703773  1
  Ce3+  Ce7  1  0.77223702  0.64658957  0.56604401  1
  Ce3+  Ce8  1  0.52446618  0.64743986  0.56897087  1
  Ce3+  Ce9  1  0.14496833  0.27299430  0.43141425  1
  Ce3+  Ce10  1  0.61707864  0.48404509  0.95281923  1
  Ce3+  Ce11  1  0.02545481  0.64487778  0.57264447  1
  Pr3+  Pr12  1  0.02210049  0.15109897  0.56070342  1
  Pr3+  Pr13  1  0.65855759  0.27554171  0.42492736  1
  Pr3+  Pr14  1  0.85587179  0.48643004  0.93824998  1
  Pr3+  Pr15  1  0.73825406  0.85970936  0.07161202  1
  Pr3+  Pr16  1  0.73669543  0.35981135  0.08425708  1
  Pr3+  Pr17  1  0.36760015  0.48262040  0.92598882  1
  Pr3+  Pr18  1  0.26897394  0.65087690  0.56460423  1
  Pr3+  Pr19  1  0.14401051  0.77154111  0.43821039  1
  Pr3+  Pr20  1  0.27306991  0.90041987  0.56074366  1
  Pr3+  Pr21  1  0.77074949  0.90784432  0.58495038  1
  Pr3+  Pr22  1  0.65313290  0.02450710  0.42451396  1
  Pr3+  Pr23  1  0.40067760  0.77841004  0.43910651  1
  Pr3+  Pr24  1  0.61238182  0.23054665  0.94210824  1
  Pr3+  Pr25  1  0.23822515  0.35384276  0.04917020  1
  Pr3+  Pr26  1  0.52457279  0.14758646  0.56098937  1
  Pr3+  Pr27  1  0.52201288  0.39604856  0.56484592  1
  Pr3+  Pr28  1  0.10813235  0.48117163  0.93520710  1
  Pr3+  Pr29  1  0.52573058  0.89995678  0.56597699  1
  Pr3+  Pr30  1  0.77342111  0.15635264  0.56619370  1
  Nd3+  Nd31  1  0.14997632  0.01532269  0.41140439  1
  Nd3+  Nd32  1  0.11274096  -0.02272326  0.93257714  1
  Nd3+  Nd33  1  0.48066949  0.10485565  0.06874446  1
  Nd3+  Nd34  1  -0.01149095  0.35783840  0.08161168  1
  Nd3+  Nd35  1  0.27078175  0.40013545  0.54802208  1
  Nd3+  Nd36  1  0.40492099  0.02935170  0.42391892  1
  Nd3+  Nd37  1  0.47391443  0.85677504  0.08378443  1
  Nd3+  Nd38  1  0.02394778  0.40225864  0.55176538  1
  Nd3+  Nd39  1  -0.01195554  0.60423587  0.07052777  1
  Nd3+  Nd40  1  0.65414987  0.76770105  0.44116922  1
  Nd3+  Nd41  1  0.01690772  0.89979778  0.56932813  1
  Nd3+  Nd42  1  0.36375904  0.23153540  0.92337391  1
  Nd3+  Nd43  1  0.27355882  0.14657882  0.55065688  1
  Nd3+  Nd44  1  0.61130272  0.73349505  0.95342509  1
  Nd3+  Nd45  1  0.74314910  0.61553264  0.08094664  1
  Nd3+  Nd46  1  -0.01498097  0.10960505  0.05851989  1
  Nd3+  Nd47  1  0.40132311  0.27433691  0.43063929  1
  Nd3+  Nd48  1  0.23032379  0.85949420  0.06363957  1
  Nd3+  Nd49  1  0.48468444  0.35493878  0.06429200  1
  Nd3+  Nd50  1  0.14683288  0.52943928  0.42303294  1
  Sm3+  Sm51  1  0.89919960  0.77177122  0.45007873  1
  Sm3+  Sm52  1  0.77420168  0.39688148  0.55202201  1
  Sm3+  Sm53  1  0.64878171  0.52121538  0.43614179  1
  Sm3+  Sm54  1  0.90635131  0.27043901  0.43168774  1
  Sm3+  Sm55  1  0.23751063  0.60530391  0.05116582  1
  Sm3+  Sm56  1  0.61291320  -0.02078853  0.95028483  1
  Sm3+  Sm57  1  0.36664235  0.73075864  0.93805593  1
  Sm3+  Sm58  1  -0.01265371  0.86071187  0.06154716  1
  Sm3+  Sm59  1  0.10187023  0.22933201  0.92769294  1
  Sm3+  Sm60  1  0.89536263  0.01893248  0.44329024  1
  Sm3+  Sm61  1  0.23746977  0.10787757  0.04688714  1
  Sm3+  Sm62  1  0.11100319  0.72963774  0.93985830  1
  Sm3+  Sm63  1  0.40123991  0.52657926  0.44183424  1
  Bi2+  Bi64  1  0.02214463  0.06857896  0.30452887  1
  Bi2+  Bi65  1  0.04403143  0.12742893  0.78629668  1
  Bi2+  Bi66  1  -0.04905620  0.35911334  0.29618707  1
  Bi2+  Bi67  1  -0.00534006  0.41687125  0.80512968  1
  Bi2+  Bi68  1  0.02167515  0.64852092  0.29083439  1
  Bi2+  Bi69  1  0.00535244  0.62501299  0.78711644  1
  Bi2+  Bi70  1  -0.02648393  0.87549698  0.28221396  1
  Bi2+  Bi71  1  -0.01919216  0.87270850  0.78698597  1
  Bi2+  Bi72  1  0.22341349  0.11006372  0.28547217  1
  Bi2+  Bi73  1  0.29890999  0.12556175  0.77478110  1
  Bi2+  Bi74  1  0.22066818  0.30860548  0.30504767  1
  Bi2+  Bi75  1  0.26985491  0.45025737  0.79333357  1
  Bi2+  Bi76  1  0.21957861  0.58224074  0.26681352  1
  Bi2+  Bi77  1  0.28621209  0.65576925  0.78200465  1
  Bi2+  Bi78  1  0.18522480  0.80929835  0.27529356  1
  Bi2+  Bi79  1  0.23669954  0.94520391  0.81251810  1
  Bi2+  Bi80  1  0.54062975  0.11394758  0.28396475  1
  Bi2+  Bi81  1  0.56537306  0.19780130  0.80664997  1
  Bi2+  Bi82  1  0.41871989  0.33185490  0.29397732  1
  Bi2+  Bi83  1  0.52060752  0.38849793  0.78822633  1
  Bi2+  Bi84  1  0.50751829  0.60341269  0.29962940  1
  Bi2+  Bi85  1  0.51999030  0.58950236  0.78458688  1
  Bi2+  Bi86  1  0.40540117  0.88447622  0.29535413  1
  Bi2+  Bi87  1  0.45403702  0.88369535  0.77780073  1
  Bi2+  Bi88  1  0.82638476  0.08090175  0.27705966  1
  Bi2+  Bi89  1  0.80316863  0.17319982  0.78699274  1
  Bi2+  Bi90  1  0.71502854  0.35488756  0.28151766  1
  Bi2+  Bi91  1  0.79775507  0.41313852  0.78074924  1
  Bi2+  Bi92  1  0.75591681  0.69859155  0.29020198  1
  Bi2+  Bi93  1  0.74500755  0.61119359  0.80369884  1
  Bi2+  Bi94  1  0.68285110  0.86919917  0.31868835  1
  Bi2+  Bi95  1  0.70520826  0.88492365  0.80936901  1
  Bi2+  Bi96  1  0.05089306  -0.01570310  0.19817165  1
  Bi2+  Bi97  1  0.12984429  -0.00754739  0.72224968  1
  Bi2+  Bi98  1  0.08542480  0.21549881  0.22992002  1
  Bi2+  Bi99  1  0.14110116  0.31283901  0.75486476  1
  Bi2+  Bi100  1  0.12284581  0.41825061  0.22145287  1
  Bi2+  Bi101  1  0.15108609  0.48192822  0.69124667  1
  Bi2+  Bi102  1  0.11292328  0.69942706  0.19515006  1
  Bi2+  Bi103  1  0.15717594  0.79797816  0.74592853  1
  Bi2+  Bi104  1  0.35804899  -0.00844146  0.20601422  1
  Bi2+  Bi105  1  0.36491013  -0.01638890  0.69017656  1
  Bi2+  Bi106  1  0.33035683  0.22785025  0.19929585  1
  Bi2+  Bi107  1  0.37670735  0.25763949  0.70069912  1
  Bi2+  Bi108  1  0.35481439  0.47209301  0.20778944  1
  Bi2+  Bi109  1  0.38959629  0.50027007  0.70369298  1
  Bi2+  Bi110  1  0.35027831  0.72430186  0.21166510  1
  Bi2+  Bi111  1  0.36669259  0.69679899  0.68598982  1
  Bi2+  Bi112  1  0.69943296  -0.03233162  0.21661964  1
  Bi2+  Bi113  1  0.54388982  0.04410133  0.73688114  1
  Bi2+  Bi114  1  0.57654372  0.27682671  0.21778268  1
  Bi2+  Bi115  1  0.63858768  0.28461596  0.71095376  1
  Bi2+  Bi116  1  0.59923723  0.49659989  0.22713100  1
  Bi2+  Bi117  1  0.65579473  0.48664177  0.70801066  1
  Bi2+  Bi118  1  0.59371070  0.79710148  0.22642990  1
  Bi2+  Bi119  1  0.57950380  0.75327087  0.73074191  1
  Bi2+  Bi120  1  0.86928141  -0.01085919  0.14989676  1
  Bi2+  Bi121  1  0.86601590  0.02237320  0.71088674  1
  Bi2+  Bi122  1  0.86237982  0.19887104  0.19227957  1
  Bi2+  Bi123  1  0.90637629  0.27735195  0.69832838  1
  Bi2+  Bi124  1  0.87279265  0.50866752  0.20740422  1
  Bi2+  Bi125  1  0.92672064  0.50645615  0.70805525  1
  Bi2+  Bi126  1  0.85551212  0.79413822  0.20466911  1
  Bi2+  Bi127  1  0.82327416  0.75938908  0.70264033  1
  S2-  S128  1  0.01686187  0.21136927  0.13905087  1
  S2-  S129  1  -0.02774877  0.13601903  0.65806070  1
  S2-  S130  1  0.03036802  0.48786047  0.15066892  1
  S2-  S131  1  0.03303034  0.36082541  0.64883586  1
  S2-  S132  1  -0.11410211  0.64024283  0.15148311  1
  S2-  S133  1  -0.04866784  0.65975609  0.66302094  1
  S2-  S134  1  0.10029175  0.85452604  0.13820406  1
  S2-  S135  1  -0.08315732  0.89332909  0.65343169  1
  S2-  S136  1  0.25571971  0.09955302  0.14509766  1
  S2-  S137  1  0.29154850  0.14339436  0.65053990  1
  S2-  S138  1  0.24674508  0.36097120  0.15020735  1
  S2-  S139  1  0.28701769  0.38325896  0.64660528  1
  S2-  S140  1  0.31157571  0.59951733  0.13994126  1
  S2-  S141  1  0.15637279  0.61970691  0.64162629  1
  S2-  S142  1  0.32565838  0.85477618  0.14703147  1
  S2-  S143  1  0.27711410  0.83983479  0.65547480  1
  S2-  S144  1  0.46264671  0.23377951  0.13961259  1
  S2-  S145  1  0.51663917  0.02805665  0.63965148  1
  S2-  S146  1  0.48211953  0.46481097  0.14733261  1
  S2-  S147  1  0.51400692  0.26969931  0.63868071  1
  S2-  S148  1  0.48955096  0.72481980  0.15713249  1
  S2-  S149  1  0.52819083  0.52004569  0.64052495  1
  S2-  S150  1  0.48960534  0.99418744  0.15009176  1
  S2-  S151  1  0.51006924  0.77214731  0.64100989  1
  S2-  S152  1  0.70707717  0.21068073  0.14965840  1
  S2-  S153  1  0.75362671  0.05447278  0.64843956  1
  S2-  S154  1  0.86470785  0.36097708  0.15646449  1
  S2-  S155  1  0.77366822  0.29766263  0.63533327  1
  S2-  S156  1  0.72018353  0.50165475  0.15875641  1
  S2-  S157  1  0.73451475  0.63232011  0.66285348  1
  S2-  S158  1  0.71542095  0.75284987  0.15322233  1
  S2-  S159  1  0.69769406  0.85313368  0.67806328  1
  S2-  S160  1  0.10380034  -0.12534845  0.35585355  1
  S2-  S161  1  0.00959856  -0.00653881  0.85208989  1
  S2-  S162  1  0.03320430  0.26481242  0.35849705  1
  S2-  S163  1  0.17620463  0.21526062  0.83755545  1
  S2-  S164  1  0.03716557  0.50055264  0.34276656  1
  S2-  S165  1  0.12336547  0.53213583  0.83914003  1
  S2-  S166  1  0.16988300  0.66400009  0.35593003  1
  S2-  S167  1  0.08372631  0.75800855  0.84384081  1
  S2-  S168  1  0.29003349  -0.00426915  0.34868153  1
  S2-  S169  1  0.39436530  0.10768013  0.85247074  1
  S2-  S170  1  0.41804340  0.17803049  0.34788610  1
  S2-  S171  1  0.37720734  0.35764907  0.85109735  1
  S2-  S172  1  0.40628765  0.49553912  0.34435150  1
  S2-  S173  1  0.39489296  0.61842212  0.85830967  1
  S2-  S174  1  0.41236041  0.73338577  0.34099740  1
  S2-  S175  1  0.35739386  0.84105469  0.85963482  1
  S2-  S176  1  0.52309426  -0.01876402  0.35149127  1
  S2-  S177  1  0.57049536  -0.06507165  0.85704452  1
  S2-  S178  1  0.64568360  0.15407839  0.34937359  1
  S2-  S179  1  0.72061326  0.24343882  0.86198925  1
  S2-  S180  1  0.62927536  0.40710911  0.35811351  1
  S2-  S181  1  0.71518825  0.47978685  0.87062132  1
  S2-  S182  1  0.64760876  0.64600101  0.36359330  1
  S2-  S183  1  0.67536848  0.72627805  0.85877926  1
  S2-  S184  1  0.79920821  -0.00857400  0.36163365  1
  S2-  S185  1  0.76662493  0.02420708  0.83995121  1
  S2-  S186  1  0.82470204  0.27134833  0.34404900  1
  S2-  S187  1  0.94430746  0.20908695  0.84651097  1
  S2-  S188  1  0.82834741  0.48729059  0.31061765  1
  S2-  S189  1  0.88956485  0.60784199  0.86066664  1
  S2-  S190  1  0.89459203  0.70079980  0.35790971  1
  S2-  S191  1  0.86002346  0.83773432  0.85181418  1
  S2-  S192  1  0.02831026  0.13373534  0.45341604  1
  S2-  S193  1  -0.01417697  0.10655113  0.95427883  1
  S2-  S194  1  0.02138710  0.40504052  0.44927805  1
  S2-  S195  1  -0.01587421  0.35771002  0.94741894  1
  S2-  S196  1  0.01972073  0.64546490  0.45961523  1
  S2-  S197  1  -0.00962755  0.60814123  0.96208334  1
  S2-  S198  1  0.02042315  0.90072088  0.46342550  1
  S2-  S199  1  -0.00944775  0.85403796  0.95809033  1
  S2-  S200  1  0.26635512  0.14641715  0.44521582  1
  S2-  S201  1  0.23320334  0.10614673  0.94332308  1
  S2-  S202  1  0.27291202  0.40109405  0.44254082  1
  S2-  S203  1  0.23143644  0.35286524  0.94341815  1
  S2-  S204  1  0.27773404  0.64851680  0.45652545  1
  S2-  S205  1  0.23661340  0.60783798  0.94781423  1
  S2-  S206  1  0.26852993  0.90000515  0.45410300  1
  S2-  S207  1  0.23198100  0.85261138  0.95614393  1
  S2-  S208  1  0.52600883  0.15236212  0.45456494  1
  S2-  S209  1  0.49174010  0.10437535  0.95941485  1
  S2-  S210  1  0.51871499  0.40022968  0.45732951  1
  S2-  S211  1  0.49049541  0.35784323  0.95504819  1
  S2-  S212  1  0.52148491  0.64751537  0.46091788  1
  S2-  S213  1  0.48969819  0.60698606  0.96471984  1
  S2-  S214  1  0.53007398  0.89449076  0.45796543  1
  S2-  S215  1  0.48720878  0.85537193  0.96631698  1
  S2-  S216  1  0.78236488  0.14982767  0.45607893  1
  S2-  S217  1  0.73568316  0.10153132  0.96039129  1
  S2-  S218  1  0.78588533  0.40449300  0.44936550  1
  S2-  S219  1  0.73632369  0.35827633  0.97115364  1
  S2-  S220  1  0.77975156  0.64180135  0.46028913  1
  S2-  S221  1  0.73626610  0.61105720  0.97261844  1
  S2-  S222  1  0.77580880  0.89143786  0.46433655  1
  S2-  S223  1  0.73591024  0.85961439  0.96389963  1
  S2-  S224  1  0.11067408  -0.01242846  0.03865521  1
  S2-  S225  1  0.14489072  0.02335338  0.56196287  1
  S2-  S226  1  0.11227425  0.23228087  0.03274553  1
  S2-  S227  1  0.14847112  0.27283999  0.53901715  1
  S2-  S228  1  0.11441520  0.47996291  0.04130185  1
  S2-  S229  1  0.14842913  0.52390108  0.53258042  1
  S2-  S230  1  0.11192240  0.72719977  0.04335844  1
  S2-  S231  1  0.14241929  0.77736732  0.54745980  1
  S2-  S232  1  0.35711608  -0.01731571  0.03866702  1
  S2-  S233  1  0.39640649  0.02274554  0.53466120  1
  S2-  S234  1  0.36040801  0.22877245  0.03127940  1
  S2-  S235  1  0.39288879  0.27284867  0.53598478  1
  S2-  S236  1  0.35929765  0.47937013  0.03458913  1
  S2-  S237  1  0.39350751  0.52514921  0.54556619  1
  S2-  S238  1  0.35602286  0.73257555  0.04188294  1
  S2-  S239  1  0.39528001  0.77345237  0.54353318  1
  S2-  S240  1  0.61514842  -0.01445485  0.05417703  1
  S2-  S241  1  0.65194334  0.02458804  0.53963444  1
  S2-  S242  1  0.60937067  0.23234776  0.04637366  1
  S2-  S243  1  0.64912195  0.27608169  0.53417585  1
  S2-  S244  1  0.61250703  0.48372982  0.05448639  1
  S2-  S245  1  0.65121462  0.51930106  0.54110868  1
  S2-  S246  1  0.60648202  0.73561548  0.05519861  1
  S2-  S247  1  0.65254518  0.77278069  0.54685818  1
  S2-  S248  1  0.86382654  -0.01723041  0.03851073  1
  S2-  S249  1  0.89775725  0.02521475  0.54605295  1
  S2-  S250  1  0.86360097  0.23619573  0.04552865  1
  S2-  S251  1  0.90325027  0.27630102  0.53622289  1
  S2-  S252  1  0.86621385  0.48224350  0.04775089  1
  S2-  S253  1  0.89631770  0.51986382  0.55870078  1
  S2-  S254  1  0.86746701  0.73920626  0.04619822  1
  S2-  S255  1  0.89510957  0.77261706  0.55210839  1
