# generated using pymatgen
data_La6Ce6Pr19Nd20Sm13(BiS2)64
_symmetry_space_group_name_H-M   'P 1'
_cell_length_a   16.09169499
_cell_length_b   16.07357593
_cell_length_c   27.44453520
_cell_angle_alpha   90.03298234
_cell_angle_beta   90.11166375
_cell_angle_gamma   90.13238082
_symmetry_Int_Tables_number   1
_chemical_formula_structural   La6Ce6Pr19Nd20Sm13(BiS2)64
_chemical_formula_sum   'La6 Ce6 Pr19 Nd20 Sm13 Bi64 S128'
_cell_volume   7098.52508148
_cell_formula_units_Z   1
loop_
 _symmetry_equiv_pos_site_id
 _symmetry_equiv_pos_as_xyz
  1  'x, y, z'
loop_
 _atom_type_symbol
 _atom_type_oxidation_number
  La3+  3.0
  Ce3+  3.0
  Pr3+  3.0
  Nd3+  3.0
  Sm3+  3.0
  Bi2+  2.0
  S2-  -2.0
loop_
 _atom_site_type_symbol
 _atom_site_label
 _atom_site_symmetry_multiplicity
 _atom_site_fract_x
 _atom_site_fract_y
 _atom_site_fract_z
 _atom_site_occupancy
  La3+  La0  1  0.12709806  -0.00277491  0.39661720  1
  La3+  La1  1  0.11729215  0.52179007  0.89934446  1
  La3+  La2  1  0.24058260  0.37991517  0.61272008  1
  La3+  La3  1  0.50859779  0.88967618  0.09145241  1
  La3+  La4  1  -0.00878798  0.13895458  0.09566145  1
  La3+  La5  1  0.49623810  0.62671314  0.10950312  1
  Ce3+  Ce6  1  0.74677309  0.88142587  0.05877747  1
  Ce3+  Ce7  1  0.50326352  0.87948906  0.56001860  1
  Ce3+  Ce8  1  0.62727756  0.25504351  0.93830396  1
  Ce3+  Ce9  1  0.13083436  0.24953203  0.43978522  1
  Ce3+  Ce10  1  0.12559504  0.01032478  0.94732305  1
  Ce3+  Ce11  1  0.87400168  0.00837166  0.94323141  1
  Pr3+  Pr12  1  0.50160103  0.62872932  0.56008388  1
  Pr3+  Pr13  1  0.87818369  0.25072241  0.43306747  1
  Pr3+  Pr14  1  0.50242307  0.13045920  0.05844137  1
  Pr3+  Pr15  1  0.37348235  0.50821416  0.43034450  1
  Pr3+  Pr16  1  0.37710376  0.51349269  0.93167078  1
  Pr3+  Pr17  1  0.37977156  0.00627602  0.43015673  1
  Pr3+  Pr18  1  0.62784276  0.25203037  0.44101289  1
  Pr3+  Pr19  1  0.00393098  0.62814824  0.56371700  1
  Pr3+  Pr20  1  0.24857621  0.89363070  0.07540357  1
  Pr3+  Pr21  1  0.75336816  0.12905712  0.57345444  1
  Pr3+  Pr22  1  0.62418130  0.50956386  0.92369793  1
  Pr3+  Pr23  1  0.36890582  0.00509024  0.93173296  1
  Pr3+  Pr24  1  0.63236261  0.01362285  0.90432107  1
  Pr3+  Pr25  1  0.88228002  0.75357341  0.43845863  1
  Pr3+  Pr26  1  0.25310997  0.38886999  0.05364291  1
  Pr3+  Pr27  1  0.62340519  0.76109313  0.94095863  1
  Pr3+  Pr28  1  0.00115807  0.38611198  0.06103240  1
  Pr3+  Pr29  1  0.00358409  0.88378842  0.55905234  1
  Pr3+  Pr30  1  0.12311743  0.26011129  0.93997696  1
  Nd3+  Nd31  1  0.49325435  0.37805933  0.55578023  1
  Nd3+  Nd32  1  0.75338893  0.62756193  0.55344631  1
  Nd3+  Nd33  1  0.00313928  0.63683724  0.07166157  1
  Nd3+  Nd34  1  0.38119678  0.76140847  0.95678663  1
  Nd3+  Nd35  1  0.00446265  0.37467457  0.56341052  1
  Nd3+  Nd36  1  -0.00219930  0.88525548  0.05668722  1
  Nd3+  Nd37  1  0.24837087  0.63715200  0.06658142  1
  Nd3+  Nd38  1  0.75345631  0.37874787  0.55437713  1
  Nd3+  Nd39  1  0.62369664  0.50360189  0.44130240  1
  Nd3+  Nd40  1  0.37679528  0.25642409  0.93850067  1
  Nd3+  Nd41  1  0.25294219  0.13534712  0.06307412  1
  Nd3+  Nd42  1  0.50461906  0.12766883  0.56712550  1
  Nd3+  Nd43  1  0.25504049  0.88523692  0.55962448  1
  Nd3+  Nd44  1  0.74245152  0.63335902  0.05480851  1
  Nd3+  Nd45  1  0.74842472  0.13222837  0.06058308  1
  Nd3+  Nd46  1  0.88269044  0.49844521  0.43147722  1
  Nd3+  Nd47  1  0.50329939  0.38721469  0.05450316  1
  Nd3+  Nd48  1  0.25519711  0.62801729  0.56150176  1
  Nd3+  Nd49  1  0.37664026  0.75896001  0.43096165  1
  Nd3+  Nd50  1  0.62981148  0.75470855  0.43753999  1
  Sm3+  Sm51  1  0.75059618  0.38565093  0.05034756  1
  Sm3+  Sm52  1  0.25801284  0.12626840  0.56923996  1
  Sm3+  Sm53  1  0.00685954  0.12957743  0.55241246  1
  Sm3+  Sm54  1  0.87927530  0.51056029  0.94496779  1
  Sm3+  Sm55  1  0.62756480  0.00616603  0.44211528  1
  Sm3+  Sm56  1  0.12676169  0.75820463  0.44771040  1
  Sm3+  Sm57  1  0.75485264  0.88089587  0.54947247  1
  Sm3+  Sm58  1  0.87943111  0.01108505  0.42875534  1
  Sm3+  Sm59  1  0.37521260  0.24864509  0.43953228  1
  Sm3+  Sm60  1  0.13123286  0.50071019  0.44754073  1
  Sm3+  Sm61  1  0.87768582  0.75645421  0.94459083  1
  Sm3+  Sm62  1  0.12863998  0.75812619  0.94471100  1
  Sm3+  Sm63  1  0.87769732  0.25963157  0.94031647  1
  Bi2+  Bi64  1  -0.02735943  0.12187565  0.29283037  1
  Bi2+  Bi65  1  0.00552118  0.08552370  0.78312732  1
  Bi2+  Bi66  1  0.01021136  0.37938185  0.28458908  1
  Bi2+  Bi67  1  -0.08912974  0.39808094  0.78471540  1
  Bi2+  Bi68  1  -0.04403658  0.59745838  0.31479077  1
  Bi2+  Bi69  1  -0.01870146  0.66224365  0.79234428  1
  Bi2+  Bi70  1  -0.10286269  0.86545896  0.27633665  1
  Bi2+  Bi71  1  0.02319801  0.88910255  0.79493881  1
  Bi2+  Bi72  1  0.24359349  0.14378195  0.28391283  1
  Bi2+  Bi73  1  0.20631236  0.10587747  0.78119696  1
  Bi2+  Bi74  1  0.28953722  0.34176839  0.29349943  1
  Bi2+  Bi75  1  0.25857585  0.35422043  0.81852393  1
  Bi2+  Bi76  1  0.21764416  0.54094049  0.28312625  1
  Bi2+  Bi77  1  0.26498860  0.66749395  0.79251648  1
  Bi2+  Bi78  1  0.25366398  0.80334539  0.30413430  1
  Bi2+  Bi79  1  0.22139084  0.87415213  0.79368831  1
  Bi2+  Bi80  1  0.49493231  0.10479680  0.29164261  1
  Bi2+  Bi81  1  0.49872820  0.12045555  0.79657666  1
  Bi2+  Bi82  1  0.54415587  0.35323673  0.28424959  1
  Bi2+  Bi83  1  0.52987767  0.38141092  0.78117008  1
  Bi2+  Bi84  1  0.49333767  0.59184274  0.30926776  1
  Bi2+  Bi85  1  0.51975529  0.60827098  0.76922967  1
  Bi2+  Bi86  1  0.51098899  0.86158650  0.29112515  1
  Bi2+  Bi87  1  0.48739817  0.84578704  0.80297246  1
  Bi2+  Bi88  1  0.73093313  0.21079515  0.27505396  1
  Bi2+  Bi89  1  0.78995189  0.15447416  0.79649029  1
  Bi2+  Bi90  1  0.76141714  0.40471916  0.29248477  1
  Bi2+  Bi91  1  0.71816741  0.42056297  0.80954504  1
  Bi2+  Bi92  1  0.76929238  0.60999614  0.28720846  1
  Bi2+  Bi93  1  0.71212364  0.61930069  0.79898500  1
  Bi2+  Bi94  1  0.71019161  0.94124758  0.24825304  1
  Bi2+  Bi95  1  0.82791097  0.88512982  0.78059968  1
  Bi2+  Bi96  1  0.11772225  -0.05774439  0.21553621  1
  Bi2+  Bi97  1  0.10930556  -0.01265331  0.70184077  1
  Bi2+  Bi98  1  0.14727413  0.29644273  0.21576259  1
  Bi2+  Bi99  1  0.08240566  0.23271409  0.71375557  1
  Bi2+  Bi100  1  0.09968914  0.48655263  0.19128769  1
  Bi2+  Bi101  1  0.12624554  0.50043976  0.72414882  1
  Bi2+  Bi102  1  0.09073199  0.67498041  0.24553080  1
  Bi2+  Bi103  1  0.12449639  0.76309476  0.70725195  1
  Bi2+  Bi104  1  0.35801453  -0.03057705  0.20298973  1
  Bi2+  Bi105  1  0.37787052  -0.01638852  0.70546712  1
  Bi2+  Bi106  1  0.40439597  0.22937841  0.21967050  1
  Bi2+  Bi107  1  0.36566755  0.24710402  0.70984532  1
  Bi2+  Bi108  1  0.36280559  0.45591896  0.20687151  1
  Bi2+  Bi109  1  0.39370176  0.52317946  0.70127878  1
  Bi2+  Bi110  1  0.34903795  0.71632513  0.22271412  1
  Bi2+  Bi111  1  0.31779090  0.79057105  0.70377748  1
  Bi2+  Bi112  1  0.63202808  0.10247583  0.19532734  1
  Bi2+  Bi113  1  0.64154115  0.00139211  0.70603739  1
  Bi2+  Bi114  1  0.58086088  0.28849038  0.17768669  1
  Bi2+  Bi115  1  0.64418784  0.25880104  0.71960059  1
  Bi2+  Bi116  1  0.66295194  0.47796933  0.20059531  1
  Bi2+  Bi117  1  0.63789785  0.48850178  0.70421266  1
  Bi2+  Bi118  1  0.70065188  0.75108363  0.21532928  1
  Bi2+  Bi119  1  0.71519908  0.76620423  0.71714830  1
  Bi2+  Bi120  1  0.87451132  0.01917700  0.20631832  1
  Bi2+  Bi121  1  0.83585833  0.04407343  0.70235326  1
  Bi2+  Bi122  1  0.87543035  0.29427172  0.21320317  1
  Bi2+  Bi123  1  0.83700597  0.24326308  0.69732977  1
  Bi2+  Bi124  1  0.91585944  0.57000145  0.19979078  1
  Bi2+  Bi125  1  0.84327095  0.53961466  0.71899242  1
  Bi2+  Bi126  1  0.88410587  0.75858762  0.18025704  1
  Bi2+  Bi127  1  0.90379362  0.72452416  0.69027006  1
  S2-  S128  1  0.04034460  0.07984728  0.18951407  1
  S2-  S129  1  0.01026469  0.13455400  0.65098947  1
  S2-  S130  1  0.01029627  0.29254151  0.14592909  1
  S2-  S131  1  0.07151245  0.38199009  0.65503293  1
  S2-  S132  1  0.12306440  0.64145956  0.14492936  1
  S2-  S133  1  0.04069255  0.61871745  0.66136354  1
  S2-  S134  1  0.02475980  0.86303026  0.15362157  1
  S2-  S135  1  -0.00325209  0.86571361  0.65792833  1
  S2-  S136  1  0.25080915  0.04208164  0.14685401  1
  S2-  S137  1  0.22740575  0.21758636  0.65383350  1
  S2-  S138  1  0.27947616  0.34534378  0.14979080  1
  S2-  S139  1  0.26052146  0.38915401  0.72454409  1
  S2-  S140  1  0.33433168  0.59838702  0.15054373  1
  S2-  S141  1  0.25048412  0.54975595  0.64984724  1
  S2-  S142  1  0.24480871  0.84190694  0.17302075  1
  S2-  S143  1  0.25015760  0.99182935  0.63944169  1
  S2-  S144  1  0.48580321  0.04099253  0.14568189  1
  S2-  S145  1  0.41119659  0.12932360  0.65160790  1
  S2-  S146  1  0.50857634  0.45937912  0.14449696  1
  S2-  S147  1  0.41819052  0.37300892  0.64455035  1
  S2-  S148  1  0.49765369  0.63825811  0.21900352  1
  S2-  S149  1  0.48123491  0.64355776  0.65896943  1
  S2-  S150  1  0.46539787  0.83583087  0.18689775  1
  S2-  S151  1  0.50783254  0.91787043  0.65581195  1
  S2-  S152  1  0.83464495  0.15169836  0.14668244  1
  S2-  S153  1  0.62743910  0.13590034  0.64429712  1
  S2-  S154  1  0.77509323  0.39268304  0.14693272  1
  S2-  S155  1  0.73615508  0.36895448  0.65194054  1
  S2-  S156  1  0.66658273  0.62448198  0.14317270  1
  S2-  S157  1  0.73012728  0.62913208  0.65071610  1
  S2-  S158  1  0.67071127  0.87924171  0.14626740  1
  S2-  S159  1  0.74663427  0.89784812  0.64611669  1
  S2-  S160  1  0.20975538  -0.01418127  0.30444024  1
  S2-  S161  1  0.21702521  -0.00067661  0.86573239  1
  S2-  S162  1  0.11470005  0.16822317  0.35142054  1
  S2-  S163  1  0.15119555  0.22620166  0.84283747  1
  S2-  S164  1  0.12161522  0.46345620  0.35139668  1
  S2-  S165  1  0.10436545  0.43114442  0.80883802  1
  S2-  S166  1  0.11718744  0.81060289  0.35585081  1
  S2-  S167  1  0.12242520  0.68289548  0.85578113  1
  S2-  S168  1  0.38229013  -0.12097987  0.35600146  1
  S2-  S169  1  0.41607299  -0.00162031  0.83342164  1
  S2-  S170  1  0.37399949  0.14083907  0.36062999  1
  S2-  S171  1  0.38967255  0.23881715  0.83945328  1
  S2-  S172  1  0.41796190  0.43244655  0.34116182  1
  S2-  S173  1  0.27625944  0.52379955  0.84846409  1
  S2-  S174  1  0.35227167  0.64454137  0.35516412  1
  S2-  S175  1  0.36949385  0.76141031  0.85639095  1
  S2-  S176  1  0.58781988  -0.00920785  0.34777988  1
  S2-  S177  1  0.60239886  -0.02336522  0.80262629  1
  S2-  S178  1  0.59763907  0.22638545  0.34398122  1
  S2-  S179  1  0.63321499  0.17179941  0.85316747  1
  S2-  S180  1  0.63871885  0.51026162  0.34362008  1
  S2-  S181  1  0.49677146  0.50418755  0.85149510  1
  S2-  S182  1  0.57312778  0.74274629  0.34376731  1
  S2-  S183  1  0.61191023  0.76423351  0.84028552  1
  S2-  S184  1  0.97323384  -0.01710751  0.34599039  1
  S2-  S185  1  0.79489066  0.00504493  0.85641315  1
  S2-  S186  1  0.84385713  0.13789292  0.35501342  1
  S2-  S187  1  0.90668649  0.26416445  0.84329327  1
  S2-  S188  1  0.89234882  0.37474691  0.35981560  1
  S2-  S189  1  0.94825738  0.52896117  0.85699110  1
  S2-  S190  1  0.84129788  0.74803373  0.34195201  1
  S2-  S191  1  0.87486593  0.75540589  0.84729054  1
  S2-  S192  1  0.00276661  0.12598112  0.45135303  1
  S2-  S193  1  -0.00187441  0.13324690  0.94743386  1
  S2-  S194  1  0.00707071  0.37742642  0.45907001  1
  S2-  S195  1  0.00093932  0.38664932  0.95312289  1
  S2-  S196  1  0.00641979  0.62610121  0.45625512  1
  S2-  S197  1  0.00169472  0.63648916  0.96389248  1
  S2-  S198  1  0.00087757  0.88436296  0.45421932  1
  S2-  S199  1  0.00111962  0.88129496  0.95006863  1
  S2-  S200  1  0.24989651  0.12451515  0.45757366  1
  S2-  S201  1  0.25101243  0.13654332  0.95858615  1
  S2-  S202  1  0.25482582  0.37554366  0.44403219  1
  S2-  S203  1  0.25108927  0.38384400  0.94827962  1
  S2-  S204  1  0.24496527  0.63223298  0.45617431  1
  S2-  S205  1  0.25130947  0.63841677  0.96047047  1
  S2-  S206  1  0.24796678  0.88318712  0.45470267  1
  S2-  S207  1  0.24837590  0.88096067  0.96607802  1
  S2-  S208  1  0.50649102  0.12768596  0.45914190  1
  S2-  S209  1  0.50131517  0.12975182  0.95120826  1
  S2-  S210  1  0.49975265  0.37523239  0.45096716  1
  S2-  S211  1  0.50358162  0.37881442  0.94939269  1
  S2-  S212  1  0.50311144  0.63143795  0.45359465  1
  S2-  S213  1  0.50242949  0.63616497  0.94826757  1
  S2-  S214  1  0.50834302  0.87873654  0.45563168  1
  S2-  S215  1  0.50558746  0.89132198  0.94476880  1
  S2-  S216  1  0.75134640  0.12711050  0.46253364  1
  S2-  S217  1  0.75317686  0.13515472  0.95581856  1
  S2-  S218  1  0.75085205  0.38050419  0.45064603  1
  S2-  S219  1  0.75383338  0.38453077  0.94622824  1
  S2-  S220  1  0.75576812  0.62480394  0.44836095  1
  S2-  S221  1  0.75278178  0.63217581  0.94861462  1
  S2-  S222  1  0.75547340  0.88332209  0.44451864  1
  S2-  S223  1  0.75224353  0.88128233  0.95354369  1
  S2-  S224  1  0.11458199  0.01822365  0.05149785  1
  S2-  S225  1  0.12593984  0.00784148  0.54670343  1
  S2-  S226  1  0.12765826  0.25735627  0.04638209  1
  S2-  S227  1  0.13012882  0.25429276  0.54536177  1
  S2-  S228  1  0.12568259  0.50917075  0.04833722  1
  S2-  S229  1  0.12956102  0.50063733  0.54945476  1
  S2-  S230  1  0.12534484  0.76513157  0.04728794  1
  S2-  S231  1  0.12974236  0.75605850  0.55223056  1
  S2-  S232  1  0.37634012  0.00638047  0.04061755  1
  S2-  S233  1  0.38242501  0.00315704  0.53922678  1
  S2-  S234  1  0.37883044  0.25792918  0.04520388  1
  S2-  S235  1  0.37686716  0.24857938  0.54142080  1
  S2-  S236  1  0.38088504  0.51205814  0.04073033  1
  S2-  S237  1  0.37630814  0.50686997  0.53909476  1
  S2-  S238  1  0.38061290  0.76270421  0.06219166  1
  S2-  S239  1  0.37628825  0.75609946  0.54319411  1
  S2-  S240  1  0.62722022  0.00802969  0.04486785  1
  S2-  S241  1  0.63142192  0.00243395  0.54513191  1
  S2-  S242  1  0.62791737  0.25954138  0.04411175  1
  S2-  S243  1  0.62608101  0.25878985  0.54634559  1
  S2-  S244  1  0.62821103  0.50577008  0.03356676  1
  S2-  S245  1  0.62562722  0.50149049  0.54683216  1
  S2-  S246  1  0.61704396  0.75767583  0.04680246  1
  S2-  S247  1  0.63127229  0.75515749  0.54466780  1
  S2-  S248  1  0.87455074  0.00893890  0.04961001  1
  S2-  S249  1  0.87671848  0.00713195  0.54296597  1
  S2-  S250  1  0.87520772  0.26090279  0.04244050  1
  S2-  S251  1  0.87736442  0.25237492  0.54525516  1
  S2-  S252  1  0.87498214  0.51266229  0.04897126  1
  S2-  S253  1  0.87985089  0.50234383  0.54480100  1
  S2-  S254  1  0.87367318  0.75614973  0.04837066  1
  S2-  S255  1  0.87716159  0.75410762  0.54525981  1
