# generated using pymatgen
data_La6Ce6Pr19Nd20Sm13(BiS2)64
_symmetry_space_group_name_H-M   'P 1'
_cell_length_a   16.13016851
_cell_length_b   16.11691118
_cell_length_c   27.22422066
_cell_angle_alpha   90.42199403
_cell_angle_beta   89.99089255
_cell_angle_gamma   90.10311183
_symmetry_Int_Tables_number   1
_chemical_formula_structural   La6Ce6Pr19Nd20Sm13(BiS2)64
_chemical_formula_sum   'La6 Ce6 Pr19 Nd20 Sm13 Bi64 S128'
_cell_volume   7077.23612806
_cell_formula_units_Z   1
loop_
 _symmetry_equiv_pos_site_id
 _symmetry_equiv_pos_as_xyz
  1  'x, y, z'
loop_
 _atom_type_symbol
 _atom_type_oxidation_number
  La3+  3.0
  Ce3+  3.0
  Pr3+  3.0
  Nd3+  3.0
  Sm3+  3.0
  Bi2+  2.0
  S2-  -2.0
loop_
 _atom_site_type_symbol
 _atom_site_label
 _atom_site_symmetry_multiplicity
 _atom_site_fract_x
 _atom_site_fract_y
 _atom_site_fract_z
 _atom_site_occupancy
  La3+  La0  1  0.23838286  0.39043533  0.56158211  1
  La3+  La1  1  0.11126630  0.24751292  0.42354177  1
  La3+  La2  1  0.62655299  0.27267381  0.88456206  1
  La3+  La3  1  0.87653497  0.74013470  0.91532101  1
  La3+  La4  1  0.73038595  0.63670943  0.58352609  1
  La3+  La5  1  0.74324951  0.62368319  0.10172369  1
  Ce3+  Ce6  1  0.48907357  0.62289080  0.10421983  1
  Ce3+  Ce7  1  0.85823734  0.76157200  0.43875980  1
  Ce3+  Ce8  1  -0.00610831  0.61700010  0.07157151  1
  Ce3+  Ce9  1  -0.01154687  0.13684540  0.56470210  1
  Ce3+  Ce10  1  0.11784032  0.75997004  0.44323754  1
  Ce3+  Ce11  1  0.74249569  0.37668694  0.05988254  1
  Pr3+  Pr12  1  0.24489787  0.88049244  0.56699909  1
  Pr3+  Pr13  1  0.24638440  0.12318884  0.05829374  1
  Pr3+  Pr14  1  0.62126643  0.50872618  0.93871956  1
  Pr3+  Pr15  1  0.86783128  0.24560823  0.94059018  1
  Pr3+  Pr16  1  0.49820878  0.87168828  0.06642875  1
  Pr3+  Pr17  1  0.62382479  0.74492659  0.94573997  1
  Pr3+  Pr18  1  0.73291501  0.88357169  0.57129547  1
  Pr3+  Pr19  1  0.48875632  0.14008106  0.56649050  1
  Pr3+  Pr20  1  0.87137001  0.49386688  0.94136361  1
  Pr3+  Pr21  1  0.49880374  0.37783428  0.06082355  1
  Pr3+  Pr22  1  0.62973613  -0.00205276  0.93132468  1
  Pr3+  Pr23  1  0.11465957  0.50913254  0.43270369  1
  Pr3+  Pr24  1  0.62026730  0.50266274  0.41819935  1
  Pr3+  Pr25  1  0.24502145  0.87006278  0.05665145  1
  Pr3+  Pr26  1  0.74588368  0.87161189  0.06896434  1
  Pr3+  Pr27  1  0.23653132  0.14345856  0.57761761  1
  Pr3+  Pr28  1  -0.00344041  0.12462460  0.06212675  1
  Pr3+  Pr29  1  -0.00686128  0.86507841  0.05811602  1
  Pr3+  Pr30  1  0.49674959  0.12051254  0.06361933  1
  Nd3+  Nd31  1  0.37502007  -0.00435096  0.93442839  1
  Nd3+  Nd32  1  0.24246984  0.62200980  0.06842690  1
  Nd3+  Nd33  1  0.49096690  0.87912375  0.55924912  1
  Nd3+  Nd34  1  0.35724276  0.75366072  0.41707303  1
  Nd3+  Nd35  1  0.49448669  0.39002914  0.55575935  1
  Nd3+  Nd36  1  0.12080083  0.49582443  0.94210677  1
  Nd3+  Nd37  1  0.73894523  0.38788927  0.55863095  1
  Nd3+  Nd38  1  0.36193177  0.26204013  0.42745747  1
  Nd3+  Nd39  1  0.74016533  0.13614990  0.55477417  1
  Nd3+  Nd40  1  0.37210200  0.49476001  0.94353594  1
  Nd3+  Nd41  1  -0.01348985  0.63721664  0.55632296  1
  Nd3+  Nd42  1  0.12592620  0.23784430  0.92045899  1
  Nd3+  Nd43  1  0.61037648  0.01370266  0.43821113  1
  Nd3+  Nd44  1  0.36654981  0.50539953  0.43286612  1
  Nd3+  Nd45  1  0.36285319  0.01149035  0.45103833  1
  Nd3+  Nd46  1  0.11877710  -0.00516538  0.93867010  1
  Nd3+  Nd47  1  0.37496638  0.24446924  0.93309066  1
  Nd3+  Nd48  1  0.37198860  0.74628810  0.94556783  1
  Nd3+  Nd49  1  0.24609504  0.37109165  0.06103314  1
  Nd3+  Nd50  1  0.24395838  0.63521486  0.56301382  1
  Sm3+  Sm51  1  -0.00389429  0.37216960  0.05488209  1
  Sm3+  Sm52  1  0.74488674  0.12079834  0.06406599  1
  Sm3+  Sm53  1  0.61001302  0.76903607  0.42271674  1
  Sm3+  Sm54  1  -0.01105376  0.88258526  0.55760624  1
  Sm3+  Sm55  1  0.12014188  0.74378619  0.93573417  1
  Sm3+  Sm56  1  0.11556184  0.01043179  0.45082542  1
  Sm3+  Sm57  1  0.49286092  0.63705441  0.54389061  1
  Sm3+  Sm58  1  0.61548254  0.25965883  0.43621305  1
  Sm3+  Sm59  1  0.86959432  -0.00415899  0.94467962  1
  Sm3+  Sm60  1  0.86030726  0.51346909  0.44303076  1
  Sm3+  Sm61  1  0.86219862  0.00589096  0.44942016  1
  Sm3+  Sm62  1  0.86802696  0.25920318  0.43877426  1
  Sm3+  Sm63  1  -0.01218857  0.38806799  0.55445353  1
  Bi2+  Bi64  1  -0.03843256  0.11305576  0.30653510  1
  Bi2+  Bi65  1  -0.02042328  0.13920645  0.80361470  1
  Bi2+  Bi66  1  -0.02424319  0.29546949  0.25537164  1
  Bi2+  Bi67  1  0.04178332  0.33203101  0.80850665  1
  Bi2+  Bi68  1  0.02014476  0.67906388  0.27664495  1
  Bi2+  Bi69  1  0.10249488  0.61997217  0.77612855  1
  Bi2+  Bi70  1  0.04052989  0.87586528  0.28914448  1
  Bi2+  Bi71  1  0.05211730  0.87398236  0.81299331  1
  Bi2+  Bi72  1  0.34552126  0.14428772  0.29529760  1
  Bi2+  Bi73  1  0.24277802  0.12021969  0.78326361  1
  Bi2+  Bi74  1  0.26052697  0.37702159  0.28979397  1
  Bi2+  Bi75  1  0.25726936  0.38794400  0.79301636  1
  Bi2+  Bi76  1  0.19976839  0.60173683  0.28878327  1
  Bi2+  Bi77  1  0.29689274  0.65379522  0.79014293  1
  Bi2+  Bi78  1  0.24082886  0.88385034  0.28996882  1
  Bi2+  Bi79  1  0.24187447  0.85228149  0.79833116  1
  Bi2+  Bi80  1  0.53224412  0.14119437  0.33714455  1
  Bi2+  Bi81  1  0.48849307  0.13265168  0.78376535  1
  Bi2+  Bi82  1  0.50430734  0.31735274  0.28592563  1
  Bi2+  Bi83  1  0.50158378  0.39956867  0.78536742  1
  Bi2+  Bi84  1  0.45371447  0.64390032  0.28309280  1
  Bi2+  Bi85  1  0.48212699  0.64102685  0.72478120  1
  Bi2+  Bi86  1  0.49366133  0.94779653  0.29533869  1
  Bi2+  Bi87  1  0.49327637  0.88545691  0.79202922  1
  Bi2+  Bi88  1  0.72470406  0.14723864  0.29233150  1
  Bi2+  Bi89  1  0.74918585  0.10065210  0.79056415  1
  Bi2+  Bi90  1  0.77898583  0.34393856  0.29384297  1
  Bi2+  Bi91  1  0.85900287  0.36370411  0.78040983  1
  Bi2+  Bi92  1  0.76143574  0.61260530  0.30157407  1
  Bi2+  Bi93  1  0.72260218  0.58385041  0.80680913  1
  Bi2+  Bi94  1  0.77442834  0.87280902  0.30355627  1
  Bi2+  Bi95  1  0.67601594  0.84100024  0.82129052  1
  Bi2+  Bi96  1  0.13091737  0.04416409  0.26194109  1
  Bi2+  Bi97  1  0.07414405  -0.01879808  0.71562913  1
  Bi2+  Bi98  1  0.13578028  0.23230508  0.20451569  1
  Bi2+  Bi99  1  0.12936106  0.24178242  0.72124247  1
  Bi2+  Bi100  1  0.11018013  0.49702464  0.20579442  1
  Bi2+  Bi101  1  0.11194897  0.46084947  0.70702988  1
  Bi2+  Bi102  1  0.12512353  0.78778537  0.19515415  1
  Bi2+  Bi103  1  0.20011136  0.73419636  0.69957944  1
  Bi2+  Bi104  1  0.37756431  0.02538913  0.20406951  1
  Bi2+  Bi105  1  0.35759379  -0.09840592  0.70950215  1
  Bi2+  Bi106  1  0.42144193  0.22174279  0.19375460  1
  Bi2+  Bi107  1  0.37476145  0.23886249  0.69181877  1
  Bi2+  Bi108  1  0.35354608  0.49088183  0.21734393  1
  Bi2+  Bi109  1  0.34691627  0.50227520  0.71505289  1
  Bi2+  Bi110  1  0.35351775  0.76846217  0.21693435  1
  Bi2+  Bi111  1  0.37931364  0.74595549  0.64194956  1
  Bi2+  Bi112  1  0.62669715  0.02065837  0.21681476  1
  Bi2+  Bi113  1  0.63729640  -0.03087928  0.72988174  1
  Bi2+  Bi114  1  0.61518811  0.21832538  0.19624897  1
  Bi2+  Bi115  1  0.62776946  0.23205209  0.67975358  1
  Bi2+  Bi116  1  0.61066036  0.47566630  0.22238474  1
  Bi2+  Bi117  1  0.63166398  0.47210348  0.68804457  1
  Bi2+  Bi118  1  0.61708213  0.77154434  0.22491095  1
  Bi2+  Bi119  1  0.62811242  0.77141758  0.71583614  1
  Bi2+  Bi120  1  0.85017576  0.04906994  0.21775671  1
  Bi2+  Bi121  1  0.89661241  -0.03189502  0.76341705  1
  Bi2+  Bi122  1  0.81643664  0.23634422  0.19202380  1
  Bi2+  Bi123  1  0.87585496  0.17556289  0.70936728  1
  Bi2+  Bi124  1  0.86670679  0.48343915  0.21540106  1
  Bi2+  Bi125  1  0.91675309  0.51252374  0.71429178  1
  Bi2+  Bi126  1  0.88856414  0.77858366  0.21167202  1
  Bi2+  Bi127  1  0.89879963  0.76303893  0.71090117  1
  S2-  S128  1  0.02904524  0.13221615  0.16075386  1
  S2-  S129  1  0.03435959  0.13344580  0.65871957  1
  S2-  S130  1  -0.00754659  0.41249651  0.15142567  1
  S2-  S131  1  -0.01276717  0.38615070  0.65314695  1
  S2-  S132  1  0.11901141  0.62940416  0.14298235  1
  S2-  S133  1  -0.02043125  0.64499710  0.65686549  1
  S2-  S134  1  -0.01087739  0.88158647  0.15871552  1
  S2-  S135  1  -0.03187238  0.87602522  0.65551139  1
  S2-  S136  1  0.26201556  0.14464646  0.15773122  1
  S2-  S137  1  0.28298101  0.10618717  0.67733021  1
  S2-  S138  1  0.23134820  0.39309519  0.16071343  1
  S2-  S139  1  0.23491366  0.28620986  0.64226221  1
  S2-  S140  1  0.33665049  0.62734903  0.15512090  1
  S2-  S141  1  0.23710156  0.51756944  0.63765130  1
  S2-  S142  1  0.26374432  0.88511176  0.15609898  1
  S2-  S143  1  0.19159799  0.90404064  0.66292142  1
  S2-  S144  1  0.50309742  0.00122645  0.13952126  1
  S2-  S145  1  0.49702753  0.11784594  0.66760088  1
  S2-  S146  1  0.48809099  0.45868734  0.15227339  1
  S2-  S147  1  0.49459041  0.35738165  0.65474919  1
  S2-  S148  1  0.61666206  0.61879193  0.17610944  1
  S2-  S149  1  0.56953013  0.60405516  0.63135290  1
  S2-  S150  1  0.49275862  0.78283525  0.15670086  1
  S2-  S151  1  0.59490136  0.89253693  0.63967522  1
  S2-  S152  1  0.74692522  0.00737660  0.14047984  1
  S2-  S153  1  0.74839043  0.10933168  0.65308260  1
  S2-  S154  1  0.73907268  0.45138583  0.15073015  1
  S2-  S155  1  0.74135286  0.35475265  0.65667816  1
  S2-  S156  1  0.89265600  0.61750199  0.15853090  1
  S2-  S157  1  0.76613052  0.56343718  0.67810033  1
  S2-  S158  1  0.73819509  0.78473250  0.16002055  1
  S2-  S159  1  0.76929710  0.77155783  0.65001270  1
  S2-  S160  1  0.10956063  0.08305552  0.36260652  1
  S2-  S161  1  0.12136438  0.09093174  0.85599982  1
  S2-  S162  1  0.23891827  0.24752125  0.35272769  1
  S2-  S163  1  0.25621023  0.25396916  0.85283071  1
  S2-  S164  1  0.12511470  0.46506058  0.33441690  1
  S2-  S165  1  0.13028421  0.48531628  0.84278646  1
  S2-  S166  1  0.20758690  0.76641769  0.36031391  1
  S2-  S167  1  0.02545395  0.71328716  0.85490250  1
  S2-  S168  1  0.34455291  -0.00820837  0.35223339  1
  S2-  S169  1  0.36629944  0.05309126  0.83902875  1
  S2-  S170  1  0.38821435  0.39053095  0.35363106  1
  S2-  S171  1  0.46162938  0.26662025  0.84508041  1
  S2-  S172  1  0.34451157  0.60682065  0.35201183  1
  S2-  S173  1  0.38273203  0.48367635  0.84380935  1
  S2-  S174  1  0.46123439  0.78668488  0.33858955  1
  S2-  S175  1  0.38249678  0.77896557  0.84749364  1
  S2-  S176  1  0.63247351  -0.07624024  0.35462470  1
  S2-  S177  1  0.60172961  0.10351450  0.85058929  1
  S2-  S178  1  0.63682222  0.35429954  0.35429590  1
  S2-  S179  1  0.61919857  0.27427705  0.77109751  1
  S2-  S180  1  0.59737134  0.54738813  0.31819042  1
  S2-  S181  1  0.63483252  0.43925678  0.84410500  1
  S2-  S182  1  0.66423706  0.73591009  0.32732171  1
  S2-  S183  1  0.60735792  0.64687474  0.85883776  1
  S2-  S184  1  0.86217613  -0.01806840  0.35200738  1
  S2-  S185  1  0.77430103  -0.02194761  0.86338186  1
  S2-  S186  1  0.97159916  0.26380995  0.35891125  1
  S2-  S187  1  0.79321243  0.24721392  0.84977355  1
  S2-  S188  1  0.85129232  0.48568582  0.34571142  1
  S2-  S189  1  0.87099604  0.50768850  0.83979236  1
  S2-  S190  1  0.87320365  0.73216822  0.34139445  1
  S2-  S191  1  0.81289343  0.72784568  0.81806384  1
  S2-  S192  1  -0.01669680  0.12891709  0.46056311  1
  S2-  S193  1  -0.00627514  0.12085201  0.95500850  1
  S2-  S194  1  -0.01474648  0.38997098  0.45153718  1
  S2-  S195  1  0.00043639  0.36600164  0.94978769  1
  S2-  S196  1  -0.01178566  0.63533649  0.44866174  1
  S2-  S197  1  -0.00310681  0.61907402  0.96052606  1
  S2-  S198  1  -0.00916821  0.88594229  0.45242631  1
  S2-  S199  1  -0.00677449  0.87013421  0.95125116  1
  S2-  S200  1  0.23999430  0.13376168  0.46640783  1
  S2-  S201  1  0.24817267  0.11835115  0.95393330  1
  S2-  S202  1  0.23668760  0.38466171  0.45351194  1
  S2-  S203  1  0.24428385  0.36975198  0.95481729  1
  S2-  S204  1  0.23685471  0.63050500  0.45826962  1
  S2-  S205  1  0.24429190  0.62251353  0.95181090  1
  S2-  S206  1  0.23806403  0.88889788  0.46000063  1
  S2-  S207  1  0.24273633  0.87095279  0.94875702  1
  S2-  S208  1  0.48690015  0.13979625  0.45837337  1
  S2-  S209  1  0.49251376  0.11890208  0.95723570  1
  S2-  S210  1  0.49474091  0.38111275  0.45180019  1
  S2-  S211  1  0.49993040  0.37300446  0.95414884  1
  S2-  S212  1  0.49772235  0.63386446  0.44106558  1
  S2-  S213  1  0.48842941  0.62280272  0.95610000  1
  S2-  S214  1  0.48813603  0.88717464  0.45381335  1
  S2-  S215  1  0.49868410  0.87269150  0.95383229  1
  S2-  S216  1  0.74259232  0.13561199  0.44768286  1
  S2-  S217  1  0.75029595  0.12062688  0.96107444  1
  S2-  S218  1  0.74691792  0.38098540  0.45348777  1
  S2-  S219  1  0.74238976  0.37132209  0.95376702  1
  S2-  S220  1  0.73633055  0.63583101  0.44320147  1
  S2-  S221  1  0.75592591  0.62457490  0.94979208  1
  S2-  S222  1  0.73679921  0.88579389  0.46018447  1
  S2-  S223  1  0.75629869  0.86257519  0.96106355  1
  S2-  S224  1  0.11941845  -0.00358971  0.04640188  1
  S2-  S225  1  0.11403809  0.00847460  0.55456687  1
  S2-  S226  1  0.12057368  0.24886989  0.04355946  1
  S2-  S227  1  0.10708323  0.26260973  0.54143399  1
  S2-  S228  1  0.12090852  0.49265711  0.04650140  1
  S2-  S229  1  0.10772174  0.51315522  0.54077912  1
  S2-  S230  1  0.12063727  0.74562237  0.03994742  1
  S2-  S231  1  0.11491304  0.75893906  0.55060041  1
  S2-  S232  1  0.36825737  -0.00466918  0.04202085  1
  S2-  S233  1  0.36692690  0.00955274  0.55769400  1
  S2-  S234  1  0.37307198  0.24909745  0.04537284  1
  S2-  S235  1  0.36810295  0.26452496  0.54205160  1
  S2-  S236  1  0.36651621  0.49811086  0.04878381  1
  S2-  S237  1  0.37189643  0.51301993  0.53992248  1
  S2-  S238  1  0.36938431  0.74602540  0.04973480  1
  S2-  S239  1  0.36638010  0.75713470  0.52784412  1
  S2-  S240  1  0.62440954  -0.00227962  0.03850150  1
  S2-  S241  1  0.61272769  0.01523635  0.54328844  1
  S2-  S242  1  0.62264244  0.24631115  0.05922300  1
  S2-  S243  1  0.61700580  0.26069907  0.54186586  1
  S2-  S244  1  0.62187278  0.50553905  0.04791750  1
  S2-  S245  1  0.61996729  0.50917993  0.53059238  1
  S2-  S246  1  0.62024890  0.74267215  0.05221258  1
  S2-  S247  1  0.61539941  0.75795346  0.53534053  1
  S2-  S248  1  0.87522071  -0.00155869  0.04722964  1
  S2-  S249  1  0.86447052  0.00645409  0.55399165  1
  S2-  S250  1  0.87002614  0.24849958  0.04904770  1
  S2-  S251  1  0.86506508  0.26216956  0.54473890  1
  S2-  S252  1  0.87133531  0.49321768  0.04696912  1
  S2-  S253  1  0.86147544  0.51375068  0.54898977  1
  S2-  S254  1  0.86901684  0.74246556  0.05293156  1
  S2-  S255  1  0.86286104  0.76004492  0.54383753  1
