# generated using pymatgen
data_La6Ce6Pr19Nd20Sm13(BiS2)64
_symmetry_space_group_name_H-M   'P 1'
_cell_length_a   16.07538466
_cell_length_b   16.04962604
_cell_length_c   27.27528209
_cell_angle_alpha   89.77755063
_cell_angle_beta   89.84205665
_cell_angle_gamma   89.87413941
_symmetry_Int_Tables_number   1
_chemical_formula_structural   La6Ce6Pr19Nd20Sm13(BiS2)64
_chemical_formula_sum   'La6 Ce6 Pr19 Nd20 Sm13 Bi64 S128'
_cell_volume   7037.03289840
_cell_formula_units_Z   1
loop_
 _symmetry_equiv_pos_site_id
 _symmetry_equiv_pos_as_xyz
  1  'x, y, z'
loop_
 _atom_type_symbol
 _atom_type_oxidation_number
  La3+  3.0
  Ce3+  3.0
  Pr3+  3.0
  Nd3+  3.0
  Sm3+  3.0
  Bi2+  2.0
  S2-  -2.0
loop_
 _atom_site_type_symbol
 _atom_site_label
 _atom_site_symmetry_multiplicity
 _atom_site_fract_x
 _atom_site_fract_y
 _atom_site_fract_z
 _atom_site_occupancy
  La3+  La0  1  0.85882285  0.26208005  0.39556789  1
  La3+  La1  1  0.12492418  0.25247683  0.41140661  1
  La3+  La2  1  0.89518840  0.74204629  0.90239467  1
  La3+  La3  1  0.48793253  0.36477203  0.57980537  1
  La3+  La4  1  0.86408667  -0.01782538  0.40172759  1
  La3+  La5  1  0.00226048  0.86912348  0.08021651  1
  Ce3+  Ce6  1  0.62178848  0.24515756  0.44797834  1
  Ce3+  Ce7  1  0.37135766  0.74465446  0.93280225  1
  Ce3+  Ce8  1  0.49746604  0.12134741  0.05660367  1
  Ce3+  Ce9  1  0.36342984  0.24390937  0.92841965  1
  Ce3+  Ce10  1  0.37288457  -0.00205823  0.43913655  1
  Ce3+  Ce11  1  0.62912390  0.49728291  0.93125988  1
  Pr3+  Pr12  1  0.62798850  -0.00312643  0.93877503  1
  Pr3+  Pr13  1  0.37438753  0.50040585  0.43848158  1
  Pr3+  Pr14  1  0.37048044  -0.00136651  0.93264794  1
  Pr3+  Pr15  1  0.74880124  0.86402635  0.06281447  1
  Pr3+  Pr16  1  0.37080336  0.25211492  0.43119779  1
  Pr3+  Pr17  1  0.49791629  0.37065567  0.05152681  1
  Pr3+  Pr18  1  0.49727579  0.61457301  0.57420604  1
  Pr3+  Pr19  1  0.11825459  -0.00411405  0.94512743  1
  Pr3+  Pr20  1  0.22894342  0.11809678  0.55651322  1
  Pr3+  Pr21  1  0.74802987  0.62104775  0.57160908  1
  Pr3+  Pr22  1  0.62906054  0.74744908  0.92621883  1
  Pr3+  Pr23  1  0.11705200  0.49792288  0.43882096  1
  Pr3+  Pr24  1  -0.00497238  0.62173562  0.56757345  1
  Pr3+  Pr25  1  0.24546394  0.62236979  0.56179338  1
  Pr3+  Pr26  1  0.37003971  0.50301550  0.89477550  1
  Pr3+  Pr27  1  0.87441029  0.24765214  0.94172812  1
  Pr3+  Pr28  1  -0.00192512  0.62102909  0.07365616  1
  Pr3+  Pr29  1  0.00598970  0.88338202  0.56936734  1
  Pr3+  Pr30  1  0.25210509  0.87161287  0.06491984  1
  Nd3+  Nd31  1  0.23977532  0.36664119  0.56375294  1
  Nd3+  Nd32  1  0.26498034  0.61702715  0.07131229  1
  Nd3+  Nd33  1  0.49185697  0.86837629  0.56230929  1
  Nd3+  Nd34  1  0.13165490  -0.00687653  0.41051302  1
  Nd3+  Nd35  1  0.74525321  0.87921869  0.57331339  1
  Nd3+  Nd36  1  0.12771169  0.49661525  0.94603421  1
  Nd3+  Nd37  1  0.62388779  0.49197528  0.44889899  1
  Nd3+  Nd38  1  -0.00510187  0.36462713  0.07582429  1
  Nd3+  Nd39  1  0.25035919  0.12670932  0.07096576  1
  Nd3+  Nd40  1  0.24655836  0.37419379  0.07099433  1
  Nd3+  Nd41  1  0.87577347  -0.00484077  0.94160949  1
  Nd3+  Nd42  1  0.74830215  0.11060158  0.07354391  1
  Nd3+  Nd43  1  0.74822239  0.36385706  0.57046825  1
  Nd3+  Nd44  1  0.12190823  0.24588496  0.94597357  1
  Nd3+  Nd45  1  0.48603804  0.11860676  0.56848271  1
  Nd3+  Nd46  1  0.61983631  -0.00285397  0.43667452  1
  Nd3+  Nd47  1  0.00128027  0.11685722  0.08540331  1
  Nd3+  Nd48  1  0.11383287  0.75078215  0.43602692  1
  Nd3+  Nd49  1  0.87916094  0.49387604  0.94239021  1
  Nd3+  Nd50  1  -0.00883115  0.11841221  0.52679167  1
  Sm3+  Sm51  1  0.49745759  0.86994827  0.04867033  1
  Sm3+  Sm52  1  0.62448178  0.24710666  0.94246046  1
  Sm3+  Sm53  1  0.74703678  0.37050800  0.05846716  1
  Sm3+  Sm54  1  0.49723288  0.61768916  0.04225739  1
  Sm3+  Sm55  1  0.86866751  0.75047159  0.45303485  1
  Sm3+  Sm56  1  0.86927719  0.49534005  0.44985497  1
  Sm3+  Sm57  1  0.75050083  0.62630218  0.05312792  1
  Sm3+  Sm58  1  0.37627073  0.74088887  0.43480434  1
  Sm3+  Sm59  1  0.74876645  0.11998878  0.55394899  1
  Sm3+  Sm60  1  0.00047032  0.36331292  0.55652062  1
  Sm3+  Sm61  1  0.24465215  0.87039467  0.55139847  1
  Sm3+  Sm62  1  0.62422267  0.74727170  0.45088770  1
  Sm3+  Sm63  1  0.12476806  0.74470446  0.95192128  1
  Bi2+  Bi64  1  -0.01278207  0.12783105  0.27534046  1
  Bi2+  Bi65  1  -0.00614424  0.15393814  0.84710217  1
  Bi2+  Bi66  1  0.00233866  0.42429356  0.29203118  1
  Bi2+  Bi67  1  0.01055953  0.34451904  0.80128198  1
  Bi2+  Bi68  1  0.07190238  0.62141678  0.32933207  1
  Bi2+  Bi69  1  0.07673122  0.57408881  0.79699894  1
  Bi2+  Bi70  1  0.00933879  0.79443790  0.27963946  1
  Bi2+  Bi71  1  -0.00264151  0.97882803  0.79314223  1
  Bi2+  Bi72  1  0.31134165  0.09229446  0.27821185  1
  Bi2+  Bi73  1  0.23410301  0.12877770  0.79080329  1
  Bi2+  Bi74  1  0.27187490  0.36387923  0.28984606  1
  Bi2+  Bi75  1  0.25530761  0.36987309  0.78841080  1
  Bi2+  Bi76  1  0.26647380  0.62575014  0.29480773  1
  Bi2+  Bi77  1  0.24219022  0.67519192  0.75928190  1
  Bi2+  Bi78  1  0.27173152  0.82767059  0.29830831  1
  Bi2+  Bi79  1  0.23468739  0.88017896  0.78077750  1
  Bi2+  Bi80  1  0.49048484  0.05781732  0.32632280  1
  Bi2+  Bi81  1  0.47332015  0.10878581  0.77099711  1
  Bi2+  Bi82  1  0.51510616  0.34496181  0.29082731  1
  Bi2+  Bi83  1  0.52651527  0.37210215  0.78837858  1
  Bi2+  Bi84  1  0.54367715  0.56077947  0.26727342  1
  Bi2+  Bi85  1  0.45917834  0.73317084  0.78127748  1
  Bi2+  Bi86  1  0.46873293  0.84732720  0.29497898  1
  Bi2+  Bi87  1  0.42033205  0.91772737  0.80953250  1
  Bi2+  Bi88  1  0.65630249  0.14681459  0.29820743  1
  Bi2+  Bi89  1  0.80545734  0.12901932  0.82241991  1
  Bi2+  Bi90  1  0.71558432  0.43443812  0.29697966  1
  Bi2+  Bi91  1  0.76338102  0.31543348  0.79686797  1
  Bi2+  Bi92  1  0.87634685  0.65087883  0.30666367  1
  Bi2+  Bi93  1  0.82213554  0.54947432  0.78873645  1
  Bi2+  Bi94  1  0.71695604  0.84979160  0.29510197  1
  Bi2+  Bi95  1  0.73442875  0.86582568  0.80109531  1
  Bi2+  Bi96  1  0.11154478  -0.01641035  0.21839298  1
  Bi2+  Bi97  1  0.16000312  0.02818425  0.68969477  1
  Bi2+  Bi98  1  0.14392858  0.25744897  0.20207682  1
  Bi2+  Bi99  1  0.11209756  0.23617886  0.72309466  1
  Bi2+  Bi100  1  0.10698840  0.53654901  0.21736076  1
  Bi2+  Bi101  1  0.14046587  0.44865705  0.70655847  1
  Bi2+  Bi102  1  0.16887680  0.72408345  0.20631608  1
  Bi2+  Bi103  1  0.06898048  0.77022649  0.76283764  1
  Bi2+  Bi104  1  0.35851397  -0.05324334  0.19706859  1
  Bi2+  Bi105  1  0.39751026  -0.02857460  0.69739546  1
  Bi2+  Bi106  1  0.40064316  0.23570713  0.22148534  1
  Bi2+  Bi107  1  0.36638984  0.24199473  0.71040735  1
  Bi2+  Bi108  1  0.40425362  0.49640408  0.19732430  1
  Bi2+  Bi109  1  0.38375474  0.51812449  0.70131722  1
  Bi2+  Bi110  1  0.37060202  0.74684787  0.20188723  1
  Bi2+  Bi111  1  0.30113099  0.80392849  0.67601783  1
  Bi2+  Bi112  1  0.54885096  -0.01658209  0.22178800  1
  Bi2+  Bi113  1  0.66733789  0.05595048  0.74900952  1
  Bi2+  Bi114  1  0.59857294  0.25465197  0.20278261  1
  Bi2+  Bi115  1  0.65161424  0.23355508  0.70286673  1
  Bi2+  Bi116  1  0.70957526  0.53757590  0.19715581  1
  Bi2+  Bi117  1  0.64756209  0.50286794  0.72468357  1
  Bi2+  Bi118  1  0.64129644  0.71707189  0.22430493  1
  Bi2+  Bi119  1  0.59102411  0.78368285  0.70159525  1
  Bi2+  Bi120  1  0.82828487  0.01831735  0.21260877  1
  Bi2+  Bi121  1  0.94019412  0.03756132  0.69392551  1
  Bi2+  Bi122  1  0.84637437  0.28127632  0.21682936  1
  Bi2+  Bi123  1  0.90589532  0.22127757  0.72799102  1
  Bi2+  Bi124  1  0.91140328  0.55161633  0.20459606  1
  Bi2+  Bi125  1  0.95050576  0.49333714  0.71201603  1
  Bi2+  Bi126  1  0.85296876  0.76203262  0.20846254  1
  Bi2+  Bi127  1  0.85718587  0.74012643  0.70070749  1
  S2-  S128  1  -0.02929425  0.24337640  0.15681123  1
  S2-  S129  1  0.06613669  0.09489869  0.61830447  1
  S2-  S130  1  0.10330324  0.39045955  0.15424655  1
  S2-  S131  1  0.11068882  0.33029133  0.63075294  1
  S2-  S132  1  -0.00981284  0.73659286  0.15098058  1
  S2-  S133  1  -0.00641336  0.64684797  0.66679678  1
  S2-  S134  1  -0.03380259  0.98903000  0.15810232  1
  S2-  S135  1  -0.06783980  0.87286523  0.66235754  1
  S2-  S136  1  0.14360339  0.10477430  0.15431387  1
  S2-  S137  1  0.31206879  0.11058567  0.64677680  1
  S2-  S138  1  0.28157299  0.25390422  0.14528951  1
  S2-  S139  1  0.34354531  0.37232516  0.64726335  1
  S2-  S140  1  0.27053820  0.49708726  0.14564439  1
  S2-  S141  1  0.23392305  0.58310066  0.65994913  1
  S2-  S142  1  0.15793472  0.87865060  0.15129504  1
  S2-  S143  1  0.15299075  0.88147866  0.63557602  1
  S2-  S144  1  0.51487661  0.12162833  0.15433075  1
  S2-  S145  1  0.50711992  0.22554283  0.64761376  1
  S2-  S146  1  0.51410710  0.38487138  0.15170786  1
  S2-  S147  1  0.52113446  0.49100950  0.65291837  1
  S2-  S148  1  0.43386503  0.63097290  0.13403679  1
  S2-  S149  1  0.45781119  0.70050405  0.66034551  1
  S2-  S150  1  0.49269753  0.86536996  0.14673100  1
  S2-  S151  1  0.54382596  0.92638343  0.65110132  1
  S2-  S152  1  0.76259677  0.16701084  0.16984016  1
  S2-  S153  1  0.72934836  0.10648209  0.65170665  1
  S2-  S154  1  0.75913738  0.38367447  0.15614173  1
  S2-  S155  1  0.72957014  0.38314887  0.67008176  1
  S2-  S156  1  0.72685902  0.72967826  0.13363565  1
  S2-  S157  1  0.72660646  0.62261533  0.67272992  1
  S2-  S158  1  0.73266277  0.97160191  0.14418613  1
  S2-  S159  1  0.73265156  0.84917097  0.67289782  1
  S2-  S160  1  0.12037895  0.06941404  0.31425038  1
  S2-  S161  1  0.15747527  -0.00244079  0.84625586  1
  S2-  S162  1  0.00657710  0.27121007  0.33484210  1
  S2-  S163  1  0.21339804  0.24998653  0.86036988  1
  S2-  S164  1  0.15088313  0.41485502  0.35126795  1
  S2-  S165  1  0.20610701  0.49034518  0.85494834  1
  S2-  S166  1  0.10890976  0.84811285  0.35196265  1
  S2-  S167  1  0.06037429  0.75995926  0.86047884  1
  S2-  S168  1  0.28998569  -0.02126639  0.35451395  1
  S2-  S169  1  0.37705957  0.11500221  0.85615763  1
  S2-  S170  1  0.26616185  0.22903143  0.34618903  1
  S2-  S171  1  0.39587773  0.34445097  0.84885868  1
  S2-  S172  1  0.39926500  0.38833458  0.36019847  1
  S2-  S173  1  0.45003615  0.51562970  0.79525252  1
  S2-  S174  1  0.38796081  0.62389806  0.36280360  1
  S2-  S175  1  0.33998721  0.66471290  0.84929869  1
  S2-  S176  1  0.70889674  -0.00768861  0.35058098  1
  S2-  S177  1  0.62582431  -0.02540299  0.83938573  1
  S2-  S178  1  0.67311096  0.29154218  0.35847649  1
  S2-  S179  1  0.61769551  0.25154509  0.84403831  1
  S2-  S180  1  0.63529178  0.54556936  0.35418268  1
  S2-  S181  1  0.66522712  0.50198249  0.83379368  1
  S2-  S182  1  0.60096523  0.77923343  0.35467007  1
  S2-  S183  1  0.61152347  0.74505581  0.82521206  1
  S2-  S184  1  0.92169581  -0.01386108  0.30325685  1
  S2-  S185  1  0.87659814  -0.09491558  0.85403333  1
  S2-  S186  1  0.82196885  0.18194367  0.30541931  1
  S2-  S187  1  0.87840984  0.37044831  0.86495816  1
  S2-  S188  1  0.86134337  0.43362877  0.35709347  1
  S2-  S189  1  0.93788908  0.57702920  0.85985168  1
  S2-  S190  1  0.84669953  0.80662723  0.36122373  1
  S2-  S191  1  0.82341408  0.71759453  0.80511846  1
  S2-  S192  1  -0.01184726  0.11531840  0.42497224  1
  S2-  S193  1  -0.00334370  0.12102828  0.96825996  1
  S2-  S194  1  -0.01040222  0.37058568  0.45352781  1
  S2-  S195  1  0.00231930  0.37172619  0.96700226  1
  S2-  S196  1  -0.01141492  0.62315334  0.45979558  1
  S2-  S197  1  0.00372594  0.62237679  0.96688464  1
  S2-  S198  1  -0.01248411  0.87394305  0.45468613  1
  S2-  S199  1  -0.00107406  0.86907714  0.96407876  1
  S2-  S200  1  0.24725995  0.12038823  0.44881984  1
  S2-  S201  1  0.24428060  0.11702782  0.96334515  1
  S2-  S202  1  0.24734982  0.37688574  0.45844378  1
  S2-  S203  1  0.24712164  0.37069533  0.96181256  1
  S2-  S204  1  0.24078072  0.62588810  0.45440915  1
  S2-  S205  1  0.24925815  0.62236641  0.96033444  1
  S2-  S206  1  0.25211788  0.86043203  0.45017529  1
  S2-  S207  1  0.24799065  0.87074453  0.95420479  1
  S2-  S208  1  0.49545614  0.12362925  0.45893249  1
  S2-  S209  1  0.50283763  0.12208116  0.95124687  1
  S2-  S210  1  0.50050569  0.37066824  0.46645822  1
  S2-  S211  1  0.50576668  0.37494956  0.94657149  1
  S2-  S212  1  0.50490599  0.62252424  0.46595780  1
  S2-  S213  1  0.49982879  0.61893118  0.93783348  1
  S2-  S214  1  0.49573297  0.86914803  0.45539472  1
  S2-  S215  1  0.49841441  0.87111730  0.94381763  1
  S2-  S216  1  0.75415137  0.12379167  0.44865992  1
  S2-  S217  1  0.74908965  0.12218911  0.95924764  1
  S2-  S218  1  0.75114063  0.36854341  0.46517160  1
  S2-  S219  1  0.74557519  0.37185826  0.95565406  1
  S2-  S220  1  0.74778895  0.62253726  0.46296929  1
  S2-  S221  1  0.75629478  0.62531650  0.94796404  1
  S2-  S222  1  0.74214348  0.87378604  0.46463466  1
  S2-  S223  1  0.75075274  0.86893378  0.95361511  1
  S2-  S224  1  0.12668738  -0.00305697  0.04978423  1
  S2-  S225  1  0.12319768  -0.00946919  0.51939200  1
  S2-  S226  1  0.12040795  0.24535305  0.05068947  1
  S2-  S227  1  0.11526791  0.24381703  0.52178657  1
  S2-  S228  1  0.12299915  0.50004555  0.05035181  1
  S2-  S229  1  0.11668473  0.49735665  0.54605710  1
  S2-  S230  1  0.13354275  0.73949782  0.05398987  1
  S2-  S231  1  0.11790693  0.74552777  0.54349164  1
  S2-  S232  1  0.37395521  -0.00364349  0.04397106  1
  S2-  S233  1  0.36743729  -0.00736809  0.54479403  1
  S2-  S234  1  0.37656030  0.24471201  0.03815853  1
  S2-  S235  1  0.36290249  0.23983373  0.54088597  1
  S2-  S236  1  0.37762139  0.49393137  0.03787636  1
  S2-  S237  1  0.36840324  0.49773890  0.54616262  1
  S2-  S238  1  0.37523547  0.74849868  0.03832836  1
  S2-  S239  1  0.37072112  0.74448391  0.54029515  1
  S2-  S240  1  0.61943641  -0.00722248  0.04388592  1
  S2-  S241  1  0.61916394  0.00101017  0.54368435  1
  S2-  S242  1  0.62794282  0.24359282  0.04814633  1
  S2-  S243  1  0.62293088  0.24200345  0.55078754  1
  S2-  S244  1  0.62677815  0.50015703  0.04186236  1
  S2-  S245  1  0.62867666  0.49173838  0.55353655  1
  S2-  S246  1  0.61652308  0.74386066  0.03325115  1
  S2-  S247  1  0.62270551  0.74731717  0.55605314  1
  S2-  S248  1  0.87476224  -0.00564033  0.04693072  1
  S2-  S249  1  0.86994974  -0.00321236  0.54956588  1
  S2-  S250  1  0.86633059  0.24394334  0.04897726  1
  S2-  S251  1  0.87644793  0.24141824  0.55951136  1
  S2-  S252  1  0.87081199  0.49645032  0.05140005  1
  S2-  S253  1  0.87375514  0.49053681  0.55620487  1
  S2-  S254  1  0.87606654  0.74394697  0.04600972  1
  S2-  S255  1  0.87024202  0.75088768  0.55664266  1
