# generated using pymatgen
data_La6Ce6Pr19Nd20Sm13(BiS2)64
_symmetry_space_group_name_H-M   'P 1'
_cell_length_a   16.09966208
_cell_length_b   16.15168007
_cell_length_c   27.36245687
_cell_angle_alpha   90.12551305
_cell_angle_beta   90.09844084
_cell_angle_gamma   89.97414702
_symmetry_Int_Tables_number   1
_chemical_formula_structural   La6Ce6Pr19Nd20Sm13(BiS2)64
_chemical_formula_sum   'La6 Ce6 Pr19 Nd20 Sm13 Bi64 S128'
_cell_volume   7115.21172667
_cell_formula_units_Z   1
loop_
 _symmetry_equiv_pos_site_id
 _symmetry_equiv_pos_as_xyz
  1  'x, y, z'
loop_
 _atom_type_symbol
 _atom_type_oxidation_number
  La3+  3.0
  Ce3+  3.0
  Pr3+  3.0
  Nd3+  3.0
  Sm3+  3.0
  Bi2+  2.0
  S2-  -2.0
loop_
 _atom_site_type_symbol
 _atom_site_label
 _atom_site_symmetry_multiplicity
 _atom_site_fract_x
 _atom_site_fract_y
 _atom_site_fract_z
 _atom_site_occupancy
  La3+  La0  1  -0.02458285  0.37145308  0.61059305  1
  La3+  La1  1  -0.00214296  0.38164540  0.04515738  1
  La3+  La2  1  0.74276507  0.87376794  0.57167320  1
  La3+  La3  1  0.49340802  0.38286066  0.07297623  1
  La3+  La4  1  0.37171180  0.51003281  0.38426485  1
  La3+  La5  1  0.10679337  -0.00323055  0.43274960  1
  Ce3+  Ce6  1  0.12874168  0.50584673  0.91577182  1
  Ce3+  Ce7  1  0.74971993  0.12827397  0.06893537  1
  Ce3+  Ce8  1  -0.00714077  0.86824388  0.57385012  1
  Ce3+  Ce9  1  0.86875505  0.75244561  0.94435709  1
  Ce3+  Ce10  1  0.62009953  0.75412566  0.94836557  1
  Ce3+  Ce11  1  0.11414806  0.74583965  0.43662281  1
  Pr3+  Pr12  1  0.37224540  0.50379182  0.93347632  1
  Pr3+  Pr13  1  -0.00072247  0.12336476  0.56977892  1
  Pr3+  Pr14  1  0.49356870  0.63511580  0.06394486  1
  Pr3+  Pr15  1  0.86842501  0.74667978  0.43692517  1
  Pr3+  Pr16  1  0.86037195  0.51078541  0.91941163  1
  Pr3+  Pr17  1  0.11483502  0.00225536  0.93078869  1
  Pr3+  Pr18  1  0.86415112  -0.00069882  0.44631742  1
  Pr3+  Pr19  1  0.86312906  0.00577104  0.93325541  1
  Pr3+  Pr20  1  0.36383312  0.24826783  0.42991257  1
  Pr3+  Pr21  1  0.36645324  0.00127520  0.43286358  1
  Pr3+  Pr22  1  0.24247148  0.88363335  0.05556849  1
  Pr3+  Pr23  1  0.73843515  0.61960819  0.56727720  1
  Pr3+  Pr24  1  -0.00503497  0.88008307  0.06029907  1
  Pr3+  Pr25  1  0.13002654  0.24972831  0.91724725  1
  Pr3+  Pr26  1  -0.00354165  0.62528772  0.05222700  1
  Pr3+  Pr27  1  0.86893978  0.25420734  0.93478355  1
  Pr3+  Pr28  1  0.24264118  0.62212185  0.55757151  1
  Pr3+  Pr29  1  0.74621353  0.62519796  0.06707921  1
  Pr3+  Pr30  1  0.11704920  0.49643140  0.43674579  1
  Nd3+  Nd31  1  0.62064092  0.00422062  0.94298030  1
  Nd3+  Nd32  1  0.49319470  0.87581993  0.56872994  1
  Nd3+  Nd33  1  0.61872735  0.25499667  0.95201136  1
  Nd3+  Nd34  1  0.61641068  0.50488115  0.94019805  1
  Nd3+  Nd35  1  0.24251526  0.37947000  0.05625576  1
  Nd3+  Nd36  1  0.61074168  0.74985063  0.44231718  1
  Nd3+  Nd37  1  0.11912945  0.75152080  0.93706914  1
  Nd3+  Nd38  1  0.36931749  0.00420501  0.94260742  1
  Nd3+  Nd39  1  0.61696813  0.50686640  0.43338996  1
  Nd3+  Nd40  1  0.37093648  0.25327165  0.94089122  1
  Nd3+  Nd41  1  0.87433281  0.49877842  0.43930589  1
  Nd3+  Nd42  1  0.23771816  0.37583264  0.56334329  1
  Nd3+  Nd43  1  -0.01149429  0.62377514  0.57182621  1
  Nd3+  Nd44  1  0.74580889  0.88173922  0.06456876  1
  Nd3+  Nd45  1  0.24135258  0.12279007  0.56092844  1
  Nd3+  Nd46  1  -0.00611576  0.12975159  0.06310303  1
  Nd3+  Nd47  1  0.74707891  0.38146273  0.05626973  1
  Nd3+  Nd48  1  0.24430201  0.62886180  0.05532088  1
  Nd3+  Nd49  1  0.49173751  0.12885937  0.06327640  1
  Nd3+  Nd50  1  0.61587216  -0.00175544  0.44788664  1
  Sm3+  Sm51  1  0.37089798  0.75609446  0.94207762  1
  Sm3+  Sm52  1  0.74109215  0.37526280  0.55281840  1
  Sm3+  Sm53  1  0.49429160  0.62210771  0.56241268  1
  Sm3+  Sm54  1  0.74322560  0.13047703  0.55737112  1
  Sm3+  Sm55  1  0.11630964  0.25158729  0.44494472  1
  Sm3+  Sm56  1  0.24264583  0.87235650  0.55403473  1
  Sm3+  Sm57  1  0.48941234  0.12734600  0.55669662  1
  Sm3+  Sm58  1  0.61448136  0.25362285  0.43863975  1
  Sm3+  Sm59  1  0.48878869  0.37468171  0.55355122  1
  Sm3+  Sm60  1  0.35990407  0.74809340  0.43538503  1
  Sm3+  Sm61  1  0.86850309  0.25221868  0.44553421  1
  Sm3+  Sm62  1  0.49506709  0.88056340  0.06195386  1
  Sm3+  Sm63  1  0.23520477  0.13294478  0.06307734  1
  Bi2+  Bi64  1  -0.05297518  0.12634150  0.28651242  1
  Bi2+  Bi65  1  -0.00998357  0.10168679  0.81474242  1
  Bi2+  Bi66  1  -0.02474888  0.36847566  0.28807123  1
  Bi2+  Bi67  1  -0.03561977  0.35611744  0.81510934  1
  Bi2+  Bi68  1  -0.01552275  0.62587623  0.29047777  1
  Bi2+  Bi69  1  0.00616082  0.63265271  0.79926484  1
  Bi2+  Bi70  1  0.04397631  0.89633919  0.30258264  1
  Bi2+  Bi71  1  0.01883333  0.85354240  0.77961762  1
  Bi2+  Bi72  1  0.30580275  0.12889713  0.27229935  1
  Bi2+  Bi73  1  0.33989818  0.12926490  0.78146857  1
  Bi2+  Bi74  1  0.23323933  0.38405014  0.28666290  1
  Bi2+  Bi75  1  0.32174974  0.37832333  0.70576277  1
  Bi2+  Bi76  1  0.17552395  0.66814337  0.27866055  1
  Bi2+  Bi77  1  0.27941951  0.63083684  0.79881983  1
  Bi2+  Bi78  1  0.27188774  0.90582673  0.29444054  1
  Bi2+  Bi79  1  0.30998415  0.86846614  0.77636440  1
  Bi2+  Bi80  1  0.49514219  0.05897576  0.24758931  1
  Bi2+  Bi81  1  0.54462119  0.14057493  0.80206107  1
  Bi2+  Bi82  1  0.49921667  0.36886950  0.28370227  1
  Bi2+  Bi83  1  0.41446900  0.32983151  0.80607780  1
  Bi2+  Bi84  1  0.54302703  0.64463810  0.27771881  1
  Bi2+  Bi85  1  0.48589308  0.50920309  0.81556805  1
  Bi2+  Bi86  1  0.46808248  0.89766580  0.31264502  1
  Bi2+  Bi87  1  0.50806960  0.90262694  0.79335651  1
  Bi2+  Bi88  1  0.74239721  0.06414497  0.29263769  1
  Bi2+  Bi89  1  0.74209915  0.09127662  0.77605166  1
  Bi2+  Bi90  1  0.77954741  0.42597012  0.28765102  1
  Bi2+  Bi91  1  0.69741853  0.37707472  0.78769984  1
  Bi2+  Bi92  1  0.79966185  0.60758028  0.32914540  1
  Bi2+  Bi93  1  0.73011606  0.65479372  0.79873143  1
  Bi2+  Bi94  1  0.75337652  0.86887315  0.30843735  1
  Bi2+  Bi95  1  0.70094226  0.86619720  0.79772741  1
  Bi2+  Bi96  1  0.15028185  0.02851636  0.18915278  1
  Bi2+  Bi97  1  0.10646926  0.00365850  0.72824651  1
  Bi2+  Bi98  1  0.11133433  0.21575059  0.25467929  1
  Bi2+  Bi99  1  0.10763632  0.21989386  0.71009998  1
  Bi2+  Bi100  1  0.10747880  0.52488024  0.19033283  1
  Bi2+  Bi101  1  0.14171242  0.49970641  0.71280985  1
  Bi2+  Bi102  1  0.09397398  0.80622634  0.21185736  1
  Bi2+  Bi103  1  0.15510779  0.75810142  0.70676543  1
  Bi2+  Bi104  1  0.38967883  -0.07660376  0.19119246  1
  Bi2+  Bi105  1  0.37889681  -0.00765676  0.69525318  1
  Bi2+  Bi106  1  0.36677680  0.24003873  0.18736368  1
  Bi2+  Bi107  1  0.33829848  0.18858142  0.67450212  1
  Bi2+  Bi108  1  0.36296391  0.48958807  0.17907489  1
  Bi2+  Bi109  1  0.39924277  0.56528882  0.71427639  1
  Bi2+  Bi110  1  0.36210246  0.74052155  0.26227969  1
  Bi2+  Bi111  1  0.43523239  0.76854843  0.70858484  1
  Bi2+  Bi112  1  0.66751403  -0.01213597  0.19099977  1
  Bi2+  Bi113  1  0.60741128  0.00186635  0.71323048  1
  Bi2+  Bi114  1  0.69945683  0.24962511  0.26155705  1
  Bi2+  Bi115  1  0.56724898  0.28025300  0.72428346  1
  Bi2+  Bi116  1  0.65142761  0.52710417  0.21477134  1
  Bi2+  Bi117  1  0.59656980  0.49789878  0.71829867  1
  Bi2+  Bi118  1  0.60500148  0.81739169  0.23425693  1
  Bi2+  Bi119  1  0.62926966  0.73991922  0.71305571  1
  Bi2+  Bi120  1  0.86802849  -0.00459233  0.20706903  1
  Bi2+  Bi121  1  0.90624502  0.00059374  0.72633476  1
  Bi2+  Bi122  1  0.87039415  0.26532604  0.21094970  1
  Bi2+  Bi123  1  0.81695294  0.24849581  0.70776909  1
  Bi2+  Bi124  1  0.87572951  0.50580597  0.18140774  1
  Bi2+  Bi125  1  0.86052086  0.50730726  0.71252264  1
  Bi2+  Bi126  1  0.83754498  0.73551483  0.24560929  1
  Bi2+  Bi127  1  0.88444689  0.76275151  0.71150756  1
  S2-  S128  1  0.10766728  0.15737080  0.13635180  1
  S2-  S129  1  -0.03852114  0.20782294  0.65527037  1
  S2-  S130  1  0.00287383  0.40515178  0.14508667  1
  S2-  S131  1  -0.04109916  0.36660715  0.72031621  1
  S2-  S132  1  -0.00722146  0.63024112  0.15244416  1
  S2-  S133  1  0.00848840  0.52784433  0.65727004  1
  S2-  S134  1  0.01021120  0.93646267  0.15435182  1
  S2-  S135  1  0.01613749  0.74791732  0.64546890  1
  S2-  S136  1  0.29738425  0.08939829  0.15284916  1
  S2-  S137  1  0.13692051  0.10532403  0.64314684  1
  S2-  S138  1  0.24535529  0.36066019  0.15546321  1
  S2-  S139  1  0.14789791  0.36034643  0.65107832  1
  S2-  S140  1  0.23743799  0.61026982  0.15369719  1
  S2-  S141  1  0.22150990  0.61964327  0.65924265  1
  S2-  S142  1  0.22614644  0.86841950  0.15487881  1
  S2-  S143  1  0.20642141  0.87572538  0.64993415  1
  S2-  S144  1  0.50951348  0.14621432  0.16141018  1
  S2-  S145  1  0.49593522  0.10338607  0.65348696  1
  S2-  S146  1  0.48652502  0.36072980  0.17362689  1
  S2-  S147  1  0.53600221  0.37921290  0.64861862  1
  S2-  S148  1  0.50636741  0.57017411  0.15528321  1
  S2-  S149  1  0.60674132  0.61503299  0.63880511  1
  S2-  S150  1  0.48721873  0.80601169  0.14991519  1
  S2-  S151  1  0.61330770  0.87250233  0.64363789  1
  S2-  S152  1  0.87115544  0.13789478  0.13964271  1
  S2-  S153  1  0.72981158  0.14933021  0.65449432  1
  S2-  S154  1  0.73585682  0.41408564  0.15270311  1
  S2-  S155  1  0.79583550  0.39068567  0.64531164  1
  S2-  S156  1  0.75561797  0.63911802  0.16734754  1
  S2-  S157  1  0.83249557  0.63655784  0.65210626  1
  S2-  S158  1  0.78930787  0.86491533  0.15968653  1
  S2-  S159  1  0.86037474  0.89231464  0.64797989  1
  S2-  S160  1  0.16584408  0.00977576  0.33673568  1
  S2-  S161  1  0.14101196  0.03028275  0.83336406  1
  S2-  S162  1  0.15112106  0.26052182  0.34685147  1
  S2-  S163  1  0.09490641  0.24952899  0.81548359  1
  S2-  S164  1  0.20551373  0.50687888  0.34753679  1
  S2-  S165  1  0.08621940  0.48603785  0.81563620  1
  S2-  S166  1  0.22523458  0.75667028  0.36068238  1
  S2-  S167  1  0.13834447  0.71785461  0.84077523  1
  S2-  S168  1  0.37700294  0.11744461  0.35770514  1
  S2-  S169  1  0.38005115  -0.00806494  0.84498238  1
  S2-  S170  1  0.36626131  0.34374613  0.34594058  1
  S2-  S171  1  0.28466997  0.23877488  0.85609509  1
  S2-  S172  1  0.36521106  0.49780153  0.27284622  1
  S2-  S173  1  0.27081030  0.49478669  0.85269431  1
  S2-  S174  1  0.41811496  0.67738428  0.35168660  1
  S2-  S175  1  0.37256415  0.74681970  0.84464392  1
  S2-  S176  1  0.62273178  -0.02818074  0.35082416  1
  S2-  S177  1  0.72138211  0.00779632  0.86270376  1
  S2-  S178  1  0.58888438  0.25417293  0.34103353  1
  S2-  S179  1  0.62219535  0.26963044  0.85331834  1
  S2-  S180  1  0.53955285  0.48489123  0.34538016  1
  S2-  S181  1  0.70945478  0.51058472  0.85729070  1
  S2-  S182  1  0.64387406  0.67693157  0.35498620  1
  S2-  S183  1  0.61209251  0.73715030  0.85156252  1
  S2-  S184  1  0.95870611  -0.00101580  0.36253583  1
  S2-  S185  1  0.93089536  -0.04978166  0.84604271  1
  S2-  S186  1  0.89127757  0.25142600  0.34805144  1
  S2-  S187  1  0.85456667  0.22381945  0.83644646  1
  S2-  S188  1  0.98862836  0.49267398  0.36009372  1
  S2-  S189  1  0.89342878  0.51160476  0.81767323  1
  S2-  S190  1  0.99312750  0.75998164  0.36349780  1
  S2-  S191  1  0.87054109  0.71256119  0.85013774  1
  S2-  S192  1  -0.00996843  0.12978120  0.46050209  1
  S2-  S193  1  -0.00492491  0.13063888  0.95001898  1
  S2-  S194  1  -0.00832052  0.36838300  0.45476116  1
  S2-  S195  1  -0.00356231  0.38145371  0.93657779  1
  S2-  S196  1  -0.00816136  0.62324160  0.46255325  1
  S2-  S197  1  -0.00348056  0.62414888  0.94580864  1
  S2-  S198  1  -0.01335326  0.87275645  0.46648223  1
  S2-  S199  1  -0.00532351  0.87540739  0.95375952  1
  S2-  S200  1  0.23661277  0.12355174  0.45593690  1
  S2-  S201  1  0.24438306  0.12390391  0.95609776  1
  S2-  S202  1  0.24061746  0.37240065  0.45856776  1
  S2-  S203  1  0.24608186  0.37732485  0.95142492  1
  S2-  S204  1  0.25173767  0.61823720  0.45374189  1
  S2-  S205  1  0.24898309  0.63336929  0.95073415  1
  S2-  S206  1  0.24385346  0.87879271  0.45221962  1
  S2-  S207  1  0.24455872  0.87817281  0.94731164  1
  S2-  S208  1  0.49710450  0.12651154  0.45380463  1
  S2-  S209  1  0.49529955  0.12805658  0.95572773  1
  S2-  S210  1  0.49277138  0.37591862  0.45168807  1
  S2-  S211  1  0.49397058  0.37862101  0.95976284  1
  S2-  S212  1  0.49057244  0.62359357  0.45971400  1
  S2-  S213  1  0.49268280  0.63128705  0.95594518  1
  S2-  S214  1  0.48857015  0.87454217  0.45875100  1
  S2-  S215  1  0.49504556  0.88018395  0.95572337  1
  S2-  S216  1  0.73928447  0.12833798  0.45119703  1
  S2-  S217  1  0.74289580  0.13288779  0.96179784  1
  S2-  S218  1  0.74109724  0.37591567  0.44698011  1
  S2-  S219  1  0.74412866  0.37939620  0.95188109  1
  S2-  S220  1  0.74334349  0.62370696  0.46102799  1
  S2-  S221  1  0.74229391  0.63007798  0.95994733  1
  S2-  S222  1  0.74065332  0.87176801  0.45942472  1
  S2-  S223  1  0.74452960  0.87661571  0.95847730  1
  S2-  S224  1  0.11721340  0.00667479  0.03866853  1
  S2-  S225  1  0.11695139  -0.00737842  0.54211310  1
  S2-  S226  1  0.12087173  0.25591568  0.02966440  1
  S2-  S227  1  0.11876307  0.24851987  0.54689217  1
  S2-  S228  1  0.12421722  0.50563442  0.03307634  1
  S2-  S229  1  0.11718811  0.50019042  0.54584849  1
  S2-  S230  1  0.11962177  0.75407708  0.04409806  1
  S2-  S231  1  0.12260171  0.74953873  0.54191004  1
  S2-  S232  1  0.37116190  0.00369617  0.04708190  1
  S2-  S233  1  0.36846563  -0.00130507  0.54412808  1
  S2-  S234  1  0.36790126  0.25328368  0.04759148  1
  S2-  S235  1  0.36666504  0.24974386  0.54246311  1
  S2-  S236  1  0.36948202  0.50495319  0.04310984  1
  S2-  S237  1  0.37070531  0.49814179  0.56104518  1
  S2-  S238  1  0.36762816  0.75816123  0.04660823  1
  S2-  S239  1  0.37163805  0.75014737  0.54919570  1
  S2-  S240  1  0.61864732  0.00478581  0.04965605  1
  S2-  S241  1  0.61679588  0.00772721  0.55076838  1
  S2-  S242  1  0.62103986  0.25481301  0.05785149  1
  S2-  S243  1  0.61566294  0.25065640  0.54472330  1
  S2-  S244  1  0.61871244  0.50459032  0.04610871  1
  S2-  S245  1  0.61512032  0.49337343  0.53963710  1
  S2-  S246  1  0.62258225  0.75644673  0.05444767  1
  S2-  S247  1  0.61403692  0.74964821  0.54493697  1
  S2-  S248  1  0.86910486  0.00297105  0.04135952  1
  S2-  S249  1  0.86548465  0.00786889  0.55036832  1
  S2-  S250  1  0.87045259  0.25873714  0.04112056  1
  S2-  S251  1  0.86508613  0.25294494  0.54796602  1
  S2-  S252  1  0.86847085  0.50500712  0.03493365  1
  S2-  S253  1  0.86773902  0.49429544  0.54369351  1
  S2-  S254  1  0.87022206  0.75319848  0.05082710  1
  S2-  S255  1  0.86447072  0.74802476  0.54429418  1
