# generated using pymatgen
data_La6Ce6Pr19Nd20Sm13(BiS2)64
_symmetry_space_group_name_H-M   'P 1'
_cell_length_a   16.11541390
_cell_length_b   16.11933329
_cell_length_c   27.33182634
_cell_angle_alpha   89.97953336
_cell_angle_beta   89.91996672
_cell_angle_gamma   90.08343185
_symmetry_Int_Tables_number   1
_chemical_formula_structural   La6Ce6Pr19Nd20Sm13(BiS2)64
_chemical_formula_sum   'La6 Ce6 Pr19 Nd20 Sm13 Bi64 S128'
_cell_volume   7099.96617588
_cell_formula_units_Z   1
loop_
 _symmetry_equiv_pos_site_id
 _symmetry_equiv_pos_as_xyz
  1  'x, y, z'
loop_
 _atom_type_symbol
 _atom_type_oxidation_number
  La3+  3.0
  Ce3+  3.0
  Pr3+  3.0
  Nd3+  3.0
  Sm3+  3.0
  Bi2+  2.0
  S2-  -2.0
loop_
 _atom_site_type_symbol
 _atom_site_label
 _atom_site_symmetry_multiplicity
 _atom_site_fract_x
 _atom_site_fract_y
 _atom_site_fract_z
 _atom_site_occupancy
  La3+  La0  1  0.86578317  0.24793788  0.89003658  1
  La3+  La1  1  0.38812711  0.49407521  0.41480950  1
  La3+  La2  1  0.23053766  0.89077050  0.08037594  1
  La3+  La3  1  0.01074333  0.60759829  0.61591347  1
  La3+  La4  1  0.26134831  0.62044542  0.55573527  1
  La3+  La5  1  0.50596362  0.61310132  0.56351584  1
  Ce3+  Ce6  1  0.11820260  0.00957302  0.93405776  1
  Ce3+  Ce7  1  0.38346365  -0.00954130  0.44003857  1
  Ce3+  Ce8  1  0.61387177  0.76276335  0.94210996  1
  Ce3+  Ce9  1  0.62880511  0.74481154  0.43787293  1
  Ce3+  Ce10  1  0.61536573  0.01674498  0.94944239  1
  Ce3+  Ce11  1  0.38868644  0.24640092  0.42539154  1
  Pr3+  Pr12  1  0.37230031  0.74308689  0.38119458  1
  Pr3+  Pr13  1  0.23642251  0.38994697  0.05422591  1
  Pr3+  Pr14  1  0.86154764  0.51326015  0.93521011  1
  Pr3+  Pr15  1  0.12944844  0.74229133  0.43295461  1
  Pr3+  Pr16  1  0.11257395  0.76493851  0.93889663  1
  Pr3+  Pr17  1  0.63561936  0.49753220  0.43341022  1
  Pr3+  Pr18  1  0.60738768  0.26400417  0.93315976  1
  Pr3+  Pr19  1  0.13064390  0.49571254  0.44384948  1
  Pr3+  Pr20  1  0.50612744  0.36795423  0.55770250  1
  Pr3+  Pr21  1  0.00852314  0.86560436  0.56015483  1
  Pr3+  Pr22  1  0.73536118  0.14256147  0.06586039  1
  Pr3+  Pr23  1  0.00918381  0.11955143  0.56903748  1
  Pr3+  Pr24  1  0.63615009  0.24324542  0.43105868  1
  Pr3+  Pr25  1  0.88675361  0.25174732  0.42693402  1
  Pr3+  Pr26  1  0.49375532  0.38481631  0.07035702  1
  Pr3+  Pr27  1  0.11726340  0.26168997  0.92580500  1
  Pr3+  Pr28  1  0.88420004  0.74255951  0.43340115  1
  Pr3+  Pr29  1  0.10645613  0.51701456  0.92022298  1
  Pr3+  Pr30  1  0.36299173  0.52145048  0.93214249  1
  Nd3+  Nd31  1  0.48492018  0.88798245  0.06514795  1
  Nd3+  Nd32  1  0.73851356  0.38925394  0.05426790  1
  Nd3+  Nd33  1  0.72849273  0.63913723  0.07165585  1
  Nd3+  Nd34  1  0.48324931  0.13606416  0.06571345  1
  Nd3+  Nd35  1  -0.01219456  0.38742715  0.04656200  1
  Nd3+  Nd36  1  0.23734055  0.63551750  0.06592345  1
  Nd3+  Nd37  1  0.22923395  0.13663515  0.06737015  1
  Nd3+  Nd38  1  0.73957687  0.88802255  0.05907110  1
  Nd3+  Nd39  1  0.50619620  0.86902390  0.56087185  1
  Nd3+  Nd40  1  -0.01299670  0.88674096  0.06288225  1
  Nd3+  Nd41  1  0.75642706  0.86761876  0.55732702  1
  Nd3+  Nd42  1  0.76221640  0.62172808  0.56495959  1
  Nd3+  Nd43  1  0.36447883  0.00745807  0.93768070  1
  Nd3+  Nd44  1  0.13095615  -0.00451129  0.43589621  1
  Nd3+  Nd45  1  0.48037802  0.63457193  0.06785804  1
  Nd3+  Nd46  1  -0.00850972  0.62507001  0.07302231  1
  Nd3+  Nd47  1  0.75889639  0.36735087  0.56178295  1
  Nd3+  Nd48  1  0.00723565  0.36368240  0.57486459  1
  Nd3+  Nd49  1  0.36086084  0.76722259  0.94002565  1
  Nd3+  Nd50  1  0.25895270  0.11928803  0.55093628  1
  Sm3+  Sm51  1  0.60991188  0.51421586  0.94310833  1
  Sm3+  Sm52  1  0.25882208  0.36971831  0.55294498  1
  Sm3+  Sm53  1  0.86298631  0.01532278  0.94472035  1
  Sm3+  Sm54  1  0.88364604  -0.00270573  0.44678347  1
  Sm3+  Sm55  1  0.36640639  0.26019340  0.94256249  1
  Sm3+  Sm56  1  0.88544224  0.49576981  0.45631285  1
  Sm3+  Sm57  1  0.63284544  -0.00548678  0.44732080  1
  Sm3+  Sm58  1  0.12964947  0.24575595  0.44266865  1
  Sm3+  Sm59  1  0.25873981  0.86544669  0.55436005  1
  Sm3+  Sm60  1  0.50564644  0.12066239  0.55834688  1
  Sm3+  Sm61  1  0.75802861  0.12170585  0.55734324  1
  Sm3+  Sm62  1  0.86276821  0.76002908  0.95280569  1
  Sm3+  Sm63  1  -0.01461464  0.14144778  0.04948287  1
  Bi2+  Bi64  1  0.06027043  0.10676327  0.30148784  1
  Bi2+  Bi65  1  0.08030256  0.08670490  0.79449517  1
  Bi2+  Bi66  1  -0.04002326  0.34976950  0.28858997  1
  Bi2+  Bi67  1  0.01057155  0.38460144  0.78117753  1
  Bi2+  Bi68  1  -0.01754492  0.62122600  0.27467732  1
  Bi2+  Bi69  1  -0.02165163  0.65278098  0.81085005  1
  Bi2+  Bi70  1  -0.06543249  0.84998237  0.29526563  1
  Bi2+  Bi71  1  0.00996686  0.88877490  0.77803932  1
  Bi2+  Bi72  1  0.27821527  0.16151849  0.28612456  1
  Bi2+  Bi73  1  0.25729498  0.13480449  0.84795795  1
  Bi2+  Bi74  1  0.20574516  0.34910700  0.29052922  1
  Bi2+  Bi75  1  0.27131631  0.26757876  0.76064424  1
  Bi2+  Bi76  1  0.20173512  0.61270659  0.29135966  1
  Bi2+  Bi77  1  0.25029561  0.56874429  0.80168405  1
  Bi2+  Bi78  1  0.26790079  0.88159593  0.27806248  1
  Bi2+  Bi79  1  0.24868477  0.92964126  0.79611049  1
  Bi2+  Bi80  1  0.54083793  0.10251832  0.28184520  1
  Bi2+  Bi81  1  0.44880550  0.10350469  0.81258889  1
  Bi2+  Bi82  1  0.48975825  0.35180217  0.28699477  1
  Bi2+  Bi83  1  0.45293471  0.34406561  0.77491546  1
  Bi2+  Bi84  1  0.60629570  0.61541970  0.29452386  1
  Bi2+  Bi85  1  0.49252254  0.60120859  0.80360428  1
  Bi2+  Bi86  1  0.53285554  0.89905042  0.29381568  1
  Bi2+  Bi87  1  0.53523697  0.85958587  0.75263250  1
  Bi2+  Bi88  1  0.82019910  0.11088381  0.29058546  1
  Bi2+  Bi89  1  0.69797557  0.09382471  0.80565761  1
  Bi2+  Bi90  1  0.73633613  0.37143158  0.28996156  1
  Bi2+  Bi91  1  0.68180979  0.38639905  0.78131868  1
  Bi2+  Bi92  1  0.79206771  0.56755964  0.32002171  1
  Bi2+  Bi93  1  0.73399464  0.67167274  0.79742339  1
  Bi2+  Bi94  1  0.76043463  0.76619467  0.32285735  1
  Bi2+  Bi95  1  0.72488005  0.87141269  0.77977852  1
  Bi2+  Bi96  1  0.11220999  0.01801890  0.20798076  1
  Bi2+  Bi97  1  0.04054666  0.00866652  0.68583436  1
  Bi2+  Bi98  1  0.15000823  0.23369944  0.20825525  1
  Bi2+  Bi99  1  0.11615521  0.20352638  0.70393284  1
  Bi2+  Bi100  1  0.10666795  0.48936740  0.20339116  1
  Bi2+  Bi101  1  0.16250113  0.49151507  0.70635376  1
  Bi2+  Bi102  1  0.11827537  0.75815326  0.20984242  1
  Bi2+  Bi103  1  0.13965928  0.75649204  0.71412770  1
  Bi2+  Bi104  1  0.38542287  0.04163978  0.21490090  1
  Bi2+  Bi105  1  0.33506067  0.05149064  0.72604939  1
  Bi2+  Bi106  1  0.41148564  0.23510745  0.20643557  1
  Bi2+  Bi107  1  0.41156283  0.22124116  0.67847472  1
  Bi2+  Bi108  1  0.34870174  0.51420376  0.21880652  1
  Bi2+  Bi109  1  0.40133728  0.48949818  0.69941571  1
  Bi2+  Bi110  1  0.43418678  0.76194515  0.18596369  1
  Bi2+  Bi111  1  0.34383865  0.75259039  0.70328518  1
  Bi2+  Bi112  1  0.69153926  -0.00645632  0.23919960  1
  Bi2+  Bi113  1  0.61809223  0.02652034  0.70896525  1
  Bi2+  Bi114  1  0.66891952  0.25199366  0.21199807  1
  Bi2+  Bi115  1  0.58839270  0.22170906  0.72708543  1
  Bi2+  Bi116  1  0.61917096  0.50792386  0.19591597  1
  Bi2+  Bi117  1  0.59613058  0.59183720  0.70287698  1
  Bi2+  Bi118  1  0.68717182  0.74258268  0.21929872  1
  Bi2+  Bi119  1  0.65878217  0.77201198  0.67837443  1
  Bi2+  Bi120  1  0.87225474  -0.06262696  0.20213964  1
  Bi2+  Bi121  1  0.88728669  0.03791519  0.75301831  1
  Bi2+  Bi122  1  0.92692147  0.21005476  0.21471581  1
  Bi2+  Bi123  1  0.83335510  0.24071208  0.70537103  1
  Bi2+  Bi124  1  0.85996603  0.45902895  0.21363336  1
  Bi2+  Bi125  1  0.77944686  0.52647701  0.72405301  1
  Bi2+  Bi126  1  0.91979372  0.74170952  0.19435049  1
  Bi2+  Bi127  1  0.86537102  0.78119567  0.71029649  1
  S2-  S128  1  0.04186242  0.14177346  0.14185423  1
  S2-  S129  1  -0.02619907  0.23285906  0.64340709  1
  S2-  S130  1  -0.01031731  0.45833008  0.13821493  1
  S2-  S131  1  0.02039039  0.44667674  0.66392623  1
  S2-  S132  1  0.11957552  0.63006228  0.14194311  1
  S2-  S133  1  0.03975421  0.61458316  0.72562689  1
  S2-  S134  1  0.08200934  0.89273216  0.14586476  1
  S2-  S135  1  0.00941061  0.78290137  0.64822122  1
  S2-  S136  1  0.25010990  0.03435745  0.14693971  1
  S2-  S137  1  0.23044062  0.11248524  0.64867524  1
  S2-  S138  1  0.23913322  0.42716827  0.15386130  1
  S2-  S139  1  0.27681290  0.39517962  0.64996801  1
  S2-  S140  1  0.35423842  0.62249641  0.14372647  1
  S2-  S141  1  0.17970541  0.63317227  0.64624927  1
  S2-  S142  1  0.27174030  0.81161148  0.17022936  1
  S2-  S143  1  0.25003249  0.85933123  0.65514076  1
  S2-  S144  1  0.55109653  0.16890568  0.15466677  1
  S2-  S145  1  0.48175934  0.06391659  0.65012450  1
  S2-  S146  1  0.46412830  0.45228800  0.16413195  1
  S2-  S147  1  0.53350705  0.45648916  0.64294830  1
  S2-  S148  1  0.58669556  0.66173311  0.14695209  1
  S2-  S149  1  0.38482704  0.62363310  0.63848004  1
  S2-  S150  1  0.48408666  0.91741451  0.16404434  1
  S2-  S151  1  0.47512834  0.83275870  0.65862818  1
  S2-  S152  1  0.78398492  0.16102913  0.16197226  1
  S2-  S153  1  0.74411849  0.13491487  0.65478319  1
  S2-  S154  1  0.64702529  0.37302830  0.13880421  1
  S2-  S155  1  0.77098155  0.37690616  0.66078517  1
  S2-  S156  1  0.77327464  0.56679885  0.15918628  1
  S2-  S157  1  0.84653347  0.62990537  0.65256816  1
  S2-  S158  1  0.71840656  0.87903518  0.15705169  1
  S2-  S159  1  0.78004770  0.89233951  0.65468955  1
  S2-  S160  1  0.15223045  -0.01910352  0.33680697  1
  S2-  S161  1  0.11568762  -0.11127075  0.86228729  1
  S2-  S162  1  0.02835289  0.24756990  0.36377431  1
  S2-  S163  1  0.02550410  0.25135313  0.83941891  1
  S2-  S164  1  0.13869769  0.47863474  0.34260611  1
  S2-  S165  1  0.15596250  0.43719810  0.83187692  1
  S2-  S166  1  0.21015337  0.76594866  0.34253146  1
  S2-  S167  1  0.12848836  0.65961760  0.85666618  1
  S2-  S168  1  0.38821722  -0.07562441  0.35026682  1
  S2-  S169  1  0.35799924  -0.11158698  0.86273197  1
  S2-  S170  1  0.35401709  0.35741636  0.34892619  1
  S2-  S171  1  0.47376631  0.25540118  0.86452453  1
  S2-  S172  1  0.35089753  0.58649074  0.32920046  1
  S2-  S173  1  0.37410794  0.46538416  0.83527724  1
  S2-  S174  1  0.38184648  0.76376346  0.27423220  1
  S2-  S175  1  0.36443316  0.66193397  0.85853897  1
  S2-  S176  1  0.63902198  -0.00210441  0.34917441  1
  S2-  S177  1  0.56735933  0.00679866  0.85604380  1
  S2-  S178  1  0.51969803  0.22610600  0.35438046  1
  S2-  S179  1  0.70130219  0.24892142  0.84920091  1
  S2-  S180  1  0.53994845  0.47821662  0.34870728  1
  S2-  S181  1  0.60815900  0.48280196  0.84521937  1
  S2-  S182  1  0.54392268  0.75512217  0.35218237  1
  S2-  S183  1  0.58783794  0.72474876  0.84794946  1
  S2-  S184  1  0.91514043  0.01894882  0.35132520  1
  S2-  S185  1  0.85744841  0.07974381  0.85354992  1
  S2-  S186  1  0.75955301  0.24151583  0.35453997  1
  S2-  S187  1  0.85807287  0.33575968  0.79601056  1
  S2-  S188  1  0.90702096  0.45247761  0.36250464  1
  S2-  S189  1  0.95902801  0.50599020  0.85130077  1
  S2-  S190  1  1.00181266  0.72787755  0.35601248  1
  S2-  S191  1  0.85577114  0.75577482  0.85559347  1
  S2-  S192  1  0.00832333  0.11857480  0.46170679  1
  S2-  S193  1  -0.00984660  0.13643664  0.94773106  1
  S2-  S194  1  0.00878697  0.36935483  0.46666649  1
  S2-  S195  1  -0.01972480  0.37614383  0.94399655  1
  S2-  S196  1  0.00488981  0.61568052  0.45614686  1
  S2-  S197  1  -0.01650670  0.63882013  0.96124505  1
  S2-  S198  1  0.00580202  0.87443843  0.45285278  1
  S2-  S199  1  -0.01961880  0.88880343  0.95783122  1
  S2-  S200  1  0.25685847  0.12227275  0.44418828  1
  S2-  S201  1  0.24074744  0.13774802  0.96165787  1
  S2-  S202  1  0.25369062  0.36602952  0.45072555  1
  S2-  S203  1  0.24279685  0.38339692  0.94748010  1
  S2-  S204  1  0.26011816  0.62020858  0.44614671  1
  S2-  S205  1  0.23765252  0.63973511  0.96025555  1
  S2-  S206  1  0.25638708  0.87156523  0.45063054  1
  S2-  S207  1  0.23675243  0.89010056  0.96704724  1
  S2-  S208  1  0.50906474  0.11532127  0.45534657  1
  S2-  S209  1  0.48507587  0.13284004  0.96167158  1
  S2-  S210  1  0.51316156  0.36759600  0.45359206  1
  S2-  S211  1  0.48612330  0.39201951  0.96008505  1
  S2-  S212  1  0.50843644  0.61871353  0.45254209  1
  S2-  S213  1  0.49122546  0.63935070  0.96117454  1
  S2-  S214  1  0.51203574  0.87465010  0.45663012  1
  S2-  S215  1  0.49261098  0.88808363  0.96039991  1
  S2-  S216  1  0.75877779  0.11659688  0.45379896  1
  S2-  S217  1  0.74254537  0.14004194  0.95870650  1
  S2-  S218  1  0.75826382  0.37175804  0.45556125  1
  S2-  S219  1  0.73618718  0.39019826  0.94935890  1
  S2-  S220  1  0.75971376  0.62003127  0.45760630  1
  S2-  S221  1  0.73649405  0.63650025  0.95910891  1
  S2-  S222  1  0.75879512  0.87324322  0.45146713  1
  S2-  S223  1  0.74166225  0.88913190  0.95249998  1
  S2-  S224  1  0.10675613  0.01600205  0.04066873  1
  S2-  S225  1  0.13413896  -0.00645597  0.54378597  1
  S2-  S226  1  0.11218874  0.26280092  0.03815932  1
  S2-  S227  1  0.13533288  0.24437291  0.54674933  1
  S2-  S228  1  0.11209736  0.51056416  0.03234343  1
  S2-  S229  1  0.13247336  0.48978827  0.55033512  1
  S2-  S230  1  0.10668952  0.75998247  0.04580309  1
  S2-  S231  1  0.13495738  0.74808023  0.54020830  1
  S2-  S232  1  0.36261892  0.01321929  0.04622907  1
  S2-  S233  1  0.38136511  -0.00640291  0.54607549  1
  S2-  S234  1  0.36029441  0.26086748  0.05064091  1
  S2-  S235  1  0.38260662  0.24346831  0.53787156  1
  S2-  S236  1  0.36439410  0.50749318  0.04062424  1
  S2-  S237  1  0.38271995  0.48813577  0.53386828  1
  S2-  S238  1  0.36134425  0.76595656  0.04771495  1
  S2-  S239  1  0.38447445  0.75013147  0.54338729  1
  S2-  S240  1  0.61372256  0.01267648  0.05608131  1
  S2-  S241  1  0.63267387  -0.00236667  0.55195514  1
  S2-  S242  1  0.61090602  0.26008702  0.03968296  1
  S2-  S243  1  0.63166512  0.24197174  0.54646964  1
  S2-  S244  1  0.61160710  0.51449713  0.04577396  1
  S2-  S245  1  0.64029441  0.49487538  0.54150573  1
  S2-  S246  1  0.61278604  0.76758296  0.04674849  1
  S2-  S247  1  0.63201132  0.74235156  0.54580417  1
  S2-  S248  1  0.86385301  0.01555078  0.05047795  1
  S2-  S249  1  0.88120821  -0.00372595  0.55145239  1
  S2-  S250  1  0.86400441  0.26555279  0.05283128  1
  S2-  S251  1  0.87825916  0.24254141  0.53857612  1
  S2-  S252  1  0.86025106  0.51406020  0.04151214  1
  S2-  S253  1  0.88465505  0.49272754  0.55807943  1
  S2-  S254  1  0.86238615  0.75848253  0.05704145  1
  S2-  S255  1  0.87930442  0.74751533  0.54127700  1
