# generated using pymatgen
data_La6Ce6Pr19Nd20Sm13(BiS2)64
_symmetry_space_group_name_H-M   'P 1'
_cell_length_a   16.17164091
_cell_length_b   16.15568142
_cell_length_c   27.19593972
_cell_angle_alpha   90.04668382
_cell_angle_beta   89.99422574
_cell_angle_gamma   90.15265515
_symmetry_Int_Tables_number   1
_chemical_formula_structural   La6Ce6Pr19Nd20Sm13(BiS2)64
_chemical_formula_sum   'La6 Ce6 Pr19 Nd20 Sm13 Bi64 S128'
_cell_volume   7105.28908232
_cell_formula_units_Z   1
loop_
 _symmetry_equiv_pos_site_id
 _symmetry_equiv_pos_as_xyz
  1  'x, y, z'
loop_
 _atom_type_symbol
 _atom_type_oxidation_number
  La3+  3.0
  Ce3+  3.0
  Pr3+  3.0
  Nd3+  3.0
  Sm3+  3.0
  Bi2+  2.0
  S2-  -2.0
loop_
 _atom_site_type_symbol
 _atom_site_label
 _atom_site_symmetry_multiplicity
 _atom_site_fract_x
 _atom_site_fract_y
 _atom_site_fract_z
 _atom_site_occupancy
  La3+  La0  1  0.73859111  0.87509896  0.08008258  1
  La3+  La1  1  0.62515733  -0.02113316  0.91226847  1
  La3+  La2  1  0.25007841  0.60905505  0.06497621  1
  La3+  La3  1  -0.00781268  0.89224150  0.53895490  1
  La3+  La4  1  0.12214058  0.48300872  0.91487789  1
  La3+  La5  1  0.13448868  0.01945883  0.40331743  1
  Ce3+  Ce6  1  -0.00253933  0.10876153  0.05566150  1
  Ce3+  Ce7  1  0.12458663  0.23914891  0.94785195  1
  Ce3+  Ce8  1  0.49736576  0.89195598  0.56306163  1
  Ce3+  Ce9  1  0.63073754  0.73495099  0.93530636  1
  Ce3+  Ce10  1  0.24280353  0.13564872  0.56693896  1
  Ce3+  Ce11  1  0.12335386  -0.01841721  0.94840993  1
  Pr3+  Pr12  1  0.37267721  0.48530476  0.93764519  1
  Pr3+  Pr13  1  0.74710054  0.10883008  0.04257149  1
  Pr3+  Pr14  1  0.74861398  0.61174897  0.06694313  1
  Pr3+  Pr15  1  0.87284908  0.25970083  0.44297718  1
  Pr3+  Pr16  1  0.87699100  -0.02521407  0.92829224  1
  Pr3+  Pr17  1  0.00223377  0.85572972  0.07795859  1
  Pr3+  Pr18  1  0.87431912  0.48830714  0.93634868  1
  Pr3+  Pr19  1  0.24014182  0.88672536  0.55739301  1
  Pr3+  Pr20  1  0.86924596  0.75496444  0.42494772  1
  Pr3+  Pr21  1  0.49380085  0.63511985  0.57249632  1
  Pr3+  Pr22  1  0.36916034  -0.02299401  0.93105070  1
  Pr3+  Pr23  1  0.23195257  0.64260134  0.57218320  1
  Pr3+  Pr24  1  0.25427319  0.36529215  0.07188712  1
  Pr3+  Pr25  1  0.50380981  0.35536366  0.06268085  1
  Pr3+  Pr26  1  0.25141839  0.10965096  0.05551567  1
  Pr3+  Pr27  1  0.61993383  0.25970509  0.44076392  1
  Pr3+  Pr28  1  0.23493225  0.39218679  0.57632289  1
  Pr3+  Pr29  1  0.86591600  0.01204112  0.40247133  1
  Pr3+  Pr30  1  0.12920653  0.75131270  0.41956173  1
  Nd3+  Nd31  1  0.36755748  0.26349728  0.44888556  1
  Nd3+  Nd32  1  0.62677897  0.24415729  0.91690134  1
  Nd3+  Nd33  1  -0.00044422  0.60599732  0.06586686  1
  Nd3+  Nd34  1  0.49263929  0.39181320  0.57049400  1
  Nd3+  Nd35  1  0.37269666  0.23838108  0.92995263  1
  Nd3+  Nd36  1  0.49989429  0.10927689  0.04031333  1
  Nd3+  Nd37  1  0.48454048  0.14547444  0.58125534  1
  Nd3+  Nd38  1  0.25269075  0.85558464  0.07421130  1
  Nd3+  Nd39  1  0.62596258  0.48837192  0.93584500  1
  Nd3+  Nd40  1  0.61868674  0.51161747  0.44445775  1
  Nd3+  Nd41  1  0.37456424  0.01654088  0.44542812  1
  Nd3+  Nd42  1  0.87449744  0.23481880  0.94151599  1
  Nd3+  Nd43  1  0.37006675  0.76231957  0.44844440  1
  Nd3+  Nd44  1  -0.00648511  0.38905871  0.57169393  1
  Nd3+  Nd45  1  0.50249359  0.61219858  0.05589774  1
  Nd3+  Nd46  1  0.62452696  0.01826150  0.43935229  1
  Nd3+  Nd47  1  0.73573569  0.14320939  0.57961254  1
  Nd3+  Nd48  1  0.74637110  0.38706333  0.56004282  1
  Nd3+  Nd49  1  -0.00076609  0.36455695  0.06577978  1
  Nd3+  Nd50  1  -0.00845017  0.13341780  0.55731017  1
  Sm3+  Sm51  1  0.37227885  0.73208978  0.94143280  1
  Sm3+  Sm52  1  0.87511225  0.73887828  0.95168850  1
  Sm3+  Sm53  1  0.74495239  0.36068947  0.05934761  1
  Sm3+  Sm54  1  0.12371489  0.73968207  0.94492012  1
  Sm3+  Sm55  1  -0.00728013  0.64326988  0.55830459  1
  Sm3+  Sm56  1  0.36953635  0.51302491  0.45109963  1
  Sm3+  Sm57  1  0.74611353  0.88980144  0.55765848  1
  Sm3+  Sm58  1  0.74779048  0.63894330  0.55728162  1
  Sm3+  Sm59  1  0.87326680  0.51010061  0.43935096  1
  Sm3+  Sm60  1  0.50292177  0.86287934  0.04831600  1
  Sm3+  Sm61  1  0.11828365  0.25790240  0.44811577  1
  Sm3+  Sm62  1  0.12255255  0.50837163  0.44259905  1
  Sm3+  Sm63  1  0.62115433  0.76337612  0.45024384  1
  Bi2+  Bi64  1  -0.00265721  0.20442243  0.29187544  1
  Bi2+  Bi65  1  0.00359744  0.11810038  0.77771656  1
  Bi2+  Bi66  1  -0.06270984  0.38069159  0.33435854  1
  Bi2+  Bi67  1  -0.00547505  0.34566129  0.79498828  1
  Bi2+  Bi68  1  -0.01790536  0.55433924  0.29394312  1
  Bi2+  Bi69  1  -0.07183017  0.61224314  0.78793335  1
  Bi2+  Bi70  1  0.00164129  0.88053621  0.28424989  1
  Bi2+  Bi71  1  -0.01579055  0.92106509  0.79775907  1
  Bi2+  Bi72  1  0.27212527  0.14992194  0.29703552  1
  Bi2+  Bi73  1  0.19612223  0.10204621  0.75738649  1
  Bi2+  Bi74  1  0.19726317  0.39455612  0.30435364  1
  Bi2+  Bi75  1  0.26127935  0.36977504  0.79967042  1
  Bi2+  Bi76  1  0.26400932  0.60488696  0.30221283  1
  Bi2+  Bi77  1  0.27394898  0.65147532  0.81293150  1
  Bi2+  Bi78  1  0.26785339  0.87719576  0.29374112  1
  Bi2+  Bi79  1  0.24897022  0.91157710  0.78840425  1
  Bi2+  Bi80  1  0.48709503  0.12228177  0.28561339  1
  Bi2+  Bi81  1  0.48430515  0.12016392  0.78349075  1
  Bi2+  Bi82  1  0.55846058  0.38608130  0.29163827  1
  Bi2+  Bi83  1  0.54249250  0.45399492  0.78134842  1
  Bi2+  Bi84  1  0.45490445  0.57285456  0.29489583  1
  Bi2+  Bi85  1  0.54905192  0.64205514  0.81873271  1
  Bi2+  Bi86  1  0.48003952  0.90078343  0.27269939  1
  Bi2+  Bi87  1  0.51276154  0.87033698  0.79271917  1
  Bi2+  Bi88  1  0.72041426  0.12709006  0.29366229  1
  Bi2+  Bi89  1  0.79615837  0.16277015  0.78001213  1
  Bi2+  Bi90  1  0.74959574  0.33739302  0.30155940  1
  Bi2+  Bi91  1  0.76365442  0.43173512  0.78158186  1
  Bi2+  Bi92  1  0.74185207  0.57767628  0.28305943  1
  Bi2+  Bi93  1  0.74591371  0.60181510  0.84420554  1
  Bi2+  Bi94  1  0.72136257  0.85738918  0.28630379  1
  Bi2+  Bi95  1  0.77635389  0.77700143  0.78809892  1
  Bi2+  Bi96  1  0.13725468  0.04828341  0.20000726  1
  Bi2+  Bi97  1  0.12035554  -0.03873639  0.68225111  1
  Bi2+  Bi98  1  0.10916168  0.29702997  0.21409888  1
  Bi2+  Bi99  1  0.09948507  0.25693441  0.71216301  1
  Bi2+  Bi100  1  0.11314045  0.49350299  0.21768093  1
  Bi2+  Bi101  1  0.15439548  0.54418652  0.70535822  1
  Bi2+  Bi102  1  0.15019705  0.75072991  0.20927900  1
  Bi2+  Bi103  1  0.06814534  0.74911897  0.76235881  1
  Bi2+  Bi104  1  0.39028151  0.02891308  0.20128991  1
  Bi2+  Bi105  1  0.35119464  -0.02263682  0.69906760  1
  Bi2+  Bi106  1  0.32329176  0.30661437  0.23511559  1
  Bi2+  Bi107  1  0.36317091  0.26092112  0.71771488  1
  Bi2+  Bi108  1  0.38091672  0.48497067  0.19866216  1
  Bi2+  Bi109  1  0.39787403  0.52043291  0.71765472  1
  Bi2+  Bi110  1  0.40974421  0.74306233  0.20989052  1
  Bi2+  Bi111  1  0.42264622  0.72065357  0.73761510  1
  Bi2+  Bi112  1  0.60208890  -0.00049224  0.19118722  1
  Bi2+  Bi113  1  0.64791285  -0.00906033  0.70229430  1
  Bi2+  Bi114  1  0.61374583  0.23948388  0.22384552  1
  Bi2+  Bi115  1  0.61954559  0.26388975  0.71428986  1
  Bi2+  Bi116  1  0.64848331  0.47274469  0.20064798  1
  Bi2+  Bi117  1  0.67302427  0.53780044  0.70219212  1
  Bi2+  Bi118  1  0.57992943  0.72139067  0.25504501  1
  Bi2+  Bi119  1  0.61747451  0.72416834  0.71940969  1
  Bi2+  Bi120  1  0.86977384  0.00747456  0.20242719  1
  Bi2+  Bi121  1  0.89113074  -0.03261548  0.68724154  1
  Bi2+  Bi122  1  0.88782998  0.29761764  0.21587358  1
  Bi2+  Bi123  1  0.89017676  0.28224193  0.70043219  1
  Bi2+  Bi124  1  0.84282544  0.48475262  0.19946693  1
  Bi2+  Bi125  1  0.91456137  0.47104113  0.70512145  1
  Bi2+  Bi126  1  0.88190390  0.73479836  0.20429193  1
  Bi2+  Bi127  1  0.90252792  0.73746342  0.70073063  1
  S2-  S128  1  -0.01224705  0.10140025  0.15344868  1
  S2-  S129  1  0.00535614  0.08842898  0.65384300  1
  S2-  S130  1  -0.00942423  0.48077253  0.14063212  1
  S2-  S131  1  0.10257903  0.40303187  0.65015460  1
  S2-  S132  1  0.02955604  0.69926212  0.15116800  1
  S2-  S133  1  0.09174102  0.63945487  0.63898689  1
  S2-  S134  1  -0.02260845  0.89271490  0.17766069  1
  S2-  S135  1  0.00037686  0.85201235  0.63800415  1
  S2-  S136  1  0.25998203  0.12582158  0.15586591  1
  S2-  S137  1  0.34348516  0.13060116  0.64792120  1
  S2-  S138  1  0.23770288  0.49711731  0.14283965  1
  S2-  S139  1  0.30777388  0.39088104  0.67052173  1
  S2-  S140  1  0.27103144  0.72148420  0.14545051  1
  S2-  S141  1  0.29240489  0.62562623  0.66795619  1
  S2-  S142  1  0.19276773  0.90535556  0.16586000  1
  S2-  S143  1  0.24340453  0.85605192  0.65715962  1
  S2-  S144  1  0.50289326  0.11584870  0.14006934  1
  S2-  S145  1  0.60157773  0.12227608  0.65360860  1
  S2-  S146  1  0.39096328  0.34242420  0.14073468  1
  S2-  S147  1  0.49599185  0.29048151  0.65365086  1
  S2-  S148  1  0.48704458  0.61196344  0.15490865  1
  S2-  S149  1  0.51438267  0.51465810  0.64481539  1
  S2-  S150  1  0.58226036  0.86802020  0.13539181  1
  S2-  S151  1  0.49866340  0.92683919  0.65995571  1
  S2-  S152  1  0.74092769  0.04611889  0.13592187  1
  S2-  S153  1  0.78675056  0.08544438  0.67376848  1
  S2-  S154  1  0.63405856  0.33934296  0.13408665  1
  S2-  S155  1  0.73677931  0.29870177  0.64595872  1
  S2-  S156  1  0.76009987  0.65143080  0.16517987  1
  S2-  S157  1  0.79658136  0.62994451  0.65083831  1
  S2-  S158  1  0.78297804  0.85647384  0.18177667  1
  S2-  S159  1  0.74997385  0.87723012  0.65645122  1
  S2-  S160  1  0.13257951  -0.01566224  0.29887699  1
  S2-  S161  1  0.12614963  -0.08333691  0.85914676  1
  S2-  S162  1  0.12990514  0.18216417  0.35892343  1
  S2-  S163  1  0.13272456  0.31507163  0.86089610  1
  S2-  S164  1  0.12462145  0.59799318  0.35924240  1
  S2-  S165  1  0.17788243  0.50771890  0.81082385  1
  S2-  S166  1  0.12983686  0.78496597  0.31745865  1
  S2-  S167  1  0.12110676  0.68939205  0.85075719  1
  S2-  S168  1  0.30175905  0.00998858  0.35575105  1
  S2-  S169  1  0.39112318  -0.00219829  0.83153636  1
  S2-  S170  1  0.38846305  0.22104000  0.35243660  1
  S2-  S171  1  0.37307301  0.23662496  0.82938929  1
  S2-  S172  1  0.34135504  0.47540626  0.35628581  1
  S2-  S173  1  0.38491164  0.46810024  0.83711306  1
  S2-  S174  1  0.33410828  0.74762043  0.35198775  1
  S2-  S175  1  0.32957280  0.79569044  0.85434076  1
  S2-  S176  1  0.71445951  -0.01603300  0.35237881  1
  S2-  S177  1  0.60620858  0.00527577  0.80717915  1
  S2-  S178  1  0.59726342  0.14349154  0.36637424  1
  S2-  S179  1  0.61405586  0.20202605  0.81631862  1
  S2-  S180  1  0.60794349  0.53227655  0.34649157  1
  S2-  S181  1  0.64104623  0.38901137  0.85494972  1
  S2-  S182  1  0.62660198  0.76458831  0.35296373  1
  S2-  S183  1  0.64656442  0.83159965  0.85406769  1
  S2-  S184  1  0.92772745  0.02006610  0.30365833  1
  S2-  S185  1  0.84918820  0.03750238  0.83051842  1
  S2-  S186  1  0.84247876  0.17177479  0.35837451  1
  S2-  S187  1  0.85225730  0.27748746  0.84660636  1
  S2-  S188  1  0.85759303  0.61048661  0.35911804  1
  S2-  S189  1  0.97894418  0.48653075  0.85669363  1
  S2-  S190  1  0.86068756  0.81920189  0.33025052  1
  S2-  S191  1  0.88591798  0.82663459  0.86587414  1
  S2-  S192  1  -0.00433684  0.12937864  0.45110431  1
  S2-  S193  1  -0.00059079  0.10982893  0.94696724  1
  S2-  S194  1  -0.00079099  0.38674747  0.46245540  1
  S2-  S195  1  -0.00398822  0.35908758  0.96017453  1
  S2-  S196  1  -0.00354681  0.63344982  0.45485301  1
  S2-  S197  1  -0.00210583  0.61657065  0.95887893  1
  S2-  S198  1  0.00054249  0.89044865  0.43058303  1
  S2-  S199  1  0.00165033  0.85798271  0.96744956  1
  S2-  S200  1  0.24603871  0.13742546  0.46116056  1
  S2-  S201  1  0.24931582  0.11016411  0.94623133  1
  S2-  S202  1  0.24025035  0.38470260  0.46237286  1
  S2-  S203  1  0.25125236  0.36163681  0.95936703  1
  S2-  S204  1  0.24824166  0.63347599  0.46262856  1
  S2-  S205  1  0.24700430  0.61011787  0.95348770  1
  S2-  S206  1  0.24419068  0.88659288  0.45023168  1
  S2-  S207  1  0.24892902  0.85754870  0.96508741  1
  S2-  S208  1  0.49034144  0.14036941  0.47052763  1
  S2-  S209  1  0.49746800  0.11070476  0.93410749  1
  S2-  S210  1  0.49361240  0.38831731  0.45766527  1
  S2-  S211  1  0.49871745  0.36042492  0.94992546  1
  S2-  S212  1  0.49504266  0.63656780  0.46159278  1
  S2-  S213  1  0.49952487  0.61175002  0.94944527  1
  S2-  S214  1  0.49794442  0.88843754  0.45398048  1
  S2-  S215  1  0.49608320  0.85610384  0.94478478  1
  S2-  S216  1  0.74520301  0.13897602  0.46583455  1
  S2-  S217  1  0.74679144  0.11116688  0.93628668  1
  S2-  S218  1  0.74637347  0.38886505  0.45280933  1
  S2-  S219  1  0.75196123  0.36162778  0.95649842  1
  S2-  S220  1  0.74064491  0.63607835  0.45491571  1
  S2-  S221  1  0.75180295  0.61241559  0.96057470  1
  S2-  S222  1  0.74917287  0.88235399  0.45394547  1
  S2-  S223  1  0.75045215  0.86056548  0.96180372  1
  S2-  S224  1  0.12470013  -0.01580128  0.05243059  1
  S2-  S225  1  0.12078114  0.01399859  0.54311548  1
  S2-  S226  1  0.12507451  0.23832863  0.05432261  1
  S2-  S227  1  0.11647586  0.26082983  0.55266822  1
  S2-  S228  1  0.12235066  0.48334978  0.03923166  1
  S2-  S229  1  0.11396414  0.51389044  0.54405198  1
  S2-  S230  1  0.12543976  0.73597909  0.04815677  1
  S2-  S231  1  0.11607590  0.76283522  0.53135612  1
  S2-  S232  1  0.37540125  -0.01754031  0.04143094  1
  S2-  S233  1  0.36863905  0.00895254  0.54960431  1
  S2-  S234  1  0.37469444  0.23282013  0.03700086  1
  S2-  S235  1  0.36182966  0.27002091  0.55269883  1
  S2-  S236  1  0.38177167  0.48629803  0.04344446  1
  S2-  S237  1  0.36329473  0.51526568  0.55350857  1
  S2-  S238  1  0.38174969  0.73838251  0.04444065  1
  S2-  S239  1  0.37204270  0.76228371  0.55581416  1
  S2-  S240  1  0.62056963  -0.01277487  0.02504681  1
  S2-  S241  1  0.62327487  0.01057661  0.54682689  1
  S2-  S242  1  0.62488375  0.23290868  0.02726359  1
  S2-  S243  1  0.61606205  0.26847707  0.54589792  1
  S2-  S244  1  0.62569743  0.48750333  0.04253385  1
  S2-  S245  1  0.62599603  0.51416565  0.54839128  1
  S2-  S246  1  0.62593586  0.73574033  0.04358055  1
  S2-  S247  1  0.62144763  0.75991368  0.55591291  1
  S2-  S248  1  0.87716185  -0.01521247  0.04076565  1
  S2-  S249  1  0.86463088  0.01322615  0.55036127  1
  S2-  S250  1  0.87099982  0.23884990  0.05013009  1
  S2-  S251  1  0.87362125  0.26324577  0.54990239  1
  S2-  S252  1  0.86623637  0.48342948  0.04430762  1
  S2-  S253  1  0.87201233  0.51329987  0.54539551  1
  S2-  S254  1  0.87192110  0.73868834  0.05586875  1
  S2-  S255  1  0.86762167  0.76109109  0.53720983  1
