# generated using pymatgen
data_La6Ce6Pr19Nd20Sm13(BiS2)64
_symmetry_space_group_name_H-M   'P 1'
_cell_length_a   16.10100483
_cell_length_b   15.96784360
_cell_length_c   27.62853853
_cell_angle_alpha   89.27412492
_cell_angle_beta   90.22112431
_cell_angle_gamma   90.03835372
_symmetry_Int_Tables_number   1
_chemical_formula_structural   La6Ce6Pr19Nd20Sm13(BiS2)64
_chemical_formula_sum   'La6 Ce6 Pr19 Nd20 Sm13 Bi64 S128'
_cell_volume   7102.62673389
_cell_formula_units_Z   1
loop_
 _symmetry_equiv_pos_site_id
 _symmetry_equiv_pos_as_xyz
  1  'x, y, z'
loop_
 _atom_type_symbol
 _atom_type_oxidation_number
  La3+  3.0
  Ce3+  3.0
  Pr3+  3.0
  Nd3+  3.0
  Sm3+  3.0
  Bi2+  2.0
  S2-  -2.0
loop_
 _atom_site_type_symbol
 _atom_site_label
 _atom_site_symmetry_multiplicity
 _atom_site_fract_x
 _atom_site_fract_y
 _atom_site_fract_z
 _atom_site_occupancy
  La3+  La0  1  0.39394126  0.25924966  0.89212691  1
  La3+  La1  1  0.49939267  0.39291935  0.09380956  1
  La3+  La2  1  0.51078242  0.39553374  0.59825099  1
  La3+  La3  1  0.61288386  0.26574319  0.42256179  1
  La3+  La4  1  0.74679535  0.88258374  0.12287747  1
  La3+  La5  1  0.12020987  0.26500290  0.44243113  1
  Ce3+  Ce6  1  0.24761561  0.88847348  0.06491718  1
  Ce3+  Ce7  1  -0.00772606  0.38536249  0.56100954  1
  Ce3+  Ce8  1  0.74483178  0.38563774  0.55131150  1
  Ce3+  Ce9  1  0.37255083  0.02185262  0.95235679  1
  Ce3+  Ce10  1  -0.00902458  0.87806658  0.56394129  1
  Ce3+  Ce11  1  -0.00906852  0.63875672  0.56586239  1
  Pr3+  Pr12  1  -0.01843716  0.12582774  0.58295145  1
  Pr3+  Pr13  1  0.36518107  0.76182850  0.42707803  1
  Pr3+  Pr14  1  0.87043356  0.76276177  0.43193834  1
  Pr3+  Pr15  1  0.75025333  0.38932970  0.06708337  1
  Pr3+  Pr16  1  0.12582257  0.76876930  0.93268350  1
  Pr3+  Pr17  1  0.62471510  0.77072811  0.94095440  1
  Pr3+  Pr18  1  0.73881603  0.62933070  0.55836626  1
  Pr3+  Pr19  1  0.25229944  0.15111289  0.06942256  1
  Pr3+  Pr20  1  0.11985155  0.76055632  0.44514863  1
  Pr3+  Pr21  1  0.24494214  0.13940763  0.56684188  1
  Pr3+  Pr22  1  0.12352257  0.52099678  0.93211450  1
  Pr3+  Pr23  1  0.74210772  0.13795731  0.54971684  1
  Pr3+  Pr24  1  0.37394591  0.51593255  0.93649717  1
  Pr3+  Pr25  1  0.35921643  0.50980882  0.40321569  1
  Pr3+  Pr26  1  0.87570548  0.26300173  0.92100488  1
  Pr3+  Pr27  1  0.24811809  0.88491755  0.56590308  1
  Pr3+  Pr28  1  0.86939705  0.26379288  0.43139914  1
  Pr3+  Pr29  1  -0.00188010  0.64545449  0.05832784  1
  Pr3+  Pr30  1  0.61841422  0.75874377  0.42875407  1
  Nd3+  Nd31  1  0.12783136  0.02449967  0.94391954  1
  Nd3+  Nd32  1  0.37297319  0.76646913  0.93269772  1
  Nd3+  Nd33  1  0.49862045  0.14195461  0.55907514  1
  Nd3+  Nd34  1  0.25166095  0.63143915  0.55984124  1
  Nd3+  Nd35  1  0.62234808  0.51328283  0.94845599  1
  Nd3+  Nd36  1  0.87427884  0.01169881  0.42688196  1
  Nd3+  Nd37  1  0.24999805  0.39221758  0.06221066  1
  Nd3+  Nd38  1  0.74934401  0.13554737  0.06450153  1
  Nd3+  Nd39  1  0.00380949  0.89410945  0.06775770  1
  Nd3+  Nd40  1  0.87588414  0.02008525  0.94612191  1
  Nd3+  Nd41  1  0.23677301  0.38719659  0.57195841  1
  Nd3+  Nd42  1  0.87109603  0.52056281  0.93617759  1
  Nd3+  Nd43  1  0.61623057  0.00935922  0.41836318  1
  Nd3+  Nd44  1  -0.00092950  0.39365164  0.05750830  1
  Nd3+  Nd45  1  0.74931930  0.64521499  0.06341061  1
  Nd3+  Nd46  1  0.11962716  0.01391201  0.44919104  1
  Nd3+  Nd47  1  0.12465339  0.27356738  0.93165030  1
  Nd3+  Nd48  1  0.36804769  0.01517510  0.44813310  1
  Nd3+  Nd49  1  0.00214251  0.14657875  0.06608318  1
  Nd3+  Nd50  1  0.49998212  0.88695394  0.06296296  1
  Sm3+  Sm51  1  0.62404131  0.01924248  0.94664107  1
  Sm3+  Sm52  1  0.49865387  0.64057212  0.06185910  1
  Sm3+  Sm53  1  0.50012760  0.14149344  0.06126573  1
  Sm3+  Sm54  1  0.25071343  0.63553085  0.06273451  1
  Sm3+  Sm55  1  0.87195984  0.77196816  0.94483765  1
  Sm3+  Sm56  1  0.61614945  0.51215628  0.42640417  1
  Sm3+  Sm57  1  0.49226276  0.63067381  0.54667798  1
  Sm3+  Sm58  1  0.12072488  0.51480577  0.44291691  1
  Sm3+  Sm59  1  0.49797356  0.88449900  0.55014539  1
  Sm3+  Sm60  1  0.87005617  0.51448023  0.43032299  1
  Sm3+  Sm61  1  0.62316681  0.27009079  0.94699753  1
  Sm3+  Sm62  1  0.74260377  0.88532131  0.54887614  1
  Sm3+  Sm63  1  0.36968234  0.26973027  0.45024277  1
  Bi2+  Bi64  1  0.00802367  0.12881159  0.28756669  1
  Bi2+  Bi65  1  -0.00363685  0.14988897  0.79566237  1
  Bi2+  Bi66  1  -0.02478036  0.37985113  0.27357993  1
  Bi2+  Bi67  1  -0.06703529  0.37692630  0.69420420  1
  Bi2+  Bi68  1  0.06694812  0.55039004  0.29658410  1
  Bi2+  Bi69  1  0.03134279  0.54822041  0.79225809  1
  Bi2+  Bi70  1  0.02799722  0.74816769  0.28166691  1
  Bi2+  Bi71  1  -0.03228616  0.92606607  0.79077338  1
  Bi2+  Bi72  1  0.20043293  0.09262294  0.30074608  1
  Bi2+  Bi73  1  0.25430575  0.12057389  0.79609677  1
  Bi2+  Bi74  1  0.25120119  0.34493339  0.30219732  1
  Bi2+  Bi75  1  0.26139759  0.38281646  0.78762879  1
  Bi2+  Bi76  1  0.30039240  0.67013707  0.25320774  1
  Bi2+  Bi77  1  0.26313289  0.66873628  0.79548263  1
  Bi2+  Bi78  1  0.28390303  0.85712416  0.30658514  1
  Bi2+  Bi79  1  0.24623823  0.85531365  0.83087488  1
  Bi2+  Bi80  1  0.47816842  0.06362907  0.28760794  1
  Bi2+  Bi81  1  0.49892624  0.02836650  0.78486132  1
  Bi2+  Bi82  1  0.49605573  0.32623826  0.28869570  1
  Bi2+  Bi83  1  0.53415470  0.42366684  0.79882450  1
  Bi2+  Bi84  1  0.56804672  0.60913468  0.27118781  1
  Bi2+  Bi85  1  0.53210340  0.62706883  0.73985310  1
  Bi2+  Bi86  1  0.47791928  0.79515106  0.29720096  1
  Bi2+  Bi87  1  0.44255596  0.84111363  0.81237093  1
  Bi2+  Bi88  1  0.76854567  0.11601866  0.28369012  1
  Bi2+  Bi89  1  0.79030765  0.14564491  0.76970608  1
  Bi2+  Bi90  1  0.74426339  0.31319990  0.29802148  1
  Bi2+  Bi91  1  0.81634962  0.35328674  0.78695581  1
  Bi2+  Bi92  1  0.84162160  0.56210282  0.27146239  1
  Bi2+  Bi93  1  0.75770943  0.63239160  0.81297498  1
  Bi2+  Bi94  1  0.75787774  0.78777426  0.30959565  1
  Bi2+  Bi95  1  0.68358209  0.90232508  0.79181849  1
  Bi2+  Bi96  1  0.12559137  -0.08858057  0.23987083  1
  Bi2+  Bi97  1  0.10099526  -0.00007785  0.70971330  1
  Bi2+  Bi98  1  0.12764903  0.19389386  0.19355806  1
  Bi2+  Bi99  1  0.15489265  0.26633946  0.70024904  1
  Bi2+  Bi100  1  0.10880571  0.46129528  0.19999142  1
  Bi2+  Bi101  1  0.08095067  0.62476136  0.69087102  1
  Bi2+  Bi102  1  0.15174907  0.72437138  0.18706894  1
  Bi2+  Bi103  1  0.10192316  0.79282378  0.75676202  1
  Bi2+  Bi104  1  0.39270316  -0.07206693  0.22128825  1
  Bi2+  Bi105  1  0.33050484  -0.05496183  0.73344108  1
  Bi2+  Bi106  1  0.36173114  0.18556060  0.20202275  1
  Bi2+  Bi107  1  0.39948421  0.24044264  0.69023514  1
  Bi2+  Bi108  1  0.36912727  0.50028670  0.20915114  1
  Bi2+  Bi109  1  0.37181640  0.52721815  0.69730547  1
  Bi2+  Bi110  1  0.35630563  0.76588117  0.15410027  1
  Bi2+  Bi111  1  0.39320310  0.76152786  0.71020113  1
  Bi2+  Bi112  1  0.63424661  -0.00101490  0.23116532  1
  Bi2+  Bi113  1  0.60384195  -0.01984487  0.69483353  1
  Bi2+  Bi114  1  0.65897094  0.20015848  0.19700486  1
  Bi2+  Bi115  1  0.64024669  0.26553325  0.76321347  1
  Bi2+  Bi116  1  0.68370105  0.47584387  0.22251004  1
  Bi2+  Bi117  1  0.70539914  0.52652215  0.72067251  1
  Bi2+  Bi118  1  0.54482179  0.73518219  0.19166926  1
  Bi2+  Bi119  1  0.64471960  0.78460062  0.70461156  1
  Bi2+  Bi120  1  0.94279538  -0.02709237  0.23013591  1
  Bi2+  Bi121  1  0.84481414  -0.00844155  0.70732545  1
  Bi2+  Bi122  1  0.85364898  0.24955236  0.20902699  1
  Bi2+  Bi123  1  0.76719293  0.28179318  0.67249803  1
  Bi2+  Bi124  1  0.86205691  0.44477404  0.17762888  1
  Bi2+  Bi125  1  0.89028289  0.57108309  0.68642510  1
  Bi2+  Bi126  1  0.89529323  0.70577136  0.19747361  1
  Bi2+  Bi127  1  0.90572436  0.75286040  0.75145370  1
  S2-  S128  1  0.00286474  0.08281024  0.15928154  1
  S2-  S129  1  0.03256255  0.16734884  0.68078055  1
  S2-  S130  1  0.04240831  0.32858336  0.14678857  1
  S2-  S131  1  0.08700267  0.39460937  0.64249975  1
  S2-  S132  1  0.02553005  0.60422299  0.15459744  1
  S2-  S133  1  -0.01345599  0.75457976  0.63719705  1
  S2-  S134  1  -0.08340449  0.86705922  0.15299962  1
  S2-  S135  1  -0.01650504  0.97466225  0.64359237  1
  S2-  S136  1  0.24905018  0.07828942  0.16418971  1
  S2-  S137  1  0.25762758  0.13946976  0.66596260  1
  S2-  S138  1  0.24943816  0.27987641  0.14542274  1
  S2-  S139  1  0.28391982  0.38212604  0.66922960  1
  S2-  S140  1  0.24620138  0.51316570  0.13745146  1
  S2-  S141  1  0.25151241  0.63764406  0.65793466  1
  S2-  S142  1  0.13482202  0.87922243  0.13862699  1
  S2-  S143  1  0.21188436  0.89573804  0.66301022  1
  S2-  S144  1  0.50355572  0.13428835  0.15918943  1
  S2-  S145  1  0.54071498  0.21518032  0.64369624  1
  S2-  S146  1  0.44483616  0.34200519  0.19182417  1
  S2-  S147  1  0.47939325  0.39184754  0.69952673  1
  S2-  S148  1  0.48829679  0.54810343  0.14643944  1
  S2-  S149  1  0.50778689  0.57882160  0.63989781  1
  S2-  S150  1  0.57578084  0.89447056  0.15213349  1
  S2-  S151  1  0.49691417  0.86165382  0.64633265  1
  S2-  S152  1  0.74386765  0.05539432  0.15222152  1
  S2-  S153  1  0.82535734  0.12503916  0.63696697  1
  S2-  S154  1  0.64961857  0.36178353  0.14893574  1
  S2-  S155  1  0.67499905  0.42308443  0.63750677  1
  S2-  S156  1  0.74318745  0.70706497  0.15405648  1
  S2-  S157  1  0.74082248  0.66555011  0.65621816  1
  S2-  S158  1  0.75570607  0.88025542  0.23225533  1
  S2-  S159  1  0.74660738  0.89491541  0.64627975  1
  S2-  S160  1  0.08655432  0.00672041  0.35263958  1
  S2-  S161  1  0.11822947  0.05323115  0.84561372  1
  S2-  S162  1  0.13420815  0.25299363  0.34288104  1
  S2-  S163  1  0.22709586  0.25071106  0.85259987  1
  S2-  S164  1  0.19815901  0.48803066  0.35666437  1
  S2-  S165  1  0.13443080  0.44300440  0.84005502  1
  S2-  S166  1  0.15575860  0.75724950  0.34863048  1
  S2-  S167  1  0.11673840  0.65075388  0.85741384  1
  S2-  S168  1  0.33941257  0.02088693  0.35152099  1
  S2-  S169  1  0.38033866  0.08150242  0.86147631  1
  S2-  S170  1  0.36651682  0.26121281  0.35078466  1
  S2-  S171  1  0.37785146  0.24464154  0.78363310  1
  S2-  S172  1  0.40175663  0.45311823  0.30808423  1
  S2-  S173  1  0.37875749  0.42524611  0.84895008  1
  S2-  S174  1  0.37550550  0.65901835  0.34687659  1
  S2-  S175  1  0.38015183  0.64505754  0.86042155  1
  S2-  S176  1  0.62517347  -0.12299155  0.34925693  1
  S2-  S177  1  0.63256136  0.03386397  0.84903424  1
  S2-  S178  1  0.59140911  0.13586532  0.34837510  1
  S2-  S179  1  0.56464594  0.27090724  0.85451520  1
  S2-  S180  1  0.61527934  0.39470679  0.34935672  1
  S2-  S181  1  0.63976204  0.50863431  0.85034611  1
  S2-  S182  1  0.64382646  0.63896053  0.35435313  1
  S2-  S183  1  0.64561196  0.74756931  0.84275333  1
  S2-  S184  1  0.87012470  -0.11647305  0.35421395  1
  S2-  S185  1  0.86592187  0.11286941  0.86099237  1
  S2-  S186  1  0.88729331  0.14328683  0.35741952  1
  S2-  S187  1  1.00467904  0.27308747  0.85314148  1
  S2-  S188  1  0.87453528  0.38960386  0.35649949  1
  S2-  S189  1  0.88274979  0.49170061  0.83923671  1
  S2-  S190  1  0.87423071  0.63956854  0.35699293  1
  S2-  S191  1  0.87906573  0.72390749  0.85076251  1
  S2-  S192  1  -0.00290940  0.13755747  0.45955930  1
  S2-  S193  1  0.00035380  0.14516737  0.95999011  1
  S2-  S194  1  -0.00245086  0.39337151  0.45473293  1
  S2-  S195  1  -0.00754626  0.39510151  0.95341398  1
  S2-  S196  1  -0.00310510  0.63449311  0.45813394  1
  S2-  S197  1  -0.00695564  0.64563026  0.95461999  1
  S2-  S198  1  -0.00259523  0.88638895  0.45790904  1
  S2-  S199  1  0.00069960  0.89358190  0.95314076  1
  S2-  S200  1  0.24665222  0.14049170  0.46027843  1
  S2-  S201  1  0.25148023  0.14636768  0.96201581  1
  S2-  S202  1  0.24584527  0.38994436  0.46354425  1
  S2-  S203  1  0.24578183  0.39671986  0.95720316  1
  S2-  S204  1  0.24823614  0.63316694  0.45475378  1
  S2-  S205  1  0.24931210  0.64466150  0.96000588  1
  S2-  S206  1  0.24547440  0.88704278  0.45871110  1
  S2-  S207  1  0.24999089  0.89372926  0.95867937  1
  S2-  S208  1  0.48975554  0.13908991  0.45444484  1
  S2-  S209  1  0.50182351  0.14417663  0.95812735  1
  S2-  S210  1  0.48302945  0.39517344  0.44147232  1
  S2-  S211  1  0.50028156  0.38952643  0.95593502  1
  S2-  S212  1  0.48843105  0.63304293  0.44642482  1
  S2-  S213  1  0.50333180  0.64316114  0.95896022  1
  S2-  S214  1  0.49032947  0.88770822  0.44717938  1
  S2-  S215  1  0.49797030  0.89452972  0.95514919  1
  S2-  S216  1  0.73947382  0.13400247  0.44544988  1
  S2-  S217  1  0.74671607  0.14466493  0.95880092  1
  S2-  S218  1  0.74368109  0.39261986  0.44926600  1
  S2-  S219  1  0.75253024  0.38827385  0.95565837  1
  S2-  S220  1  0.74537368  0.63304646  0.45511264  1
  S2-  S221  1  0.74895587  0.64441793  0.95729766  1
  S2-  S222  1  0.74130370  0.88953378  0.44945091  1
  S2-  S223  1  0.75069400  0.89694723  0.94448607  1
  S2-  S224  1  0.12668255  0.02126237  0.04731414  1
  S2-  S225  1  0.12132650  0.01166333  0.55285567  1
  S2-  S226  1  0.12274807  0.26990447  0.03869821  1
  S2-  S227  1  0.11452750  0.25612191  0.54982434  1
  S2-  S228  1  0.12100191  0.51949580  0.03982595  1
  S2-  S229  1  0.11924549  0.51643091  0.54553220  1
  S2-  S230  1  0.12663472  0.76288886  0.03907584  1
  S2-  S231  1  0.12721211  0.75860601  0.54894442  1
  S2-  S232  1  0.37597355  0.01472161  0.05683713  1
  S2-  S233  1  0.37427940  0.01217285  0.55381313  1
  S2-  S234  1  0.38562966  0.27019575  0.05708816  1
  S2-  S235  1  0.37265698  0.26758279  0.55372119  1
  S2-  S236  1  0.37815686  0.51754583  0.04256871  1
  S2-  S237  1  0.37248135  0.50357227  0.55582663  1
  S2-  S238  1  0.37438274  0.76262156  0.03884407  1
  S2-  S239  1  0.37313856  0.76090778  0.54088759  1
  S2-  S240  1  0.62333638  0.01350354  0.04828255  1
  S2-  S241  1  0.61729288  0.01055214  0.53724520  1
  S2-  S242  1  0.62396265  0.26301202  0.04838429  1
  S2-  S243  1  0.61793331  0.26722377  0.53284513  1
  S2-  S244  1  0.62641837  0.51758587  0.05204389  1
  S2-  S245  1  0.61378790  0.50868450  0.53062700  1
  S2-  S246  1  0.62403833  0.76610354  0.04683581  1
  S2-  S247  1  0.61672056  0.75908249  0.53933380  1
  S2-  S248  1  0.87861019  0.01729408  0.04876780  1
  S2-  S249  1  0.86581151  0.00747392  0.53476691  1
  S2-  S250  1  0.87315035  0.26527530  0.04988740  1
  S2-  S251  1  0.87168559  0.26137137  0.53859870  1
  S2-  S252  1  0.87185903  0.51841625  0.04359741  1
  S2-  S253  1  0.86977990  0.51079790  0.54251597  1
  S2-  S254  1  0.87149064  0.77189303  0.04643912  1
  S2-  S255  1  0.86049018  0.75822224  0.53862076  1
