# generated using pymatgen
data_La6Ce6Pr19Nd20Sm13(BiS2)64
_symmetry_space_group_name_H-M   'P 1'
_cell_length_a   16.11140378
_cell_length_b   16.14623339
_cell_length_c   27.32376509
_cell_angle_alpha   90.00581749
_cell_angle_beta   89.82253073
_cell_angle_gamma   90.02600123
_symmetry_Int_Tables_number   1
_chemical_formula_structural   La6Ce6Pr19Nd20Sm13(BiS2)64
_chemical_formula_sum   'La6 Ce6 Pr19 Nd20 Sm13 Bi64 S128'
_cell_volume   7107.92801090
_cell_formula_units_Z   1
loop_
 _symmetry_equiv_pos_site_id
 _symmetry_equiv_pos_as_xyz
  1  'x, y, z'
loop_
 _atom_type_symbol
 _atom_type_oxidation_number
  La3+  3.0
  Ce3+  3.0
  Pr3+  3.0
  Nd3+  3.0
  Sm3+  3.0
  Bi2+  2.0
  S2-  -2.0
loop_
 _atom_site_type_symbol
 _atom_site_label
 _atom_site_symmetry_multiplicity
 _atom_site_fract_x
 _atom_site_fract_y
 _atom_site_fract_z
 _atom_site_occupancy
  La3+  La0  1  0.11747866  0.74792629  0.38610762  1
  La3+  La1  1  0.63104600  0.50422805  0.90280382  1
  La3+  La2  1  0.36985974  0.50810754  0.93477827  1
  La3+  La3  1  0.87966837  0.50948592  0.93007837  1
  La3+  La4  1  0.12054936  0.76528303  0.92427334  1
  La3+  La5  1  0.11118485  0.01503115  0.92761041  1
  Ce3+  Ce6  1  0.37956453  -0.01511342  0.44293491  1
  Ce3+  Ce7  1  0.25553178  0.36293815  0.56715431  1
  Ce3+  Ce8  1  0.74171008  0.63724309  0.04669862  1
  Ce3+  Ce9  1  0.00564226  0.11520104  0.55880025  1
  Ce3+  Ce10  1  0.37036307  0.26060183  0.94578220  1
  Ce3+  Ce11  1  0.50560237  0.11653052  0.55576973  1
  Pr3+  Pr12  1  0.38532439  0.24137138  0.43772033  1
  Pr3+  Pr13  1  0.87921536  0.23886171  0.43999584  1
  Pr3+  Pr14  1  -0.00802618  0.63974917  0.06608772  1
  Pr3+  Pr15  1  0.62850602  0.48958619  0.44074207  1
  Pr3+  Pr16  1  0.37413694  0.73601391  0.42923400  1
  Pr3+  Pr17  1  0.11613092  0.25956987  0.93108140  1
  Pr3+  Pr18  1  0.25884546  0.86260502  0.56878136  1
  Pr3+  Pr19  1  0.23226162  0.88298526  0.07239275  1
  Pr3+  Pr20  1  0.75681717  0.11479846  0.56220341  1
  Pr3+  Pr21  1  0.13458341  0.23879649  0.43276610  1
  Pr3+  Pr22  1  0.75355199  0.86232757  0.55276581  1
  Pr3+  Pr23  1  0.49167458  0.88235656  0.06053436  1
  Pr3+  Pr24  1  0.88176121  -0.01416441  0.43571088  1
  Pr3+  Pr25  1  0.87975336  0.48798167  0.44679853  1
  Pr3+  Pr26  1  0.87202155  0.76383668  0.93424186  1
  Pr3+  Pr27  1  0.36736598  0.00782257  0.94171274  1
  Pr3+  Pr28  1  0.24018052  0.13523570  0.06011905  1
  Pr3+  Pr29  1  0.75501446  0.61201644  0.56437600  1
  Pr3+  Pr30  1  0.00667234  0.61273676  0.56330029  1
  Nd3+  Nd31  1  0.13507147  -0.00687334  0.43233719  1
  Nd3+  Nd32  1  0.74491704  0.38944964  0.06619268  1
  Nd3+  Nd33  1  0.62252683  0.73389527  0.42841910  1
  Nd3+  Nd34  1  0.50565511  0.61220320  0.56364421  1
  Nd3+  Nd35  1  -0.01173756  0.38182135  0.07086325  1
  Nd3+  Nd36  1  0.62152897  0.25853024  0.94644691  1
  Nd3+  Nd37  1  -0.00903594  0.13945289  0.06450721  1
  Nd3+  Nd38  1  0.49880726  0.36436614  0.57274668  1
  Nd3+  Nd39  1  0.74787673  0.35687693  0.60004875  1
  Nd3+  Nd40  1  0.36575438  0.75924129  0.93524168  1
  Nd3+  Nd41  1  -0.01390890  0.89499141  0.07054232  1
  Nd3+  Nd42  1  0.74242171  0.87369468  0.07162354  1
  Nd3+  Nd43  1  0.24330557  0.38463114  0.06077687  1
  Nd3+  Nd44  1  0.13139504  0.49119358  0.43793471  1
  Nd3+  Nd45  1  0.62085500  0.00621805  0.94464814  1
  Nd3+  Nd46  1  0.88373935  0.73721053  0.44414778  1
  Nd3+  Nd47  1  0.49419527  0.13355170  0.06057882  1
  Nd3+  Nd48  1  0.86216948  0.26152235  0.93689481  1
  Nd3+  Nd49  1  0.61518847  0.75894590  0.92360691  1
  Nd3+  Nd50  1  0.49306769  0.63544277  0.05588007  1
  Sm3+  Sm51  1  0.24278180  0.63488500  0.05791568  1
  Sm3+  Sm52  1  0.49616789  0.38830514  0.05163054  1
  Sm3+  Sm53  1  0.63158378  0.24024155  0.44524780  1
  Sm3+  Sm54  1  0.00989068  0.86425188  0.55650224  1
  Sm3+  Sm55  1  0.50420103  0.86175374  0.56289569  1
  Sm3+  Sm56  1  0.11458341  0.50806401  0.95188881  1
  Sm3+  Sm57  1  0.62884237  -0.01352070  0.44603450  1
  Sm3+  Sm58  1  0.37883901  0.48761487  0.44174545  1
  Sm3+  Sm59  1  0.86785978  0.00639985  0.94179100  1
  Sm3+  Sm60  1  0.25327032  0.11373528  0.55748495  1
  Sm3+  Sm61  1  0.74256689  0.13438686  0.05951918  1
  Sm3+  Sm62  1  0.25442871  0.61579275  0.55442052  1
  Sm3+  Sm63  1  0.00554343  0.36235238  0.55442184  1
  Bi2+  Bi64  1  0.00844899  0.18035770  0.28361254  1
  Bi2+  Bi65  1  0.04408955  0.19024882  0.78106591  1
  Bi2+  Bi66  1  -0.01889886  0.37288284  0.30052640  1
  Bi2+  Bi67  1  0.00850733  0.39864423  0.78992718  1
  Bi2+  Bi68  1  -0.01212300  0.61398524  0.28969128  1
  Bi2+  Bi69  1  0.00173221  0.62593188  0.78672264  1
  Bi2+  Bi70  1  -0.02462347  0.88684186  0.28631755  1
  Bi2+  Bi71  1  0.02356297  0.88708198  0.79166174  1
  Bi2+  Bi72  1  0.26058096  0.18110288  0.29937834  1
  Bi2+  Bi73  1  0.29126088  0.06908358  0.75670620  1
  Bi2+  Bi74  1  0.17659848  0.36621501  0.32546193  1
  Bi2+  Bi75  1  0.19629283  0.34145175  0.80079176  1
  Bi2+  Bi76  1  0.25466400  0.53304539  0.28131902  1
  Bi2+  Bi77  1  0.19416672  0.64040367  0.77627802  1
  Bi2+  Bi78  1  0.25230610  0.87613906  0.28513339  1
  Bi2+  Bi79  1  0.27990310  0.86306674  0.78917017  1
  Bi2+  Bi80  1  0.53539714  0.14162892  0.29929681  1
  Bi2+  Bi81  1  0.46315824  0.15563370  0.78394561  1
  Bi2+  Bi82  1  0.55260194  0.42523887  0.28987953  1
  Bi2+  Bi83  1  0.42144209  0.39721655  0.78333799  1
  Bi2+  Bi84  1  0.51322267  0.61859448  0.29661031  1
  Bi2+  Bi85  1  0.47300166  0.64939610  0.79595523  1
  Bi2+  Bi86  1  0.51832498  0.88524078  0.28659813  1
  Bi2+  Bi87  1  0.57668200  0.88853899  0.79297941  1
  Bi2+  Bi88  1  0.71606822  0.13187062  0.25157281  1
  Bi2+  Bi89  1  0.70540990  0.12106701  0.79292557  1
  Bi2+  Bi90  1  0.73367251  0.33429813  0.29518616  1
  Bi2+  Bi91  1  0.77486339  0.35747641  0.79443861  1
  Bi2+  Bi92  1  0.73134472  0.67600117  0.27917265  1
  Bi2+  Bi93  1  0.73777476  0.70375921  0.77541661  1
  Bi2+  Bi94  1  0.71812611  0.87462529  0.28209729  1
  Bi2+  Bi95  1  0.76438129  0.86864212  0.83646515  1
  Bi2+  Bi96  1  0.13949500  -0.00540612  0.19789699  1
  Bi2+  Bi97  1  0.09013688  -0.00054695  0.68774154  1
  Bi2+  Bi98  1  0.15227341  0.24787704  0.20922440  1
  Bi2+  Bi99  1  0.14044129  0.27377899  0.69104889  1
  Bi2+  Bi100  1  0.10875006  0.44475962  0.22100299  1
  Bi2+  Bi101  1  0.14381326  0.47552005  0.71507174  1
  Bi2+  Bi102  1  0.12935257  0.70441613  0.18415577  1
  Bi2+  Bi103  1  0.10754115  0.73946085  0.68850752  1
  Bi2+  Bi104  1  0.38327328  0.04348718  0.25610162  1
  Bi2+  Bi105  1  0.46378987  0.00697517  0.70335084  1
  Bi2+  Bi106  1  0.43357024  0.22441307  0.21102854  1
  Bi2+  Bi107  1  0.33359266  0.25248316  0.71440971  1
  Bi2+  Bi108  1  0.37992667  0.41180292  0.22960693  1
  Bi2+  Bi109  1  0.33066604  0.52461863  0.69876096  1
  Bi2+  Bi110  1  0.37521485  0.73787994  0.19467183  1
  Bi2+  Bi111  1  0.41908287  0.77727264  0.72106460  1
  Bi2+  Bi112  1  0.61871838  -0.01880626  0.20197456  1
  Bi2+  Bi113  1  0.66309121  -0.00878717  0.70406440  1
  Bi2+  Bi114  1  0.62747869  0.28828460  0.19921411  1
  Bi2+  Bi115  1  0.60456123  0.23134300  0.71852255  1
  Bi2+  Bi116  1  0.64279702  0.47947945  0.18959898  1
  Bi2+  Bi117  1  0.60870876  0.50293518  0.71404268  1
  Bi2+  Bi118  1  0.60612064  0.75623113  0.19600108  1
  Bi2+  Bi119  1  0.60642305  0.79976575  0.68902294  1
  Bi2+  Bi120  1  0.88390025  0.02339674  0.21801801  1
  Bi2+  Bi121  1  0.86143122  0.01200948  0.77261098  1
  Bi2+  Bi122  1  0.88177642  0.27684308  0.19980377  1
  Bi2+  Bi123  1  0.88880631  0.23375660  0.69928485  1
  Bi2+  Bi124  1  0.80774238  0.49891056  0.24897121  1
  Bi2+  Bi125  1  0.85290724  0.56134322  0.72235664  1
  Bi2+  Bi126  1  0.85983008  0.76044005  0.20529908  1
  Bi2+  Bi127  1  0.87226357  0.81750464  0.73018143  1
  S2-  S128  1  0.00489519  0.04051716  0.14814902  1
  S2-  S129  1  -0.04279036  0.10219567  0.65268548  1
  S2-  S130  1  0.01442114  0.25763883  0.14120714  1
  S2-  S131  1  -0.00160727  0.34524210  0.65123817  1
  S2-  S132  1  -0.02867941  0.63565120  0.16719965  1
  S2-  S133  1  -0.02541187  0.62130224  0.66208078  1
  S2-  S134  1  0.08311616  0.85068842  0.14837212  1
  S2-  S135  1  -0.00930037  0.86376222  0.65464394  1
  S2-  S136  1  0.23263253  0.10967744  0.15936796  1
  S2-  S137  1  0.22290639  0.08886407  0.65335294  1
  S2-  S138  1  0.24472969  0.37809035  0.15954917  1
  S2-  S139  1  0.36683320  0.37170217  0.64301537  1
  S2-  S140  1  0.27902154  0.62291859  0.15463469  1
  S2-  S141  1  0.25411641  0.65140743  0.65102762  1
  S2-  S142  1  0.27526134  0.87365132  0.17298067  1
  S2-  S143  1  0.18982828  0.87423485  0.66518860  1
  S2-  S144  1  0.50786417  0.09721629  0.15638341  1
  S2-  S145  1  0.50148088  0.15530819  0.64953848  1
  S2-  S146  1  0.49296476  0.40905177  0.14826239  1
  S2-  S147  1  0.59922376  0.37201246  0.65542487  1
  S2-  S148  1  0.49515324  0.64269383  0.15613762  1
  S2-  S149  1  0.49046858  0.57028183  0.66105919  1
  S2-  S150  1  0.48641387  0.86554849  0.16004029  1
  S2-  S151  1  0.39641696  0.87402842  0.63918912  1
  S2-  S152  1  0.79385432  0.13802643  0.15328759  1
  S2-  S153  1  0.75036094  0.20189301  0.64994433  1
  S2-  S154  1  0.85953884  0.40433255  0.14167959  1
  S2-  S155  1  0.80563630  0.40298847  0.69237482  1
  S2-  S156  1  0.73870456  0.71787395  0.13362852  1
  S2-  S157  1  0.71672010  0.60803488  0.66164307  1
  S2-  S158  1  0.85447436  0.89611101  0.14816572  1
  S2-  S159  1  0.75919053  0.86640678  0.65222688  1
  S2-  S160  1  0.11714257  -0.08608110  0.34362312  1
  S2-  S161  1  0.14805369  -0.09861043  0.85323679  1
  S2-  S162  1  0.11960412  0.12539335  0.35584683  1
  S2-  S163  1  0.13701921  0.14508531  0.85480788  1
  S2-  S164  1  0.11868817  0.57752702  0.35056410  1
  S2-  S165  1  0.02675039  0.50844207  0.86640529  1
  S2-  S166  1  0.10314165  0.74298040  0.27378056  1
  S2-  S167  1  0.25655005  0.73416522  0.85505165  1
  S2-  S168  1  0.33801479  -0.01331972  0.34881071  1
  S2-  S169  1  0.35027782  -0.01327185  0.84134381  1
  S2-  S170  1  0.34146899  0.30319681  0.34814639  1
  S2-  S171  1  0.34585798  0.27839025  0.85127783  1
  S2-  S172  1  0.38209546  0.55542811  0.35069684  1
  S2-  S173  1  0.36031023  0.52956192  0.83565883  1
  S2-  S174  1  0.27697621  0.75663434  0.34568368  1
  S2-  S175  1  0.47667445  0.77818025  0.85642980  1
  S2-  S176  1  0.62463715  -0.01830183  0.34877009  1
  S2-  S177  1  0.58605631  0.03449984  0.84921249  1
  S2-  S178  1  0.57373553  0.27564113  0.35587969  1
  S2-  S179  1  0.68672123  0.26693947  0.85539180  1
  S2-  S180  1  0.64452808  0.59954692  0.36174008  1
  S2-  S181  1  0.56997169  0.44107842  0.81078066  1
  S2-  S182  1  0.50053321  0.75849517  0.35555832  1
  S2-  S183  1  0.62334365  0.64656404  0.84242290  1
  S2-  S184  1  0.88787330  -0.00315015  0.33522989  1
  S2-  S185  1  0.95838269  0.01053317  0.85813519  1
  S2-  S186  1  0.86828666  0.24025180  0.33995892  1
  S2-  S187  1  0.91331531  0.27240261  0.84165754  1
  S2-  S188  1  0.88754172  0.51121893  0.34671848  1
  S2-  S189  1  0.78368200  0.49090456  0.84622199  1
  S2-  S190  1  0.94269396  0.74429910  0.35122441  1
  S2-  S191  1  0.98366371  0.75082123  0.85504690  1
  S2-  S192  1  0.00252344  0.11349871  0.45350407  1
  S2-  S193  1  -0.01391045  0.14030155  0.95765467  1
  S2-  S194  1  0.00681366  0.36301369  0.44974654  1
  S2-  S195  1  -0.00616025  0.37927133  0.96331336  1
  S2-  S196  1  0.00531145  0.61274701  0.45780455  1
  S2-  S197  1  -0.00100100  0.63833447  0.96031949  1
  S2-  S198  1  0.00832190  0.86321434  0.45266644  1
  S2-  S199  1  -0.00819018  0.88779132  0.96165368  1
  S2-  S200  1  0.26038974  0.11623648  0.45364008  1
  S2-  S201  1  0.24760163  0.13684022  0.95506444  1
  S2-  S202  1  0.25524364  0.36649225  0.46045800  1
  S2-  S203  1  0.24003791  0.38544715  0.95411608  1
  S2-  S204  1  0.25494911  0.61003385  0.45264519  1
  S2-  S205  1  0.23957180  0.62684683  0.95509633  1
  S2-  S206  1  0.25454464  0.86589014  0.45839746  1
  S2-  S207  1  0.24642709  0.88452055  0.96208446  1
  S2-  S208  1  0.50822764  0.11300599  0.45003408  1
  S2-  S209  1  0.49516819  0.13418406  0.95425709  1
  S2-  S210  1  0.50441508  0.36744075  0.46223198  1
  S2-  S211  1  0.50035195  0.38585423  0.94658988  1
  S2-  S212  1  0.50161076  0.61174762  0.45853198  1
  S2-  S213  1  0.49617975  0.62972572  0.95008349  1
  S2-  S214  1  0.50571479  0.86499024  0.45934817  1
  S2-  S215  1  0.49454219  0.88657219  0.95532968  1
  S2-  S216  1  0.75212983  0.11215184  0.45257101  1
  S2-  S217  1  0.74477181  0.13117509  0.95428535  1
  S2-  S218  1  0.75264886  0.36383896  0.44675439  1
  S2-  S219  1  0.74235811  0.38741701  0.95947803  1
  S2-  S220  1  0.75764992  0.61629029  0.45852253  1
  S2-  S221  1  0.74696277  0.63702480  0.94381104  1
  S2-  S222  1  0.75248179  0.85964307  0.44588814  1
  S2-  S223  1  0.74377744  0.88373644  0.96138753  1
  S2-  S224  1  0.11735891  0.01237895  0.04186786  1
  S2-  S225  1  0.13026822  -0.01013940  0.54274459  1
  S2-  S226  1  0.12084667  0.26155528  0.03981344  1
  S2-  S227  1  0.13050624  0.23911525  0.54325174  1
  S2-  S228  1  0.11715110  0.50866845  0.05618868  1
  S2-  S229  1  0.13090987  0.48755256  0.54894998  1
  S2-  S230  1  0.12115885  0.75562053  0.04241348  1
  S2-  S231  1  0.12956335  0.73924199  0.55208973  1
  S2-  S232  1  0.36705897  0.00863710  0.05084065  1
  S2-  S233  1  0.38046605  -0.00536015  0.54664676  1
  S2-  S234  1  0.37159904  0.26202454  0.05264190  1
  S2-  S235  1  0.37682137  0.23664420  0.54493196  1
  S2-  S236  1  0.36797501  0.50863851  0.04431369  1
  S2-  S237  1  0.37784956  0.49329527  0.54511686  1
  S2-  S238  1  0.36531456  0.75802743  0.04442965  1
  S2-  S239  1  0.38242284  0.73472777  0.54341176  1
  S2-  S240  1  0.62144421  0.00719029  0.05118286  1
  S2-  S241  1  0.62785013  -0.01164993  0.55097382  1
  S2-  S242  1  0.61862099  0.26046947  0.05250206  1
  S2-  S243  1  0.63160607  0.24355264  0.54742931  1
  S2-  S244  1  0.61872157  0.51123801  0.04599456  1
  S2-  S245  1  0.63228134  0.48563543  0.54823911  1
  S2-  S246  1  0.61446491  0.76007274  0.03557330  1
  S2-  S247  1  0.62721852  0.73776390  0.54315255  1
  S2-  S248  1  0.86107437  0.01343730  0.04467318  1
  S2-  S249  1  0.88018076  -0.01315636  0.54364664  1
  S2-  S250  1  0.86142338  0.25917860  0.04416886  1
  S2-  S251  1  0.87731645  0.24444708  0.54603137  1
  S2-  S252  1  0.86968840  0.51512006  0.04013962  1
  S2-  S253  1  0.87664991  0.48181450  0.55444140  1
  S2-  S254  1  0.87096983  0.76222480  0.04109669  1
  S2-  S255  1  0.88196143  0.74022438  0.55064971  1
