# generated using pymatgen
data_La6Ce6Pr19Nd20Sm13(BiS2)64
_symmetry_space_group_name_H-M   'P 1'
_cell_length_a   16.09173370
_cell_length_b   16.07536809
_cell_length_c   27.29647759
_cell_angle_alpha   89.80394564
_cell_angle_beta   90.13335554
_cell_angle_gamma   89.94284519
_symmetry_Int_Tables_number   1
_chemical_formula_structural   La6Ce6Pr19Nd20Sm13(BiS2)64
_chemical_formula_sum   'La6 Ce6 Pr19 Nd20 Sm13 Bi64 S128'
_cell_volume   7061.00359980
_cell_formula_units_Z   1
loop_
 _symmetry_equiv_pos_site_id
 _symmetry_equiv_pos_as_xyz
  1  'x, y, z'
loop_
 _atom_type_symbol
 _atom_type_oxidation_number
  La3+  3.0
  Ce3+  3.0
  Pr3+  3.0
  Nd3+  3.0
  Sm3+  3.0
  Bi2+  2.0
  S2-  -2.0
loop_
 _atom_site_type_symbol
 _atom_site_label
 _atom_site_symmetry_multiplicity
 _atom_site_fract_x
 _atom_site_fract_y
 _atom_site_fract_z
 _atom_site_occupancy
  La3+  La0  1  0.49880825  0.37748055  0.56787743  1
  La3+  La1  1  0.11639788  0.74259877  0.38187064  1
  La3+  La2  1  0.24273324  0.12052825  0.58828737  1
  La3+  La3  1  0.37521314  0.75838815  0.43274650  1
  La3+  La4  1  0.35123001  0.73811294  0.94092261  1
  La3+  La5  1  0.62580486  0.25451431  0.40702936  1
  Ce3+  Ce6  1  0.74871487  0.12851938  0.56807162  1
  Ce3+  Ce7  1  0.84707905  0.24597689  0.93730116  1
  Ce3+  Ce8  1  0.22720333  0.36352371  0.06076512  1
  Ce3+  Ce9  1  0.00263385  0.37495545  0.55477089  1
  Ce3+  Ce10  1  0.60425445  -0.01084449  0.93588067  1
  Ce3+  Ce11  1  0.09897713  0.49486734  0.95115022  1
  Pr3+  Pr12  1  0.72388849  0.11903458  0.06042388  1
  Pr3+  Pr13  1  0.00263884  0.63023679  0.56123199  1
  Pr3+  Pr14  1  -0.00675395  0.12811189  0.56679148  1
  Pr3+  Pr15  1  0.87234065  0.00324123  0.44067639  1
  Pr3+  Pr16  1  0.62333280  0.50308797  0.43201248  1
  Pr3+  Pr17  1  0.85015550  0.49467490  0.93538873  1
  Pr3+  Pr18  1  0.58916180  0.24556671  0.92437426  1
  Pr3+  Pr19  1  0.72350825  0.60920434  0.06593479  1
  Pr3+  Pr20  1  0.23633648  0.61681291  0.07493254  1
  Pr3+  Pr21  1  0.84631966  -0.00859394  0.93258814  1
  Pr3+  Pr22  1  0.74771491  0.37782926  0.56121838  1
  Pr3+  Pr23  1  0.74617669  0.87615982  0.56310012  1
  Pr3+  Pr24  1  0.12743603  0.25027549  0.43085334  1
  Pr3+  Pr25  1  0.87363905  0.75564048  0.43678969  1
  Pr3+  Pr26  1  0.21965566  0.11174712  0.05272650  1
  Pr3+  Pr27  1  0.09964753  0.74200069  0.93603285  1
  Pr3+  Pr28  1  0.46998673  0.35769185  0.06682001  1
  Pr3+  Pr29  1  0.74925082  0.62826765  0.55970192  1
  Pr3+  Pr30  1  -0.02119358  0.86444666  0.07433836  1
  Nd3+  Nd31  1  0.24920390  0.37332627  0.55398650  1
  Nd3+  Nd32  1  0.50021754  0.62719339  0.56883862  1
  Nd3+  Nd33  1  0.22864413  0.86832792  0.06343164  1
  Nd3+  Nd34  1  -0.02215311  0.61707576  0.06935817  1
  Nd3+  Nd35  1  -0.02713369  0.36571717  0.06421210  1
  Nd3+  Nd36  1  0.10118467  0.24879478  0.92924544  1
  Nd3+  Nd37  1  0.87252734  0.25238135  0.43650281  1
  Nd3+  Nd38  1  0.59359945  0.50153331  0.91606179  1
  Nd3+  Nd39  1  0.84993809  0.74169749  0.94562752  1
  Nd3+  Nd40  1  0.34440115  0.23978325  0.93002860  1
  Nd3+  Nd41  1  0.09202852  -0.01182859  0.91759914  1
  Nd3+  Nd42  1  0.12706975  -0.00086563  0.43485600  1
  Nd3+  Nd43  1  0.72317617  0.86817776  0.06812118  1
  Nd3+  Nd44  1  0.37317846  0.25005477  0.43899306  1
  Nd3+  Nd45  1  0.00178348  0.87831810  0.55818030  1
  Nd3+  Nd46  1  0.48606357  0.60632753  0.07363556  1
  Nd3+  Nd47  1  0.37500056  0.50599306  0.43936909  1
  Nd3+  Nd48  1  0.61980677  0.75083413  0.42835964  1
  Nd3+  Nd49  1  0.35035395  0.49258209  0.93882993  1
  Nd3+  Nd50  1  0.35024737  -0.01863925  0.93019796  1
  Sm3+  Sm51  1  0.62353533  0.00709274  0.44184283  1
  Sm3+  Sm52  1  0.12397623  0.50774788  0.44272885  1
  Sm3+  Sm53  1  0.47707552  0.86642198  0.06913999  1
  Sm3+  Sm54  1  0.37555473  0.00798582  0.45521509  1
  Sm3+  Sm55  1  0.24940193  0.87875545  0.56154272  1
  Sm3+  Sm56  1  0.47341299  0.11822090  0.05097852  1
  Sm3+  Sm57  1  0.50582994  0.13288256  0.56966353  1
  Sm3+  Sm58  1  -0.02566988  0.11493664  0.05007110  1
  Sm3+  Sm59  1  0.50033647  0.87257857  0.56498513  1
  Sm3+  Sm60  1  0.87549875  0.50417037  0.44589428  1
  Sm3+  Sm61  1  0.59909069  0.74114089  0.94638214  1
  Sm3+  Sm62  1  0.25095794  0.63023058  0.55698168  1
  Sm3+  Sm63  1  0.72024793  0.36690947  0.04575953  1
  Bi2+  Bi64  1  0.03056500  0.14079264  0.29370698  1
  Bi2+  Bi65  1  -0.01649449  0.11627781  0.79126621  1
  Bi2+  Bi66  1  0.04750646  0.33282169  0.31189658  1
  Bi2+  Bi67  1  0.07660586  0.31582168  0.79464054  1
  Bi2+  Bi68  1  -0.01800555  0.53560161  0.29169849  1
  Bi2+  Bi69  1  0.04405364  0.61521916  0.82611050  1
  Bi2+  Bi70  1  -0.09700924  0.86591212  0.29014566  1
  Bi2+  Bi71  1  0.01827138  0.79863847  0.78207455  1
  Bi2+  Bi72  1  0.22790829  0.09002194  0.30862620  1
  Bi2+  Bi73  1  0.26576288  0.14939260  0.78628743  1
  Bi2+  Bi74  1  0.24166995  0.35185297  0.28112647  1
  Bi2+  Bi75  1  0.25235350  0.46019072  0.77789467  1
  Bi2+  Bi76  1  0.25180174  0.62627878  0.28317551  1
  Bi2+  Bi77  1  0.24442106  0.62902819  0.84290994  1
  Bi2+  Bi78  1  0.27120044  0.89994936  0.29143668  1
  Bi2+  Bi79  1  0.26952264  0.89845115  0.79795857  1
  Bi2+  Bi80  1  0.54282008  0.18597007  0.27044629  1
  Bi2+  Bi81  1  0.57069648  0.07808689  0.74333072  1
  Bi2+  Bi82  1  0.47902982  0.40244044  0.29567193  1
  Bi2+  Bi83  1  0.52176946  0.35403259  0.79668684  1
  Bi2+  Bi84  1  0.50056187  0.65734350  0.29114999  1
  Bi2+  Bi85  1  0.43428749  0.64493524  0.81267504  1
  Bi2+  Bi86  1  0.55135728  0.89896749  0.27661016  1
  Bi2+  Bi87  1  0.54985582  0.91369556  0.81062863  1
  Bi2+  Bi88  1  0.76662540  0.08444297  0.31200436  1
  Bi2+  Bi89  1  0.77034908  0.09442224  0.73120859  1
  Bi2+  Bi90  1  0.76641822  0.38186506  0.28407017  1
  Bi2+  Bi91  1  0.76827017  0.33751385  0.79227867  1
  Bi2+  Bi92  1  0.75719310  0.69354900  0.29545866  1
  Bi2+  Bi93  1  0.83290472  0.62175734  0.82016681  1
  Bi2+  Bi94  1  0.72381628  0.88414461  0.33857694  1
  Bi2+  Bi95  1  0.74401450  0.87609693  0.79248090  1
  Bi2+  Bi96  1  0.12317304  0.05090483  0.20288701  1
  Bi2+  Bi97  1  0.12737243  -0.00931704  0.71042590  1
  Bi2+  Bi98  1  0.11300563  0.26241369  0.20500347  1
  Bi2+  Bi99  1  0.14151751  0.27293054  0.69296253  1
  Bi2+  Bi100  1  0.11327164  0.46083771  0.21577372  1
  Bi2+  Bi101  1  0.10473825  0.54606378  0.71832555  1
  Bi2+  Bi102  1  0.16448379  0.76746672  0.18579111  1
  Bi2+  Bi103  1  0.18881612  0.72569883  0.73829990  1
  Bi2+  Bi104  1  0.40758029  0.03342668  0.25087729  1
  Bi2+  Bi105  1  0.43823210  -0.05939838  0.71267063  1
  Bi2+  Bi106  1  0.36133973  0.22577967  0.20438985  1
  Bi2+  Bi107  1  0.37205686  0.32237058  0.71333757  1
  Bi2+  Bi108  1  0.38664969  0.47930885  0.20869109  1
  Bi2+  Bi109  1  0.39592624  0.54045138  0.71573161  1
  Bi2+  Bi110  1  0.41327873  0.76296855  0.20930643  1
  Bi2+  Bi111  1  0.38090116  0.75171743  0.71111519  1
  Bi2+  Bi112  1  0.63831136  0.04688693  0.20860975  1
  Bi2+  Bi113  1  0.62112976  -0.12394883  0.68511993  1
  Bi2+  Bi114  1  0.60776200  0.31345740  0.18688555  1
  Bi2+  Bi115  1  0.63940078  0.24824504  0.69441534  1
  Bi2+  Bi116  1  0.73052042  0.53731657  0.21314736  1
  Bi2+  Bi117  1  0.64590635  0.50472993  0.71274366  1
  Bi2+  Bi118  1  0.64701771  0.76777367  0.20818733  1
  Bi2+  Bi119  1  0.60444499  0.73482942  0.76846786  1
  Bi2+  Bi120  1  0.82454430  -0.01274707  0.21394164  1
  Bi2+  Bi121  1  0.89619480  -0.05101317  0.72140494  1
  Bi2+  Bi122  1  0.87954796  0.18336708  0.20970776  1
  Bi2+  Bi123  1  0.92380818  0.25485300  0.71612533  1
  Bi2+  Bi124  1  0.91974842  0.49648489  0.18599508  1
  Bi2+  Bi125  1  0.91342425  0.51518559  0.73736642  1
  Bi2+  Bi126  1  0.86063848  0.71253098  0.19937208  1
  Bi2+  Bi127  1  0.83494771  0.69393773  0.71216192  1
  S2-  S128  1  -0.02968745  0.08655447  0.14795108  1
  S2-  S129  1  0.09325042  0.12275279  0.65006828  1
  S2-  S130  1  -0.04382179  0.31455455  0.15946436  1
  S2-  S131  1  0.00254297  0.36404294  0.65141072  1
  S2-  S132  1  0.00424376  0.72474183  0.14753719  1
  S2-  S133  1  -0.02347956  0.62958224  0.66091797  1
  S2-  S134  1  0.11469424  0.91103924  0.13859162  1
  S2-  S135  1  0.02026061  0.89357732  0.65854155  1
  S2-  S136  1  0.25682952  0.11098845  0.15228143  1
  S2-  S137  1  0.29901537  0.17428016  0.68227599  1
  S2-  S138  1  0.31757622  0.35889455  0.14387181  1
  S2-  S139  1  0.25348848  0.39047718  0.65262919  1
  S2-  S140  1  0.17784608  0.59973425  0.17161683  1
  S2-  S141  1  0.27921372  0.63606518  0.65415268  1
  S2-  S142  1  0.35273703  0.86762152  0.14243986  1
  S2-  S143  1  0.24263755  0.96183633  0.64856879  1
  S2-  S144  1  0.48564754  0.21208357  0.13431642  1
  S2-  S145  1  0.63088307  0.10051837  0.64149628  1
  S2-  S146  1  0.51363842  0.44851249  0.15088762  1
  S2-  S147  1  0.48934444  0.26030972  0.64466734  1
  S2-  S148  1  0.37469146  0.62304368  0.15022037  1
  S2-  S149  1  0.51323794  0.50277176  0.64399094  1
  S2-  S150  1  0.59904585  0.88801434  0.14165999  1
  S2-  S151  1  0.51081784  0.75407293  0.63867796  1
  S2-  S152  1  0.72111459  0.17784380  0.15615821  1
  S2-  S153  1  0.86518484  0.14164072  0.64481191  1
  S2-  S154  1  0.72633895  0.40146327  0.14261201  1
  S2-  S155  1  0.73448593  0.38821347  0.66299973  1
  S2-  S156  1  0.62060313  0.62649743  0.14669434  1
  S2-  S157  1  0.70731719  0.62211864  0.65805874  1
  S2-  S158  1  0.84157368  0.86601101  0.14295276  1
  S2-  S159  1  0.79373726  0.84749759  0.65868157  1
  S2-  S160  1  0.13497438  -0.08722490  0.34800222  1
  S2-  S161  1  0.13854179  0.06374696  0.82310211  1
  S2-  S162  1  0.25549740  0.23836757  0.35972792  1
  S2-  S163  1  0.22208482  0.26132489  0.85484888  1
  S2-  S164  1  0.13355279  0.56642149  0.35065569  1
  S2-  S165  1  0.08937880  0.44358941  0.85822641  1
  S2-  S166  1  0.12133122  0.73046050  0.27295628  1
  S2-  S167  1  0.12040641  0.84825618  0.85303902  1
  S2-  S168  1  0.37029353  0.00717130  0.35590477  1
  S2-  S169  1  0.35252230  0.04063383  0.83364097  1
  S2-  S170  1  0.46938141  0.26261269  0.35411193  1
  S2-  S171  1  0.45268067  0.24490309  0.85237487  1
  S2-  S172  1  0.38727213  0.53985105  0.34022467  1
  S2-  S173  1  0.44927775  0.48167975  0.85583477  1
  S2-  S174  1  0.28428379  0.74935595  0.34492505  1
  S2-  S175  1  0.37634014  0.84364475  0.86017707  1
  S2-  S176  1  0.61452429  0.09833129  0.35690693  1
  S2-  S177  1  0.71559203  -0.00251256  0.86005642  1
  S2-  S178  1  0.62960821  0.40387239  0.34496801  1
  S2-  S179  1  0.65107697  0.24269563  0.82668914  1
  S2-  S180  1  0.62604583  0.62333712  0.35455061  1
  S2-  S181  1  0.65464712  0.46516842  0.81741974  1
  S2-  S182  1  0.49727477  0.78601621  0.35534019  1
  S2-  S183  1  0.59633444  0.65954119  0.85955435  1
  S2-  S184  1  0.92730984  0.02185172  0.34547531  1
  S2-  S185  1  0.95141726  -0.00763584  0.85232183  1
  S2-  S186  1  0.78469286  0.25158473  0.34913883  1
  S2-  S187  1  0.86884520  0.22485258  0.84177138  1
  S2-  S188  1  0.85282759  0.49176060  0.34826614  1
  S2-  S189  1  0.87384251  0.45002221  0.83822209  1
  S2-  S190  1  0.94901990  0.73521734  0.34724704  1
  S2-  S191  1  0.86888718  0.78563435  0.84856561  1
  S2-  S192  1  0.00050123  0.12893536  0.45400966  1
  S2-  S193  1  -0.02330497  0.12511804  0.94737841  1
  S2-  S194  1  0.00070030  0.37963929  0.44855149  1
  S2-  S195  1  -0.02540509  0.36655289  0.95672771  1
  S2-  S196  1  0.00044591  0.62816920  0.45510400  1
  S2-  S197  1  -0.02568029  0.61768797  0.96172171  1
  S2-  S198  1  0.00066274  0.87709361  0.45286546  1
  S2-  S199  1  -0.02679072  0.86357070  0.96053441  1
  S2-  S200  1  0.24798059  0.12327096  0.46249334  1
  S2-  S201  1  0.22068806  0.11074058  0.94643308  1
  S2-  S202  1  0.24704472  0.38363831  0.44869593  1
  S2-  S203  1  0.22474915  0.37103477  0.95732431  1
  S2-  S204  1  0.24653213  0.63082759  0.45347705  1
  S2-  S205  1  0.22430992  0.61516148  0.96492889  1
  S2-  S206  1  0.25420984  0.88346746  0.45925485  1
  S2-  S207  1  0.22448238  0.86602428  0.95776098  1
  S2-  S208  1  0.50016216  0.12927161  0.46354180  1
  S2-  S209  1  0.47389360  0.10938474  0.94842908  1
  S2-  S210  1  0.49650572  0.37990047  0.45773337  1
  S2-  S211  1  0.47048569  0.36677925  0.95768127  1
  S2-  S212  1  0.49693626  0.62848164  0.45967799  1
  S2-  S213  1  0.47617974  0.61596228  0.96238378  1
  S2-  S214  1  0.50117347  0.88546142  0.46128020  1
  S2-  S215  1  0.48178120  0.86678384  0.96337124  1
  S2-  S216  1  0.74902371  0.12898359  0.45936043  1
  S2-  S217  1  0.72208276  0.12425561  0.95336066  1
  S2-  S218  1  0.75244669  0.37962295  0.45489987  1
  S2-  S219  1  0.71998546  0.37223050  0.94160443  1
  S2-  S220  1  0.75350828  0.62738855  0.45365552  1
  S2-  S221  1  0.72410131  0.61630493  0.95714116  1
  S2-  S222  1  0.74539082  0.87844666  0.45614402  1
  S2-  S223  1  0.72293824  0.86199504  0.95939893  1
  S2-  S224  1  0.09365254  -0.00622800  0.03201722  1
  S2-  S225  1  0.12283370  0.00161579  0.54254926  1
  S2-  S226  1  0.09761381  0.24169434  0.04261167  1
  S2-  S227  1  0.12422069  0.24993742  0.54105103  1
  S2-  S228  1  0.10085891  0.48968808  0.05841880  1
  S2-  S229  1  0.12748438  0.50440013  0.54846459  1
  S2-  S230  1  0.10722527  0.73798820  0.04408056  1
  S2-  S231  1  0.12906223  0.75488571  0.56093598  1
  S2-  S232  1  0.35347293  -0.00563594  0.03969174  1
  S2-  S233  1  0.38256293  0.00319503  0.55901823  1
  S2-  S234  1  0.34478735  0.23499296  0.03626598  1
  S2-  S235  1  0.36808002  0.24597272  0.54630177  1
  S2-  S236  1  0.35173055  0.49007867  0.04482364  1
  S2-  S237  1  0.37001699  0.50417283  0.54548974  1
  S2-  S238  1  0.35698203  0.74037387  0.04561926  1
  S2-  S239  1  0.37170710  0.75565289  0.54407708  1
  S2-  S240  1  0.59796391  -0.00212478  0.04211728  1
  S2-  S241  1  0.62084907  -0.00152373  0.54432996  1
  S2-  S242  1  0.60110716  0.24159312  0.03366906  1
  S2-  S243  1  0.62723561  0.25334325  0.54649495  1
  S2-  S244  1  0.60188318  0.48776979  0.03529450  1
  S2-  S245  1  0.62632464  0.50472971  0.54051798  1
  S2-  S246  1  0.59947622  0.74121981  0.04755186  1
  S2-  S247  1  0.62529971  0.75132050  0.53789078  1
  S2-  S248  1  0.84801862  -0.00480920  0.04108366  1
  S2-  S249  1  0.87304324  -0.00115074  0.54824652  1
  S2-  S250  1  0.84932160  0.24315809  0.04433400  1
  S2-  S251  1  0.87424167  0.25639743  0.54219535  1
  S2-  S252  1  0.85067199  0.48989326  0.04343558  1
  S2-  S253  1  0.87705448  0.50302122  0.55126274  1
  S2-  S254  1  0.84663150  0.73589086  0.04947265  1
  S2-  S255  1  0.87561725  0.75346967  0.54543940  1
