# generated using pymatgen
data_La6Ce6Pr19Nd20Sm13(BiS2)64
_symmetry_space_group_name_H-M   'P 1'
_cell_length_a   16.19092055
_cell_length_b   16.17759387
_cell_length_c   27.21146766
_cell_angle_alpha   90.10981753
_cell_angle_beta   90.03649061
_cell_angle_gamma   90.00463525
_symmetry_Int_Tables_number   1
_chemical_formula_structural   La6Ce6Pr19Nd20Sm13(BiS2)64
_chemical_formula_sum   'La6 Ce6 Pr19 Nd20 Sm13 Bi64 S128'
_cell_volume   7127.48888957
_cell_formula_units_Z   1
loop_
 _symmetry_equiv_pos_site_id
 _symmetry_equiv_pos_as_xyz
  1  'x, y, z'
loop_
 _atom_type_symbol
 _atom_type_oxidation_number
  La3+  3.0
  Ce3+  3.0
  Pr3+  3.0
  Nd3+  3.0
  Sm3+  3.0
  Bi2+  2.0
  S2-  -2.0
loop_
 _atom_site_type_symbol
 _atom_site_label
 _atom_site_symmetry_multiplicity
 _atom_site_fract_x
 _atom_site_fract_y
 _atom_site_fract_z
 _atom_site_occupancy
  La3+  La0  1  0.25583958  0.62685929  0.07060529  1
  La3+  La1  1  0.37272485  0.50591693  0.89296887  1
  La3+  La2  1  0.25049677  0.87533737  0.10865270  1
  La3+  La3  1  0.37890217  0.49291158  0.40660675  1
  La3+  La4  1  0.63146895  -0.00123498  0.93046282  1
  La3+  La5  1  0.50238611  0.88777649  0.07383384  1
  Ce3+  Ce6  1  0.74908808  0.87793702  0.07165518  1
  Ce3+  Ce7  1  0.75179776  0.62794103  0.55679295  1
  Ce3+  Ce8  1  0.87950400  0.50492877  0.93014425  1
  Ce3+  Ce9  1  0.87623197  0.75270693  0.95179289  1
  Ce3+  Ce10  1  0.87773230  0.00492011  0.44092828  1
  Ce3+  Ce11  1  0.62365352  0.75356125  0.44556312  1
  Pr3+  Pr12  1  0.37786089  0.25407400  0.44700405  1
  Pr3+  Pr13  1  0.12621648  0.50575054  0.93584933  1
  Pr3+  Pr14  1  0.25039559  0.38748671  0.57027256  1
  Pr3+  Pr15  1  0.75156264  0.87947403  0.55850974  1
  Pr3+  Pr16  1  0.50372902  0.37795649  0.06120846  1
  Pr3+  Pr17  1  0.12850825  0.25667289  0.94172760  1
  Pr3+  Pr18  1  0.25172877  0.63470843  0.55787403  1
  Pr3+  Pr19  1  0.50434978  0.38027818  0.56829274  1
  Pr3+  Pr20  1  0.62438005  0.25396328  0.92771605  1
  Pr3+  Pr21  1  0.24953156  0.12638756  0.06400124  1
  Pr3+  Pr22  1  0.26021255  0.38157485  0.07395586  1
  Pr3+  Pr23  1  0.00231519  0.63222598  0.56627016  1
  Pr3+  Pr24  1  0.87608625  0.25609557  0.93960556  1
  Pr3+  Pr25  1  0.00480054  0.12951934  0.56173908  1
  Pr3+  Pr26  1  0.00027067  0.13174104  0.06058287  1
  Pr3+  Pr27  1  0.50167633  0.62732817  0.55928411  1
  Pr3+  Pr28  1  0.62650595  0.50327648  0.43485439  1
  Pr3+  Pr29  1  0.37421628  0.75661083  0.93919549  1
  Pr3+  Pr30  1  0.62533148  0.75456586  0.94157606  1
  Nd3+  Nd31  1  0.37715315  -0.00020720  0.43870845  1
  Nd3+  Nd32  1  0.62491443  0.25326433  0.44308680  1
  Nd3+  Nd33  1  0.87733215  0.50244977  0.44488167  1
  Nd3+  Nd34  1  0.25155594  0.87666518  0.56300307  1
  Nd3+  Nd35  1  0.25402474  0.12747706  0.55864586  1
  Nd3+  Nd36  1  0.00215969  0.37728196  0.55870758  1
  Nd3+  Nd37  1  0.00080952  0.87310400  0.07334375  1
  Nd3+  Nd38  1  0.00044812  0.38060328  0.06308250  1
  Nd3+  Nd39  1  0.37207091  -0.00072523  0.93516002  1
  Nd3+  Nd40  1  0.37433982  0.25650151  0.93511698  1
  Nd3+  Nd41  1  0.87563628  0.75374154  0.43612751  1
  Nd3+  Nd42  1  0.75031739  0.12942470  0.05565136  1
  Nd3+  Nd43  1  -0.00292593  0.61774868  0.07061484  1
  Nd3+  Nd44  1  0.62097291  0.50387123  0.93394921  1
  Nd3+  Nd45  1  0.50242224  0.88173018  0.56380867  1
  Nd3+  Nd46  1  0.12600375  0.75179147  0.94942053  1
  Nd3+  Nd47  1  0.49898683  0.12554869  0.04888845  1
  Nd3+  Nd48  1  0.11730654  0.74171537  0.42365651  1
  Nd3+  Nd49  1  0.12527924  0.00163694  0.94550769  1
  Nd3+  Nd50  1  0.12926251  0.25374851  0.44048243  1
  Sm3+  Sm51  1  0.00232707  0.87848585  0.55097695  1
  Sm3+  Sm52  1  0.62518191  0.00150642  0.43729672  1
  Sm3+  Sm53  1  0.37371759  0.75106937  0.43608719  1
  Sm3+  Sm54  1  0.74791786  0.62691585  0.05252535  1
  Sm3+  Sm55  1  0.12810274  0.00177334  0.44366792  1
  Sm3+  Sm56  1  0.12847075  0.49931094  0.44359584  1
  Sm3+  Sm57  1  0.87858618  0.00180376  0.95025764  1
  Sm3+  Sm58  1  0.75168502  0.12774858  0.55515836  1
  Sm3+  Sm59  1  0.74404297  0.38084236  0.05190477  1
  Sm3+  Sm60  1  0.87781814  0.25121713  0.44478051  1
  Sm3+  Sm61  1  0.50299596  0.12695033  0.55750963  1
  Sm3+  Sm62  1  0.49539526  0.63009546  0.05673407  1
  Sm3+  Sm63  1  0.75128794  0.37788361  0.55537834  1
  Bi2+  Bi64  1  0.00935998  0.11586308  0.30127876  1
  Bi2+  Bi65  1  0.11942136  0.11366546  0.79052929  1
  Bi2+  Bi66  1  0.00184318  0.31955177  0.28045040  1
  Bi2+  Bi67  1  -0.07150404  0.37258452  0.80626064  1
  Bi2+  Bi68  1  -0.03982241  0.59240231  0.29188045  1
  Bi2+  Bi69  1  -0.05689898  0.62885869  0.78956821  1
  Bi2+  Bi70  1  -0.04946549  0.86258404  0.28487426  1
  Bi2+  Bi71  1  0.01604540  0.84138973  0.80659137  1
  Bi2+  Bi72  1  0.21995369  0.17046901  0.27829001  1
  Bi2+  Bi73  1  0.30618018  0.10857963  0.82540842  1
  Bi2+  Bi74  1  0.26433730  0.37297603  0.28643604  1
  Bi2+  Bi75  1  0.22095699  0.35470890  0.79216396  1
  Bi2+  Bi76  1  0.18319593  0.60541104  0.27446047  1
  Bi2+  Bi77  1  0.23198883  0.64784639  0.78845600  1
  Bi2+  Bi78  1  0.27244681  0.90050073  0.32814191  1
  Bi2+  Bi79  1  0.26793262  0.90741435  0.78738764  1
  Bi2+  Bi80  1  0.52108136  0.17344635  0.25703618  1
  Bi2+  Bi81  1  0.45170016  0.08295384  0.75199857  1
  Bi2+  Bi82  1  0.51884985  0.35844327  0.29241131  1
  Bi2+  Bi83  1  0.50829393  0.36212517  0.78462218  1
  Bi2+  Bi84  1  0.56802670  0.62651631  0.28013487  1
  Bi2+  Bi85  1  0.49849184  0.63481619  0.78510512  1
  Bi2+  Bi86  1  0.51856179  0.90047385  0.31105239  1
  Bi2+  Bi87  1  0.50156764  0.88770326  0.78749916  1
  Bi2+  Bi88  1  0.81423040  0.11797688  0.27657853  1
  Bi2+  Bi89  1  0.74921587  0.11043018  0.79156468  1
  Bi2+  Bi90  1  0.73398450  0.39792173  0.28919406  1
  Bi2+  Bi91  1  0.73464488  0.39386559  0.79704426  1
  Bi2+  Bi92  1  0.76329383  0.59928812  0.30231814  1
  Bi2+  Bi93  1  0.74980260  0.58968561  0.80023264  1
  Bi2+  Bi94  1  0.76388282  0.81108163  0.29947155  1
  Bi2+  Bi95  1  0.73829940  0.86070640  0.81616783  1
  Bi2+  Bi96  1  0.12909099  0.02967723  0.21857973  1
  Bi2+  Bi97  1  0.12707354  -0.03863286  0.71158722  1
  Bi2+  Bi98  1  0.16228376  0.25512207  0.17859878  1
  Bi2+  Bi99  1  0.08227733  0.22746174  0.69964481  1
  Bi2+  Bi100  1  0.10505664  0.43279286  0.20667621  1
  Bi2+  Bi101  1  0.11985178  0.49086569  0.70463064  1
  Bi2+  Bi102  1  0.10684605  0.76450808  0.22449278  1
  Bi2+  Bi103  1  0.13011059  0.76032533  0.70600519  1
  Bi2+  Bi104  1  0.39964670  0.00947876  0.20948352  1
  Bi2+  Bi105  1  0.31256103  -0.01510596  0.67921634  1
  Bi2+  Bi106  1  0.35743417  0.23822694  0.20440565  1
  Bi2+  Bi107  1  0.32429755  0.22703897  0.72826334  1
  Bi2+  Bi108  1  0.37235653  0.50295618  0.20560946  1
  Bi2+  Bi109  1  0.38707159  0.47328458  0.67996184  1
  Bi2+  Bi110  1  0.37108304  0.74236577  0.22187292  1
  Bi2+  Bi111  1  0.37564456  0.80501401  0.71057973  1
  Bi2+  Bi112  1  0.67539398  0.00516788  0.22067839  1
  Bi2+  Bi113  1  0.62992369  -0.01342688  0.68935623  1
  Bi2+  Bi114  1  0.68009761  0.26041829  0.21225551  1
  Bi2+  Bi115  1  0.70021547  0.24863751  0.71620133  1
  Bi2+  Bi116  1  0.62652337  0.48833812  0.20525506  1
  Bi2+  Bi117  1  0.62870573  0.49742170  0.68704570  1
  Bi2+  Bi118  1  0.65229588  0.75100766  0.21030302  1
  Bi2+  Bi119  1  0.70842794  0.74172489  0.72647744  1
  Bi2+  Bi120  1  0.85096200  -0.06045349  0.19511117  1
  Bi2+  Bi121  1  0.87820365  -0.03044719  0.75602699  1
  Bi2+  Bi122  1  0.90853021  0.22769260  0.19946506  1
  Bi2+  Bi123  1  0.89383900  0.21462052  0.73394230  1
  Bi2+  Bi124  1  0.83283776  0.48376510  0.20435226  1
  Bi2+  Bi125  1  0.85961907  0.49135152  0.72229741  1
  Bi2+  Bi126  1  0.85203452  0.74499197  0.19961956  1
  Bi2+  Bi127  1  0.89735795  0.78656501  0.71463940  1
  S2-  S128  1  0.00602358  0.10510033  0.16015610  1
  S2-  S129  1  -0.02384181  0.11453079  0.65976238  1
  S2-  S130  1  -0.02437790  0.48452299  0.14119450  1
  S2-  S131  1  0.02532614  0.37987218  0.65723561  1
  S2-  S132  1  0.00640862  0.69406090  0.16255869  1
  S2-  S133  1  0.04388092  0.61805634  0.66422612  1
  S2-  S134  1  0.09144615  0.89290361  0.15789970  1
  S2-  S135  1  0.01802134  0.86201436  0.64761639  1
  S2-  S136  1  0.26019353  0.03787721  0.15086623  1
  S2-  S137  1  0.22484007  0.14180037  0.65606338  1
  S2-  S138  1  0.23709471  0.50536980  0.14939653  1
  S2-  S139  1  0.26320572  0.35286320  0.66988853  1
  S2-  S140  1  0.24198066  0.71986715  0.16008051  1
  S2-  S141  1  0.24957780  0.54561590  0.64556718  1
  S2-  S142  1  0.27144089  0.88258640  0.23430721  1
  S2-  S143  1  0.25104505  0.75865492  0.63591851  1
  S2-  S144  1  0.49456982  0.05663617  0.14041103  1
  S2-  S145  1  0.50954549  0.08903790  0.65217967  1
  S2-  S146  1  0.40037181  0.37142613  0.14494362  1
  S2-  S147  1  0.51990715  0.35540858  0.66969085  1
  S2-  S148  1  0.44577913  0.62513465  0.15398268  1
  S2-  S149  1  0.50863085  0.59870890  0.65970394  1
  S2-  S150  1  0.41164747  0.85546616  0.15841228  1
  S2-  S151  1  0.52465628  0.85551290  0.66155437  1
  S2-  S152  1  0.71853305  0.12508328  0.15330865  1
  S2-  S153  1  0.72904238  0.11420756  0.65172573  1
  S2-  S154  1  0.63859328  0.36688867  0.12988993  1
  S2-  S155  1  0.75508865  0.38039897  0.65290614  1
  S2-  S156  1  0.73703574  0.59954540  0.14969127  1
  S2-  S157  1  0.73828190  0.62081792  0.65370501  1
  S2-  S158  1  0.63580522  0.88232207  0.14640472  1
  S2-  S159  1  0.75275364  0.88186566  0.65858821  1
  S2-  S160  1  0.13394671  0.00791633  0.34600984  1
  S2-  S161  1  0.07538602  -0.01894737  0.85042970  1
  S2-  S162  1  0.13805661  0.31252908  0.34796099  1
  S2-  S163  1  0.10834128  0.27760406  0.84181333  1
  S2-  S164  1  0.09587456  0.54818048  0.35231062  1
  S2-  S165  1  0.21392849  0.50466356  0.84670843  1
  S2-  S166  1  0.18657855  0.75558897  0.33280736  1
  S2-  S167  1  0.13808846  0.72993674  0.84777839  1
  S2-  S168  1  0.40465446  0.01944820  0.34072594  1
  S2-  S169  1  0.38948183  -0.11902897  0.86061661  1
  S2-  S170  1  0.37847204  0.33437596  0.35852539  1
  S2-  S171  1  0.37433971  0.34358632  0.84754388  1
  S2-  S172  1  0.32238108  0.54145252  0.31138328  1
  S2-  S173  1  0.38197085  0.52304792  0.77077855  1
  S2-  S174  1  0.39547618  0.77719076  0.33908721  1
  S2-  S175  1  0.37310151  0.66782477  0.84950748  1
  S2-  S176  1  0.63623664  -0.00205092  0.33926708  1
  S2-  S177  1  0.62068889  0.00171081  0.82966465  1
  S2-  S178  1  0.60104450  0.23916859  0.34540665  1
  S2-  S179  1  0.58097056  0.24537456  0.82992074  1
  S2-  S180  1  0.52925267  0.50419893  0.35182373  1
  S2-  S181  1  0.53632041  0.50282124  0.84633316  1
  S2-  S182  1  0.60992876  0.76258188  0.34918052  1
  S2-  S183  1  0.58936346  0.75871702  0.84170636  1
  S2-  S184  1  0.88748960  0.00005432  0.34420882  1
  S2-  S185  1  0.83882362  -0.00771937  0.85533765  1
  S2-  S186  1  0.88696497  0.23614227  0.34783191  1
  S2-  S187  1  0.87078812  0.21474031  0.84196842  1
  S2-  S188  1  0.88318537  0.47909380  0.34655479  1
  S2-  S189  1  0.99817200  0.51352393  0.85924366  1
  S2-  S190  1  0.97609715  0.73781413  0.35615829  1
  S2-  S191  1  0.87243212  0.76303561  0.85414242  1
  S2-  S192  1  0.00531865  0.12908539  0.45376048  1
  S2-  S193  1  -0.00019310  0.12909338  0.95302556  1
  S2-  S194  1  0.00143092  0.37643184  0.45266292  1
  S2-  S195  1  0.00012224  0.37741129  0.95726549  1
  S2-  S196  1  -0.00123695  0.62315633  0.45965315  1
  S2-  S197  1  -0.00126157  0.62989715  0.96288326  1
  S2-  S198  1  0.00376958  0.88052153  0.44776473  1
  S2-  S199  1  -0.00083875  0.87868820  0.96450770  1
  S2-  S200  1  0.25249925  0.12709948  0.45108095  1
  S2-  S201  1  0.24858071  0.12789854  0.95555355  1
  S2-  S202  1  0.25229409  0.38081004  0.46022897  1
  S2-  S203  1  0.25276918  0.37830170  0.95776259  1
  S2-  S204  1  0.25429329  0.62373459  0.44783075  1
  S2-  S205  1  0.25059531  0.62906080  0.95805895  1
  S2-  S206  1  0.24951785  0.87508698  0.45448346  1
  S2-  S207  1  0.24447004  0.87870534  0.95218874  1
  S2-  S208  1  0.50197313  0.12563847  0.45221420  1
  S2-  S209  1  0.49927692  0.12536628  0.94185921  1
  S2-  S210  1  0.50355776  0.37856262  0.46010598  1
  S2-  S211  1  0.50205693  0.37578865  0.95310387  1
  S2-  S212  1  0.49601765  0.62866567  0.45133879  1
  S2-  S213  1  0.50096889  0.62916378  0.95261986  1
  S2-  S214  1  0.50105264  0.87900063  0.45530218  1
  S2-  S215  1  0.50559908  0.88180214  0.96027585  1
  S2-  S216  1  0.75008804  0.12852271  0.44914720  1
  S2-  S217  1  0.75286662  0.12854097  0.94951084  1
  S2-  S218  1  0.75279648  0.37525838  0.44992579  1
  S2-  S219  1  0.74838153  0.38042055  0.94679199  1
  S2-  S220  1  0.75232247  0.62861885  0.44951670  1
  S2-  S221  1  0.74912141  0.62668829  0.94714762  1
  S2-  S222  1  0.75112606  0.87943646  0.45059931  1
  S2-  S223  1  0.75413298  0.87787461  0.96236349  1
  S2-  S224  1  0.12104414  0.00354759  0.05036003  1
  S2-  S225  1  0.12794157  0.00141580  0.54915726  1
  S2-  S226  1  0.12652642  0.25724629  0.04896661  1
  S2-  S227  1  0.13021618  0.25502670  0.54772356  1
  S2-  S228  1  0.12448871  0.50041354  0.04430103  1
  S2-  S229  1  0.12235765  0.50529896  0.54648714  1
  S2-  S230  1  0.12376134  0.75202075  0.05387699  1
  S2-  S231  1  0.12214188  0.75517070  0.53573258  1
  S2-  S232  1  0.37250686  0.00348475  0.04014903  1
  S2-  S233  1  0.37756990  0.00336180  0.54539509  1
  S2-  S234  1  0.37524419  0.24843216  0.04198870  1
  S2-  S235  1  0.37908317  0.25209092  0.55433675  1
  S2-  S236  1  0.38198425  0.50375530  0.04593950  1
  S2-  S237  1  0.37910072  0.50312380  0.54784662  1
  S2-  S238  1  0.37726411  0.75687135  0.04735360  1
  S2-  S239  1  0.38231035  0.75675056  0.54158213  1
  S2-  S240  1  0.63070861  0.00703063  0.03923381  1
  S2-  S241  1  0.62692441  0.00525271  0.54305072  1
  S2-  S242  1  0.62539550  0.24772304  0.03470696  1
  S2-  S243  1  0.62801686  0.25140463  0.54993700  1
  S2-  S244  1  0.62394071  0.50851672  0.03915498  1
  S2-  S245  1  0.62959215  0.50205731  0.54252989  1
  S2-  S246  1  0.62528290  0.74847404  0.04824070  1
  S2-  S247  1  0.62576234  0.75420160  0.55188025  1
  S2-  S248  1  0.87599185  0.00392302  0.05429338  1
  S2-  S249  1  0.87807667  0.00439368  0.54825813  1
  S2-  S250  1  0.87154719  0.25868575  0.04836804  1
  S2-  S251  1  0.87477534  0.25299145  0.55048279  1
  S2-  S252  1  0.86686125  0.50076005  0.03792908  1
  S2-  S253  1  0.87716607  0.50136103  0.55179382  1
  S2-  S254  1  0.87232553  0.74969329  0.05671069  1
  S2-  S255  1  0.87762092  0.75523297  0.54463973  1
