# generated using pymatgen
data_La6Ce6Pr19Nd20Sm13(BiS2)64
_symmetry_space_group_name_H-M   'P 1'
_cell_length_a   16.08670725
_cell_length_b   16.08579098
_cell_length_c   27.45916373
_cell_angle_alpha   90.15292074
_cell_angle_beta   90.13144881
_cell_angle_gamma   89.97463996
_symmetry_Int_Tables_number   1
_chemical_formula_structural   La6Ce6Pr19Nd20Sm13(BiS2)64
_chemical_formula_sum   'La6 Ce6 Pr19 Nd20 Sm13 Bi64 S128'
_cell_volume   7105.49200830
_cell_formula_units_Z   1
loop_
 _symmetry_equiv_pos_site_id
 _symmetry_equiv_pos_as_xyz
  1  'x, y, z'
loop_
 _atom_type_symbol
 _atom_type_oxidation_number
  La3+  3.0
  Ce3+  3.0
  Pr3+  3.0
  Nd3+  3.0
  Sm3+  3.0
  Bi2+  2.0
  S2-  -2.0
loop_
 _atom_site_type_symbol
 _atom_site_label
 _atom_site_symmetry_multiplicity
 _atom_site_fract_x
 _atom_site_fract_y
 _atom_site_fract_z
 _atom_site_occupancy
  La3+  La0  1  0.37031937  0.24535582  0.39733398  1
  La3+  La1  1  0.35958337  0.74241783  0.42690514  1
  La3+  La2  1  0.13388129  0.25560564  0.92670097  1
  La3+  La3  1  0.13038203  0.51067021  0.92829849  1
  La3+  La4  1  -0.00037056  0.86798773  0.61010517  1
  La3+  La5  1  0.75665258  0.63882392  0.07532375  1
  Ce3+  Ce6  1  0.24181322  0.38777187  0.06482142  1
  Ce3+  Ce7  1  0.50678783  0.13692698  0.05951788  1
  Ce3+  Ce8  1  0.12958628  0.01083423  0.94483740  1
  Ce3+  Ce9  1  0.24222908  0.86679449  0.56076172  1
  Ce3+  Ce10  1  0.75196057  0.86606418  0.55714210  1
  Ce3+  Ce11  1  -0.00153364  0.62032003  0.56441307  1
  Pr3+  Pr12  1  0.49471762  0.36787954  0.56623631  1
  Pr3+  Pr13  1  0.61954047  0.24475532  0.44401696  1
  Pr3+  Pr14  1  0.61746524  -0.00544271  0.44335537  1
  Pr3+  Pr15  1  0.87350164  0.24537610  0.42081458  1
  Pr3+  Pr16  1  0.63884545  0.51645125  0.92354430  1
  Pr3+  Pr17  1  0.74887597  0.11763654  0.56429928  1
  Pr3+  Pr18  1  0.12892376  0.76344209  0.93802939  1
  Pr3+  Pr19  1  -0.01083991  0.36733371  0.57356693  1
  Pr3+  Pr20  1  0.49335587  0.11982455  0.55976127  1
  Pr3+  Pr21  1  0.23991147  0.12073578  0.56572373  1
  Pr3+  Pr22  1  0.11988702  0.23683654  0.42873035  1
  Pr3+  Pr23  1  0.62572911  0.00488369  0.92574745  1
  Pr3+  Pr24  1  0.00033419  0.13535204  0.05571616  1
  Pr3+  Pr25  1  0.50277998  0.38754920  0.06227636  1
  Pr3+  Pr26  1  0.87466573  0.02190237  0.90601337  1
  Pr3+  Pr27  1  0.11435915  0.74358471  0.44024977  1
  Pr3+  Pr28  1  0.25084144  0.13961618  0.07301006  1
  Pr3+  Pr29  1  0.24263569  0.61794874  0.56298528  1
  Pr3+  Pr30  1  -0.00125123  0.38225328  0.05884119  1
  Nd3+  Nd31  1  0.25581180  0.63617510  0.06028969  1
  Nd3+  Nd32  1  0.62772892  0.26338999  0.93719226  1
  Nd3+  Nd33  1  0.00331148  0.63462033  0.05863019  1
  Nd3+  Nd34  1  0.88340835  0.51033260  0.93281224  1
  Nd3+  Nd35  1  0.38149920  0.76138679  0.93785535  1
  Nd3+  Nd36  1  0.11429541  -0.00412101  0.44446992  1
  Nd3+  Nd37  1  0.48945836  0.61910871  0.56675748  1
  Nd3+  Nd38  1  0.61453198  0.74112476  0.44526775  1
  Nd3+  Nd39  1  0.75339641  0.13530355  0.05573602  1
  Nd3+  Nd40  1  0.37754478  0.50710083  0.93314401  1
  Nd3+  Nd41  1  0.11762849  0.48495618  0.44237227  1
  Nd3+  Nd42  1  0.50749589  0.88230780  0.06299889  1
  Nd3+  Nd43  1  0.49250813  0.86784721  0.55286888  1
  Nd3+  Nd44  1  0.75440682  0.39091124  0.06502479  1
  Nd3+  Nd45  1  0.86919446  0.26431304  0.92644601  1
  Nd3+  Nd46  1  -0.00808723  0.12176932  0.56603844  1
  Nd3+  Nd47  1  0.87844988  0.76045051  0.93436488  1
  Nd3+  Nd48  1  0.87034928  0.49328982  0.43236149  1
  Nd3+  Nd49  1  0.86682378  0.73985071  0.43036858  1
  Nd3+  Nd50  1  0.00349623  0.88572932  0.05454894  1
  Sm3+  Sm51  1  0.50561996  0.63431660  0.05085670  1
  Sm3+  Sm52  1  0.61398378  0.49148965  0.44639718  1
  Sm3+  Sm53  1  0.36539864  -0.00022121  0.44392942  1
  Sm3+  Sm54  1  0.38004680  0.01067021  0.95204886  1
  Sm3+  Sm55  1  0.37720081  0.25904127  0.94279410  1
  Sm3+  Sm56  1  0.36756866  0.48994712  0.44424855  1
  Sm3+  Sm57  1  0.24308143  0.36352758  0.55686044  1
  Sm3+  Sm58  1  0.74816800  0.62012425  0.55578070  1
  Sm3+  Sm59  1  0.75435980  0.88305036  0.05064545  1
  Sm3+  Sm60  1  0.63070397  0.75640189  0.93122447  1
  Sm3+  Sm61  1  0.25581843  0.88286937  0.05870485  1
  Sm3+  Sm62  1  0.74823037  0.37070578  0.55884790  1
  Sm3+  Sm63  1  0.86800532  -0.00346150  0.43721982  1
  Bi2+  Bi64  1  -0.00204924  0.12033918  0.29355733  1
  Bi2+  Bi65  1  0.04366342  0.12366185  0.80565264  1
  Bi2+  Bi66  1  -0.02910807  0.38745920  0.28586458  1
  Bi2+  Bi67  1  -0.05587413  0.36870505  0.79837301  1
  Bi2+  Bi68  1  -0.00264116  0.70083408  0.29184942  1
  Bi2+  Bi69  1  -0.09297796  0.59195012  0.79153234  1
  Bi2+  Bi70  1  -0.01335660  0.88938471  0.32695319  1
  Bi2+  Bi71  1  0.02503283  0.85136580  0.81437398  1
  Bi2+  Bi72  1  0.24101338  0.12298488  0.28589682  1
  Bi2+  Bi73  1  0.30782853  0.10906045  0.78861822  1
  Bi2+  Bi74  1  0.22093966  0.40855175  0.28916403  1
  Bi2+  Bi75  1  0.32393029  0.37201578  0.80075210  1
  Bi2+  Bi76  1  0.26343864  0.64728043  0.28165431  1
  Bi2+  Bi77  1  0.25259005  0.63467878  0.78901223  1
  Bi2+  Bi78  1  0.21933755  0.87121279  0.28546741  1
  Bi2+  Bi79  1  0.25255012  0.90026729  0.74080576  1
  Bi2+  Bi80  1  0.56753567  0.13547069  0.28024627  1
  Bi2+  Bi81  1  0.52606386  0.06685930  0.81007093  1
  Bi2+  Bi82  1  0.53793995  0.37437597  0.29678105  1
  Bi2+  Bi83  1  0.51050138  0.41130707  0.83835123  1
  Bi2+  Bi84  1  0.53206075  0.61823692  0.28347323  1
  Bi2+  Bi85  1  0.50343189  0.59755825  0.79534131  1
  Bi2+  Bi86  1  0.49968929  0.84506540  0.29610735  1
  Bi2+  Bi87  1  0.46282607  0.86148249  0.79692881  1
  Bi2+  Bi88  1  0.78881458  0.12638816  0.26490134  1
  Bi2+  Bi89  1  0.71040201  0.15257889  0.78018340  1
  Bi2+  Bi90  1  0.77532237  0.33196855  0.26036595  1
  Bi2+  Bi91  1  0.70637634  0.39536225  0.78357980  1
  Bi2+  Bi92  1  0.76317340  0.68280612  0.29376081  1
  Bi2+  Bi93  1  0.69339327  0.58486274  0.74947352  1
  Bi2+  Bi94  1  0.79226401  0.87475240  0.32583801  1
  Bi2+  Bi95  1  0.67574809  0.85264869  0.76018162  1
  Bi2+  Bi96  1  0.07456905  -0.03491493  0.22850415  1
  Bi2+  Bi97  1  0.15236321  0.06367099  0.71671383  1
  Bi2+  Bi98  1  0.15308547  0.27968799  0.19107046  1
  Bi2+  Bi99  1  0.13422717  0.27944191  0.71159977  1
  Bi2+  Bi100  1  0.10252776  0.55122388  0.24402100  1
  Bi2+  Bi101  1  0.13757615  0.50039368  0.72532300  1
  Bi2+  Bi102  1  0.11979408  0.76351806  0.20519360  1
  Bi2+  Bi103  1  0.09246109  0.71401948  0.70985224  1
  Bi2+  Bi104  1  0.37462234  -0.01863606  0.26747569  1
  Bi2+  Bi105  1  0.40839411  0.00354905  0.70506651  1
  Bi2+  Bi106  1  0.40196855  0.25138750  0.19457849  1
  Bi2+  Bi107  1  0.47283280  0.24508253  0.77839393  1
  Bi2+  Bi108  1  0.38235125  0.49907102  0.25322974  1
  Bi2+  Bi109  1  0.37107820  0.49450592  0.71534342  1
  Bi2+  Bi110  1  0.37161896  0.73848164  0.18227073  1
  Bi2+  Bi111  1  0.35328788  0.74154320  0.70768393  1
  Bi2+  Bi112  1  0.65458215  -0.05375223  0.25320904  1
  Bi2+  Bi113  1  0.62179954  0.01937355  0.71034381  1
  Bi2+  Bi114  1  0.64267806  0.25619154  0.18407972  1
  Bi2+  Bi115  1  0.60075599  0.30899292  0.69881073  1
  Bi2+  Bi116  1  0.68775374  0.51440804  0.24125131  1
  Bi2+  Bi117  1  0.55853222  0.49414752  0.68059892  1
  Bi2+  Bi118  1  0.60044059  0.76640280  0.19683001  1
  Bi2+  Bi119  1  0.55447559  0.73846365  0.70324384  1
  Bi2+  Bi120  1  0.87165477  -0.05223680  0.22516976  1
  Bi2+  Bi121  1  0.88355735  0.00270760  0.71474009  1
  Bi2+  Bi122  1  0.91157563  0.20658367  0.18753137  1
  Bi2+  Bi123  1  0.88183880  0.25946120  0.71138318  1
  Bi2+  Bi124  1  0.87124886  0.49133488  0.20087030  1
  Bi2+  Bi125  1  0.94675587  0.47526537  0.70252616  1
  Bi2+  Bi126  1  0.86408114  0.75344670  0.20518048  1
  Bi2+  Bi127  1  0.82704143  0.75096328  0.71044759  1
  S2-  S128  1  0.05740072  0.14684481  0.15035173  1
  S2-  S129  1  0.00584407  0.02983602  0.65209505  1
  S2-  S130  1  0.10479759  0.40331314  0.13924710  1
  S2-  S131  1  0.01048945  0.24285728  0.64570462  1
  S2-  S132  1  -0.09278987  0.62802765  0.14099804  1
  S2-  S133  1  -0.04382059  0.70437929  0.64737556  1
  S2-  S134  1  -0.00089636  0.86221374  0.15202775  1
  S2-  S135  1  -0.00728340  0.86214792  0.71972952  1
  S2-  S136  1  0.27205364  0.14160367  0.17403040  1
  S2-  S137  1  0.24623145  0.17298984  0.66276656  1
  S2-  S138  1  0.29646693  0.36149707  0.15721603  1
  S2-  S139  1  0.19169764  0.39028117  0.65060779  1
  S2-  S140  1  0.27556117  0.61505706  0.15766903  1
  S2-  S141  1  0.13236057  0.60763323  0.64227940  1
  S2-  S142  1  0.25133624  0.84760031  0.15340470  1
  S2-  S143  1  0.17318697  0.84868756  0.64963733  1
  S2-  S144  1  0.51931762  0.13695550  0.15690163  1
  S2-  S145  1  0.50988666  0.11984218  0.65884576  1
  S2-  S146  1  0.52301836  0.36814556  0.16196521  1
  S2-  S147  1  0.43556637  0.36083427  0.66086168  1
  S2-  S148  1  0.51290318  0.64440485  0.14879010  1
  S2-  S149  1  0.36561968  0.62038371  0.63783322  1
  S2-  S150  1  0.48649710  0.87661603  0.16065113  1
  S2-  S151  1  0.45762214  0.85462130  0.64856608  1
  S2-  S152  1  0.75911145  0.12741233  0.15492323  1
  S2-  S153  1  0.80053357  0.13162407  0.66020469  1
  S2-  S154  1  0.88061759  0.35567407  0.13475193  1
  S2-  S155  1  0.83772528  0.38016115  0.64208492  1
  S2-  S156  1  0.72313225  0.50829175  0.14142796  1
  S2-  S157  1  0.74549077  0.63749163  0.65443961  1
  S2-  S158  1  0.74039235  0.79128624  0.13356821  1
  S2-  S159  1  0.82270690  0.88489445  0.64496881  1
  S2-  S160  1  0.12812815  0.07365292  0.35541988  1
  S2-  S161  1  0.12890824  -0.01597862  0.84920590  1
  S2-  S162  1  0.22347048  0.26108830  0.34433979  1
  S2-  S163  1  0.08548064  0.28908107  0.82896496  1
  S2-  S164  1  0.09042786  0.48679532  0.34403796  1
  S2-  S165  1  0.00585994  0.50816521  0.85597329  1
  S2-  S166  1  0.21537893  0.74589870  0.35892235  1
  S2-  S167  1  0.13591343  0.71275732  0.84171385  1
  S2-  S168  1  0.36392856  0.07485781  0.35622012  1
  S2-  S169  1  0.37860091  -0.00898149  0.85473207  1
  S2-  S170  1  0.42905447  0.25138468  0.29784201  1
  S2-  S171  1  0.28176238  0.23229472  0.86196423  1
  S2-  S172  1  0.36870747  0.44427153  0.35040564  1
  S2-  S173  1  0.25877638  0.50168924  0.85794454  1
  S2-  S174  1  0.41778609  0.70048025  0.33491944  1
  S2-  S175  1  0.38503984  0.72421407  0.84183317  1
  S2-  S176  1  0.60803258  0.02884734  0.34541101  1
  S2-  S177  1  0.72738966  0.03590707  0.84531651  1
  S2-  S178  1  0.62841738  0.26207170  0.34455344  1
  S2-  S179  1  0.72516726  0.27069807  0.85538319  1
  S2-  S180  1  0.61827366  0.50465816  0.34973720  1
  S2-  S181  1  0.63130357  0.64760244  0.85196869  1
  S2-  S182  1  0.62261380  0.75084322  0.34740222  1
  S2-  S183  1  0.60538180  0.86456268  0.85528067  1
  S2-  S184  1  0.85768640  0.10204161  0.35746198  1
  S2-  S185  1  0.91282758  -0.03575985  0.81267176  1
  S2-  S186  1  1.00707372  0.25926690  0.35001892  1
  S2-  S187  1  0.90527790  0.16597856  0.84559419  1
  S2-  S188  1  0.84541747  0.38435144  0.35403360  1
  S2-  S189  1  0.77647482  0.49786397  0.85395581  1
  S2-  S190  1  0.87926634  0.61629965  0.35804670  1
  S2-  S191  1  0.88607022  0.74416554  0.83522102  1
  S2-  S192  1  -0.00962993  0.11796379  0.45874249  1
  S2-  S193  1  0.00290382  0.13249515  0.95039263  1
  S2-  S194  1  -0.00843263  0.36842945  0.45908750  1
  S2-  S195  1  0.00337290  0.37761471  0.95185968  1
  S2-  S196  1  -0.00243219  0.61557972  0.45690984  1
  S2-  S197  1  0.00481894  0.63984735  0.95415226  1
  S2-  S198  1  -0.01077273  0.86960694  0.44556575  1
  S2-  S199  1  -0.00070739  0.89057588  0.94874929  1
  S2-  S200  1  0.24639244  0.12071625  0.45956434  1
  S2-  S201  1  0.25676454  0.12980298  0.96487711  1
  S2-  S202  1  0.24802673  0.36423408  0.45343996  1
  S2-  S203  1  0.25552622  0.38181229  0.95846084  1
  S2-  S204  1  0.24175762  0.61103853  0.45516778  1
  S2-  S205  1  0.25668138  0.63947234  0.95442797  1
  S2-  S206  1  0.24251277  0.87590704  0.45433892  1
  S2-  S207  1  0.25737638  0.88559607  0.95429875  1
  S2-  S208  1  0.49064977  0.12309378  0.45387110  1
  S2-  S209  1  0.50349033  0.13596965  0.95216902  1
  S2-  S210  1  0.49031703  0.36529411  0.45548840  1
  S2-  S211  1  0.50053271  0.38350219  0.95556252  1
  S2-  S212  1  0.49024125  0.61562493  0.45742428  1
  S2-  S213  1  0.50126404  0.63290728  0.94851803  1
  S2-  S214  1  0.48859880  0.87040114  0.44715096  1
  S2-  S215  1  0.50182473  0.88537600  0.95761423  1
  S2-  S216  1  0.74220654  0.11879200  0.45763120  1
  S2-  S217  1  0.75066939  0.13260609  0.95255078  1
  S2-  S218  1  0.74033827  0.37240341  0.45710215  1
  S2-  S219  1  0.75111046  0.38755646  0.95886829  1
  S2-  S220  1  0.73721985  0.61577292  0.45302898  1
  S2-  S221  1  0.75795127  0.63983241  0.95710016  1
  S2-  S222  1  0.74171540  0.86675567  0.45271561  1
  S2-  S223  1  0.75791484  0.88750605  0.94805956  1
  S2-  S224  1  0.13234977  0.00715017  0.05207161  1
  S2-  S225  1  0.11692398  -0.00844599  0.54889791  1
  S2-  S226  1  0.12777166  0.25663963  0.03904255  1
  S2-  S227  1  0.11879920  0.24531195  0.54124448  1
  S2-  S228  1  0.12797589  0.51688397  0.03796087  1
  S2-  S229  1  0.11784615  0.48676278  0.54512898  1
  S2-  S230  1  0.12973652  0.76079391  0.04506067  1
  S2-  S231  1  0.11562216  0.74857710  0.54366790  1
  S2-  S232  1  0.37846541  0.00915663  0.05640799  1
  S2-  S233  1  0.36764657  -0.00574581  0.54853110  1
  S2-  S234  1  0.37821660  0.25977097  0.04690863  1
  S2-  S235  1  0.36831655  0.24367047  0.55453001  1
  S2-  S236  1  0.37830907  0.51130900  0.04363919  1
  S2-  S237  1  0.36772319  0.48815124  0.54667616  1
  S2-  S238  1  0.38076895  0.76044761  0.04415815  1
  S2-  S239  1  0.36793190  0.74494462  0.53691272  1
  S2-  S240  1  0.63017954  0.00670268  0.04487447  1
  S2-  S241  1  0.62042694  -0.00874276  0.55011029  1
  S2-  S242  1  0.63008617  0.26276558  0.04334838  1
  S2-  S243  1  0.62359155  0.24530321  0.55138543  1
  S2-  S244  1  0.62451291  0.51238745  0.03634037  1
  S2-  S245  1  0.62101536  0.49587770  0.55064925  1
  S2-  S246  1  0.62633005  0.75929512  0.03557174  1
  S2-  S247  1  0.61795358  0.74148240  0.55080942  1
  S2-  S248  1  0.87604450  0.00674810  0.05292073  1
  S2-  S249  1  0.87148047  -0.00662586  0.54083927  1
  S2-  S250  1  0.87472851  0.25511158  0.03284714  1
  S2-  S251  1  0.86587307  0.24531414  0.54043054  1
  S2-  S252  1  0.87977923  0.51177722  0.03812259  1
  S2-  S253  1  0.86895651  0.49784374  0.54187447  1
  S2-  S254  1  0.88171602  0.76288042  0.03945837  1
  S2-  S255  1  0.86764457  0.74068035  0.53643275  1
