# generated using pymatgen
data_La6Ce6Pr19Nd20Sm13(BiS2)64
_symmetry_space_group_name_H-M   'P 1'
_cell_length_a   16.06894902
_cell_length_b   16.06066137
_cell_length_c   27.46755049
_cell_angle_alpha   90.08303443
_cell_angle_beta   89.99127741
_cell_angle_gamma   89.89605724
_symmetry_Int_Tables_number   1
_chemical_formula_structural   La6Ce6Pr19Nd20Sm13(BiS2)64
_chemical_formula_sum   'La6 Ce6 Pr19 Nd20 Sm13 Bi64 S128'
_cell_volume   7088.74989338
_cell_formula_units_Z   1
loop_
 _symmetry_equiv_pos_site_id
 _symmetry_equiv_pos_as_xyz
  1  'x, y, z'
loop_
 _atom_type_symbol
 _atom_type_oxidation_number
  La3+  3.0
  Ce3+  3.0
  Pr3+  3.0
  Nd3+  3.0
  Sm3+  3.0
  Bi2+  2.0
  S2-  -2.0
loop_
 _atom_site_type_symbol
 _atom_site_label
 _atom_site_symmetry_multiplicity
 _atom_site_fract_x
 _atom_site_fract_y
 _atom_site_fract_z
 _atom_site_occupancy
  La3+  La0  1  0.74088817  0.88458819  0.58368551  1
  La3+  La1  1  0.62093831  0.75691756  0.44434695  1
  La3+  La2  1  0.02127942  0.38732714  0.08063528  1
  La3+  La3  1  0.39038713  0.50833382  0.91126434  1
  La3+  La4  1  0.48682909  0.62123675  0.59504411  1
  La3+  La5  1  0.13333247  0.26659998  0.92647936  1
  Ce3+  Ce6  1  0.76053175  0.13844344  0.05516981  1
  Ce3+  Ce7  1  0.38953394  0.76162677  0.93855907  1
  Ce3+  Ce8  1  0.26452883  0.14128601  0.05938058  1
  Ce3+  Ce9  1  0.51456784  0.63841421  0.05449290  1
  Ce3+  Ce10  1  0.87002037  0.00911466  0.44961862  1
  Ce3+  Ce11  1  -0.00037745  0.13726594  0.56095825  1
  Pr3+  Pr12  1  0.37407280  0.26319620  0.42363538  1
  Pr3+  Pr13  1  0.25062075  0.88777336  0.56298773  1
  Pr3+  Pr14  1  0.37205489  0.51155785  0.42593061  1
  Pr3+  Pr15  1  0.49102745  0.88456804  0.56670930  1
  Pr3+  Pr16  1  0.74120071  0.13465974  0.56939959  1
  Pr3+  Pr17  1  0.62552819  0.26134527  0.44037997  1
  Pr3+  Pr18  1  0.37880689  0.01087749  0.41830486  1
  Pr3+  Pr19  1  0.74560888  0.64072196  0.57168678  1
  Pr3+  Pr20  1  0.00926292  0.88822677  0.07113406  1
  Pr3+  Pr21  1  0.12309542  0.01249859  0.43258388  1
  Pr3+  Pr22  1  0.26329660  0.88563636  0.06256137  1
  Pr3+  Pr23  1  0.39080452  0.01093119  0.94332926  1
  Pr3+  Pr24  1  0.01389238  0.63949061  0.07096740  1
  Pr3+  Pr25  1  0.26528396  0.38699373  0.05666068  1
  Pr3+  Pr26  1  0.48989357  0.13723242  0.55864039  1
  Pr3+  Pr27  1  0.64369199  0.76904006  0.90254387  1
  Pr3+  Pr28  1  0.87040634  0.77286783  0.43597937  1
  Pr3+  Pr29  1  -0.00437494  0.38919715  0.56598719  1
  Pr3+  Pr30  1  0.37138914  0.75702673  0.43543662  1
  Nd3+  Nd31  1  0.00004760  0.89075293  0.56575820  1
  Nd3+  Nd32  1  0.13353862  0.76229250  0.93572492  1
  Nd3+  Nd33  1  0.11760946  0.26270092  0.44231499  1
  Nd3+  Nd34  1  0.13550101  0.01238133  0.94660451  1
  Nd3+  Nd35  1  0.01505285  0.13705443  0.07407686  1
  Nd3+  Nd36  1  0.51078620  0.38930519  0.06622615  1
  Nd3+  Nd37  1  0.11322507  0.51201857  0.43020839  1
  Nd3+  Nd38  1  0.87134949  0.51369093  0.42959736  1
  Nd3+  Nd39  1  0.88656577  0.51416309  0.94043948  1
  Nd3+  Nd40  1  0.88981813  0.26331302  0.94077167  1
  Nd3+  Nd41  1  0.24419825  0.63292255  0.55660674  1
  Nd3+  Nd42  1  0.51481123  0.14229068  0.07365595  1
  Nd3+  Nd43  1  0.12188426  0.76351579  0.44188658  1
  Nd3+  Nd44  1  0.63401922  0.51257251  0.93544091  1
  Nd3+  Nd45  1  0.76178934  0.63918887  0.05761560  1
  Nd3+  Nd46  1  0.88759019  0.01220196  0.94400918  1
  Nd3+  Nd47  1  0.26339514  0.63754455  0.05120425  1
  Nd3+  Nd48  1  0.62106549  0.00317591  0.43715568  1
  Nd3+  Nd49  1  0.76561147  0.38881542  0.05421604  1
  Nd3+  Nd50  1  -0.00409951  0.63855550  0.55826816  1
  Sm3+  Sm51  1  0.62834828  0.51912485  0.43090455  1
  Sm3+  Sm52  1  0.13246499  0.51102521  0.93965674  1
  Sm3+  Sm53  1  0.51470118  0.88941140  0.05930722  1
  Sm3+  Sm54  1  0.38135806  0.25924171  0.93199953  1
  Sm3+  Sm55  1  0.63586921  0.01321364  0.93690859  1
  Sm3+  Sm56  1  0.24872998  0.13806802  0.55017867  1
  Sm3+  Sm57  1  0.24745870  0.39042712  0.55402467  1
  Sm3+  Sm58  1  0.75903247  0.88743239  0.05586236  1
  Sm3+  Sm59  1  0.87024405  0.26082181  0.45259642  1
  Sm3+  Sm60  1  0.49597787  0.39135255  0.54878378  1
  Sm3+  Sm61  1  0.74384700  0.39106816  0.55736750  1
  Sm3+  Sm62  1  0.63278831  0.26331126  0.94522753  1
  Sm3+  Sm63  1  0.89077643  0.76306604  0.93490737  1
  Bi2+  Bi64  1  -0.08019058  0.12982528  0.27105533  1
  Bi2+  Bi65  1  -0.01649854  0.09710472  0.79651632  1
  Bi2+  Bi66  1  -0.01558743  0.33299563  0.30871437  1
  Bi2+  Bi67  1  0.00301468  0.38283952  0.80258596  1
  Bi2+  Bi68  1  0.00751079  0.60863826  0.27623946  1
  Bi2+  Bi69  1  0.00930575  0.61591432  0.76053687  1
  Bi2+  Bi70  1  0.02035813  0.86005233  0.31079500  1
  Bi2+  Bi71  1  0.05175223  0.85941937  0.78780239  1
  Bi2+  Bi72  1  0.30660878  0.14287407  0.25171390  1
  Bi2+  Bi73  1  0.24038183  0.17627913  0.74891949  1
  Bi2+  Bi74  1  0.18448881  0.32538271  0.29075878  1
  Bi2+  Bi75  1  0.25672956  0.35163244  0.79249399  1
  Bi2+  Bi76  1  0.28473718  0.56881159  0.26998969  1
  Bi2+  Bi77  1  0.19657966  0.66365831  0.79085428  1
  Bi2+  Bi78  1  0.25933710  0.76720809  0.29930842  1
  Bi2+  Bi79  1  0.23128228  0.93902398  0.78289310  1
  Bi2+  Bi80  1  0.49916349  0.14598985  0.28558123  1
  Bi2+  Bi81  1  0.49345077  0.12055383  0.82576223  1
  Bi2+  Bi82  1  0.45842799  0.36075986  0.27638483  1
  Bi2+  Bi83  1  0.52427484  0.37838706  0.78590217  1
  Bi2+  Bi84  1  0.49908871  0.57095121  0.29895754  1
  Bi2+  Bi85  1  0.46417386  0.63971599  0.79149907  1
  Bi2+  Bi86  1  0.50650942  0.88183862  0.29472865  1
  Bi2+  Bi87  1  0.50229906  0.93546986  0.78691802  1
  Bi2+  Bi88  1  0.72969253  0.06678474  0.27029346  1
  Bi2+  Bi89  1  0.68696134  0.14657569  0.79581234  1
  Bi2+  Bi90  1  0.72161713  0.34536421  0.29187740  1
  Bi2+  Bi91  1  0.80756621  0.33579153  0.79623116  1
  Bi2+  Bi92  1  0.73849508  0.61397619  0.29160472  1
  Bi2+  Bi93  1  0.76608367  0.53092484  0.79876126  1
  Bi2+  Bi94  1  0.76251071  0.86212302  0.29705690  1
  Bi2+  Bi95  1  0.78002470  0.88914582  0.78642577  1
  Bi2+  Bi96  1  0.11926377  -0.05298002  0.22941329  1
  Bi2+  Bi97  1  0.12876891  -0.05352216  0.68319136  1
  Bi2+  Bi98  1  0.10287122  0.19006867  0.22133160  1
  Bi2+  Bi99  1  0.05483971  0.22735112  0.71835697  1
  Bi2+  Bi100  1  0.12433659  0.47615821  0.22539857  1
  Bi2+  Bi101  1  0.14883549  0.49122060  0.68881452  1
  Bi2+  Bi102  1  0.11451872  0.74788078  0.21644796  1
  Bi2+  Bi103  1  0.15520633  0.75285580  0.69506382  1
  Bi2+  Bi104  1  0.37639696  -0.03692282  0.22323471  1
  Bi2+  Bi105  1  0.38716675  0.03780514  0.69319889  1
  Bi2+  Bi106  1  0.33652559  0.31741775  0.18221942  1
  Bi2+  Bi107  1  0.43688389  0.22221253  0.73264634  1
  Bi2+  Bi108  1  0.40781232  0.49936934  0.18488312  1
  Bi2+  Bi109  1  0.35801102  0.48018332  0.70575812  1
  Bi2+  Bi110  1  0.34924928  0.71869844  0.20131056  1
  Bi2+  Bi111  1  0.34643809  0.80178396  0.73250492  1
  Bi2+  Bi112  1  0.62174263  -0.02786935  0.18882533  1
  Bi2+  Bi113  1  0.62707401  0.01838890  0.71352671  1
  Bi2+  Bi114  1  0.63584716  0.22462421  0.20998234  1
  Bi2+  Bi115  1  0.67728292  0.27916765  0.70743905  1
  Bi2+  Bi116  1  0.60359522  0.45944403  0.22503084  1
  Bi2+  Bi117  1  0.62524781  0.48946995  0.71702252  1
  Bi2+  Bi118  1  0.54452957  0.72483469  0.22870002  1
  Bi2+  Bi119  1  0.62814763  0.75362322  0.70733682  1
  Bi2+  Bi120  1  0.88285838  -0.02639370  0.20987446  1
  Bi2+  Bi121  1  0.89310238  -0.01728190  0.71477189  1
  Bi2+  Bi122  1  0.86146016  0.29041684  0.21238078  1
  Bi2+  Bi123  1  0.85370182  0.19089563  0.71755161  1
  Bi2+  Bi124  1  0.87356526  0.51155832  0.21105329  1
  Bi2+  Bi125  1  0.88452730  0.47538394  0.71256566  1
  Bi2+  Bi126  1  0.86362749  0.75705306  0.20839039  1
  Bi2+  Bi127  1  0.83009298  0.70419839  0.74920818  1
  S2-  S128  1  0.01526946  0.00899785  0.14755680  1
  S2-  S129  1  0.04096848  0.09561960  0.65116049  1
  S2-  S130  1  0.00448828  0.25460406  0.14925511  1
  S2-  S131  1  0.01834008  0.38334016  0.66478370  1
  S2-  S132  1  0.00327371  0.52174239  0.14702812  1
  S2-  S133  1  0.04926300  0.62680344  0.65214912  1
  S2-  S134  1  -0.00722054  0.76380484  0.14312013  1
  S2-  S135  1  -0.02555776  0.86255900  0.66221220  1
  S2-  S136  1  0.23296605  0.15727395  0.15361059  1
  S2-  S137  1  0.28021729  0.13316040  0.64581522  1
  S2-  S138  1  0.18487297  0.38951417  0.14587755  1
  S2-  S139  1  0.24844103  0.37665661  0.65262916  1
  S2-  S140  1  0.21869328  0.66077605  0.14578823  1
  S2-  S141  1  0.29714338  0.59279599  0.64829550  1
  S2-  S142  1  0.25561908  0.91362045  0.16227575  1
  S2-  S143  1  0.36315392  0.89558812  0.64042846  1
  S2-  S144  1  0.48811460  0.04984594  0.15761603  1
  S2-  S145  1  0.52990562  0.13749603  0.65594814  1
  S2-  S146  1  0.50251026  0.27500177  0.14286103  1
  S2-  S147  1  0.48341332  0.45419733  0.64055021  1
  S2-  S148  1  0.54096689  0.59901928  0.14827423  1
  S2-  S149  1  0.46375974  0.70624468  0.68815128  1
  S2-  S150  1  0.52455963  0.84293054  0.15373596  1
  S2-  S151  1  0.59660584  0.88685341  0.64911814  1
  S2-  S152  1  0.71830895  0.12108186  0.14834747  1
  S2-  S153  1  0.75691968  0.02739949  0.64872231  1
  S2-  S154  1  0.77411687  0.39838624  0.15258086  1
  S2-  S155  1  0.74971563  0.41325355  0.65399791  1
  S2-  S156  1  0.78654569  0.63667832  0.15730934  1
  S2-  S157  1  0.63706453  0.60769364  0.65040166  1
  S2-  S158  1  0.76502837  0.87054965  0.15382962  1
  S2-  S159  1  0.77671314  0.75369537  0.65359182  1
  S2-  S160  1  0.13882729  -0.03229355  0.33570040  1
  S2-  S161  1  0.10721315  0.00062310  0.84929916  1
  S2-  S162  1  0.09980020  0.21157584  0.34863372  1
  S2-  S163  1  0.24812447  0.21950618  0.85213893  1
  S2-  S164  1  -0.00555529  0.49587904  0.35653466  1
  S2-  S165  1  0.13787306  0.41299769  0.85788995  1
  S2-  S166  1  0.10691434  0.71128329  0.34754120  1
  S2-  S167  1  0.01589630  0.76654282  0.86325806  1
  S2-  S168  1  0.36660121  -0.13193256  0.35441531  1
  S2-  S169  1  0.36583570  0.00412159  0.84446804  1
  S2-  S170  1  0.35559655  0.14332863  0.34840486  1
  S2-  S171  1  0.39496067  0.35977935  0.85307295  1
  S2-  S172  1  0.35417794  0.38618047  0.35127519  1
  S2-  S173  1  0.31080266  0.55258148  0.81850530  1
  S2-  S174  1  0.36377995  0.64256949  0.35613089  1
  S2-  S175  1  0.39277460  0.76649261  0.84176569  1
  S2-  S176  1  0.52359464  0.02805835  0.35346038  1
  S2-  S177  1  0.63210798  -0.07540575  0.85216312  1
  S2-  S178  1  0.58797378  0.27020465  0.34349857  1
  S2-  S179  1  0.63119229  0.28895813  0.84927757  1
  S2-  S180  1  0.61666313  0.64818334  0.35957844  1
  S2-  S181  1  0.53879226  0.51611101  0.85210550  1
  S2-  S182  1  0.64614058  0.87046829  0.36494196  1
  S2-  S183  1  0.60422106  0.71179004  0.80777570  1
  S2-  S184  1  0.87985524  -0.07024075  0.36373745  1
  S2-  S185  1  0.86355357  0.00974279  0.84617827  1
  S2-  S186  1  0.84794977  0.26842070  0.35648915  1
  S2-  S187  1  0.99349600  0.24010813  0.86205148  1
  S2-  S188  1  0.75238538  0.49045607  0.35578073  1
  S2-  S189  1  0.94737556  0.53146034  0.84843858  1
  S2-  S190  1  0.84058686  0.71499795  0.34125991  1
  S2-  S191  1  0.79913786  0.76139091  0.85101096  1
  S2-  S192  1  -0.00612762  0.13569569  0.45484069  1
  S2-  S193  1  0.01103455  0.13338179  0.96483144  1
  S2-  S194  1  -0.00845472  0.38482985  0.46005943  1
  S2-  S195  1  0.00817031  0.39125832  0.96264046  1
  S2-  S196  1  -0.00624012  0.64019483  0.45382868  1
  S2-  S197  1  0.01172498  0.63583817  0.96076188  1
  S2-  S198  1  0.00181409  0.88899303  0.45987441  1
  S2-  S199  1  0.01002573  0.88937068  0.96287676  1
  S2-  S200  1  0.24523017  0.13978145  0.44822585  1
  S2-  S201  1  0.26325192  0.13303450  0.95589585  1
  S2-  S202  1  0.23834111  0.38869095  0.45010746  1
  S2-  S203  1  0.26582025  0.39172061  0.95255585  1
  S2-  S204  1  0.23795875  0.63185779  0.45239961  1
  S2-  S205  1  0.25936696  0.63573352  0.94489406  1
  S2-  S206  1  0.24572585  0.88714537  0.45554642  1
  S2-  S207  1  0.26063426  0.88528661  0.95313979  1
  S2-  S208  1  0.49773745  0.14083220  0.45394264  1
  S2-  S209  1  0.51350934  0.13876013  0.95948516  1
  S2-  S210  1  0.50429673  0.39117193  0.44639446  1
  S2-  S211  1  0.51158749  0.38576695  0.95864031  1
  S2-  S212  1  0.49528485  0.62976515  0.45654872  1
  S2-  S213  1  0.51678241  0.64347498  0.94881808  1
  S2-  S214  1  0.49332693  0.88452127  0.45960822  1
  S2-  S215  1  0.51675967  0.88439330  0.95351574  1
  S2-  S216  1  0.74645376  0.13447048  0.45955208  1
  S2-  S217  1  0.76014859  0.13905357  0.94857155  1
  S2-  S218  1  0.74936637  0.38660048  0.45665234  1
  S2-  S219  1  0.76107294  0.38679502  0.94860838  1
  S2-  S220  1  0.75534819  0.63698529  0.46155038  1
  S2-  S221  1  0.75810586  0.63894883  0.95015097  1
  S2-  S222  1  0.74742973  0.88786269  0.47130079  1
  S2-  S223  1  0.76045878  0.88863734  0.95293085  1
  S2-  S224  1  0.14128379  0.01271203  0.05049792  1
  S2-  S225  1  0.12653271  0.01411951  0.54035740  1
  S2-  S226  1  0.13846250  0.26114573  0.04030917  1
  S2-  S227  1  0.12440098  0.26371091  0.54908470  1
  S2-  S228  1  0.13921242  0.51474366  0.04196616  1
  S2-  S229  1  0.11901257  0.51013469  0.53900669  1
  S2-  S230  1  0.13716036  0.76455234  0.04103014  1
  S2-  S231  1  0.12303863  0.76278544  0.54799998  1
  S2-  S232  1  0.38908914  0.01188456  0.04907162  1
  S2-  S233  1  0.36866411  0.01533139  0.53456974  1
  S2-  S234  1  0.38955741  0.26179618  0.03815468  1
  S2-  S235  1  0.36995048  0.26758284  0.53872431  1
  S2-  S236  1  0.38892209  0.51407353  0.04281888  1
  S2-  S237  1  0.36905956  0.50930683  0.53553937  1
  S2-  S238  1  0.38991213  0.76395022  0.04571497  1
  S2-  S239  1  0.37015127  0.75198487  0.54753068  1
  S2-  S240  1  0.63468019  0.01258978  0.04169511  1
  S2-  S241  1  0.61664974  0.01459814  0.54413362  1
  S2-  S242  1  0.63866369  0.26590142  0.04720922  1
  S2-  S243  1  0.62037557  0.26536081  0.54840612  1
  S2-  S244  1  0.63814172  0.51022243  0.04219719  1
  S2-  S245  1  0.62210646  0.50973835  0.53894018  1
  S2-  S246  1  0.63797935  0.76445460  0.04893646  1
  S2-  S247  1  0.61221137  0.75335018  0.55132001  1
  S2-  S248  1  0.88224349  0.01247467  0.04915220  1
  S2-  S249  1  0.87551599  0.01373035  0.55283667  1
  S2-  S250  1  0.88652860  0.26156302  0.04575178  1
  S2-  S251  1  0.86797842  0.26249338  0.55760829  1
  S2-  S252  1  0.88620360  0.51450117  0.04530257  1
  S2-  S253  1  0.87086836  0.51320084  0.54927802  1
  S2-  S254  1  0.88147439  0.76427446  0.03992598  1
  S2-  S255  1  0.87813894  0.76563179  0.54596887  1
