# generated using pymatgen
data_La6Ce6Pr19Nd20Sm13(BiS2)64
_symmetry_space_group_name_H-M   'P 1'
_cell_length_a   16.14399194
_cell_length_b   16.13939942
_cell_length_c   27.28320802
_cell_angle_alpha   89.87729574
_cell_angle_beta   90.12335770
_cell_angle_gamma   89.94544596
_symmetry_Int_Tables_number   1
_chemical_formula_structural   La6Ce6Pr19Nd20Sm13(BiS2)64
_chemical_formula_sum   'La6 Ce6 Pr19 Nd20 Sm13 Bi64 S128'
_cell_volume   7108.72206917
_cell_formula_units_Z   1
loop_
 _symmetry_equiv_pos_site_id
 _symmetry_equiv_pos_as_xyz
  1  'x, y, z'
loop_
 _atom_type_symbol
 _atom_type_oxidation_number
  La3+  3.0
  Ce3+  3.0
  Pr3+  3.0
  Nd3+  3.0
  Sm3+  3.0
  Bi2+  2.0
  S2-  -2.0
loop_
 _atom_site_type_symbol
 _atom_site_label
 _atom_site_symmetry_multiplicity
 _atom_site_fract_x
 _atom_site_fract_y
 _atom_site_fract_z
 _atom_site_occupancy
  La3+  La0  1  0.38635332  0.51718658  0.39649644  1
  La3+  La1  1  0.00040435  0.10737574  0.07226256  1
  La3+  La2  1  0.87822138  0.77009761  0.43543562  1
  La3+  La3  1  0.13973500  0.01378668  0.42416709  1
  La3+  La4  1  -0.00187192  0.35766945  0.08349390  1
  La3+  La5  1  0.51245982  0.89143644  0.59669696  1
  Ce3+  Ce6  1  0.00099666  0.61582654  0.06476367  1
  Ce3+  Ce7  1  0.74787915  0.86360822  0.05131990  1
  Ce3+  Ce8  1  0.63389291  0.26298252  0.44260939  1
  Ce3+  Ce9  1  0.75116813  0.61715853  0.05503320  1
  Ce3+  Ce10  1  0.49810512  0.61474817  0.06090495  1
  Ce3+  Ce11  1  0.62968413  0.51489908  0.44140021  1
  Pr3+  Pr12  1  0.13315603  0.52199974  0.43357350  1
  Pr3+  Pr13  1  0.49776751  0.35987326  0.06946776  1
  Pr3+  Pr14  1  0.87769384  0.74620242  0.92922931  1
  Pr3+  Pr15  1  0.38475735  0.26642734  0.43962396  1
  Pr3+  Pr16  1  0.12400676  0.24045297  0.94849222  1
  Pr3+  Pr17  1  0.25329574  0.61958144  0.06420368  1
  Pr3+  Pr18  1  0.25656606  0.13816477  0.56133275  1
  Pr3+  Pr19  1  0.76098561  0.38639629  0.55640743  1
  Pr3+  Pr20  1  0.38159486  0.24582305  0.92630711  1
  Pr3+  Pr21  1  0.88334116  0.52112329  0.42885553  1
  Pr3+  Pr22  1  0.00801069  0.63998178  0.56546382  1
  Pr3+  Pr23  1  0.75056083  0.36076451  0.06289637  1
  Pr3+  Pr24  1  0.87505321  -0.00732694  0.93000699  1
  Pr3+  Pr25  1  0.26267697  0.63711073  0.56740614  1
  Pr3+  Pr26  1  0.25236159  0.36521493  0.06765086  1
  Pr3+  Pr27  1  0.12123517  0.48562847  0.94499533  1
  Pr3+  Pr28  1  0.00004807  0.86573987  0.06084810  1
  Pr3+  Pr29  1  0.51042546  0.63534320  0.57041892  1
  Pr3+  Pr30  1  0.36909295  0.73464649  0.90739006  1
  Nd3+  Nd31  1  0.88456198  0.26616971  0.43748784  1
  Nd3+  Nd32  1  0.87689937  0.23958236  0.93395610  1
  Nd3+  Nd33  1  0.50696883  0.13779882  0.56381092  1
  Nd3+  Nd34  1  0.12402651  0.73636995  0.93395180  1
  Nd3+  Nd35  1  0.38707935  0.75925905  0.44900883  1
  Nd3+  Nd36  1  0.25308816  0.11385535  0.05855809  1
  Nd3+  Nd37  1  0.25542753  0.86428188  0.04751532  1
  Nd3+  Nd38  1  0.00846699  0.89027526  0.55562971  1
  Nd3+  Nd39  1  0.38645764  0.01252437  0.43550124  1
  Nd3+  Nd40  1  0.49701838  0.86402278  0.04335052  1
  Nd3+  Nd41  1  0.62147934  0.73865085  0.93339497  1
  Nd3+  Nd42  1  0.26057137  0.88983142  0.56127127  1
  Nd3+  Nd43  1  0.63413540  0.00973880  0.44374016  1
  Nd3+  Nd44  1  0.76111676  0.89471104  0.57452473  1
  Nd3+  Nd45  1  0.62543552  0.49082966  0.94924546  1
  Nd3+  Nd46  1  0.62383637  0.24277479  0.93880242  1
  Nd3+  Nd47  1  0.13606758  0.27411136  0.43398444  1
  Nd3+  Nd48  1  0.49784207  0.11379928  0.06147497  1
  Nd3+  Nd49  1  0.76177570  0.13478506  0.55459211  1
  Nd3+  Nd50  1  0.37426358  0.49219110  0.94113350  1
  Sm3+  Sm51  1  0.37261986  0.00077323  0.92258613  1
  Sm3+  Sm52  1  0.00853380  0.38994145  0.55494255  1
  Sm3+  Sm53  1  0.89175036  0.01337660  0.42536509  1
  Sm3+  Sm54  1  0.25897624  0.39082814  0.55502573  1
  Sm3+  Sm55  1  0.62874968  0.76433601  0.45132768  1
  Sm3+  Sm56  1  0.13911901  0.75756720  0.44574764  1
  Sm3+  Sm57  1  0.75846817  0.63837239  0.55915058  1
  Sm3+  Sm58  1  0.12605989  -0.00809354  0.93925920  1
  Sm3+  Sm59  1  0.62006742  -0.00888096  0.93801104  1
  Sm3+  Sm60  1  0.01125566  0.13729671  0.54630564  1
  Sm3+  Sm61  1  0.74944299  0.11224036  0.05219960  1
  Sm3+  Sm62  1  0.87582263  0.48924432  0.95120799  1
  Sm3+  Sm63  1  0.50800737  0.38766449  0.55945142  1
  Bi2+  Bi64  1  -0.04864133  0.11078067  0.27627350  1
  Bi2+  Bi65  1  -0.05713913  0.15025159  0.76269281  1
  Bi2+  Bi66  1  -0.00763920  0.34444633  0.29487068  1
  Bi2+  Bi67  1  -0.00684809  0.33534851  0.79356568  1
  Bi2+  Bi68  1  0.00475823  0.58542544  0.30237552  1
  Bi2+  Bi69  1  -0.01191636  0.58269274  0.79805770  1
  Bi2+  Bi70  1  -0.03231762  0.85577680  0.30386264  1
  Bi2+  Bi71  1  0.00068321  0.84799033  0.78897797  1
  Bi2+  Bi72  1  0.30974265  0.14650944  0.28256040  1
  Bi2+  Bi73  1  0.21835226  0.17660057  0.79411080  1
  Bi2+  Bi74  1  0.24121893  0.36325823  0.29224120  1
  Bi2+  Bi75  1  0.30649268  0.35637170  0.79271562  1
  Bi2+  Bi76  1  0.24958847  0.68496728  0.29094210  1
  Bi2+  Bi77  1  0.23767650  0.60094059  0.78879285  1
  Bi2+  Bi78  1  0.23332001  0.88173069  0.30126417  1
  Bi2+  Bi79  1  0.22200533  0.88925696  0.79630959  1
  Bi2+  Bi80  1  0.50373866  0.13099226  0.29845136  1
  Bi2+  Bi81  1  0.48180687  0.14900524  0.77846066  1
  Bi2+  Bi82  1  0.49693201  0.32785589  0.27507918  1
  Bi2+  Bi83  1  0.50137972  0.39783847  0.79774730  1
  Bi2+  Bi84  1  0.51866326  0.68210095  0.29028340  1
  Bi2+  Bi85  1  0.52185364  0.62725458  0.80613363  1
  Bi2+  Bi86  1  0.43433756  0.88762124  0.28665809  1
  Bi2+  Bi87  1  0.52728453  0.88915686  0.79603717  1
  Bi2+  Bi88  1  0.75199282  0.08015607  0.26135939  1
  Bi2+  Bi89  1  0.74923435  0.18196421  0.80021895  1
  Bi2+  Bi90  1  0.71751545  0.34593358  0.26898339  1
  Bi2+  Bi91  1  0.79328498  0.36771674  0.79271985  1
  Bi2+  Bi92  1  0.74727356  0.64426740  0.29140240  1
  Bi2+  Bi93  1  0.80431785  0.63322733  0.76797009  1
  Bi2+  Bi94  1  0.69354346  0.89982571  0.30025464  1
  Bi2+  Bi95  1  0.79926295  0.91331754  0.76334050  1
  Bi2+  Bi96  1  0.14787183  -0.03681040  0.20735452  1
  Bi2+  Bi97  1  0.10236407  0.00645657  0.74653543  1
  Bi2+  Bi98  1  0.12945514  0.16537578  0.23659079  1
  Bi2+  Bi99  1  0.09996972  0.24233557  0.70615297  1
  Bi2+  Bi100  1  0.11393103  0.51585613  0.20568522  1
  Bi2+  Bi101  1  0.15417544  0.42652318  0.72322658  1
  Bi2+  Bi102  1  0.09588096  0.77431400  0.23967189  1
  Bi2+  Bi103  1  0.10930037  0.71028676  0.72473072  1
  Bi2+  Bi104  1  0.40702571  0.03577904  0.20862680  1
  Bi2+  Bi105  1  0.36088631  0.01262208  0.70335865  1
  Bi2+  Bi106  1  0.35648581  0.30129133  0.19422304  1
  Bi2+  Bi107  1  0.39466296  0.26505284  0.69992650  1
  Bi2+  Bi108  1  0.37639119  0.53694053  0.20353945  1
  Bi2+  Bi109  1  0.40547044  0.48263078  0.70759390  1
  Bi2+  Bi110  1  0.36198990  0.79804152  0.19726998  1
  Bi2+  Bi111  1  0.35473436  0.75186849  0.70750595  1
  Bi2+  Bi112  1  0.58760609  -0.05917713  0.20726826  1
  Bi2+  Bi113  1  0.67396107  0.04937912  0.72916480  1
  Bi2+  Bi114  1  0.61628565  0.20262425  0.20925036  1
  Bi2+  Bi115  1  0.59766846  0.22259088  0.69435673  1
  Bi2+  Bi116  1  0.61441211  0.51196526  0.26076788  1
  Bi2+  Bi117  1  0.66472611  0.49281042  0.74928495  1
  Bi2+  Bi118  1  0.63612923  0.74608563  0.20655439  1
  Bi2+  Bi119  1  0.63062942  0.72422066  0.70659183  1
  Bi2+  Bi120  1  0.88670993  -0.04210714  0.21396501  1
  Bi2+  Bi121  1  0.92090512  0.00326538  0.68374989  1
  Bi2+  Bi122  1  0.84636948  0.24963150  0.19714602  1
  Bi2+  Bi123  1  0.79012957  0.25675498  0.68734388  1
  Bi2+  Bi124  1  0.85760410  0.51725606  0.19732497  1
  Bi2+  Bi125  1  0.90415572  0.49421712  0.70184548  1
  Bi2+  Bi126  1  0.83380909  0.76126758  0.21543374  1
  Bi2+  Bi127  1  0.88744528  0.77510407  0.70156067  1
  S2-  S128  1  -0.01416053  0.21668916  0.14979921  1
  S2-  S129  1  0.03859945  0.12423116  0.64204310  1
  S2-  S130  1  -0.02197177  0.41271537  0.18194775  1
  S2-  S131  1  0.01600679  0.38935288  0.65281382  1
  S2-  S132  1  -0.01180321  0.61702602  0.16233902  1
  S2-  S133  1  -0.00417060  0.62530986  0.66493292  1
  S2-  S134  1  0.00630199  0.97259639  0.14011341  1
  S2-  S135  1  0.01622297  0.85955868  0.65276856  1
  S2-  S136  1  0.20803220  0.10336111  0.15512636  1
  S2-  S137  1  0.28762241  0.14095072  0.66043749  1
  S2-  S138  1  0.20907670  0.37153267  0.16693980  1
  S2-  S139  1  0.27122472  0.39638442  0.65345597  1
  S2-  S140  1  0.22476224  0.60547226  0.16355146  1
  S2-  S141  1  0.22997451  0.64079001  0.66644043  1
  S2-  S142  1  0.23336202  0.84325168  0.14550613  1
  S2-  S143  1  0.26780827  0.88531356  0.66086508  1
  S2-  S144  1  0.49010461  0.22323889  0.13877722  1
  S2-  S145  1  0.49100225  0.04532252  0.64675994  1
  S2-  S146  1  0.48040185  0.44945746  0.15737772  1
  S2-  S147  1  0.51654137  0.39897801  0.65759255  1
  S2-  S148  1  0.44006100  0.66053364  0.14848507  1
  S2-  S149  1  0.47664968  0.64166618  0.67006717  1
  S2-  S150  1  0.46459820  0.91243316  0.13679659  1
  S2-  S151  1  0.46796958  0.86291250  0.69698011  1
  S2-  S152  1  0.75144648  0.12804582  0.14970563  1
  S2-  S153  1  0.77441812  0.03754380  0.63696021  1
  S2-  S154  1  0.74948249  0.39233438  0.16216504  1
  S2-  S155  1  0.76654308  0.41857436  0.65476136  1
  S2-  S156  1  0.74001079  0.63005482  0.15162065  1
  S2-  S157  1  0.73879581  0.64255148  0.65650004  1
  S2-  S158  1  0.77337790  0.87784526  0.14588818  1
  S2-  S159  1  0.66079568  0.85761617  0.65521922  1
  S2-  S160  1  0.01649457  0.00691847  0.35168081  1
  S2-  S161  1  0.13353464  0.03754579  0.84479027  1
  S2-  S162  1  0.14230815  0.23240952  0.33746337  1
  S2-  S163  1  0.12170957  0.28614333  0.85215133  1
  S2-  S164  1  0.11562091  0.44111354  0.34282063  1
  S2-  S165  1  0.13604238  0.52356879  0.84619182  1
  S2-  S166  1  0.13193967  0.65996435  0.36437900  1
  S2-  S167  1  0.22214950  0.74300053  0.84997137  1
  S2-  S168  1  0.27484733  0.02532428  0.35805869  1
  S2-  S169  1  0.36870520  -0.06160548  0.82868174  1
  S2-  S170  1  0.38197800  0.35092835  0.35202461  1
  S2-  S171  1  0.35986109  0.13309931  0.85141484  1
  S2-  S172  1  0.30521808  0.51612714  0.30121036  1
  S2-  S173  1  0.37484921  0.57542048  0.85398796  1
  S2-  S174  1  0.38764958  0.68589983  0.35853978  1
  S2-  S175  1  0.41992057  0.75109674  0.80579808  1
  S2-  S176  1  0.57000400  -0.00121553  0.35093896  1
  S2-  S177  1  0.61528951  0.00664706  0.84079256  1
  S2-  S178  1  0.62986754  0.27359315  0.34579595  1
  S2-  S179  1  0.52990176  0.25702941  0.85572757  1
  S2-  S180  1  0.54806611  0.52219076  0.35481110  1
  S2-  S181  1  0.62545002  0.49925302  0.85055016  1
  S2-  S182  1  0.64478327  0.75228693  0.35270632  1
  S2-  S183  1  0.62709072  0.75929615  0.83408549  1
  S2-  S184  1  0.83398894  -0.10709609  0.36303225  1
  S2-  S185  1  0.86291499  -0.12665784  0.85467140  1
  S2-  S186  1  0.89025974  0.24143987  0.33954325  1
  S2-  S187  1  0.88677992  0.12121765  0.85944382  1
  S2-  S188  1  0.89567219  0.45703051  0.33122064  1
  S2-  S189  1  0.90653199  0.45555767  0.85777476  1
  S2-  S190  1  0.89102636  0.65657860  0.35759790  1
  S2-  S191  1  1.00498608  0.71681941  0.85932036  1
  S2-  S192  1  0.01279491  0.14477601  0.44448054  1
  S2-  S193  1  0.00298638  0.11419626  0.96059565  1
  S2-  S194  1  0.00661260  0.39239162  0.45087244  1
  S2-  S195  1  -0.00445622  0.36240471  0.96644854  1
  S2-  S196  1  0.00709519  0.64220368  0.46102019  1
  S2-  S197  1  -0.00295414  0.61078717  0.96035028  1
  S2-  S198  1  0.01671108  0.88203360  0.45115418  1
  S2-  S199  1  0.00577363  0.86989739  0.95430283  1
  S2-  S200  1  0.25858357  0.14511266  0.45491974  1
  S2-  S201  1  0.24863373  0.11707129  0.95366471  1
  S2-  S202  1  0.26179611  0.39769487  0.45120485  1
  S2-  S203  1  0.25255443  0.36586221  0.95654227  1
  S2-  S204  1  0.26526751  0.63409002  0.46099628  1
  S2-  S205  1  0.24586516  0.61304760  0.95685903  1
  S2-  S206  1  0.26117200  0.88219018  0.45461607  1
  S2-  S207  1  0.25306860  0.87280994  0.94358562  1
  S2-  S208  1  0.50763669  0.13779874  0.45608417  1
  S2-  S209  1  0.50107175  0.11552024  0.95461041  1
  S2-  S210  1  0.50951011  0.38891559  0.45580116  1
  S2-  S211  1  0.50021954  0.36956958  0.96058409  1
  S2-  S212  1  0.50917612  0.63661314  0.46301146  1
  S2-  S213  1  0.50015508  0.61584077  0.95328144  1
  S2-  S214  1  0.50635641  0.88681385  0.45497149  1
  S2-  S215  1  0.49514015  0.86588940  0.93819719  1
  S2-  S216  1  0.76227827  0.13416076  0.44671745  1
  S2-  S217  1  0.74337269  0.11506092  0.94905916  1
  S2-  S218  1  0.75934847  0.39047080  0.44838225  1
  S2-  S219  1  0.75137683  0.36408525  0.95391489  1
  S2-  S220  1  0.75299743  0.63981765  0.45580008  1
  S2-  S221  1  0.75322116  0.61657228  0.94696283  1
  S2-  S222  1  0.74997489  0.88709923  0.46774812  1
  S2-  S223  1  0.74197662  0.86665447  0.94792196  1
  S2-  S224  1  0.13152000  -0.01213517  0.04226938  1
  S2-  S225  1  0.13464535  0.01219266  0.53860738  1
  S2-  S226  1  0.12864040  0.23923961  0.05400113  1
  S2-  S227  1  0.13315354  0.26698696  0.54272100  1
  S2-  S228  1  0.12403353  0.48799976  0.05303413  1
  S2-  S229  1  0.13340674  0.51238176  0.54800735  1
  S2-  S230  1  0.12503752  0.74165505  0.04418491  1
  S2-  S231  1  0.13588096  0.76320221  0.54994176  1
  S2-  S232  1  0.37506353  -0.00674881  0.03281604  1
  S2-  S233  1  0.38229644  0.01231111  0.54189694  1
  S2-  S234  1  0.37183738  0.23985808  0.03796521  1
  S2-  S235  1  0.38315710  0.26528217  0.54734127  1
  S2-  S236  1  0.37305987  0.49097690  0.04714652  1
  S2-  S237  1  0.38522439  0.50928568  0.55618644  1
  S2-  S238  1  0.37596383  0.73989485  0.03353331  1
  S2-  S239  1  0.38823182  0.76681752  0.55637097  1
  S2-  S240  1  0.62216475  -0.00864868  0.04400453  1
  S2-  S241  1  0.62969015  0.01331722  0.54827565  1
  S2-  S242  1  0.62648357  0.23676449  0.04427611  1
  S2-  S243  1  0.63408080  0.26064495  0.54904829  1
  S2-  S244  1  0.62644832  0.48960164  0.05386563  1
  S2-  S245  1  0.63461762  0.51135804  0.54999078  1
  S2-  S246  1  0.62228271  0.74017156  0.04152028  1
  S2-  S247  1  0.63251091  0.76176127  0.55297654  1
  S2-  S248  1  0.87077917  -0.01080572  0.03827221  1
  S2-  S249  1  0.88959466  0.01457569  0.53148123  1
  S2-  S250  1  0.87091028  0.23538508  0.04134286  1
  S2-  S251  1  0.88790769  0.26076033  0.54423139  1
  S2-  S252  1  0.87523292  0.48829594  0.05506950  1
  S2-  S253  1  0.88366082  0.51451319  0.54340394  1
  S2-  S254  1  0.87632125  0.74145545  0.04203895  1
  S2-  S255  1  0.88036729  0.76443990  0.54861972  1
