# generated using pymatgen
data_La6Ce6Pr19Nd20Sm13(BiS2)64
_symmetry_space_group_name_H-M   'P 1'
_cell_length_a   16.14623019
_cell_length_b   16.14621003
_cell_length_c   27.45522398
_cell_angle_alpha   90.01344873
_cell_angle_beta   90.18796291
_cell_angle_gamma   89.91419822
_symmetry_Int_Tables_number   1
_chemical_formula_structural   La6Ce6Pr19Nd20Sm13(BiS2)64
_chemical_formula_sum   'La6 Ce6 Pr19 Nd20 Sm13 Bi64 S128'
_cell_volume   7157.54179819
_cell_formula_units_Z   1
loop_
 _symmetry_equiv_pos_site_id
 _symmetry_equiv_pos_as_xyz
  1  'x, y, z'
loop_
 _atom_type_symbol
 _atom_type_oxidation_number
  La3+  3.0
  Ce3+  3.0
  Pr3+  3.0
  Nd3+  3.0
  Sm3+  3.0
  Bi2+  2.0
  S2-  -2.0
loop_
 _atom_site_type_symbol
 _atom_site_label
 _atom_site_symmetry_multiplicity
 _atom_site_fract_x
 _atom_site_fract_y
 _atom_site_fract_z
 _atom_site_occupancy
  La3+  La0  1  0.12886763  0.24974693  0.39670239  1
  La3+  La1  1  0.87759130  -0.00591939  0.93200892  1
  La3+  La2  1  0.64361983  0.75744337  0.39103614  1
  La3+  La3  1  0.74132292  0.86903328  0.11460338  1
  La3+  La4  1  0.36761617  0.00771414  0.91680379  1
  La3+  La5  1  0.24120707  0.37716991  0.10981639  1
  Ce3+  Ce6  1  0.51069262  0.88229012  0.56370211  1
  Ce3+  Ce7  1  0.51725350  0.14186876  0.57960070  1
  Ce3+  Ce8  1  0.49499686  0.37794529  0.05909276  1
  Ce3+  Ce9  1  0.51186026  0.62813000  0.55510421  1
  Ce3+  Ce10  1  0.13462270  0.00519773  0.44630664  1
  Ce3+  Ce11  1  0.25777041  0.87718821  0.06641133  1
  Pr3+  Pr12  1  0.75868127  0.63192324  0.55217447  1
  Pr3+  Pr13  1  0.26018536  0.87746776  0.55773901  1
  Pr3+  Pr14  1  0.00843860  0.37979878  0.56536645  1
  Pr3+  Pr15  1  0.38674595  0.50608237  0.43752268  1
  Pr3+  Pr16  1  0.63584086  0.50091467  0.93436934  1
  Pr3+  Pr17  1  0.26064222  0.13206081  0.56681492  1
  Pr3+  Pr18  1  0.50464285  0.62714197  0.05597925  1
  Pr3+  Pr19  1  0.37871763  0.75608194  0.93511507  1
  Pr3+  Pr20  1  0.12955452  0.50184827  0.93908432  1
  Pr3+  Pr21  1  0.63243020  0.00856061  0.44351803  1
  Pr3+  Pr22  1  0.75328864  0.62599139  0.06699476  1
  Pr3+  Pr23  1  0.88131714  0.00225631  0.43805942  1
  Pr3+  Pr24  1  0.87713761  0.50275654  0.94131428  1
  Pr3+  Pr25  1  0.87473921  0.75386040  0.94176398  1
  Pr3+  Pr26  1  0.00406149  0.62686412  0.05584318  1
  Pr3+  Pr27  1  0.76752671  0.12870630  0.57339090  1
  Pr3+  Pr28  1  0.38517270  0.25594823  0.44854936  1
  Pr3+  Pr29  1  0.13543907  0.75327358  0.42735913  1
  Pr3+  Pr30  1  0.50106533  0.12677232  0.05499923  1
  Nd3+  Nd31  1  0.00460516  0.12879691  0.05193439  1
  Nd3+  Nd32  1  0.13154312  0.50329755  0.43141325  1
  Nd3+  Nd33  1  0.75364302  0.37499815  0.06837409  1
  Nd3+  Nd34  1  0.88208974  0.24700898  0.43093437  1
  Nd3+  Nd35  1  0.38936904  0.75487327  0.43858944  1
  Nd3+  Nd36  1  0.63406469  0.25188789  0.44561679  1
  Nd3+  Nd37  1  0.63004520  0.25198345  0.94414228  1
  Nd3+  Nd38  1  0.13097667  0.75346819  0.94503011  1
  Nd3+  Nd39  1  -0.00092503  0.87958932  0.06510461  1
  Nd3+  Nd40  1  0.88493449  0.49925782  0.43841018  1
  Nd3+  Nd41  1  0.38107090  0.49964050  0.93103103  1
  Nd3+  Nd42  1  0.76603899  0.38165568  0.56450764  1
  Nd3+  Nd43  1  0.87694826  0.24982313  0.93669340  1
  Nd3+  Nd44  1  0.76081080  0.87894259  0.56366686  1
  Nd3+  Nd45  1  0.25622027  0.62387822  0.05626639  1
  Nd3+  Nd46  1  0.38490705  0.00778355  0.44834852  1
  Nd3+  Nd47  1  0.62729300  0.00347490  0.93841923  1
  Nd3+  Nd48  1  0.37767309  0.25899106  0.93284197  1
  Nd3+  Nd49  1  0.51996584  0.39054799  0.57990186  1
  Nd3+  Nd50  1  0.75534606  0.12747842  0.06577144  1
  Sm3+  Sm51  1  0.01011337  0.87720402  0.55179942  1
  Sm3+  Sm52  1  0.63639101  0.50335130  0.43266048  1
  Sm3+  Sm53  1  0.62668176  0.75581883  0.94598903  1
  Sm3+  Sm54  1  0.25819279  0.62770276  0.55322095  1
  Sm3+  Sm55  1  0.25549336  0.13179978  0.05916572  1
  Sm3+  Sm56  1  0.01058846  0.63044685  0.55126779  1
  Sm3+  Sm57  1  0.00736185  0.13080605  0.55902925  1
  Sm3+  Sm58  1  0.50001986  0.88265793  0.05862067  1
  Sm3+  Sm59  1  0.25590087  0.38015188  0.55432026  1
  Sm3+  Sm60  1  0.87994855  0.75472447  0.43603165  1
  Sm3+  Sm61  1  0.13207174  0.00295978  0.95128284  1
  Sm3+  Sm62  1  0.00662062  0.37632811  0.05239425  1
  Sm3+  Sm63  1  0.13148332  0.25498182  0.94092450  1
  Bi2+  Bi64  1  -0.01498600  0.11250007  0.30386397  1
  Bi2+  Bi65  1  -0.01331790  0.11996490  0.75359320  1
  Bi2+  Bi66  1  -0.12555223  0.38224893  0.27596112  1
  Bi2+  Bi67  1  0.00637330  0.42354529  0.78772115  1
  Bi2+  Bi68  1  0.00943731  0.61013392  0.28458789  1
  Bi2+  Bi69  1  0.01000222  0.62486650  0.79020544  1
  Bi2+  Bi70  1  -0.00769353  0.87145833  0.30102695  1
  Bi2+  Bi71  1  -0.00149461  0.83567025  0.74902648  1
  Bi2+  Bi72  1  0.29003996  0.10396136  0.30864501  1
  Bi2+  Bi73  1  0.23163727  0.11869540  0.79421561  1
  Bi2+  Bi74  1  0.28447108  0.36831516  0.30523663  1
  Bi2+  Bi75  1  0.23281190  0.34178738  0.79446655  1
  Bi2+  Bi76  1  0.20925615  0.67890256  0.26862408  1
  Bi2+  Bi77  1  0.21927957  0.62060215  0.79369197  1
  Bi2+  Bi78  1  0.18384658  0.85957890  0.31315095  1
  Bi2+  Bi79  1  0.26002641  0.85125728  0.80524794  1
  Bi2+  Bi80  1  0.52213358  0.09783082  0.28839526  1
  Bi2+  Bi81  1  0.47451701  0.20395787  0.78057014  1
  Bi2+  Bi82  1  0.53132463  0.36814118  0.29134475  1
  Bi2+  Bi83  1  0.46882898  0.40967962  0.77459166  1
  Bi2+  Bi84  1  0.47156360  0.62574678  0.29656611  1
  Bi2+  Bi85  1  0.48576083  0.64435310  0.72531208  1
  Bi2+  Bi86  1  0.37984694  0.86600000  0.28725392  1
  Bi2+  Bi87  1  0.50284392  0.82264216  0.79206827  1
  Bi2+  Bi88  1  0.72256253  0.15946183  0.28863981  1
  Bi2+  Bi89  1  0.73505971  0.13647507  0.80776036  1
  Bi2+  Bi90  1  0.71063384  0.34298323  0.33473430  1
  Bi2+  Bi91  1  0.70205687  0.38943559  0.80835558  1
  Bi2+  Bi92  1  0.74452000  0.56983709  0.27583928  1
  Bi2+  Bi93  1  0.81799599  0.63859868  0.79399095  1
  Bi2+  Bi94  1  0.79965221  0.91861104  0.31364030  1
  Bi2+  Bi95  1  0.75845808  0.89120311  0.81459058  1
  Bi2+  Bi96  1  0.12022496  -0.01208496  0.22112595  1
  Bi2+  Bi97  1  0.12379988  -0.01648442  0.74677790  1
  Bi2+  Bi98  1  0.11950969  0.24537496  0.20452222  1
  Bi2+  Bi99  1  0.07115047  0.27179127  0.70477664  1
  Bi2+  Bi100  1  0.10886481  0.51194095  0.20652475  1
  Bi2+  Bi101  1  0.10803433  0.45363650  0.68804245  1
  Bi2+  Bi102  1  0.12623440  0.80325802  0.18309742  1
  Bi2+  Bi103  1  0.12515419  0.70125769  0.70357617  1
  Bi2+  Bi104  1  0.31231677  0.00070133  0.21178291  1
  Bi2+  Bi105  1  0.36723775  -0.01381259  0.70402433  1
  Bi2+  Bi106  1  0.44677689  0.23505610  0.21810460  1
  Bi2+  Bi107  1  0.32909457  0.25275353  0.70925358  1
  Bi2+  Bi108  1  0.40437715  0.53119131  0.19659115  1
  Bi2+  Bi109  1  0.32175564  0.50690995  0.72372469  1
  Bi2+  Bi110  1  0.31703748  0.77176437  0.19030342  1
  Bi2+  Bi111  1  0.33294552  0.76568247  0.70450441  1
  Bi2+  Bi112  1  0.62064672  0.00905586  0.20958087  1
  Bi2+  Bi113  1  0.61429853  0.00542933  0.70539346  1
  Bi2+  Bi114  1  0.63523603  0.27740333  0.20700152  1
  Bi2+  Bi115  1  0.61672296  0.27517098  0.71413858  1
  Bi2+  Bi116  1  0.61369298  0.48066846  0.20604105  1
  Bi2+  Bi117  1  0.63997780  0.52396350  0.70814636  1
  Bi2+  Bi118  1  0.61314138  0.74807879  0.21255226  1
  Bi2+  Bi119  1  0.66517906  0.73467619  0.74191362  1
  Bi2+  Bi120  1  0.91919525  0.01648826  0.20806603  1
  Bi2+  Bi121  1  0.86903523  -0.01022310  0.70026267  1
  Bi2+  Bi122  1  0.87715283  0.21329166  0.21790392  1
  Bi2+  Bi123  1  0.88069887  0.28997936  0.73722437  1
  Bi2+  Bi124  1  0.80381330  0.47749548  0.18333169  1
  Bi2+  Bi125  1  0.89247670  0.50235828  0.70475402  1
  Bi2+  Bi126  1  0.94286209  0.74377852  0.21798858  1
  Bi2+  Bi127  1  0.85986906  0.72596753  0.69581242  1
  S2-  S128  1  0.00028727  0.14646140  0.15008657  1
  S2-  S129  1  -0.09146412  0.12229926  0.63867372  1
  S2-  S130  1  0.06206858  0.38054196  0.14452214  1
  S2-  S131  1  -0.11361415  0.37180312  0.64016821  1
  S2-  S132  1  -0.00213676  0.61430633  0.15483888  1
  S2-  S133  1  -0.00346557  0.62990302  0.64865845  1
  S2-  S134  1  -0.09002661  0.87772238  0.14931141  1
  S2-  S135  1  -0.02027377  0.88478998  0.64688368  1
  S2-  S136  1  0.24579640  0.20893698  0.14675845  1
  S2-  S137  1  0.26164587  0.11494430  0.66711189  1
  S2-  S138  1  0.22413313  0.38540365  0.21672706  1
  S2-  S139  1  0.26038748  0.39252388  0.65190109  1
  S2-  S140  1  0.25045235  0.55136239  0.14581110  1
  S2-  S141  1  0.26507057  0.62860041  0.65036563  1
  S2-  S142  1  0.37791618  0.90288334  0.13401790  1
  S2-  S143  1  0.24591947  0.88608648  0.65673030  1
  S2-  S144  1  0.50100256  0.11623848  0.15584233  1
  S2-  S145  1  0.47836923  0.08419312  0.67039927  1
  S2-  S146  1  0.41181771  0.38214536  0.14452664  1
  S2-  S147  1  0.48220690  0.28466819  0.65453275  1
  S2-  S148  1  0.49148143  0.64991370  0.15624507  1
  S2-  S149  1  0.50881664  0.53968519  0.63863799  1
  S2-  S150  1  0.57465669  0.87523008  0.14861226  1
  S2-  S151  1  0.49917398  0.89079932  0.66250789  1
  S2-  S152  1  0.74897293  0.03537907  0.14968267  1
  S2-  S153  1  0.67580890  0.13549910  0.65982909  1
  S2-  S154  1  0.76619232  0.25386582  0.13991899  1
  S2-  S155  1  0.66379486  0.39229431  0.64534036  1
  S2-  S156  1  0.74010676  0.70387131  0.15547691  1
  S2-  S157  1  0.76320019  0.59802018  0.65020313  1
  S2-  S158  1  0.72179017  0.87027687  0.22808838  1
  S2-  S159  1  0.74000544  0.91232058  0.66097944  1
  S2-  S160  1  0.13679302  0.07457193  0.35888039  1
  S2-  S161  1  0.20225303  -0.00656121  0.86282827  1
  S2-  S162  1  0.18235501  0.23026895  0.29454847  1
  S2-  S163  1  0.13117196  0.23364455  0.84310572  1
  S2-  S164  1  0.14673593  0.40761947  0.34982763  1
  S2-  S165  1  0.16166649  0.48212635  0.84169395  1
  S2-  S166  1  0.12853369  0.62772252  0.35669143  1
  S2-  S167  1  0.14563665  0.76200126  0.84720460  1
  S2-  S168  1  0.41815559  -0.00687291  0.35117637  1
  S2-  S169  1  0.41333654  -0.05472328  0.82195839  1
  S2-  S170  1  0.37271435  0.23239146  0.35001050  1
  S2-  S171  1  0.37284590  0.15147990  0.85316747  1
  S2-  S172  1  0.41413006  0.47530007  0.34057915  1
  S2-  S173  1  0.37251691  0.38236822  0.85685707  1
  S2-  S174  1  0.35450008  0.68826359  0.34871679  1
  S2-  S175  1  0.39003380  0.72079083  0.83777070  1
  S2-  S176  1  0.65749082  -0.07497275  0.35609735  1
  S2-  S177  1  0.63659233  0.01440832  0.83732553  1
  S2-  S178  1  0.61144849  0.13946024  0.36995017  1
  S2-  S179  1  0.61176868  0.24642782  0.84543819  1
  S2-  S180  1  0.63019061  0.59308896  0.34700751  1
  S2-  S181  1  0.57171743  0.49049861  0.83994464  1
  S2-  S182  1  0.53658528  0.77761086  0.30747297  1
  S2-  S183  1  0.64489586  0.75991719  0.84804684  1
  S2-  S184  1  0.84554989  0.10427764  0.35958157  1
  S2-  S185  1  0.85349639  0.03860521  0.83477488  1
  S2-  S186  1  0.97546591  0.26510125  0.34736004  1
  S2-  S187  1  0.83485108  0.27420795  0.84183496  1
  S2-  S188  1  0.88541450  0.52410010  0.34019658  1
  S2-  S189  1  0.77617899  0.50571568  0.86054778  1
  S2-  S190  1  0.80491159  0.75997706  0.34820583  1
  S2-  S191  1  0.89256000  0.84178854  0.85602012  1
  S2-  S192  1  0.00974916  0.12905411  0.45694406  1
  S2-  S193  1  0.00686159  0.12636774  0.94556739  1
  S2-  S194  1  0.01020018  0.37727268  0.45562047  1
  S2-  S195  1  0.00221311  0.37590195  0.94680769  1
  S2-  S196  1  0.00298840  0.63142253  0.44931642  1
  S2-  S197  1  0.00298536  0.62910344  0.94837847  1
  S2-  S198  1  0.00891654  0.87655608  0.44729839  1
  S2-  S199  1  0.01033184  0.87804933  0.95870601  1
  S2-  S200  1  0.25730359  0.13240184  0.46006512  1
  S2-  S201  1  0.24893288  0.13229248  0.95631557  1
  S2-  S202  1  0.25907623  0.37911077  0.45228056  1
  S2-  S203  1  0.24986707  0.37790492  0.95127105  1
  S2-  S204  1  0.25941375  0.62906683  0.45268636  1
  S2-  S205  1  0.25583687  0.62636405  0.94943648  1
  S2-  S206  1  0.26111419  0.87825294  0.45113063  1
  S2-  S207  1  0.25322307  0.87613061  0.95977465  1
  S2-  S208  1  0.50505243  0.13058517  0.47109275  1
  S2-  S209  1  0.50373071  0.12861371  0.94915690  1
  S2-  S210  1  0.51363841  0.38111892  0.45439715  1
  S2-  S211  1  0.50846978  0.37940997  0.95418443  1
  S2-  S212  1  0.51459920  0.63174685  0.45068324  1
  S2-  S213  1  0.50543844  0.62679075  0.94864542  1
  S2-  S214  1  0.50907972  0.87834476  0.45624988  1
  S2-  S215  1  0.50238321  0.88007179  0.95042505  1
  S2-  S216  1  0.75943601  0.12916825  0.46709303  1
  S2-  S217  1  0.75425407  0.12694953  0.95571902  1
  S2-  S218  1  0.75971017  0.37822832  0.45640685  1
  S2-  S219  1  0.75596684  0.37412463  0.96220305  1
  S2-  S220  1  0.76015503  0.62842256  0.44758521  1
  S2-  S221  1  0.75085250  0.63176433  0.96008860  1
  S2-  S222  1  0.75869603  0.87448763  0.45906101  1
  S2-  S223  1  0.74783631  0.87656329  0.95126748  1
  S2-  S224  1  0.13114479  0.00391628  0.05529257  1
  S2-  S225  1  0.13114035  0.00456335  0.55273334  1
  S2-  S226  1  0.12951475  0.25458331  0.04351681  1
  S2-  S227  1  0.13192847  0.25438128  0.55899155  1
  S2-  S228  1  0.12887085  0.50049608  0.04366134  1
  S2-  S229  1  0.13323351  0.50637674  0.54222289  1
  S2-  S230  1  0.12962784  0.75158757  0.04987614  1
  S2-  S231  1  0.13402432  0.75283580  0.53996910  1
  S2-  S232  1  0.37416774  0.00806450  0.03311061  1
  S2-  S233  1  0.38375359  0.00587309  0.55369591  1
  S2-  S234  1  0.37645111  0.25172769  0.03995170  1
  S2-  S235  1  0.38190347  0.26106983  0.55295890  1
  S2-  S236  1  0.37944085  0.50529632  0.03653726  1
  S2-  S237  1  0.38009145  0.50279524  0.54390744  1
  S2-  S238  1  0.37933210  0.75045484  0.04181006  1
  S2-  S239  1  0.38426818  0.75110165  0.54619458  1
  S2-  S240  1  0.62649919  0.00229931  0.04406105  1
  S2-  S241  1  0.63608927  0.00456955  0.55186969  1
  S2-  S242  1  0.62452195  0.25388112  0.04820964  1
  S2-  S243  1  0.63855977  0.25951338  0.54927804  1
  S2-  S244  1  0.62942586  0.49972289  0.04840983  1
  S2-  S245  1  0.63836250  0.50624604  0.53620835  1
  S2-  S246  1  0.62651273  0.75602197  0.04817198  1
  S2-  S247  1  0.63394005  0.75515893  0.56294568  1
  S2-  S248  1  0.88285157  0.00648979  0.04067423  1
  S2-  S249  1  0.88798519  -0.00118202  0.54210034  1
  S2-  S250  1  0.88402030  0.25450034  0.04178280  1
  S2-  S251  1  0.88729476  0.25432903  0.53851527  1
  S2-  S252  1  0.88033529  0.49896008  0.04675602  1
  S2-  S253  1  0.88751039  0.50951579  0.54281822  1
  S2-  S254  1  0.87828053  0.75153789  0.04709894  1
  S2-  S255  1  0.88706873  0.75470203  0.54198645  1
