# generated using pymatgen
data_La6Ce6Pr19Nd20Sm13(BiS2)64
_symmetry_space_group_name_H-M   'P 1'
_cell_length_a   16.09646331
_cell_length_b   16.07851931
_cell_length_c   27.31824666
_cell_angle_alpha   89.84363436
_cell_angle_beta   90.09106303
_cell_angle_gamma   90.03808056
_symmetry_Int_Tables_number   1
_chemical_formula_structural   La6Ce6Pr19Nd20Sm13(BiS2)64
_chemical_formula_sum   'La6 Ce6 Pr19 Nd20 Sm13 Bi64 S128'
_cell_volume   7070.12475601
_cell_formula_units_Z   1
loop_
 _symmetry_equiv_pos_site_id
 _symmetry_equiv_pos_as_xyz
  1  'x, y, z'
loop_
 _atom_type_symbol
 _atom_type_oxidation_number
  La3+  3.0
  Ce3+  3.0
  Pr3+  3.0
  Nd3+  3.0
  Sm3+  3.0
  Bi2+  2.0
  S2-  -2.0
loop_
 _atom_site_type_symbol
 _atom_site_label
 _atom_site_symmetry_multiplicity
 _atom_site_fract_x
 _atom_site_fract_y
 _atom_site_fract_z
 _atom_site_occupancy
  La3+  La0  1  -0.00184740  0.15389185  0.62117402  1
  La3+  La1  1  0.10931710  0.28524037  0.91970798  1
  La3+  La2  1  0.00465462  0.87463852  0.57328695  1
  La3+  La3  1  0.86961776  0.24491882  0.40193146  1
  La3+  La4  1  0.48438494  0.15615268  0.08132853  1
  La3+  La5  1  0.63368384  0.72796387  0.40830210  1
  Ce3+  Ce6  1  0.86256267  0.03913074  0.94498443  1
  Ce3+  Ce7  1  0.62719793  -0.00685582  0.43833196  1
  Ce3+  Ce8  1  0.24057138  0.90825674  0.05600107  1
  Ce3+  Ce9  1  0.36555977  0.28177747  0.93659663  1
  Ce3+  Ce10  1  0.50398053  0.36581150  0.55574290  1
  Ce3+  Ce11  1  0.36105338  0.53045551  0.95111488  1
  Pr3+  Pr12  1  -0.01237847  0.17000714  0.06717589  1
  Pr3+  Pr13  1  0.37861148  -0.00016388  0.42107595  1
  Pr3+  Pr14  1  0.86027264  0.29036008  0.92783280  1
  Pr3+  Pr15  1  0.00776284  0.62055658  0.56604493  1
  Pr3+  Pr16  1  0.75891464  0.61070321  0.57825643  1
  Pr3+  Pr17  1  0.87904408  0.49803319  0.43046641  1
  Pr3+  Pr18  1  0.37752450  0.73894775  0.41542392  1
  Pr3+  Pr19  1  0.60473138  0.78201466  0.92988507  1
  Pr3+  Pr20  1  0.50452972  0.86508391  0.55244780  1
  Pr3+  Pr21  1  -0.01375353  0.65697407  0.06309744  1
  Pr3+  Pr22  1  0.76025433  0.36439095  0.56127505  1
  Pr3+  Pr23  1  0.74094499  0.16647567  0.07457683  1
  Pr3+  Pr24  1  0.85840113  0.78682232  0.93528854  1
  Pr3+  Pr25  1  0.87763005  -0.00986382  0.43609923  1
  Pr3+  Pr26  1  0.61191995  0.03560110  0.94839453  1
  Pr3+  Pr27  1  0.73815740  0.66286677  0.06329512  1
  Pr3+  Pr28  1  0.12636244  0.24041509  0.43928086  1
  Pr3+  Pr29  1  0.88226454  0.74064081  0.43616318  1
  Pr3+  Pr30  1  0.37931942  0.49459990  0.43799035  1
  Nd3+  Nd31  1  0.23857631  0.16238825  0.06345014  1
  Nd3+  Nd32  1  0.12465436  0.74610725  0.43212677  1
  Nd3+  Nd33  1  0.11509186  0.03521049  0.94450554  1
  Nd3+  Nd34  1  0.48626409  0.90672610  0.06302861  1
  Nd3+  Nd35  1  0.50432975  0.61887898  0.55890129  1
  Nd3+  Nd36  1  0.73882962  0.40791851  0.06298055  1
  Nd3+  Nd37  1  0.25445198  0.11747300  0.56752989  1
  Nd3+  Nd38  1  0.11171465  0.53285838  0.93571956  1
  Nd3+  Nd39  1  0.25301588  0.36513059  0.55879391  1
  Nd3+  Nd40  1  0.76117228  0.11511101  0.55790467  1
  Nd3+  Nd41  1  0.60895619  0.53302285  0.94348438  1
  Nd3+  Nd42  1  0.23797140  0.65964163  0.05824808  1
  Nd3+  Nd43  1  0.12561276  -0.00197124  0.44369629  1
  Nd3+  Nd44  1  0.12855297  0.49368328  0.43917529  1
  Nd3+  Nd45  1  0.85278122  0.53912154  0.92727203  1
  Nd3+  Nd46  1  0.36602674  0.03875560  0.93118937  1
  Nd3+  Nd47  1  0.25677413  0.87019797  0.55012388  1
  Nd3+  Nd48  1  0.50122199  0.11531501  0.56390061  1
  Nd3+  Nd49  1  0.23491389  0.40391590  0.06417390  1
  Nd3+  Nd50  1  0.48813415  0.40501224  0.06619903  1
  Sm3+  Sm51  1  0.61614645  0.28072078  0.94046614  1
  Sm3+  Sm52  1  0.25447354  0.61886760  0.55366411  1
  Sm3+  Sm53  1  0.00252518  0.36732926  0.55124756  1
  Sm3+  Sm54  1  0.48824640  0.65967996  0.06079903  1
  Sm3+  Sm55  1  0.73848115  0.91058650  0.05900772  1
  Sm3+  Sm56  1  0.37972120  0.24372720  0.43490692  1
  Sm3+  Sm57  1  -0.01374014  0.41519068  0.05870948  1
  Sm3+  Sm58  1  0.63236196  0.49462358  0.44746050  1
  Sm3+  Sm59  1  0.11082764  0.78115782  0.94074566  1
  Sm3+  Sm60  1  0.36197382  0.78786946  0.93212856  1
  Sm3+  Sm61  1  0.75360817  0.86334799  0.55130963  1
  Sm3+  Sm62  1  0.63075455  0.24252354  0.44549806  1
  Sm3+  Sm63  1  -0.01154449  0.90989473  0.05679560  1
  Bi2+  Bi64  1  0.04293159  0.09589193  0.31154051  1
  Bi2+  Bi65  1  0.00281923  0.09596595  0.81354971  1
  Bi2+  Bi66  1  0.03173933  0.37631296  0.23233783  1
  Bi2+  Bi67  1  0.00828811  0.38320044  0.78947237  1
  Bi2+  Bi68  1  -0.01767458  0.64517518  0.29815130  1
  Bi2+  Bi69  1  0.05481685  0.63849366  0.81134525  1
  Bi2+  Bi70  1  0.09264184  0.84970169  0.24181158  1
  Bi2+  Bi71  1  -0.00513195  0.81803078  0.78219902  1
  Bi2+  Bi72  1  0.24508461  0.22894213  0.30250806  1
  Bi2+  Bi73  1  0.26644420  0.09110638  0.80103625  1
  Bi2+  Bi74  1  0.31521686  0.40726736  0.32232961  1
  Bi2+  Bi75  1  0.33993910  0.37835896  0.77777862  1
  Bi2+  Bi76  1  0.20184247  0.57173449  0.30531510  1
  Bi2+  Bi77  1  0.23910462  0.56630273  0.81436990  1
  Bi2+  Bi78  1  0.22319004  0.76594165  0.31280407  1
  Bi2+  Bi79  1  0.21539107  0.79095966  0.74253145  1
  Bi2+  Bi80  1  0.47608564  0.08142580  0.28285758  1
  Bi2+  Bi81  1  0.50826861  0.15583963  0.78276466  1
  Bi2+  Bi82  1  0.49625270  0.34124828  0.29729732  1
  Bi2+  Bi83  1  0.53036520  0.35032651  0.81446099  1
  Bi2+  Bi84  1  0.45971680  0.62459024  0.26587770  1
  Bi2+  Bi85  1  0.54238324  0.55905316  0.80691535  1
  Bi2+  Bi86  1  0.52932757  0.86972461  0.28268784  1
  Bi2+  Bi87  1  0.52056977  0.90517703  0.81491868  1
  Bi2+  Bi88  1  0.75312633  0.08583170  0.29893112  1
  Bi2+  Bi89  1  0.75353106  0.11429957  0.80068952  1
  Bi2+  Bi90  1  0.70371795  0.37469358  0.30019481  1
  Bi2+  Bi91  1  0.71662341  0.35028463  0.77242821  1
  Bi2+  Bi92  1  0.72884401  0.61599885  0.28589481  1
  Bi2+  Bi93  1  0.74377062  0.67910812  0.79029836  1
  Bi2+  Bi94  1  0.82910169  0.83432879  0.26439557  1
  Bi2+  Bi95  1  0.69299972  0.90320677  0.73943102  1
  Bi2+  Bi96  1  0.19158803  0.02358451  0.24231142  1
  Bi2+  Bi97  1  0.14155580  -0.02825365  0.71116161  1
  Bi2+  Bi98  1  0.12083808  0.20302843  0.21012897  1
  Bi2+  Bi99  1  0.15127905  0.24187944  0.72579923  1
  Bi2+  Bi100  1  0.18657162  0.47561578  0.19804786  1
  Bi2+  Bi101  1  0.18723508  0.48957317  0.71115487  1
  Bi2+  Bi102  1  0.06763306  0.64885764  0.19095822  1
  Bi2+  Bi103  1  0.05161059  0.73967574  0.68207777  1
  Bi2+  Bi104  1  0.36372133  -0.03516612  0.19654600  1
  Bi2+  Bi105  1  0.40112991  -0.03233733  0.73787729  1
  Bi2+  Bi106  1  0.35490081  0.24696059  0.20562264  1
  Bi2+  Bi107  1  0.39194841  0.24114885  0.70303385  1
  Bi2+  Bi108  1  0.38339767  0.44802658  0.20757346  1
  Bi2+  Bi109  1  0.38208740  0.52730949  0.70210750  1
  Bi2+  Bi110  1  0.32414049  0.74258924  0.21858653  1
  Bi2+  Bi111  1  0.37748796  0.68935203  0.77300750  1
  Bi2+  Bi112  1  0.66223259  -0.01028489  0.20718505  1
  Bi2+  Bi113  1  0.56683414  0.02596428  0.68476507  1
  Bi2+  Bi114  1  0.62003601  0.26528348  0.21364409  1
  Bi2+  Bi115  1  0.67073992  0.18986116  0.70390467  1
  Bi2+  Bi116  1  0.58047679  0.47123987  0.22341786  1
  Bi2+  Bi117  1  0.57960840  0.45885466  0.71511899  1
  Bi2+  Bi118  1  0.61899808  0.74411248  0.18566325  1
  Bi2+  Bi119  1  0.56908003  0.76096503  0.70246332  1
  Bi2+  Bi120  1  0.94005227  -0.02658406  0.22229255  1
  Bi2+  Bi121  1  0.85884118  -0.00579679  0.71542153  1
  Bi2+  Bi122  1  0.87479211  0.22007049  0.20015669  1
  Bi2+  Bi123  1  0.83926847  0.32984712  0.68801775  1
  Bi2+  Bi124  1  0.86205978  0.45972319  0.25399768  1
  Bi2+  Bi125  1  0.91303421  0.53703507  0.75955596  1
  Bi2+  Bi126  1  0.87540608  0.68291966  0.19291775  1
  Bi2+  Bi127  1  0.85861538  0.73377908  0.69525206  1
  S2-  S128  1  -0.00887325  0.10324641  0.16289368  1
  S2-  S129  1  0.00210405  0.17058996  0.72912287  1
  S2-  S130  1  -0.02301400  0.30929298  0.13798383  1
  S2-  S131  1  -0.00271341  0.33160846  0.64786080  1
  S2-  S132  1  -0.02801493  0.53512811  0.13510696  1
  S2-  S133  1  -0.04526857  0.58909028  0.66038349  1
  S2-  S134  1  -0.00462944  0.86610850  0.15129113  1
  S2-  S135  1  -0.00348712  0.98059919  0.65436675  1
  S2-  S136  1  0.34243625  0.10995695  0.14160620  1
  S2-  S137  1  0.16526898  0.12058884  0.65609735  1
  S2-  S138  1  0.22181372  0.28429647  0.13865809  1
  S2-  S139  1  0.24435986  0.34372759  0.65685858  1
  S2-  S140  1  0.24243367  0.63285295  0.15645534  1
  S2-  S141  1  0.23408799  0.61286077  0.65079711  1
  S2-  S142  1  0.25756147  0.85832191  0.14857839  1
  S2-  S143  1  0.22861632  0.88208011  0.64984519  1
  S2-  S144  1  0.55156768  0.09797970  0.17936805  1
  S2-  S145  1  0.38404060  0.11541361  0.63789325  1
  S2-  S146  1  0.49069483  0.29760568  0.14493767  1
  S2-  S147  1  0.50942156  0.34113443  0.65206872  1
  S2-  S148  1  0.48989715  0.65338276  0.15844665  1
  S2-  S149  1  0.47643805  0.65250699  0.65500085  1
  S2-  S150  1  0.50361734  0.87331651  0.16122354  1
  S2-  S151  1  0.46947098  0.88105919  0.65191283  1
  S2-  S152  1  0.77243688  0.08757655  0.16574809  1
  S2-  S153  1  0.82412157  0.12394739  0.65177266  1
  S2-  S154  1  0.74733520  0.30508809  0.14519325  1
  S2-  S155  1  0.76862716  0.46041547  0.64517523  1
  S2-  S156  1  0.72619829  0.61129303  0.15932232  1
  S2-  S157  1  0.70929899  0.66556041  0.67260374  1
  S2-  S158  1  0.73836831  0.85535560  0.15137962  1
  S2-  S159  1  0.78800273  0.88038022  0.64784777  1
  S2-  S160  1  0.17630199  0.01887714  0.34898156  1
  S2-  S161  1  0.13478385  0.00830416  0.84604693  1
  S2-  S162  1  0.08418161  0.25626070  0.34153283  1
  S2-  S163  1  0.18254495  0.22351725  0.82741061  1
  S2-  S164  1  0.06320510  0.50885554  0.34811886  1
  S2-  S165  1  0.12184724  0.42966239  0.85441003  1
  S2-  S166  1  0.00322686  0.77100634  0.36077158  1
  S2-  S167  1  0.14107929  0.78470775  0.84400397  1
  S2-  S168  1  0.39919305  -0.06186712  0.32313536  1
  S2-  S169  1  0.36018206  -0.05784242  0.84560115  1
  S2-  S170  1  0.38792799  0.14171982  0.35469705  1
  S2-  S171  1  0.38525555  0.16888049  0.86115003  1
  S2-  S172  1  0.37438575  0.58625675  0.35147650  1
  S2-  S173  1  0.38139209  0.48753135  0.85848953  1
  S2-  S174  1  0.49801200  0.74514865  0.34067214  1
  S2-  S175  1  0.46851045  0.75660740  0.85695729  1
  S2-  S176  1  0.60843440  0.00344089  0.34021547  1
  S2-  S177  1  0.60873399  0.05244532  0.84773411  1
  S2-  S178  1  0.69413502  0.22523389  0.35518607  1
  S2-  S179  1  0.72442952  0.25893336  0.86279235  1
  S2-  S180  1  0.63445579  0.56572868  0.35764414  1
  S2-  S181  1  0.69619446  0.55386784  0.85762353  1
  S2-  S182  1  0.70249625  0.78560411  0.31548935  1
  S2-  S183  1  0.68833836  0.80495021  0.84120010  1
  S2-  S184  1  0.85977751  -0.03321621  0.33553133  1
  S2-  S185  1  0.85854612  0.00461549  0.84803710  1
  S2-  S186  1  0.88229905  0.18329320  0.30325376  1
  S2-  S187  1  0.97179406  0.24899544  0.85264458  1
  S2-  S188  1  0.86516455  0.39241433  0.34766541  1
  S2-  S189  1  0.87936511  0.43873733  0.84822390  1
  S2-  S190  1  0.84661339  0.62360622  0.36080305  1
  S2-  S191  1  0.88545298  0.71884796  0.84465603  1
  S2-  S192  1  -0.00381575  0.12041726  0.43908774  1
  S2-  S193  1  -0.01048544  0.15673132  0.95935789  1
  S2-  S194  1  0.00172543  0.36720451  0.44886469  1
  S2-  S195  1  -0.01575170  0.41559380  0.95522314  1
  S2-  S196  1  0.00861171  0.61876825  0.45932357  1
  S2-  S197  1  -0.01331481  0.65729187  0.95489743  1
  S2-  S198  1  0.00584730  0.87276913  0.46284151  1
  S2-  S199  1  -0.01010447  0.90719295  0.95138459  1
  S2-  S200  1  0.25591050  0.12133287  0.45702510  1
  S2-  S201  1  0.23768352  0.15915303  0.95635897  1
  S2-  S202  1  0.25403862  0.36613699  0.45223222  1
  S2-  S203  1  0.23910349  0.40534200  0.95752296  1
  S2-  S204  1  0.25036702  0.62130255  0.45034372  1
  S2-  S205  1  0.23951205  0.66096410  0.95107460  1
  S2-  S206  1  0.25558083  0.86919359  0.44432555  1
  S2-  S207  1  0.23610088  0.90464129  0.95141873  1
  S2-  S208  1  0.50658980  0.12149968  0.45639783  1
  S2-  S209  1  0.49258018  0.16206354  0.96462277  1
  S2-  S210  1  0.50679670  0.36761323  0.44833392  1
  S2-  S211  1  0.49148268  0.40473462  0.96044410  1
  S2-  S212  1  0.50527935  0.61926191  0.45453993  1
  S2-  S213  1  0.48348580  0.65576953  0.95773344  1
  S2-  S214  1  0.50380342  0.86531424  0.44561084  1
  S2-  S215  1  0.48526046  0.90907776  0.95630659  1
  S2-  S216  1  0.75613944  0.11877054  0.45213235  1
  S2-  S217  1  0.73745939  0.15707075  0.96621506  1
  S2-  S218  1  0.75231892  0.36822638  0.45508930  1
  S2-  S219  1  0.73272476  0.41055223  0.95734537  1
  S2-  S220  1  0.74995356  0.61980277  0.46693167  1
  S2-  S221  1  0.73339301  0.66399869  0.95662379  1
  S2-  S222  1  0.74962787  0.86178316  0.44636276  1
  S2-  S223  1  0.73590071  0.90997298  0.95468365  1
  S2-  S224  1  0.11291390  0.03347016  0.05253126  1
  S2-  S225  1  0.13325216  -0.00560796  0.54641631  1
  S2-  S226  1  0.10978899  0.28879743  0.03528746  1
  S2-  S227  1  0.12574194  0.24201762  0.54684022  1
  S2-  S228  1  0.11730052  0.53303055  0.04171444  1
  S2-  S229  1  0.13013193  0.49154093  0.54697427  1
  S2-  S230  1  0.11201817  0.78287837  0.04564087  1
  S2-  S231  1  0.13237521  0.74477263  0.54239369  1
  S2-  S232  1  0.36393403  0.02884039  0.03758381  1
  S2-  S233  1  0.38084315  -0.00804397  0.53404485  1
  S2-  S234  1  0.36346318  0.28448453  0.04263023  1
  S2-  S235  1  0.37970892  0.24411602  0.53895746  1
  S2-  S236  1  0.36382775  0.53212696  0.05653061  1
  S2-  S237  1  0.37715304  0.49262213  0.54582755  1
  S2-  S238  1  0.36502107  0.78045393  0.04067066  1
  S2-  S239  1  0.37690191  0.74104553  0.54009421  1
  S2-  S240  1  0.61380278  0.03151886  0.05539470  1
  S2-  S241  1  0.63107667  -0.00777207  0.54547660  1
  S2-  S242  1  0.61371143  0.28405324  0.04503065  1
  S2-  S243  1  0.63085539  0.23913406  0.55013327  1
  S2-  S244  1  0.61068939  0.53293269  0.05082057  1
  S2-  S245  1  0.62712060  0.49176714  0.55095321  1
  S2-  S246  1  0.61073077  0.78420859  0.04232495  1
  S2-  S247  1  0.63050919  0.74102478  0.55277022  1
  S2-  S248  1  0.86474559  0.03144521  0.05117606  1
  S2-  S249  1  0.87511169  -0.01229034  0.54140252  1
  S2-  S250  1  0.86145541  0.28924398  0.03691221  1
  S2-  S251  1  0.88442977  0.23997361  0.54701354  1
  S2-  S252  1  0.85534297  0.53477316  0.03631167  1
  S2-  S253  1  0.88509691  0.49325888  0.54099055  1
  S2-  S254  1  0.86408760  0.78658085  0.04352178  1
  S2-  S255  1  0.87991327  0.74334357  0.54840894  1
