# generated using pymatgen
data_La6Ce6Pr19Nd20Sm13(BiS2)64
_symmetry_space_group_name_H-M   'P 1'
_cell_length_a   16.03447896
_cell_length_b   16.11270488
_cell_length_c   27.54387024
_cell_angle_alpha   89.91628856
_cell_angle_beta   90.20521209
_cell_angle_gamma   89.99635647
_symmetry_Int_Tables_number   1
_chemical_formula_structural   La6Ce6Pr19Nd20Sm13(BiS2)64
_chemical_formula_sum   'La6 Ce6 Pr19 Nd20 Sm13 Bi64 S128'
_cell_volume   7116.14876017
_cell_formula_units_Z   1
loop_
 _symmetry_equiv_pos_site_id
 _symmetry_equiv_pos_as_xyz
  1  'x, y, z'
loop_
 _atom_type_symbol
 _atom_type_oxidation_number
  La3+  3.0
  Ce3+  3.0
  Pr3+  3.0
  Nd3+  3.0
  Sm3+  3.0
  Bi2+  2.0
  S2-  -2.0
loop_
 _atom_site_type_symbol
 _atom_site_label
 _atom_site_symmetry_multiplicity
 _atom_site_fract_x
 _atom_site_fract_y
 _atom_site_fract_z
 _atom_site_occupancy
  La3+  La0  1  0.60915847  0.49032453  0.91899700  1
  La3+  La1  1  0.52707720  0.87378952  0.57894649  1
  La3+  La2  1  0.12398437  -0.00956998  0.38361919  1
  La3+  La3  1  0.02622486  0.37357192  0.57831287  1
  La3+  La4  1  0.36218765  0.75068257  0.89107460  1
  La3+  La5  1  0.59975995  0.24018385  0.92211947  1
  Ce3+  Ce6  1  0.02815423  0.87439195  0.57048780  1
  Ce3+  Ce7  1  0.35074875  -0.00892448  0.94342383  1
  Ce3+  Ce8  1  0.60122382  -0.00469185  0.93401988  1
  Ce3+  Ce9  1  -0.02895041  0.12044444  0.08055376  1
  Ce3+  Ce10  1  0.60064379  0.74391010  0.94200459  1
  Ce3+  Ce11  1  0.90364160  0.25331405  0.44067391  1
  Pr3+  Pr12  1  0.15131210  0.25245319  0.43051301  1
  Pr3+  Pr13  1  0.02866627  0.12940147  0.55757664  1
  Pr3+  Pr14  1  0.65077221  0.75533558  0.43917645  1
  Pr3+  Pr15  1  0.10920711  0.49645667  0.93205256  1
  Pr3+  Pr16  1  -0.02575589  0.37236560  0.06764784  1
  Pr3+  Pr17  1  0.47698270  0.61771976  0.05469100  1
  Pr3+  Pr18  1  0.26958788  0.62327341  0.56677278  1
  Pr3+  Pr19  1  0.47649170  0.86998594  0.05858823  1
  Pr3+  Pr20  1  0.27965052  0.37585690  0.56541197  1
  Pr3+  Pr21  1  0.22905454  0.87196380  0.07040633  1
  Pr3+  Pr22  1  0.35261096  0.24642811  0.93729516  1
  Pr3+  Pr23  1  0.85347054  0.24165048  0.94225121  1
  Pr3+  Pr24  1  0.10120891  0.24455390  0.94353705  1
  Pr3+  Pr25  1  0.52720113  0.37685242  0.56725592  1
  Pr3+  Pr26  1  0.72724097  0.87180271  0.05522679  1
  Pr3+  Pr27  1  0.77527600  0.12697259  0.55770631  1
  Pr3+  Pr28  1  0.64938684  0.50868693  0.42543556  1
  Pr3+  Pr29  1  0.85602975  -0.00619409  0.94077468  1
  Pr3+  Pr30  1  0.27901206  0.87823091  0.56992737  1
  Nd3+  Nd31  1  0.85536138  0.74548641  0.94456317  1
  Nd3+  Nd32  1  0.39246756  -0.00220268  0.43393337  1
  Nd3+  Nd33  1  -0.02060491  0.61866709  0.05472801  1
  Nd3+  Nd34  1  0.77318814  0.37699381  0.56875481  1
  Nd3+  Nd35  1  0.65048159  -0.00295313  0.43564845  1
  Nd3+  Nd36  1  0.53538104  0.62742720  0.57296664  1
  Nd3+  Nd37  1  0.22586864  0.36958403  0.06915334  1
  Nd3+  Nd38  1  0.40109529  0.25350728  0.43802297  1
  Nd3+  Nd39  1  0.15627676  0.49753399  0.42952202  1
  Nd3+  Nd40  1  0.65109864  0.25529452  0.43901587  1
  Nd3+  Nd41  1  0.23020341  0.61853517  0.06065821  1
  Nd3+  Nd42  1  0.90216757  0.00106893  0.44536000  1
  Nd3+  Nd43  1  0.72457810  0.37006914  0.06197940  1
  Nd3+  Nd44  1  0.35479855  0.49686547  0.93154932  1
  Nd3+  Nd45  1  0.40037737  0.75374042  0.44953160  1
  Nd3+  Nd46  1  0.27418743  0.12520944  0.55310952  1
  Nd3+  Nd47  1  0.52683912  0.12397553  0.54967661  1
  Nd3+  Nd48  1  0.72833540  0.61611177  0.05682226  1
  Nd3+  Nd49  1  0.90497994  0.75463756  0.44788935  1
  Nd3+  Nd50  1  0.89923267  0.50104040  0.43155987  1
  Sm3+  Sm51  1  0.48218193  0.37138018  0.05744315  1
  Sm3+  Sm52  1  0.72125294  0.12173005  0.06512358  1
  Sm3+  Sm53  1  0.11315927  0.74672592  0.94837928  1
  Sm3+  Sm54  1  0.78096530  0.87430992  0.57087838  1
  Sm3+  Sm55  1  0.02513657  0.61862144  0.54982202  1
  Sm3+  Sm56  1  0.48209720  0.12255711  0.05695446  1
  Sm3+  Sm57  1  0.40304909  0.50426936  0.44207314  1
  Sm3+  Sm58  1  0.15295458  0.75564246  0.44537581  1
  Sm3+  Sm59  1  0.77529609  0.62259573  0.55855386  1
  Sm3+  Sm60  1  -0.02128902  0.87234055  0.06023193  1
  Sm3+  Sm61  1  0.85920092  0.49144519  0.93000230  1
  Sm3+  Sm62  1  0.10532765  -0.00499859  0.94978204  1
  Sm3+  Sm63  1  0.22826282  0.12436445  0.05993936  1
  Bi2+  Bi64  1  0.00614417  0.12649490  0.28531525  1
  Bi2+  Bi65  1  -0.01380266  0.17298962  0.81256257  1
  Bi2+  Bi66  1  0.00609607  0.37844956  0.28503517  1
  Bi2+  Bi67  1  -0.04289350  0.41782148  0.74076186  1
  Bi2+  Bi68  1  -0.02709639  0.56538795  0.30621242  1
  Bi2+  Bi69  1  -0.01281323  0.59917465  0.78948104  1
  Bi2+  Bi70  1  -0.01562520  0.82916842  0.29452768  1
  Bi2+  Bi71  1  -0.07034711  0.88836204  0.81160849  1
  Bi2+  Bi72  1  0.28000338  0.12781700  0.28777981  1
  Bi2+  Bi73  1  0.25225003  0.17814237  0.80804958  1
  Bi2+  Bi74  1  0.27154099  0.40194148  0.29515864  1
  Bi2+  Bi75  1  0.27005664  0.37828609  0.78511493  1
  Bi2+  Bi76  1  0.16980793  0.60510721  0.30089878  1
  Bi2+  Bi77  1  0.19892355  0.63268237  0.78934824  1
  Bi2+  Bi78  1  0.27665101  0.84554085  0.29059950  1
  Bi2+  Bi79  1  0.19907520  0.89501099  0.79346054  1
  Bi2+  Bi80  1  0.50926084  0.06736377  0.29365753  1
  Bi2+  Bi81  1  0.43565049  0.11992634  0.78522673  1
  Bi2+  Bi82  1  0.52237877  0.37056823  0.28290909  1
  Bi2+  Bi83  1  0.51682840  0.37093716  0.78608263  1
  Bi2+  Bi84  1  0.52441780  0.59966622  0.28918847  1
  Bi2+  Bi85  1  0.51686496  0.61959340  0.78276341  1
  Bi2+  Bi86  1  0.49334425  0.87403805  0.32047795  1
  Bi2+  Bi87  1  0.48124781  0.93051592  0.78527116  1
  Bi2+  Bi88  1  0.70409420  0.12959523  0.29648901  1
  Bi2+  Bi89  1  0.72800190  0.10464717  0.78356880  1
  Bi2+  Bi90  1  0.72360346  0.39844383  0.27641380  1
  Bi2+  Bi91  1  0.78165045  0.38715769  0.78336445  1
  Bi2+  Bi92  1  0.78005510  0.63625866  0.29640864  1
  Bi2+  Bi93  1  0.76273141  0.63510819  0.78266822  1
  Bi2+  Bi94  1  0.75726024  0.93925142  0.28698871  1
  Bi2+  Bi95  1  0.67547559  0.90638253  0.79074420  1
  Bi2+  Bi96  1  0.14381044  0.00751577  0.18484626  1
  Bi2+  Bi97  1  0.09345204  0.04710249  0.74763791  1
  Bi2+  Bi98  1  0.18055933  0.25819698  0.19656626  1
  Bi2+  Bi99  1  0.14761484  0.24718479  0.70783638  1
  Bi2+  Bi100  1  0.14447180  0.51358720  0.19961869  1
  Bi2+  Bi101  1  0.16627213  0.51361491  0.70559226  1
  Bi2+  Bi102  1  0.05702300  0.69937678  0.22345301  1
  Bi2+  Bi103  1  0.04409622  0.77327612  0.74873238  1
  Bi2+  Bi104  1  0.39034932  -0.04857057  0.22028887  1
  Bi2+  Bi105  1  0.26373450  -0.01200373  0.69877930  1
  Bi2+  Bi106  1  0.42775203  0.22122330  0.24142552  1
  Bi2+  Bi107  1  0.37037525  0.25730791  0.71159196  1
  Bi2+  Bi108  1  0.38266705  0.48802192  0.21381918  1
  Bi2+  Bi109  1  0.39708055  0.48543222  0.72021297  1
  Bi2+  Bi110  1  0.35562784  0.68066755  0.24397437  1
  Bi2+  Bi111  1  0.35152819  0.76930812  0.69636543  1
  Bi2+  Bi112  1  0.63021924  -0.00250315  0.20344795  1
  Bi2+  Bi113  1  0.58816590  0.02584573  0.70746769  1
  Bi2+  Bi114  1  0.68651974  0.22405663  0.19620963  1
  Bi2+  Bi115  1  0.63160933  0.25100537  0.70214092  1
  Bi2+  Bi116  1  0.63172582  0.49680667  0.18963589  1
  Bi2+  Bi117  1  0.64651447  0.51384124  0.71930068  1
  Bi2+  Bi118  1  0.53814626  0.76504591  0.23090585  1
  Bi2+  Bi119  1  0.64691566  0.76601132  0.70679297  1
  Bi2+  Bi120  1  0.87763079  -0.01803592  0.19843091  1
  Bi2+  Bi121  1  0.83861787  -0.02795744  0.72213318  1
  Bi2+  Bi122  1  0.86145155  0.26637934  0.24257456  1
  Bi2+  Bi123  1  0.89891728  0.15684903  0.71101625  1
  Bi2+  Bi124  1  0.86499925  0.50686565  0.20075076  1
  Bi2+  Bi125  1  0.90131615  0.56694102  0.67624147  1
  Bi2+  Bi126  1  0.83097417  0.78389522  0.22611293  1
  Bi2+  Bi127  1  0.85541607  0.75173644  0.70595644  1
  S2-  S128  1  0.04671842  0.15422945  0.16934556  1
  S2-  S129  1  0.02550402  0.21858358  0.64377450  1
  S2-  S130  1  0.09646151  0.37303190  0.14122486  1
  S2-  S131  1  -0.10837260  0.39802280  0.64435416  1
  S2-  S132  1  -0.01151581  0.59003426  0.15126639  1
  S2-  S133  1  0.06449524  0.60818296  0.64430016  1
  S2-  S134  1  0.00994843  0.90124251  0.15414201  1
  S2-  S135  1  -0.08806871  0.88252201  0.64244339  1
  S2-  S136  1  0.26425859  0.12996226  0.15559116  1
  S2-  S137  1  0.26549521  0.15027997  0.65157227  1
  S2-  S138  1  0.31255861  0.36099916  0.15772019  1
  S2-  S139  1  0.16650055  0.38397807  0.64374793  1
  S2-  S140  1  0.22289907  0.63775344  0.15945836  1
  S2-  S141  1  0.30887426  0.61490368  0.66412650  1
  S2-  S142  1  0.25347437  0.87959488  0.16948853  1
  S2-  S143  1  0.20034588  0.83807049  0.65866112  1
  S2-  S144  1  0.59064376  0.12331871  0.13486660  1
  S2-  S145  1  0.52386109  0.15043081  0.64735918  1
  S2-  S146  1  0.59519681  0.36031823  0.13280328  1
  S2-  S147  1  0.40363565  0.37716419  0.64155946  1
  S2-  S148  1  0.49840359  0.57720780  0.15114604  1
  S2-  S149  1  0.50572776  0.73755979  0.65295441  1
  S2-  S150  1  0.50912376  0.88652404  0.15617180  1
  S2-  S151  1  0.39696624  0.91715657  0.64823368  1
  S2-  S152  1  0.83075397  0.11431724  0.14333362  1
  S2-  S153  1  0.76574775  0.19206283  0.65061308  1
  S2-  S154  1  0.84476104  0.38477246  0.13827478  1
  S2-  S155  1  0.64793810  0.38255523  0.64393977  1
  S2-  S156  1  0.74496438  0.61272492  0.15499063  1
  S2-  S157  1  0.67552298  0.61481530  0.63996292  1
  S2-  S158  1  0.74257127  0.88282797  0.15368736  1
  S2-  S159  1  0.66549830  0.89863587  0.64387557  1
  S2-  S160  1  0.10264277  -0.01378601  0.27487384  1
  S2-  S161  1  0.11038835  0.00016475  0.85242297  1
  S2-  S162  1  0.13969053  0.15548489  0.34381700  1
  S2-  S163  1  0.12072138  0.27312485  0.84540999  1
  S2-  S164  1  0.13464748  0.37442774  0.35466534  1
  S2-  S165  1  0.23284271  0.49704982  0.85758890  1
  S2-  S166  1  0.13482138  0.81764467  0.35479678  1
  S2-  S167  1  0.18684381  0.75449251  0.86057412  1
  S2-  S168  1  0.29451112  -0.00731438  0.35028454  1
  S2-  S169  1  0.34990861  -0.08234392  0.85440812  1
  S2-  S170  1  0.35621326  0.26077000  0.34180155  1
  S2-  S171  1  0.44983177  0.25334699  0.85411164  1
  S2-  S172  1  0.29207081  0.51882068  0.36229632  1
  S2-  S173  1  0.47395303  0.50339924  0.85385431  1
  S2-  S174  1  0.37817193  0.74569937  0.35071303  1
  S2-  S175  1  0.35780179  0.69836653  0.79071254  1
  S2-  S176  1  0.65603396  -0.12184517  0.36372246  1
  S2-  S177  1  0.61468454  0.09886888  0.85733248  1
  S2-  S178  1  0.63822257  0.27778804  0.34188461  1
  S2-  S179  1  0.64806779  0.33576473  0.84101225  1
  S2-  S180  1  0.50848648  0.48275676  0.36250918  1
  S2-  S181  1  0.74900705  0.51258707  0.85316652  1
  S2-  S182  1  0.64645038  0.65183580  0.35730247  1
  S2-  S183  1  0.53778233  0.74276503  0.85227136  1
  S2-  S184  1  0.95052002  0.00772461  0.35106848  1
  S2-  S185  1  0.86770655  0.04992681  0.84736580  1
  S2-  S186  1  0.91947321  0.25399741  0.34335942  1
  S2-  S187  1  0.87593782  0.28628718  0.84596104  1
  S2-  S188  1  0.78297997  0.48829346  0.35588110  1
  S2-  S189  1  0.98486261  0.48614391  0.86081695  1
  S2-  S190  1  0.86828155  0.76336972  0.35233456  1
  S2-  S191  1  0.84381176  0.75435507  0.84675529  1
  S2-  S192  1  0.02805512  0.12424490  0.45297833  1
  S2-  S193  1  -0.01920476  0.11658607  0.96181277  1
  S2-  S194  1  0.02235461  0.37917641  0.45532398  1
  S2-  S195  1  -0.02158135  0.36844659  0.96118552  1
  S2-  S196  1  0.02906497  0.62710068  0.44589446  1
  S2-  S197  1  -0.01610806  0.62735239  0.95117200  1
  S2-  S198  1  0.02886859  0.88033110  0.46160531  1
  S2-  S199  1  -0.01549451  0.86841762  0.95588534  1
  S2-  S200  1  0.27781914  0.12827738  0.45014169  1
  S2-  S201  1  0.22887674  0.11950931  0.95572018  1
  S2-  S202  1  0.28162372  0.37682539  0.45832582  1
  S2-  S203  1  0.22962933  0.36794023  0.96001954  1
  S2-  S204  1  0.27366125  0.63129852  0.46028753  1
  S2-  S205  1  0.23767764  0.62780431  0.95685728  1
  S2-  S206  1  0.27354359  0.87589187  0.46134707  1
  S2-  S207  1  0.22865915  0.87218503  0.96454522  1
  S2-  S208  1  0.52597056  0.12385592  0.44372003  1
  S2-  S209  1  0.47297552  0.11536766  0.95502895  1
  S2-  S210  1  0.52541768  0.37405850  0.45975558  1
  S2-  S211  1  0.47820128  0.37235280  0.95540172  1
  S2-  S212  1  0.52417645  0.63051866  0.46342957  1
  S2-  S213  1  0.46917522  0.62885980  0.95106799  1
  S2-  S214  1  0.52218948  0.87980896  0.46340035  1
  S2-  S215  1  0.47565575  0.86779854  0.95375529  1
  S2-  S216  1  0.77437350  0.12526343  0.44900653  1
  S2-  S217  1  0.72984000  0.11558486  0.95922281  1
  S2-  S218  1  0.77641568  0.37386836  0.45686325  1
  S2-  S219  1  0.73326480  0.37011138  0.95484552  1
  S2-  S220  1  0.78074004  0.62998067  0.45684693  1
  S2-  S221  1  0.72954608  0.62408823  0.95224958  1
  S2-  S222  1  0.78070268  0.87756688  0.46498798  1
  S2-  S223  1  0.72769542  0.86987467  0.94884638  1
  S2-  S224  1  0.10313366  -0.00043166  0.05281389  1
  S2-  S225  1  0.14883210  0.00151763  0.56183055  1
  S2-  S226  1  0.10148794  0.24015949  0.04821916  1
  S2-  S227  1  0.15335468  0.25287877  0.53850284  1
  S2-  S228  1  0.10556932  0.49780530  0.04003272  1
  S2-  S229  1  0.14970588  0.49904883  0.53742875  1
  S2-  S230  1  0.10330202  0.74666396  0.05273824  1
  S2-  S231  1  0.14560347  0.74803454  0.54761324  1
  S2-  S232  1  0.35470778  0.00055081  0.05128246  1
  S2-  S233  1  0.40184313  0.00429386  0.53980856  1
  S2-  S234  1  0.35784748  0.24482782  0.04574128  1
  S2-  S235  1  0.40232831  0.24727492  0.54246524  1
  S2-  S236  1  0.35364323  0.49085494  0.04498918  1
  S2-  S237  1  0.40450496  0.50856105  0.54647035  1
  S2-  S238  1  0.35347038  0.74508920  0.06362436  1
  S2-  S239  1  0.39905908  0.74638439  0.55207406  1
  S2-  S240  1  0.60162315  -0.00555013  0.03963267  1
  S2-  S241  1  0.65317446  0.00154505  0.54054798  1
  S2-  S242  1  0.60122122  0.24369015  0.03194760  1
  S2-  S243  1  0.64999624  0.25006058  0.54211934  1
  S2-  S244  1  0.60356904  0.49670561  0.03267531  1
  S2-  S245  1  0.65256585  0.50141512  0.53706372  1
  S2-  S246  1  0.60358002  0.74392445  0.04955885  1
  S2-  S247  1  0.65791662  0.75355715  0.54542728  1
  S2-  S248  1  0.85488648  -0.00752987  0.04566093  1
  S2-  S249  1  0.90173957  0.00467704  0.54944018  1
  S2-  S250  1  0.84918561  0.24228843  0.04676534  1
  S2-  S251  1  0.89795594  0.25277299  0.54354423  1
  S2-  S252  1  0.85365272  0.49941294  0.03548040  1
  S2-  S253  1  0.89909624  0.50159124  0.53746917  1
  S2-  S254  1  0.85503793  0.74672589  0.05077676  1
  S2-  S255  1  0.90279700  0.74444713  0.55118025  1
