# generated using pymatgen
data_La6Ce6Pr19Nd20Sm13(BiS2)64
_symmetry_space_group_name_H-M   'P 1'
_cell_length_a   16.09859742
_cell_length_b   16.09042453
_cell_length_c   27.44044505
_cell_angle_alpha   90.25542718
_cell_angle_beta   90.13802673
_cell_angle_gamma   89.98146726
_symmetry_Int_Tables_number   1
_chemical_formula_structural   La6Ce6Pr19Nd20Sm13(BiS2)64
_chemical_formula_sum   'La6 Ce6 Pr19 Nd20 Sm13 Bi64 S128'
_cell_volume   7107.89652049
_cell_formula_units_Z   1
loop_
 _symmetry_equiv_pos_site_id
 _symmetry_equiv_pos_as_xyz
  1  'x, y, z'
loop_
 _atom_type_symbol
 _atom_type_oxidation_number
  La3+  3.0
  Ce3+  3.0
  Pr3+  3.0
  Nd3+  3.0
  Sm3+  3.0
  Bi2+  2.0
  S2-  -2.0
loop_
 _atom_site_type_symbol
 _atom_site_label
 _atom_site_symmetry_multiplicity
 _atom_site_fract_x
 _atom_site_fract_y
 _atom_site_fract_z
 _atom_site_occupancy
  La3+  La0  1  0.46817724  0.12282929  0.06872706  1
  La3+  La1  1  0.52124089  0.38448826  0.59498411  1
  La3+  La2  1  0.47650830  0.61793012  0.09817212  1
  La3+  La3  1  0.62392614  0.24607253  0.39074648  1
  La3+  La4  1  0.35041673  -0.01329657  0.93087397  1
  La3+  La5  1  0.85305263  0.74981936  0.89437263  1
  Ce3+  Ce6  1  0.39270152  0.00257001  0.44001752  1
  Ce3+  Ce7  1  -0.02389492  0.36959860  0.06011817  1
  Ce3+  Ce8  1  0.48493607  0.86699871  0.06964145  1
  Ce3+  Ce9  1  0.63955262  0.00146045  0.44353103  1
  Ce3+  Ce10  1  0.60855998  0.74298087  0.94359060  1
  Ce3+  Ce11  1  0.26530133  0.12479063  0.55704792  1
  Pr3+  Pr12  1  0.10394981  0.24518288  0.93627730  1
  Pr3+  Pr13  1  0.88703640  0.74695799  0.45154036  1
  Pr3+  Pr14  1  0.60182141  -0.00619805  0.94003916  1
  Pr3+  Pr15  1  0.22632310  0.12036556  0.05783846  1
  Pr3+  Pr16  1  0.84817881  -0.00399341  0.93915477  1
  Pr3+  Pr17  1  0.88921087  0.49478483  0.44366042  1
  Pr3+  Pr18  1  0.13753500  0.49768724  0.43698696  1
  Pr3+  Pr19  1  0.23108593  0.37444659  0.06070645  1
  Pr3+  Pr20  1  0.01332328  0.61921671  0.57140598  1
  Pr3+  Pr21  1  0.22855358  0.62815302  0.06893134  1
  Pr3+  Pr22  1  -0.02853762  0.87203774  0.06890107  1
  Pr3+  Pr23  1  0.64690004  0.50323597  0.41248059  1
  Pr3+  Pr24  1  0.26574278  0.37221674  0.55811463  1
  Pr3+  Pr25  1  0.09478998  -0.01077838  0.94267902  1
  Pr3+  Pr26  1  0.38636739  0.49433987  0.42849722  1
  Pr3+  Pr27  1  0.72890006  0.87106506  0.06684843  1
  Pr3+  Pr28  1  0.35306576  0.74617067  0.93969868  1
  Pr3+  Pr29  1  0.13767192  0.24916975  0.42921285  1
  Pr3+  Pr30  1  0.88683816  -0.00372553  0.44001727  1
  Nd3+  Nd31  1  0.76275547  0.12785702  0.56155091  1
  Nd3+  Nd32  1  0.13924771  -0.00133876  0.44546088  1
  Nd3+  Nd33  1  0.72861513  0.61822088  0.06145091  1
  Nd3+  Nd34  1  0.88319811  0.25031564  0.43792660  1
  Nd3+  Nd35  1  0.75653657  0.62442571  0.57005863  1
  Nd3+  Nd36  1  0.22851150  0.86986319  0.06676116  1
  Nd3+  Nd37  1  0.60043272  0.49470024  0.94368342  1
  Nd3+  Nd38  1  0.84967953  0.49321472  0.93371844  1
  Nd3+  Nd39  1  0.64087674  0.74623164  0.44195807  1
  Nd3+  Nd40  1  0.35051818  0.49629030  0.93637517  1
  Nd3+  Nd41  1  0.13657940  0.74796078  0.44243507  1
  Nd3+  Nd42  1  0.39035556  0.74646367  0.43625785  1
  Nd3+  Nd43  1  0.10021777  0.49887500  0.94628565  1
  Nd3+  Nd44  1  0.76752720  0.88750604  0.58938825  1
  Nd3+  Nd45  1  0.01526518  0.86790002  0.57703754  1
  Nd3+  Nd46  1  0.34741526  0.23737791  0.91578962  1
  Nd3+  Nd47  1  0.72420585  0.36741669  0.06092361  1
  Nd3+  Nd48  1  0.51505760  0.12298210  0.56574729  1
  Nd3+  Nd49  1  0.01343986  0.37410265  0.57150151  1
  Nd3+  Nd50  1  -0.02748189  0.62037073  0.06087149  1
  Sm3+  Sm51  1  0.72554663  0.12539718  0.05189329  1
  Sm3+  Sm52  1  0.59525713  0.24372785  0.93737695  1
  Sm3+  Sm53  1  0.75897919  0.37345257  0.55680877  1
  Sm3+  Sm54  1  0.84905862  0.25058574  0.92940882  1
  Sm3+  Sm55  1  0.47331883  0.37009920  0.05018734  1
  Sm3+  Sm56  1  0.51413657  0.87135112  0.55308380  1
  Sm3+  Sm57  1  0.39533526  0.25153794  0.44631149  1
  Sm3+  Sm58  1  0.51424897  0.61895961  0.55162906  1
  Sm3+  Sm59  1  0.09579439  0.74365795  0.94838759  1
  Sm3+  Sm60  1  0.26826612  0.61983107  0.55526565  1
  Sm3+  Sm61  1  0.26602442  0.87183621  0.55247485  1
  Sm3+  Sm62  1  0.01364714  0.12383609  0.55408265  1
  Sm3+  Sm63  1  -0.02467917  0.12452364  0.05210054  1
  Bi2+  Bi64  1  0.00803265  0.20156178  0.31029708  1
  Bi2+  Bi65  1  -0.03146709  0.13050533  0.80599824  1
  Bi2+  Bi66  1  0.02281812  0.39336583  0.34703847  1
  Bi2+  Bi67  1  -0.00623935  0.32377881  0.79266952  1
  Bi2+  Bi68  1  0.03090056  0.58977595  0.31619640  1
  Bi2+  Bi69  1  0.01996444  0.63103289  0.80110882  1
  Bi2+  Bi70  1  0.04880372  0.87082696  0.27935773  1
  Bi2+  Bi71  1  0.02627046  0.89336982  0.80280822  1
  Bi2+  Bi72  1  0.17720758  0.11745496  0.27404028  1
  Bi2+  Bi73  1  0.15988237  0.16841893  0.77113704  1
  Bi2+  Bi74  1  0.20020774  0.38018144  0.28760084  1
  Bi2+  Bi75  1  0.25124237  0.41134463  0.80476396  1
  Bi2+  Bi76  1  0.25832385  0.64174492  0.29431502  1
  Bi2+  Bi77  1  0.26253457  0.66968325  0.75599059  1
  Bi2+  Bi78  1  0.25711164  0.91938827  0.29085973  1
  Bi2+  Bi79  1  0.29027097  0.96546912  0.78423339  1
  Bi2+  Bi80  1  0.49959076  0.10405656  0.28889658  1
  Bi2+  Bi81  1  0.48643662  0.12920038  0.79689578  1
  Bi2+  Bi82  1  0.48981607  0.36360101  0.28735256  1
  Bi2+  Bi83  1  0.51910158  0.37721097  0.78585695  1
  Bi2+  Bi84  1  0.51458793  0.62804075  0.29087375  1
  Bi2+  Bi85  1  0.45070414  0.64425150  0.78911169  1
  Bi2+  Bi86  1  0.56662113  0.88614233  0.29485240  1
  Bi2+  Bi87  1  0.47718782  0.84609484  0.79180321  1
  Bi2+  Bi88  1  0.77028434  0.10896799  0.28982346  1
  Bi2+  Bi89  1  0.77541344  0.16134510  0.80714675  1
  Bi2+  Bi90  1  0.85509159  0.36300890  0.28658241  1
  Bi2+  Bi91  1  0.75039220  0.40020248  0.78248665  1
  Bi2+  Bi92  1  0.79652527  0.64034906  0.30288861  1
  Bi2+  Bi93  1  0.72101923  0.60968159  0.79884261  1
  Bi2+  Bi94  1  0.77246160  0.87122800  0.30421351  1
  Bi2+  Bi95  1  0.72338080  0.97560042  0.80168339  1
  Bi2+  Bi96  1  0.15332743  -0.03828477  0.19207718  1
  Bi2+  Bi97  1  0.12141231  -0.00494659  0.71818256  1
  Bi2+  Bi98  1  0.09762906  0.26776972  0.21248455  1
  Bi2+  Bi99  1  0.07908700  0.26625231  0.68531728  1
  Bi2+  Bi100  1  0.13618427  0.55245232  0.22128873  1
  Bi2+  Bi101  1  0.10503306  0.45709053  0.73427816  1
  Bi2+  Bi102  1  0.07696740  0.74244421  0.19399120  1
  Bi2+  Bi103  1  0.13963282  0.80242030  0.71324620  1
  Bi2+  Bi104  1  0.41919854  -0.04387838  0.22870928  1
  Bi2+  Bi105  1  0.38532402  0.00830116  0.68745594  1
  Bi2+  Bi106  1  0.38774649  0.23330226  0.19154405  1
  Bi2+  Bi107  1  0.33476355  0.26363848  0.71506878  1
  Bi2+  Bi108  1  0.37769390  0.46322716  0.20474867  1
  Bi2+  Bi109  1  0.35990536  0.51775193  0.69975166  1
  Bi2+  Bi110  1  0.34697863  0.77244700  0.22265360  1
  Bi2+  Bi111  1  0.40211925  0.76880412  0.69534363  1
  Bi2+  Bi112  1  0.68718440  -0.01896285  0.21984404  1
  Bi2+  Bi113  1  0.62169443  -0.00696990  0.70863428  1
  Bi2+  Bi114  1  0.63755231  0.26601494  0.18543380  1
  Bi2+  Bi115  1  0.71315284  0.25224849  0.71260519  1
  Bi2+  Bi116  1  0.68112679  0.51358252  0.22216916  1
  Bi2+  Bi117  1  0.64881645  0.53231152  0.70131056  1
  Bi2+  Bi118  1  0.64825193  0.77385574  0.21522266  1
  Bi2+  Bi119  1  0.60570591  0.72589328  0.73236551  1
  Bi2+  Bi120  1  0.96228077  -0.00939901  0.20398839  1
  Bi2+  Bi121  1  0.88686284  0.03851797  0.71478674  1
  Bi2+  Bi122  1  0.88894649  0.20944486  0.21444105  1
  Bi2+  Bi123  1  0.88868877  0.30325140  0.67945362  1
  Bi2+  Bi124  1  0.94161452  0.50242519  0.22396921  1
  Bi2+  Bi125  1  0.90828902  0.48735258  0.72083758  1
  Bi2+  Bi126  1  0.88793683  0.77594852  0.21821120  1
  Bi2+  Bi127  1  0.87581152  0.74331315  0.69583067  1
  S2-  S128  1  0.00390016  0.12938292  0.14779290  1
  S2-  S129  1  0.00481124  0.11207930  0.65129701  1
  S2-  S130  1  0.00282137  0.37603644  0.15610842  1
  S2-  S131  1  0.03348455  0.49598619  0.64325993  1
  S2-  S132  1  -0.06695295  0.63376498  0.15709127  1
  S2-  S133  1  0.03332191  0.73338806  0.64750374  1
  S2-  S134  1  -0.14594959  0.88623615  0.14380453  1
  S2-  S135  1  -0.09336299  0.89837702  0.65478091  1
  S2-  S136  1  0.32727836  0.11626743  0.13912709  1
  S2-  S137  1  0.28200052  0.12731215  0.65339622  1
  S2-  S138  1  0.27197713  0.34425424  0.15677821  1
  S2-  S139  1  0.27385510  0.38194713  0.65822961  1
  S2-  S140  1  0.32368670  0.57446308  0.14701622  1
  S2-  S141  1  0.25375092  0.61170644  0.65241788  1
  S2-  S142  1  0.22597569  0.76310711  0.14561229  1
  S2-  S143  1  0.27764178  0.87055962  0.64968538  1
  S2-  S144  1  0.53688248  0.14298296  0.16269117  1
  S2-  S145  1  0.52012906  0.11064698  0.66677968  1
  S2-  S146  1  0.49359769  0.35640611  0.14824504  1
  S2-  S147  1  0.47687460  0.33195693  0.69131506  1
  S2-  S148  1  0.51963841  0.55971613  0.19432611  1
  S2-  S149  1  0.50423014  0.54839225  0.64141491  1
  S2-  S150  1  0.45931451  0.76706490  0.15086880  1
  S2-  S151  1  0.51334594  0.89312871  0.64994721  1
  S2-  S152  1  0.76153671  0.17707834  0.14220663  1
  S2-  S153  1  0.75059167  0.03845601  0.64751649  1
  S2-  S154  1  0.73758629  0.41280336  0.15708096  1
  S2-  S155  1  0.67944288  0.39212336  0.64600540  1
  S2-  S156  1  0.70225441  0.65026291  0.15831731  1
  S2-  S157  1  0.81581090  0.58977067  0.66138243  1
  S2-  S158  1  0.61545530  0.89750127  0.14251382  1
  S2-  S159  1  0.72062302  0.78168530  0.66198166  1
  S2-  S160  1  0.12148775  -0.00889776  0.34811766  1
  S2-  S161  1  0.14865860  -0.02251188  0.84835497  1
  S2-  S162  1  0.22875012  0.23877165  0.34261506  1
  S2-  S163  1  0.20223751  0.25974849  0.85434803  1
  S2-  S164  1  0.24481592  0.49915845  0.35711887  1
  S2-  S165  1  0.12323805  0.51114815  0.84890010  1
  S2-  S166  1  0.13616825  0.72659909  0.34438575  1
  S2-  S167  1  0.09837456  0.75233223  0.85062924  1
  S2-  S168  1  0.38349177  0.01220577  0.34373296  1
  S2-  S169  1  0.35740669  0.09393802  0.85072760  1
  S2-  S170  1  0.45302980  0.23294591  0.35440339  1
  S2-  S171  1  0.40150706  0.27973239  0.81859647  1
  S2-  S172  1  0.43469192  0.50682985  0.33039169  1
  S2-  S173  1  0.38119162  0.49205867  0.83740336  1
  S2-  S174  1  0.40015076  0.72926493  0.33820707  1
  S2-  S175  1  0.34403045  0.85407003  0.86019671  1
  S2-  S176  1  0.63027328  0.07437068  0.35596499  1
  S2-  S177  1  0.55517271  -0.00813047  0.84284128  1
  S2-  S178  1  0.61842387  0.24278567  0.28067773  1
  S2-  S179  1  0.59619398  0.24365984  0.83938756  1
  S2-  S180  1  0.62171411  0.44331385  0.31510905  1
  S2-  S181  1  0.62328165  0.47847640  0.84582577  1
  S2-  S182  1  0.64739272  0.66165144  0.35470397  1
  S2-  S183  1  0.68745490  0.74683428  0.85595506  1
  S2-  S184  1  0.86985208  0.00544318  0.33994029  1
  S2-  S185  1  0.86552277  -0.08480892  0.85262548  1
  S2-  S186  1  0.79116311  0.24884509  0.35354630  1
  S2-  S187  1  0.85896296  0.37001710  0.85871704  1
  S2-  S188  1  0.80515690  0.50318331  0.35592519  1
  S2-  S189  1  0.87270989  0.58892918  0.85080150  1
  S2-  S190  1  0.88551260  0.75812152  0.35227406  1
  S2-  S191  1  0.90315907  0.75477453  0.78947571  1
  S2-  S192  1  0.01246814  0.12388660  0.45000436  1
  S2-  S193  1  -0.02614073  0.12426186  0.94781617  1
  S2-  S194  1  0.01351657  0.36945449  0.46465043  1
  S2-  S195  1  -0.01947185  0.36941914  0.95462755  1
  S2-  S196  1  0.01389664  0.62249323  0.46168511  1
  S2-  S197  1  -0.02641737  0.62130655  0.95573978  1
  S2-  S198  1  0.01482111  0.87282602  0.46109218  1
  S2-  S199  1  -0.02914029  0.86392124  0.95936971  1
  S2-  S200  1  0.26589288  0.12525893  0.45224503  1
  S2-  S201  1  0.22284583  0.11425589  0.95328907  1
  S2-  S202  1  0.26469649  0.36778942  0.45328159  1
  S2-  S203  1  0.22680324  0.37492177  0.95462681  1
  S2-  S204  1  0.26436309  0.62603210  0.45268650  1
  S2-  S205  1  0.22560107  0.62337241  0.95653280  1
  S2-  S206  1  0.26475379  0.87254720  0.44774371  1
  S2-  S207  1  0.21908109  0.86493132  0.96205056  1
  S2-  S208  1  0.51644248  0.12687783  0.45991911  1
  S2-  S209  1  0.47583155  0.12037415  0.95484814  1
  S2-  S210  1  0.51849144  0.37470329  0.43871770  1
  S2-  S211  1  0.47288033  0.36817690  0.94567891  1
  S2-  S212  1  0.51335946  0.62023322  0.44945663  1
  S2-  S213  1  0.47798365  0.62045174  0.94209001  1
  S2-  S214  1  0.51474110  0.87160179  0.44848431  1
  S2-  S215  1  0.48284157  0.86679840  0.95951519  1
  S2-  S216  1  0.76408272  0.12386664  0.45779255  1
  S2-  S217  1  0.72561178  0.12613061  0.94723724  1
  S2-  S218  1  0.75627836  0.37116001  0.45440574  1
  S2-  S219  1  0.72103954  0.36498666  0.95423426  1
  S2-  S220  1  0.76319749  0.62221655  0.46298355  1
  S2-  S221  1  0.72908507  0.61520989  0.95593795  1
  S2-  S222  1  0.76114100  0.87264483  0.45583134  1
  S2-  S223  1  0.72874036  0.87045055  0.95924161  1
  S2-  S224  1  0.09849435  -0.00439160  0.04884475  1
  S2-  S225  1  0.13831359  -0.00417819  0.55178505  1
  S2-  S226  1  0.10335029  0.24656993  0.04411384  1
  S2-  S227  1  0.13749338  0.24774947  0.54395877  1
  S2-  S228  1  0.10347445  0.49891156  0.05282040  1
  S2-  S229  1  0.14357832  0.49880474  0.54294731  1
  S2-  S230  1  0.09568225  0.74668394  0.05063267  1
  S2-  S231  1  0.14591861  0.74653518  0.54690818  1
  S2-  S232  1  0.35220286  -0.01281631  0.04275991  1
  S2-  S233  1  0.38969719  -0.00400118  0.54536190  1
  S2-  S234  1  0.34983399  0.24831489  0.03482183  1
  S2-  S235  1  0.39741723  0.25335136  0.55187562  1
  S2-  S236  1  0.35761178  0.49764235  0.04067932  1
  S2-  S237  1  0.39104371  0.49468462  0.53955664  1
  S2-  S238  1  0.35693040  0.74412320  0.04402287  1
  S2-  S239  1  0.39051580  0.74625965  0.54292102  1
  S2-  S240  1  0.60258912  0.00496545  0.04475097  1
  S2-  S241  1  0.63746247  -0.00536865  0.54754865  1
  S2-  S242  1  0.59872628  0.24625588  0.04162944  1
  S2-  S243  1  0.63557696  0.24833117  0.55920555  1
  S2-  S244  1  0.59714075  0.49520942  0.05010706  1
  S2-  S245  1  0.63776697  0.49855940  0.54151538  1
  S2-  S246  1  0.60139866  0.73734303  0.04820088  1
  S2-  S247  1  0.63345437  0.74684960  0.54736909  1
  S2-  S248  1  0.85119146  0.00525125  0.04479662  1
  S2-  S249  1  0.89134060  0.00027807  0.54558124  1
  S2-  S250  1  0.85235430  0.24718686  0.03484517  1
  S2-  S251  1  0.88891867  0.24923522  0.54545083  1
  S2-  S252  1  0.85109588  0.49111779  0.04393339  1
  S2-  S253  1  0.88327647  0.49421325  0.54959528  1
  S2-  S254  1  0.85014593  0.74241293  0.05168707  1
  S2-  S255  1  0.88143326  0.75103462  0.55558591  1
