# generated using pymatgen
data_La6Ce6Pr19Nd20Sm13(BiS2)64
_symmetry_space_group_name_H-M   'P 1'
_cell_length_a   16.09385418
_cell_length_b   16.09404168
_cell_length_c   27.40880273
_cell_angle_alpha   90.35313269
_cell_angle_beta   90.14574407
_cell_angle_gamma   90.03202365
_symmetry_Int_Tables_number   1
_chemical_formula_structural   La6Ce6Pr19Nd20Sm13(BiS2)64
_chemical_formula_sum   'La6 Ce6 Pr19 Nd20 Sm13 Bi64 S128'
_cell_volume   7099.13644601
_cell_formula_units_Z   1
loop_
 _symmetry_equiv_pos_site_id
 _symmetry_equiv_pos_as_xyz
  1  'x, y, z'
loop_
 _atom_type_symbol
 _atom_type_oxidation_number
  La3+  3.0
  Ce3+  3.0
  Pr3+  3.0
  Nd3+  3.0
  Sm3+  3.0
  Bi2+  2.0
  S2-  -2.0
loop_
 _atom_site_type_symbol
 _atom_site_label
 _atom_site_symmetry_multiplicity
 _atom_site_fract_x
 _atom_site_fract_y
 _atom_site_fract_z
 _atom_site_occupancy
  La3+  La0  1  0.85847136  0.73711164  0.43188028  1
  La3+  La1  1  0.50806352  0.11980398  0.06986485  1
  La3+  La2  1  0.35033949  -0.01238021  0.40360251  1
  La3+  La3  1  0.25476468  0.12389019  0.07225307  1
  La3+  La4  1  0.75959273  0.11382979  0.07389971  1
  La3+  La5  1  0.63659690  0.52406247  0.87944005  1
  Ce3+  Ce6  1  0.87356593  0.48602417  0.94846220  1
  Ce3+  Ce7  1  0.60922151  0.73746211  0.43141125  1
  Ce3+  Ce8  1  0.35839726  0.48576721  0.43149633  1
  Ce3+  Ce9  1  0.00471766  0.86140826  0.06263306  1
  Ce3+  Ce10  1  -0.02008696  0.85512098  0.57237016  1
  Ce3+  Ce11  1  0.10289913  0.49042521  0.43896625  1
  Pr3+  Pr12  1  0.48082949  0.35946283  0.56261290  1
  Pr3+  Pr13  1  0.87205005  0.73527300  0.93634532  1
  Pr3+  Pr14  1  0.63522423  0.24594780  0.93449531  1
  Pr3+  Pr15  1  0.59454235  0.22940621  0.41510229  1
  Pr3+  Pr16  1  0.10302328  -0.01452200  0.43748640  1
  Pr3+  Pr17  1  0.72078674  0.61493986  0.56355560  1
  Pr3+  Pr18  1  0.00662315  0.61668508  0.06278975  1
  Pr3+  Pr19  1  0.60137951  0.48779473  0.42926432  1
  Pr3+  Pr20  1  0.23194999  0.86175055  0.55672562  1
  Pr3+  Pr21  1  0.00933285  0.36713011  0.05942545  1
  Pr3+  Pr22  1  0.38475276  0.48924759  0.92920356  1
  Pr3+  Pr23  1  0.85229844  0.23534657  0.44375043  1
  Pr3+  Pr24  1  0.12866525  0.73041593  0.92724965  1
  Pr3+  Pr25  1  0.37937187  -0.01278915  0.94363721  1
  Pr3+  Pr26  1  0.01231865  0.11604252  0.06171256  1
  Pr3+  Pr27  1  0.34946134  0.73475964  0.42074019  1
  Pr3+  Pr28  1  -0.02333241  0.36336768  0.55660031  1
  Pr3+  Pr29  1  0.10455785  0.23605706  0.44027486  1
  Pr3+  Pr30  1  0.48168713  0.10669992  0.56368268  1
  Nd3+  Nd31  1  0.26133805  0.61712934  0.06305752  1
  Nd3+  Nd32  1  0.85561788  -0.01173279  0.44772997  1
  Nd3+  Nd33  1  -0.01880973  0.10594244  0.56949763  1
  Nd3+  Nd34  1  0.23066984  0.11043509  0.55962082  1
  Nd3+  Nd35  1  0.63174199  -0.00374024  0.93794372  1
  Nd3+  Nd36  1  0.75224077  0.36065152  0.07456889  1
  Nd3+  Nd37  1  0.75345489  0.61205318  0.06595580  1
  Nd3+  Nd38  1  -0.02570784  0.61308007  0.56423018  1
  Nd3+  Nd39  1  0.87818077  -0.01305092  0.94374497  1
  Nd3+  Nd40  1  0.22792071  0.36256806  0.55790868  1
  Nd3+  Nd41  1  0.37925626  0.23660685  0.94079375  1
  Nd3+  Nd42  1  0.47529996  0.61371690  0.56111154  1
  Nd3+  Nd43  1  0.76081828  0.86664375  0.07690974  1
  Nd3+  Nd44  1  0.72640291  0.36320254  0.55430997  1
  Nd3+  Nd45  1  0.72951716  0.86218584  0.55869993  1
  Nd3+  Nd46  1  0.13055371  0.23308747  0.92915898  1
  Nd3+  Nd47  1  0.23333855  0.61162318  0.55973640  1
  Nd3+  Nd48  1  0.47796309  0.86430186  0.54890467  1
  Nd3+  Nd49  1  0.84672153  0.48589907  0.42814713  1
  Nd3+  Nd50  1  0.12970321  -0.01771843  0.93906474  1
  Sm3+  Sm51  1  0.60458823  -0.01049522  0.43661731  1
  Sm3+  Sm52  1  0.10302189  0.73846274  0.43870816  1
  Sm3+  Sm53  1  0.63121864  0.74180964  0.95049084  1
  Sm3+  Sm54  1  0.88193925  0.23854259  0.94985369  1
  Sm3+  Sm55  1  0.50810255  0.36781348  0.05425968  1
  Sm3+  Sm56  1  0.38208268  0.73928935  0.94737687  1
  Sm3+  Sm57  1  0.25836351  0.86763415  0.06707959  1
  Sm3+  Sm58  1  0.35489786  0.23503543  0.44509567  1
  Sm3+  Sm59  1  0.13147102  0.48857695  0.94275500  1
  Sm3+  Sm60  1  0.25946801  0.36814091  0.05640963  1
  Sm3+  Sm61  1  0.72749181  0.11412750  0.55858777  1
  Sm3+  Sm62  1  0.50781749  0.86823859  0.05930692  1
  Sm3+  Sm63  1  0.50799797  0.61458109  0.05631512  1
  Bi2+  Bi64  1  0.01136449  0.12529886  0.30539800  1
  Bi2+  Bi65  1  -0.01721095  0.16134470  0.80746255  1
  Bi2+  Bi66  1  0.02452121  0.30639335  0.25006830  1
  Bi2+  Bi67  1  -0.03639522  0.38769505  0.76542468  1
  Bi2+  Bi68  1  0.07185933  0.63458838  0.30786649  1
  Bi2+  Bi69  1  0.00787110  0.58213357  0.76032574  1
  Bi2+  Bi70  1  -0.03266506  0.93154082  0.32308556  1
  Bi2+  Bi71  1  0.05501287  0.87553129  0.77374739  1
  Bi2+  Bi72  1  0.23813959  0.11409982  0.28678912  1
  Bi2+  Bi73  1  0.25191113  0.16744466  0.80388261  1
  Bi2+  Bi74  1  0.29340754  0.32550487  0.27889395  1
  Bi2+  Bi75  1  0.21777033  0.43913156  0.79731998  1
  Bi2+  Bi76  1  0.34594085  0.58872617  0.30903224  1
  Bi2+  Bi77  1  0.24705330  0.69166137  0.81226363  1
  Bi2+  Bi78  1  0.23310287  0.84618122  0.28765955  1
  Bi2+  Bi79  1  0.32064217  0.87285378  0.79221773  1
  Bi2+  Bi80  1  0.49790669  0.17292032  0.28498298  1
  Bi2+  Bi81  1  0.49343951  0.11881243  0.75428259  1
  Bi2+  Bi82  1  0.45613037  0.43521801  0.25452865  1
  Bi2+  Bi83  1  0.50591735  0.36343737  0.78647384  1
  Bi2+  Bi84  1  0.52812678  0.65731736  0.32125907  1
  Bi2+  Bi85  1  0.50074539  0.69178084  0.72890049  1
  Bi2+  Bi86  1  0.50829741  0.82869148  0.27012411  1
  Bi2+  Bi87  1  0.49648486  0.94680306  0.81255528  1
  Bi2+  Bi88  1  0.73943063  0.14760401  0.30295605  1
  Bi2+  Bi89  1  0.69488548  0.12906901  0.77208465  1
  Bi2+  Bi90  1  0.86479413  0.40744043  0.28916495  1
  Bi2+  Bi91  1  0.76898483  0.37545691  0.78860222  1
  Bi2+  Bi92  1  0.78108772  0.60417266  0.29661565  1
  Bi2+  Bi93  1  0.80205194  0.64701817  0.79567952  1
  Bi2+  Bi94  1  0.69677469  0.87595262  0.29602162  1
  Bi2+  Bi95  1  0.74344109  0.95652854  0.82433275  1
  Bi2+  Bi96  1  0.05795315  -0.01878108  0.22282061  1
  Bi2+  Bi97  1  0.11995244  0.05569933  0.74958356  1
  Bi2+  Bi98  1  0.12511047  0.16407800  0.19051599  1
  Bi2+  Bi99  1  0.11034334  0.25036004  0.69297995  1
  Bi2+  Bi100  1  0.20559778  0.49312546  0.24333970  1
  Bi2+  Bi101  1  0.17037423  0.53343298  0.69919454  1
  Bi2+  Bi102  1  0.09111757  0.78518874  0.22156744  1
  Bi2+  Bi103  1  0.12605259  0.72219423  0.71331862  1
  Bi2+  Bi104  1  0.37973672  -0.03340749  0.20115347  1
  Bi2+  Bi105  1  0.34236997  0.01192185  0.68535186  1
  Bi2+  Bi106  1  0.38516637  0.24690141  0.19188804  1
  Bi2+  Bi107  1  0.33527133  0.30657439  0.74004336  1
  Bi2+  Bi108  1  0.34734403  0.48382817  0.16389578  1
  Bi2+  Bi109  1  0.35519032  0.56132348  0.75347977  1
  Bi2+  Bi110  1  0.36466144  0.69187201  0.21191599  1
  Bi2+  Bi111  1  0.33772754  0.75783582  0.69060635  1
  Bi2+  Bi112  1  0.61592011  -0.00529445  0.21506078  1
  Bi2+  Bi113  1  0.61300607  -0.02882830  0.69988096  1
  Bi2+  Bi114  1  0.66156801  0.32620454  0.21434151  1
  Bi2+  Bi115  1  0.58310165  0.25588383  0.68990655  1
  Bi2+  Bi116  1  0.60154682  0.56885077  0.22906130  1
  Bi2+  Bi117  1  0.65428775  0.49819930  0.67943251  1
  Bi2+  Bi118  1  0.67442965  0.74854872  0.20894354  1
  Bi2+  Bi119  1  0.63244327  0.81530749  0.77556869  1
  Bi2+  Bi120  1  0.84849149  -0.06132886  0.22701825  1
  Bi2+  Bi121  1  0.88333225  -0.03043777  0.74115266  1
  Bi2+  Bi122  1  0.86667364  0.19458678  0.22258959  1
  Bi2+  Bi123  1  0.85628792  0.22631245  0.72746144  1
  Bi2+  Bi124  1  0.91599623  0.50446820  0.19585889  1
  Bi2+  Bi125  1  0.89754195  0.49400739  0.67899734  1
  Bi2+  Bi126  1  0.90101691  0.74192890  0.22316861  1
  Bi2+  Bi127  1  0.87026966  0.79747926  0.69858959  1
  S2-  S128  1  -0.04538903  0.10987732  0.15564050  1
  S2-  S129  1  -0.03233467  0.16591367  0.66164942  1
  S2-  S130  1  0.02330251  0.39143183  0.15843062  1
  S2-  S131  1  0.02576406  0.37137012  0.65274053  1
  S2-  S132  1  0.00897487  0.62759826  0.16350982  1
  S2-  S133  1  -0.00816528  0.72537884  0.64061366  1
  S2-  S134  1  -0.09893405  0.85397100  0.14116544  1
  S2-  S135  1  -0.02778099  0.94634127  0.65427299  1
  S2-  S136  1  0.25435034  0.03991516  0.16110370  1
  S2-  S137  1  0.20186161  0.10567111  0.65788498  1
  S2-  S138  1  0.23825737  0.27079133  0.13735417  1
  S2-  S139  1  0.24776230  0.33843769  0.65530099  1
  S2-  S140  1  0.22985659  0.61337235  0.16046784  1
  S2-  S141  1  0.34926108  0.61259144  0.63384814  1
  S2-  S142  1  0.29858950  0.83416091  0.16075337  1
  S2-  S143  1  0.24023329  0.89343091  0.65613494  1
  S2-  S144  1  0.49152611  0.09972243  0.16977113  1
  S2-  S145  1  0.43932449  0.15771312  0.65687853  1
  S2-  S146  1  0.52350545  0.31519275  0.14820624  1
  S2-  S147  1  0.50883966  0.40014941  0.65958445  1
  S2-  S148  1  0.49319909  0.62595840  0.15423394  1
  S2-  S149  1  0.58126897  0.63968493  0.64021853  1
  S2-  S150  1  0.52001756  0.88417873  0.15630650  1
  S2-  S151  1  0.47914723  0.92742542  0.64297655  1
  S2-  S152  1  0.73618859  0.22988678  0.15032481  1
  S2-  S153  1  0.68327037  0.11653545  0.65236168  1
  S2-  S154  1  0.75486045  0.43470621  0.16733986  1
  S2-  S155  1  0.76027950  0.37022660  0.65160709  1
  S2-  S156  1  0.78965848  0.65302728  0.16016735  1
  S2-  S157  1  0.78955336  0.61142845  0.65752989  1
  S2-  S158  1  0.73612014  0.99365119  0.14846687  1
  S2-  S159  1  0.72739346  0.85077070  0.65727102  1
  S2-  S160  1  0.19411113  -0.01560351  0.35002971  1
  S2-  S161  1  0.12976792  0.09592486  0.86208485  1
  S2-  S162  1  0.13356454  0.23150986  0.34228929  1
  S2-  S163  1  0.14142378  0.31001712  0.83910243  1
  S2-  S164  1  0.14488682  0.49107316  0.34460760  1
  S2-  S165  1  0.12995780  0.58409215  0.86233299  1
  S2-  S166  1  0.20116456  0.72218708  0.35572644  1
  S2-  S167  1  0.13107134  0.86319750  0.86153013  1
  S2-  S168  1  0.38527991  0.04950909  0.30556248  1
  S2-  S169  1  0.34568544  0.02646561  0.84809530  1
  S2-  S170  1  0.40254505  0.25117637  0.35176490  1
  S2-  S171  1  0.38815008  0.26952141  0.84318037  1
  S2-  S172  1  0.47353916  0.47692273  0.35731308  1
  S2-  S173  1  0.47104318  0.50103494  0.84212628  1
  S2-  S174  1  0.37352686  0.84611421  0.34177900  1
  S2-  S175  1  0.39819383  0.74805399  0.85022471  1
  S2-  S176  1  0.59365278  0.08228594  0.35394129  1
  S2-  S177  1  0.62991364  0.11578213  0.86409477  1
  S2-  S178  1  0.62368403  0.28254840  0.31682742  1
  S2-  S179  1  0.63726633  0.35058032  0.85166635  1
  S2-  S180  1  0.72251900  0.48390384  0.35296228  1
  S2-  S181  1  0.67063142  0.52494341  0.77298455  1
  S2-  S182  1  0.73573606  0.73675375  0.35730790  1
  S2-  S183  1  0.66341332  0.69823992  0.85742202  1
  S2-  S184  1  0.81724044  0.01128817  0.35226982  1
  S2-  S185  1  0.90842248  0.01101615  0.84668874  1
  S2-  S186  1  0.84480955  0.25792673  0.34539034  1
  S2-  S187  1  0.85770307  0.24926248  0.85318700  1
  S2-  S188  1  0.93175715  0.54180377  0.34517184  1
  S2-  S189  1  0.81714420  0.50660847  0.85771225  1
  S2-  S190  1  0.98668655  0.76121090  0.36142756  1
  S2-  S191  1  0.91137765  0.74114334  0.83807068  1
  S2-  S192  1  -0.02001664  0.11222032  0.45877106  1
  S2-  S193  1  0.00329710  0.11167455  0.95763131  1
  S2-  S194  1  -0.02229728  0.36332629  0.44872267  1
  S2-  S195  1  0.00691633  0.36582132  0.95097127  1
  S2-  S196  1  -0.01922687  0.61204847  0.45944316  1
  S2-  S197  1  0.00083104  0.61172044  0.95666727  1
  S2-  S198  1  -0.02003656  0.86547975  0.46522388  1
  S2-  S199  1  0.00114237  0.85821034  0.95757732  1
  S2-  S200  1  0.23216592  0.11173118  0.45251171  1
  S2-  S201  1  0.25504774  0.11250257  0.96274734  1
  S2-  S202  1  0.23157138  0.36073227  0.45093872  1
  S2-  S203  1  0.25604775  0.36708076  0.95199600  1
  S2-  S204  1  0.23167852  0.60854908  0.45546709  1
  S2-  S205  1  0.26108295  0.61446753  0.95709006  1
  S2-  S206  1  0.23079036  0.86301308  0.45145223  1
  S2-  S207  1  0.25802490  0.85924161  0.96106996  1
  S2-  S208  1  0.47345466  0.10725832  0.45426793  1
  S2-  S209  1  0.50164673  0.11459609  0.96037316  1
  S2-  S210  1  0.48196481  0.35462367  0.45580997  1
  S2-  S211  1  0.50124994  0.36207994  0.95258742  1
  S2-  S212  1  0.47798201  0.61647386  0.45396158  1
  S2-  S213  1  0.50970797  0.61672316  0.95220901  1
  S2-  S214  1  0.48291702  0.86654647  0.44382608  1
  S2-  S215  1  0.50833951  0.86427995  0.95469086  1
  S2-  S216  1  0.72592397  0.11339523  0.45538560  1
  S2-  S217  1  0.76132089  0.11523736  0.96282581  1
  S2-  S218  1  0.72117507  0.35362969  0.44938802  1
  S2-  S219  1  0.76221491  0.35974602  0.96664072  1
  S2-  S220  1  0.72796691  0.61121182  0.45645689  1
  S2-  S221  1  0.74760594  0.61084350  0.96057678  1
  S2-  S222  1  0.72873314  0.86857219  0.45343332  1
  S2-  S223  1  0.75274396  0.86510556  0.96127595  1
  S2-  S224  1  0.13191331  -0.01452103  0.04910210  1
  S2-  S225  1  0.10528906  -0.01333898  0.54582546  1
  S2-  S226  1  0.13040477  0.24477872  0.03640975  1
  S2-  S227  1  0.10335404  0.23565558  0.54655305  1
  S2-  S228  1  0.13579694  0.49234192  0.04750770  1
  S2-  S229  1  0.10466286  0.49024038  0.54708742  1
  S2-  S230  1  0.13557324  0.74044539  0.04828260  1
  S2-  S231  1  0.10928654  0.73377201  0.54275568  1
  S2-  S232  1  0.38173278  -0.01055385  0.05108801  1
  S2-  S233  1  0.35320682  -0.01104234  0.54152816  1
  S2-  S234  1  0.38298514  0.24457439  0.04550395  1
  S2-  S235  1  0.35295194  0.23658807  0.54792856  1
  S2-  S236  1  0.38398198  0.49119592  0.03767202  1
  S2-  S237  1  0.35525922  0.48103753  0.53881045  1
  S2-  S238  1  0.38546288  0.74238739  0.05101864  1
  S2-  S239  1  0.35579346  0.74026583  0.53370504  1
  S2-  S240  1  0.62950920  -0.01035015  0.04442086  1
  S2-  S241  1  0.60760446  -0.01215961  0.54073691  1
  S2-  S242  1  0.62928655  0.24105157  0.04248485  1
  S2-  S243  1  0.60447513  0.23482449  0.54327466  1
  S2-  S244  1  0.62719661  0.49078881  0.06002909  1
  S2-  S245  1  0.60107217  0.48637262  0.53915501  1
  S2-  S246  1  0.63061860  0.74258252  0.05491348  1
  S2-  S247  1  0.60268835  0.74343812  0.53708688  1
  S2-  S248  1  0.88498809  -0.01020030  0.04758824  1
  S2-  S249  1  0.85041207  -0.00954416  0.55319831  1
  S2-  S250  1  0.88636141  0.24223050  0.05383469  1
  S2-  S251  1  0.85313095  0.23499216  0.55000151  1
  S2-  S252  1  0.88059093  0.49036419  0.05366068  1
  S2-  S253  1  0.85193524  0.48793878  0.53826762  1
  S2-  S254  1  0.87689831  0.73582608  0.04372662  1
  S2-  S255  1  0.85052334  0.73629763  0.54228729  1
