# generated using pymatgen
data_La6Ce6Pr19Nd20Sm13(BiS2)64
_symmetry_space_group_name_H-M   'P 1'
_cell_length_a   16.16241489
_cell_length_b   16.15129665
_cell_length_c   27.09374519
_cell_angle_alpha   89.88240991
_cell_angle_beta   90.00568030
_cell_angle_gamma   89.99501567
_symmetry_Int_Tables_number   1
_chemical_formula_structural   La6Ce6Pr19Nd20Sm13(BiS2)64
_chemical_formula_sum   'La6 Ce6 Pr19 Nd20 Sm13 Bi64 S128'
_cell_volume   7072.64350939
_cell_formula_units_Z   1
loop_
 _symmetry_equiv_pos_site_id
 _symmetry_equiv_pos_as_xyz
  1  'x, y, z'
loop_
 _atom_type_symbol
 _atom_type_oxidation_number
  La3+  3.0
  Ce3+  3.0
  Pr3+  3.0
  Nd3+  3.0
  Sm3+  3.0
  Bi2+  2.0
  S2-  -2.0
loop_
 _atom_site_type_symbol
 _atom_site_label
 _atom_site_symmetry_multiplicity
 _atom_site_fract_x
 _atom_site_fract_y
 _atom_site_fract_z
 _atom_site_occupancy
  La3+  La0  1  0.51302681  0.14201615  0.59117999  1
  La3+  La1  1  0.26761195  0.87738165  0.58332397  1
  La3+  La2  1  0.47609129  0.87153276  0.10522836  1
  La3+  La3  1  -0.01794250  0.37713343  0.07054352  1
  La3+  La4  1  0.36810086  0.74938053  0.92374554  1
  La3+  La5  1  -0.00985317  0.11598913  0.08871640  1
  Ce3+  Ce6  1  0.11086066  0.24818858  0.94101964  1
  Ce3+  Ce7  1  0.51122126  0.87870270  0.56270895  1
  Ce3+  Ce8  1  0.00855936  0.13065317  0.55619989  1
  Ce3+  Ce9  1  0.51033864  0.63733390  0.55215022  1
  Ce3+  Ce10  1  0.11291442  0.49947096  0.93769764  1
  Ce3+  Ce11  1  0.63056405  0.25497618  0.42729069  1
  Pr3+  Pr12  1  0.25397129  0.12871038  0.56813024  1
  Pr3+  Pr13  1  0.36849201  0.25251483  0.93870202  1
  Pr3+  Pr14  1  -0.00863567  0.87557167  0.05654215  1
  Pr3+  Pr15  1  0.61447047  -0.00114829  0.95216531  1
  Pr3+  Pr16  1  0.00545399  0.38295273  0.56272598  1
  Pr3+  Pr17  1  0.61513154  0.75300310  0.94293413  1
  Pr3+  Pr18  1  -0.00287002  0.89266122  0.58379550  1
  Pr3+  Pr19  1  0.89680383  0.01325942  0.42309257  1
  Pr3+  Pr20  1  0.61663293  0.24603118  0.93333619  1
  Pr3+  Pr21  1  0.13352906  0.27170806  0.40893647  1
  Pr3+  Pr22  1  0.11470439  0.00864386  0.92907416  1
  Pr3+  Pr23  1  0.50908340  0.38385095  0.55820399  1
  Pr3+  Pr24  1  0.86317973  0.76327902  0.92375491  1
  Pr3+  Pr25  1  0.63578643  0.76942931  0.42045039  1
  Pr3+  Pr26  1  0.10786921  0.75568684  0.91864736  1
  Pr3+  Pr27  1  0.75719236  0.13290538  0.55621229  1
  Pr3+  Pr28  1  0.38061364  0.51131478  0.44278792  1
  Pr3+  Pr29  1  0.25382714  0.63089084  0.57681097  1
  Pr3+  Pr30  1  0.24154543  0.62777373  0.05292881  1
  Nd3+  Nd31  1  0.13102934  0.75963178  0.45585300  1
  Nd3+  Nd32  1  0.49355424  0.37644606  0.06520351  1
  Nd3+  Nd33  1  0.86297272  0.01027928  0.93790760  1
  Nd3+  Nd34  1  0.23733124  0.37269015  0.05516805  1
  Nd3+  Nd35  1  0.38065684  0.76968418  0.43307735  1
  Nd3+  Nd36  1  0.24388309  0.87618588  0.04855739  1
  Nd3+  Nd37  1  0.25651663  0.37963450  0.56733001  1
  Nd3+  Nd38  1  0.36840767  0.00249295  0.93403484  1
  Nd3+  Nd39  1  0.48944766  0.62198784  0.06373827  1
  Nd3+  Nd40  1  0.88573754  0.76087181  0.43874818  1
  Nd3+  Nd41  1  0.73895010  0.12422860  0.07209767  1
  Nd3+  Nd42  1  0.13642661  -0.00064149  0.43890792  1
  Nd3+  Nd43  1  0.49261868  0.12568670  0.06571357  1
  Nd3+  Nd44  1  0.63132149  0.51036639  0.43802622  1
  Nd3+  Nd45  1  0.00246611  0.63440296  0.57786853  1
  Nd3+  Nd46  1  0.63203068  0.01429232  0.43320120  1
  Nd3+  Nd47  1  0.86413893  0.50033644  0.93686705  1
  Nd3+  Nd48  1  0.61632903  0.50141391  0.93976761  1
  Nd3+  Nd49  1  0.75806356  0.88493632  0.55273522  1
  Nd3+  Nd50  1  0.74029857  0.86883166  0.07279173  1
  Sm3+  Sm51  1  0.88325655  0.50942381  0.44074195  1
  Sm3+  Sm52  1  0.37807126  0.25772764  0.44493263  1
  Sm3+  Sm53  1  0.88624823  0.26064798  0.44271366  1
  Sm3+  Sm54  1  0.74158720  0.37346647  0.05596909  1
  Sm3+  Sm55  1  -0.00998860  0.62872966  0.04878383  1
  Sm3+  Sm56  1  0.36413066  0.49989388  0.93955542  1
  Sm3+  Sm57  1  0.24269656  0.12485064  0.05686985  1
  Sm3+  Sm58  1  0.86787755  0.24797748  0.94229843  1
  Sm3+  Sm59  1  0.75518040  0.38249463  0.54815585  1
  Sm3+  Sm60  1  0.38262572  0.00951755  0.45298169  1
  Sm3+  Sm61  1  0.75933529  0.63553568  0.55898300  1
  Sm3+  Sm62  1  0.13306460  0.51148492  0.44517876  1
  Sm3+  Sm63  1  0.74012685  0.63048280  0.05376394  1
  Bi2+  Bi64  1  -0.03529741  0.13923255  0.29436478  1
  Bi2+  Bi65  1  -0.02433042  0.14082549  0.79666297  1
  Bi2+  Bi66  1  -0.01656575  0.39274072  0.30259762  1
  Bi2+  Bi67  1  0.01305193  0.33373355  0.81948384  1
  Bi2+  Bi68  1  0.01754535  0.66301653  0.29777549  1
  Bi2+  Bi69  1  -0.07058790  0.61373020  0.77225587  1
  Bi2+  Bi70  1  -0.00947185  0.87790296  0.31656029  1
  Bi2+  Bi71  1  -0.03484771  0.85867476  0.78374533  1
  Bi2+  Bi72  1  0.30850863  0.14618179  0.27973649  1
  Bi2+  Bi73  1  0.22321198  0.16641109  0.77805790  1
  Bi2+  Bi74  1  0.33606867  0.36775946  0.28552156  1
  Bi2+  Bi75  1  0.19621702  0.35740793  0.77215506  1
  Bi2+  Bi76  1  0.23687100  0.65728343  0.30263622  1
  Bi2+  Bi77  1  0.28921880  0.60298592  0.80752123  1
  Bi2+  Bi78  1  0.24653445  0.90448422  0.29746468  1
  Bi2+  Bi79  1  0.24909174  0.88245176  0.80004449  1
  Bi2+  Bi80  1  0.49980888  0.11479553  0.29050530  1
  Bi2+  Bi81  1  0.48561116  0.13908109  0.80479048  1
  Bi2+  Bi82  1  0.52924092  0.31585884  0.31052100  1
  Bi2+  Bi83  1  0.55277511  0.39680013  0.76233437  1
  Bi2+  Bi84  1  0.49276233  0.50958280  0.28051276  1
  Bi2+  Bi85  1  0.53529298  0.59426446  0.79010175  1
  Bi2+  Bi86  1  0.49153052  0.85322701  0.29930676  1
  Bi2+  Bi87  1  0.56756128  0.84771337  0.75543484  1
  Bi2+  Bi88  1  0.71222956  0.16966129  0.26108687  1
  Bi2+  Bi89  1  0.72566834  0.09209140  0.78890924  1
  Bi2+  Bi90  1  0.72368293  0.36153816  0.28781656  1
  Bi2+  Bi91  1  0.82293244  0.34621897  0.78460846  1
  Bi2+  Bi92  1  0.76525089  0.54977095  0.26713417  1
  Bi2+  Bi93  1  0.73833032  0.60932780  0.79542000  1
  Bi2+  Bi94  1  0.73249844  0.83766969  0.28269602  1
  Bi2+  Bi95  1  0.72989961  0.80434008  0.81267151  1
  Bi2+  Bi96  1  0.13132985  0.00055439  0.20869197  1
  Bi2+  Bi97  1  0.08535586  -0.00855057  0.72305526  1
  Bi2+  Bi98  1  0.15405882  0.25737346  0.20974300  1
  Bi2+  Bi99  1  0.05561958  0.25839572  0.71007648  1
  Bi2+  Bi100  1  0.12730604  0.51440110  0.26192843  1
  Bi2+  Bi101  1  0.08617784  0.50980800  0.74140185  1
  Bi2+  Bi102  1  0.11263376  0.79941754  0.23420902  1
  Bi2+  Bi103  1  0.13875638  0.72600058  0.72005660  1
  Bi2+  Bi104  1  0.34189056  -0.01165557  0.21296790  1
  Bi2+  Bi105  1  0.35836073  -0.01048486  0.72344610  1
  Bi2+  Bi106  1  0.44046440  0.25430113  0.20814439  1
  Bi2+  Bi107  1  0.37409576  0.25921342  0.70134985  1
  Bi2+  Bi108  1  0.33972311  0.49789581  0.19773804  1
  Bi2+  Bi109  1  0.38040485  0.48972178  0.73278414  1
  Bi2+  Bi110  1  0.33137454  0.73095255  0.21166623  1
  Bi2+  Bi111  1  0.40308056  0.74956228  0.71359145  1
  Bi2+  Bi112  1  0.61442900  0.04237395  0.20523025  1
  Bi2+  Bi113  1  0.66809497  -0.01982486  0.70082695  1
  Bi2+  Bi114  1  0.62072521  0.25000151  0.15945574  1
  Bi2+  Bi115  1  0.66473890  0.25689768  0.71346025  1
  Bi2+  Bi116  1  0.62438933  0.44648481  0.19970373  1
  Bi2+  Bi117  1  0.65459333  0.52941999  0.69757695  1
  Bi2+  Bi118  1  0.60713902  0.70566505  0.21200918  1
  Bi2+  Bi119  1  0.61777207  0.72199074  0.66467457  1
  Bi2+  Bi120  1  0.87282571  -0.00452822  0.21476028  1
  Bi2+  Bi121  1  0.85985220  0.01133153  0.71669985  1
  Bi2+  Bi122  1  0.87538631  0.28718725  0.20307572  1
  Bi2+  Bi123  1  0.85889317  0.21132811  0.70175145  1
  Bi2+  Bi124  1  0.92981718  0.52351063  0.20559365  1
  Bi2+  Bi125  1  0.84990750  0.47295411  0.69738947  1
  Bi2+  Bi126  1  0.89277013  0.71530842  0.20806494  1
  Bi2+  Bi127  1  0.79952482  0.75015685  0.70513390  1
  S2-  S128  1  0.04034116  0.13639350  0.19240305  1
  S2-  S129  1  0.00596029  0.04452897  0.64233028  1
  S2-  S130  1  0.03206901  0.33551023  0.16624770  1
  S2-  S131  1  0.00489980  0.40981571  0.66262780  1
  S2-  S132  1  0.00741625  0.64394279  0.14658770  1
  S2-  S133  1  0.12213141  0.60377372  0.65101161  1
  S2-  S134  1  -0.00117998  0.95573412  0.14573768  1
  S2-  S135  1  0.02743097  0.81208089  0.67772840  1
  S2-  S136  1  0.23474637  0.11563131  0.15544510  1
  S2-  S137  1  0.24907263  0.17561632  0.66725861  1
  S2-  S138  1  0.25557990  0.36724799  0.15427267  1
  S2-  S139  1  0.28377812  0.40685606  0.66552640  1
  S2-  S140  1  0.24722316  0.62140417  0.15431111  1
  S2-  S141  1  0.27172191  0.74301742  0.65493141  1
  S2-  S142  1  0.30723413  0.85989717  0.14167881  1
  S2-  S143  1  0.21465452  0.96261786  0.66850769  1
  S2-  S144  1  0.46761238  0.03499364  0.14963464  1
  S2-  S145  1  0.45850182  0.10621344  0.69250632  1
  S2-  S146  1  0.48823273  0.49449042  0.13886218  1
  S2-  S147  1  0.51221117  0.29698654  0.64478475  1
  S2-  S148  1  0.47252614  0.70955323  0.15058417  1
  S2-  S149  1  0.46484339  0.63018000  0.64687737  1
  S2-  S150  1  0.56560621  0.86280047  0.19976512  1
  S2-  S151  1  0.42433506  0.88523762  0.64925088  1
  S2-  S152  1  0.84668896  0.13051203  0.15110082  1
  S2-  S153  1  0.66607846  0.12886983  0.64248829  1
  S2-  S154  1  0.83429292  0.39855928  0.13903109  1
  S2-  S155  1  0.72500429  0.38198005  0.64470599  1
  S2-  S156  1  0.74587542  0.67848781  0.14838244  1
  S2-  S157  1  0.86439573  0.62624644  0.64024274  1
  S2-  S158  1  0.77649437  0.89563979  0.17117650  1
  S2-  S159  1  0.83979129  0.88704276  0.64073186  1
  S2-  S160  1  0.04418066  0.02856437  0.35416736  1
  S2-  S161  1  0.09501169  -0.06827606  0.83605234  1
  S2-  S162  1  0.08905482  0.24004615  0.30941247  1
  S2-  S163  1  0.12287769  0.14479961  0.86005636  1
  S2-  S164  1  0.12731118  0.43124779  0.35801386  1
  S2-  S165  1  0.14333779  0.52350065  0.84200806  1
  S2-  S166  1  0.14100525  0.84934661  0.37028740  1
  S2-  S167  1  0.17606424  0.73706335  0.82517221  1
  S2-  S168  1  0.38323592  -0.06746827  0.36402569  1
  S2-  S169  1  0.36891846  0.00252678  0.83287953  1
  S2-  S170  1  0.28728962  0.25170353  0.36112188  1
  S2-  S171  1  0.35832692  0.23003063  0.83773128  1
  S2-  S172  1  0.35259896  0.51346824  0.34367498  1
  S2-  S173  1  0.38100400  0.47387795  0.84291047  1
  S2-  S174  1  0.38558331  0.73148623  0.33373809  1
  S2-  S175  1  0.36841180  0.76621376  0.82121180  1
  S2-  S176  1  0.62866271  -0.08737158  0.35052240  1
  S2-  S177  1  0.60457505  0.04138528  0.85328742  1
  S2-  S178  1  0.64007860  0.13365833  0.35638889  1
  S2-  S179  1  0.57636260  0.26202372  0.83514886  1
  S2-  S180  1  0.64220386  0.51595416  0.33930609  1
  S2-  S181  1  0.64161174  0.47881208  0.84266366  1
  S2-  S182  1  0.61287455  0.72850671  0.31965290  1
  S2-  S183  1  0.56763002  0.73654266  0.84566801  1
  S2-  S184  1  0.84870832  0.00622627  0.32166876  1
  S2-  S185  1  0.85111551  -0.09256090  0.85645087  1
  S2-  S186  1  0.88138703  0.26278098  0.34434935  1
  S2-  S187  1  0.84464552  0.14185468  0.86504477  1
  S2-  S188  1  0.89092455  0.52156060  0.34295962  1
  S2-  S189  1  0.90407534  0.47543932  0.84099539  1
  S2-  S190  1  0.84113268  0.77418971  0.34097195  1
  S2-  S191  1  0.97475455  0.73183943  0.84576923  1
  S2-  S192  1  0.01726844  0.14586589  0.45131960  1
  S2-  S193  1  -0.01078200  0.12709325  0.96281753  1
  S2-  S194  1  0.00696987  0.38534809  0.45551185  1
  S2-  S195  1  -0.01354021  0.37509187  0.95931882  1
  S2-  S196  1  0.00752749  0.63177214  0.45833299  1
  S2-  S197  1  -0.01171785  0.62488318  0.94605427  1
  S2-  S198  1  0.00466213  0.88389695  0.46394199  1
  S2-  S199  1  -0.00820250  0.88239139  0.95149440  1
  S2-  S200  1  0.25587351  0.12965933  0.45865807  1
  S2-  S201  1  0.24649622  0.12783758  0.95321050  1
  S2-  S202  1  0.25499261  0.38489739  0.46005129  1
  S2-  S203  1  0.23933103  0.37450119  0.94707464  1
  S2-  S204  1  0.25535377  0.63583214  0.45908762  1
  S2-  S205  1  0.23975932  0.62541410  0.94609119  1
  S2-  S206  1  0.26122575  0.88399113  0.47090113  1
  S2-  S207  1  0.24054333  0.87735472  0.94187755  1
  S2-  S208  1  0.49926029  0.13568136  0.45215703  1
  S2-  S209  1  0.48998544  0.12645993  0.95810102  1
  S2-  S210  1  0.50410820  0.38277923  0.44996666  1
  S2-  S211  1  0.49319646  0.37769746  0.95507483  1
  S2-  S212  1  0.50816474  0.63820695  0.44359281  1
  S2-  S213  1  0.48943423  0.62085509  0.95298586  1
  S2-  S214  1  0.50941931  0.88550212  0.45780647  1
  S2-  S215  1  0.48903793  0.87676538  0.94250733  1
  S2-  S216  1  0.76784078  0.13439680  0.44984204  1
  S2-  S217  1  0.73665035  0.12731059  0.96529536  1
  S2-  S218  1  0.75862397  0.38387524  0.44322823  1
  S2-  S219  1  0.74253689  0.37211877  0.94993986  1
  S2-  S220  1  0.75871511  0.63415533  0.44975028  1
  S2-  S221  1  0.74262246  0.62814392  0.94715090  1
  S2-  S222  1  0.76483393  0.88960586  0.44734612  1
  S2-  S223  1  0.73851601  0.87655352  0.96329982  1
  S2-  S224  1  0.12097414  0.00247402  0.04216102  1
  S2-  S225  1  0.13278275  0.00431039  0.54637996  1
  S2-  S226  1  0.11392510  0.24548644  0.05051864  1
  S2-  S227  1  0.13116972  0.25876525  0.55643538  1
  S2-  S228  1  0.11310511  0.50140211  0.04715597  1
  S2-  S229  1  0.13079179  0.50526021  0.54817166  1
  S2-  S230  1  0.11589747  0.75192191  0.03739520  1
  S2-  S231  1  0.12542939  0.75993789  0.55855692  1
  S2-  S232  1  0.36625768  0.00133609  0.04150228  1
  S2-  S233  1  0.39033910  0.01652011  0.55630253  1
  S2-  S234  1  0.36818324  0.25126220  0.04857885  1
  S2-  S235  1  0.38016499  0.25674521  0.54891157  1
  S2-  S236  1  0.36177658  0.49678242  0.04266028  1
  S2-  S237  1  0.38003325  0.50791930  0.54996972  1
  S2-  S238  1  0.36774635  0.75034817  0.03549678  1
  S2-  S239  1  0.38581039  0.75551404  0.54203214  1
  S2-  S240  1  0.61557186  -0.00504025  0.05898867  1
  S2-  S241  1  0.63062834  0.00685596  0.54203655  1
  S2-  S242  1  0.61631206  0.25260302  0.04173413  1
  S2-  S243  1  0.63273721  0.25881905  0.53557117  1
  S2-  S244  1  0.62406970  0.50069975  0.04549356  1
  S2-  S245  1  0.63541226  0.51051562  0.54424679  1
  S2-  S246  1  0.61098728  0.75206933  0.05013487  1
  S2-  S247  1  0.63886951  0.75833807  0.53401573  1
  S2-  S248  1  0.86056126  -0.00296927  0.04661668  1
  S2-  S249  1  0.88116444  0.01180348  0.53613484  1
  S2-  S250  1  0.86266923  0.24742032  0.04591566  1
  S2-  S251  1  0.88054673  0.25962900  0.54873642  1
  S2-  S252  1  0.86272272  0.51009918  0.04173339  1
  S2-  S253  1  0.87855021  0.50568855  0.54411046  1
  S2-  S254  1  0.86671525  0.75112407  0.04026072  1
  S2-  S255  1  0.88240941  0.75786838  0.54395947  1
