# generated using pymatgen
data_La6Ce6Pr19Nd20Sm13(BiS2)64
_symmetry_space_group_name_H-M   'P 1'
_cell_length_a   16.14385667
_cell_length_b   16.13058425
_cell_length_c   27.20007949
_cell_angle_alpha   89.87011339
_cell_angle_beta   90.18636046
_cell_angle_gamma   89.91599818
_symmetry_Int_Tables_number   1
_chemical_formula_structural   La6Ce6Pr19Nd20Sm13(BiS2)64
_chemical_formula_sum   'La6 Ce6 Pr19 Nd20 Sm13 Bi64 S128'
_cell_volume   7083.10499658
_cell_formula_units_Z   1
loop_
 _symmetry_equiv_pos_site_id
 _symmetry_equiv_pos_as_xyz
  1  'x, y, z'
loop_
 _atom_type_symbol
 _atom_type_oxidation_number
  La3+  3.0
  Ce3+  3.0
  Pr3+  3.0
  Nd3+  3.0
  Sm3+  3.0
  Bi2+  2.0
  S2-  -2.0
loop_
 _atom_site_type_symbol
 _atom_site_label
 _atom_site_symmetry_multiplicity
 _atom_site_fract_x
 _atom_site_fract_y
 _atom_site_fract_z
 _atom_site_occupancy
  La3+  La0  1  -0.00209328  0.36135055  0.08172542  1
  La3+  La1  1  0.61774952  -0.01456546  0.91458714  1
  La3+  La2  1  0.61185808  0.50141501  0.41788902  1
  La3+  La3  1  0.50039453  0.37693687  0.11377771  1
  La3+  La4  1  0.49233747  0.11799043  0.58708602  1
  La3+  La5  1  0.37101421  -0.00606976  0.44398210  1
  Ce3+  Ce6  1  0.73444683  0.36735572  0.55447802  1
  Ce3+  Ce7  1  0.86686311  0.49265487  0.43187628  1
  Ce3+  Ce8  1  0.87567818  0.48672497  0.93681826  1
  Ce3+  Ce9  1  0.11927342  0.49499831  0.44351502  1
  Ce3+  Ce10  1  0.00177476  0.11576357  0.06150151  1
  Ce3+  Ce11  1  0.24899389  0.36984496  0.56682293  1
  Pr3+  Pr12  1  0.74455079  0.61557483  0.55708258  1
  Pr3+  Pr13  1  0.60738582  0.23325158  0.42612100  1
  Pr3+  Pr14  1  0.11803113  -0.00708707  0.44282085  1
  Pr3+  Pr15  1  0.87406052  -0.00837460  0.93986744  1
  Pr3+  Pr16  1  0.75457776  0.86515447  0.06207123  1
  Pr3+  Pr17  1  0.36314359  0.24147359  0.43945670  1
  Pr3+  Pr18  1  0.62214439  0.23916316  0.93259456  1
  Pr3+  Pr19  1  0.87200899  0.74038345  0.93551513  1
  Pr3+  Pr20  1  0.50479091  0.11331563  0.06360294  1
  Pr3+  Pr21  1  0.12665109  0.73775266  0.93910733  1
  Pr3+  Pr22  1  0.50347477  0.61431320  0.06512098  1
  Pr3+  Pr23  1  0.25370736  0.35837450  0.06882406  1
  Pr3+  Pr24  1  0.74994128  0.87231502  0.56885529  1
  Pr3+  Pr25  1  0.24179541  0.11939761  0.57179002  1
  Pr3+  Pr26  1  0.25302643  0.61136055  0.05859852  1
  Pr3+  Pr27  1  0.12932930  -0.00777304  0.93275394  1
  Pr3+  Pr28  1  0.50390334  0.61735810  0.57193305  1
  Pr3+  Pr29  1  0.61611712  0.74984363  0.43535594  1
  Pr3+  Pr30  1  0.75100432  0.36273977  0.06897777  1
  Nd3+  Nd31  1  0.37802357  0.48846657  0.93840503  1
  Nd3+  Nd32  1  0.62534908  0.48720671  0.93925584  1
  Nd3+  Nd33  1  0.24508074  0.86919292  0.56761593  1
  Nd3+  Nd34  1  0.00203454  0.61298456  0.05515132  1
  Nd3+  Nd35  1  0.75136834  0.61175841  0.05694303  1
  Nd3+  Nd36  1  0.25020068  0.86960538  0.07160715  1
  Nd3+  Nd37  1  0.86431805  0.24618604  0.42783764  1
  Nd3+  Nd38  1  -0.00700930  0.61549455  0.55481883  1
  Nd3+  Nd39  1  0.74536034  0.12358598  0.55467744  1
  Nd3+  Nd40  1  0.61944168  0.74242047  0.93941347  1
  Nd3+  Nd41  1  -0.00551488  0.12186042  0.55374432  1
  Nd3+  Nd42  1  0.12499971  0.48551397  0.94231074  1
  Nd3+  Nd43  1  0.49070145  0.36965766  0.56356209  1
  Nd3+  Nd44  1  -0.00915181  0.36821192  0.55717445  1
  Nd3+  Nd45  1  0.25333476  0.11424143  0.06355264  1
  Nd3+  Nd46  1  0.36910398  0.49592137  0.44026970  1
  Nd3+  Nd47  1  0.50503905  0.86752740  0.57571489  1
  Nd3+  Nd48  1  0.37524762  0.74163909  0.94946349  1
  Nd3+  Nd49  1  -0.00799857  0.86784342  0.56328855  1
  Nd3+  Nd50  1  0.86803414  -0.00797158  0.43290356  1
  Sm3+  Sm51  1  0.61961610  -0.00650865  0.44756115  1
  Sm3+  Sm52  1  0.50539324  0.87048626  0.06664066  1
  Sm3+  Sm53  1  0.12639787  0.24136609  0.94273208  1
  Sm3+  Sm54  1  0.87523394  0.24037787  0.94208362  1
  Sm3+  Sm55  1  0.12037757  0.74481339  0.44902029  1
  Sm3+  Sm56  1  0.37763059  0.23995921  0.94411937  1
  Sm3+  Sm57  1  0.86830769  0.74435035  0.44179495  1
  Sm3+  Sm58  1  0.24485572  0.61860610  0.56132869  1
  Sm3+  Sm59  1  0.37257744  0.74544950  0.45693000  1
  Sm3+  Sm60  1  0.37217160  -0.01100885  0.93508811  1
  Sm3+  Sm61  1  0.00166202  0.86437502  0.04671179  1
  Sm3+  Sm62  1  0.12037180  0.24541320  0.43859473  1
  Sm3+  Sm63  1  0.74779683  0.11550575  0.05086723  1
  Bi2+  Bi64  1  0.02119906  0.12785135  0.28807608  1
  Bi2+  Bi65  1  0.04419224  0.13346241  0.79675442  1
  Bi2+  Bi66  1  0.03433887  0.40471434  0.29737504  1
  Bi2+  Bi67  1  -0.01944196  0.45619941  0.81070067  1
  Bi2+  Bi68  1  0.06325128  0.65542613  0.24220633  1
  Bi2+  Bi69  1  0.05895472  0.65298142  0.79572151  1
  Bi2+  Bi70  1  -0.02552362  0.81398717  0.28567149  1
  Bi2+  Bi71  1  0.03806807  0.93678252  0.77440832  1
  Bi2+  Bi72  1  0.22690189  0.10490097  0.29205724  1
  Bi2+  Bi73  1  0.24433342  0.11608948  0.78922611  1
  Bi2+  Bi74  1  0.24354623  0.36584204  0.29284841  1
  Bi2+  Bi75  1  0.19280132  0.38022260  0.77931820  1
  Bi2+  Bi76  1  0.23730567  0.66622796  0.29628597  1
  Bi2+  Bi77  1  0.24387348  0.69587543  0.73483722  1
  Bi2+  Bi78  1  0.23178178  0.86265745  0.28884709  1
  Bi2+  Bi79  1  0.22901130  0.88069219  0.77416475  1
  Bi2+  Bi80  1  0.48825937  0.10698061  0.29215674  1
  Bi2+  Bi81  1  0.52221820  0.14196352  0.79472122  1
  Bi2+  Bi82  1  0.54692765  0.36379665  0.31545930  1
  Bi2+  Bi83  1  0.49380905  0.37883782  0.81129724  1
  Bi2+  Bi84  1  0.46930100  0.65142383  0.29829937  1
  Bi2+  Bi85  1  0.47408564  0.62392986  0.80058073  1
  Bi2+  Bi86  1  0.50240583  0.88053357  0.29692391  1
  Bi2+  Bi87  1  0.49719294  0.87004517  0.79017351  1
  Bi2+  Bi88  1  0.76932422  0.04183348  0.28071116  1
  Bi2+  Bi89  1  0.80467401  0.12310929  0.78619973  1
  Bi2+  Bi90  1  0.80287867  0.35840191  0.29669180  1
  Bi2+  Bi91  1  0.78044702  0.41240920  0.74585919  1
  Bi2+  Bi92  1  0.71394249  0.71840213  0.28069734  1
  Bi2+  Bi93  1  0.76682442  0.63576667  0.78835444  1
  Bi2+  Bi94  1  0.68824682  0.88636027  0.33454321  1
  Bi2+  Bi95  1  0.77303597  0.85881802  0.79358349  1
  Bi2+  Bi96  1  0.10601093  0.01869287  0.20390193  1
  Bi2+  Bi97  1  0.12392568  0.09135112  0.69066958  1
  Bi2+  Bi98  1  0.11615254  0.27963886  0.21643285  1
  Bi2+  Bi99  1  0.16228323  0.28439218  0.67862647  1
  Bi2+  Bi100  1  0.11221327  0.47150170  0.19369420  1
  Bi2+  Bi101  1  0.07672984  0.49019322  0.70957285  1
  Bi2+  Bi102  1  0.13310306  0.82229518  0.18888621  1
  Bi2+  Bi103  1  0.04994361  0.77870718  0.70655141  1
  Bi2+  Bi104  1  0.37376494  -0.02531939  0.21212041  1
  Bi2+  Bi105  1  0.35184824  0.00550734  0.71714390  1
  Bi2+  Bi106  1  0.35839476  0.25219092  0.20806093  1
  Bi2+  Bi107  1  0.33838071  0.26204779  0.72595507  1
  Bi2+  Bi108  1  0.30089755  0.51802088  0.23059335  1
  Bi2+  Bi109  1  0.33637965  0.48168744  0.71521486  1
  Bi2+  Bi110  1  0.33226490  0.78277185  0.19568585  1
  Bi2+  Bi111  1  0.43108513  0.74563940  0.70979149  1
  Bi2+  Bi112  1  0.61812345  -0.02817456  0.21690824  1
  Bi2+  Bi113  1  0.62902776  -0.00273513  0.70307164  1
  Bi2+  Bi114  1  0.62784305  0.23464182  0.21117971  1
  Bi2+  Bi115  1  0.69095778  0.24824146  0.69560011  1
  Bi2+  Bi116  1  0.63535829  0.51306093  0.21679320  1
  Bi2+  Bi117  1  0.59957814  0.49421772  0.70688845  1
  Bi2+  Bi118  1  0.52680491  0.75461476  0.20695164  1
  Bi2+  Bi119  1  0.62853925  0.73071765  0.72410327  1
  Bi2+  Bi120  1  0.91019114  -0.02201490  0.20317968  1
  Bi2+  Bi121  1  0.89233256  0.01678743  0.70835309  1
  Bi2+  Bi122  1  0.86758673  0.17136974  0.21020343  1
  Bi2+  Bi123  1  0.93717933  0.28969840  0.75369413  1
  Bi2+  Bi124  1  0.86991094  0.51926159  0.20814728  1
  Bi2+  Bi125  1  0.85014255  0.56696768  0.68882778  1
  Bi2+  Bi126  1  0.83318621  0.79248361  0.20509252  1
  Bi2+  Bi127  1  0.84742472  0.75855336  0.70501188  1
  S2-  S128  1  -0.00031250  0.21395890  0.14318538  1
  S2-  S129  1  -0.03219326  0.13432825  0.65163121  1
  S2-  S130  1  -0.12934869  0.39244204  0.14990554  1
  S2-  S131  1  0.00988084  0.36370171  0.65664306  1
  S2-  S132  1  -0.02648998  0.60357264  0.15339332  1
  S2-  S133  1  0.00715559  0.62570895  0.65356320  1
  S2-  S134  1  -0.02974519  0.84177871  0.14135276  1
  S2-  S135  1  -0.11863470  0.89083663  0.63860147  1
  S2-  S136  1  0.24056278  0.22349327  0.14326798  1
  S2-  S137  1  0.34863927  0.13658592  0.65166964  1
  S2-  S138  1  0.33846515  0.39793580  0.15477844  1
  S2-  S139  1  0.36672568  0.36646042  0.64125405  1
  S2-  S140  1  0.21915808  0.60115623  0.15605025  1
  S2-  S141  1  0.23012647  0.58377336  0.65773698  1
  S2-  S142  1  0.25105243  0.99876314  0.14112445  1
  S2-  S143  1  0.24205597  0.90047345  0.66527485  1
  S2-  S144  1  0.49858468  0.20535329  0.15079508  1
  S2-  S145  1  0.55479823  0.15793279  0.68756398  1
  S2-  S146  1  0.49756299  0.35472345  0.22610894  1
  S2-  S147  1  0.59593807  0.36818386  0.64431997  1
  S2-  S148  1  0.51132631  0.54368373  0.15726254  1
  S2-  S149  1  0.45445397  0.55448714  0.66581784  1
  S2-  S150  1  0.49747738  0.98642133  0.13975247  1
  S2-  S151  1  0.48522243  0.97356781  0.65411012  1
  S2-  S152  1  0.73332837  0.13967218  0.14870636  1
  S2-  S153  1  0.74731454  0.09327526  0.65373464  1
  S2-  S154  1  0.66264997  0.36966820  0.15813518  1
  S2-  S155  1  0.80047701  0.34983417  0.64430803  1
  S2-  S156  1  0.74117286  0.59869263  0.15741726  1
  S2-  S157  1  0.64552728  0.61525768  0.64054431  1
  S2-  S158  1  0.69383538  0.86038939  0.15593775  1
  S2-  S159  1  0.64443000  0.86011431  0.64967494  1
  S2-  S160  1  0.14329918  -0.01223702  0.34333251  1
  S2-  S161  1  0.25037333  -0.01544550  0.86114677  1
  S2-  S162  1  0.23137340  0.23676368  0.36386201  1
  S2-  S163  1  0.15204205  0.24418178  0.84534056  1
  S2-  S164  1  0.15883501  0.49476136  0.34906198  1
  S2-  S165  1  0.14292628  0.51374543  0.84477877  1
  S2-  S166  1  0.11643062  0.75959545  0.35180614  1
  S2-  S167  1  0.17185887  0.75086740  0.84302169  1
  S2-  S168  1  0.35994925  0.03991222  0.34658685  1
  S2-  S169  1  0.46939881  0.00119317  0.85230339  1
  S2-  S170  1  0.46427703  0.24045803  0.35680012  1
  S2-  S171  1  0.40316605  0.24223365  0.84525099  1
  S2-  S172  1  0.45368678  0.50388538  0.35313644  1
  S2-  S173  1  0.37219036  0.50364281  0.83776759  1
  S2-  S174  1  0.41062291  0.77520308  0.36312833  1
  S2-  S175  1  0.41367480  0.75544475  0.85328257  1
  S2-  S176  1  0.59236580  0.07249570  0.36215825  1
  S2-  S177  1  0.65582496  0.06575534  0.82320684  1
  S2-  S178  1  0.69908530  0.25666778  0.33512381  1
  S2-  S179  1  0.61621476  0.27642850  0.83116955  1
  S2-  S180  1  0.68839439  0.47060800  0.31951191  1
  S2-  S181  1  0.58882119  0.51155163  0.84155029  1
  S2-  S182  1  0.61107875  0.64924050  0.35358456  1
  S2-  S183  1  0.62989520  0.83602530  0.85547035  1
  S2-  S184  1  0.91029790  0.01312473  0.33796902  1
  S2-  S185  1  0.85690582  -0.02334384  0.84058518  1
  S2-  S186  1  0.94106791  0.25877477  0.33784910  1
  S2-  S187  1  0.86257771  0.24730768  0.84371381  1
  S2-  S188  1  0.90123180  0.49567341  0.33399476  1
  S2-  S189  1  0.81552549  0.48744917  0.84535620  1
  S2-  S190  1  0.86107800  0.73631458  0.34347954  1
  S2-  S191  1  0.88488779  0.73826543  0.83579450  1
  S2-  S192  1  -0.00489208  0.12201495  0.44756796  1
  S2-  S193  1  0.00200561  0.11713412  0.95086676  1
  S2-  S194  1  -0.00408303  0.36858851  0.45003338  1
  S2-  S195  1  0.00034122  0.36147311  0.95407607  1
  S2-  S196  1  -0.00588823  0.62231735  0.44834499  1
  S2-  S197  1  0.00029845  0.61326698  0.94855399  1
  S2-  S198  1  -0.00714466  0.86648982  0.45594253  1
  S2-  S199  1  0.00233154  0.86589695  0.94152961  1
  S2-  S200  1  0.23900600  0.11557763  0.46408964  1
  S2-  S201  1  0.25129786  0.11979663  0.95602348  1
  S2-  S202  1  0.24386919  0.37355983  0.45981714  1
  S2-  S203  1  0.25211937  0.36354503  0.95418670  1
  S2-  S204  1  0.24627206  0.62424844  0.45587488  1
  S2-  S205  1  0.25209425  0.61290334  0.95208781  1
  S2-  S206  1  0.24372790  0.86623221  0.45967273  1
  S2-  S207  1  0.24931786  0.86256101  0.96301202  1
  S2-  S208  1  0.49254779  0.11495781  0.46764618  1
  S2-  S209  1  0.49839012  0.11455214  0.95444800  1
  S2-  S210  1  0.49199392  0.37048414  0.45646317  1
  S2-  S211  1  0.49952319  0.36531502  0.94704444  1
  S2-  S212  1  0.49200853  0.62375272  0.46314482  1
  S2-  S213  1  0.50049469  0.61517343  0.95693003  1
  S2-  S214  1  0.49642337  0.87156709  0.46592826  1
  S2-  S215  1  0.49742479  0.86618109  0.96156710  1
  S2-  S216  1  0.74741535  0.11701500  0.44774888  1
  S2-  S217  1  0.74975606  0.11550696  0.94595054  1
  S2-  S218  1  0.74108222  0.36924847  0.44575737  1
  S2-  S219  1  0.75013048  0.36229184  0.95350213  1
  S2-  S220  1  0.74685993  0.62122609  0.44956589  1
  S2-  S221  1  0.74590358  0.61710886  0.95008896  1
  S2-  S222  1  0.74763640  0.86972843  0.45960539  1
  S2-  S223  1  0.75024542  0.86610556  0.95446620  1
  S2-  S224  1  0.12201110  -0.01110178  0.04063328  1
  S2-  S225  1  0.11632726  -0.00851671  0.55110629  1
  S2-  S226  1  0.12355542  0.24074523  0.04400194  1
  S2-  S227  1  0.11942975  0.24620358  0.54348829  1
  S2-  S228  1  0.12475625  0.48457854  0.04893234  1
  S2-  S229  1  0.12016202  0.49374411  0.54996236  1
  S2-  S230  1  0.12619778  0.73993485  0.04732901  1
  S2-  S231  1  0.11880478  0.74294651  0.55439695  1
  S2-  S232  1  0.37559549  -0.01327901  0.04006745  1
  S2-  S233  1  0.36687911  -0.00988273  0.55183693  1
  S2-  S234  1  0.37901077  0.23896719  0.04649535  1
  S2-  S235  1  0.36795334  0.24132398  0.54558371  1
  S2-  S236  1  0.37984911  0.48879763  0.04575132  1
  S2-  S237  1  0.36886582  0.50158418  0.54563267  1
  S2-  S238  1  0.37769640  0.74382007  0.05577981  1
  S2-  S239  1  0.37053122  0.74384536  0.56209470  1
  S2-  S240  1  0.63075058  -0.01208716  0.04029834  1
  S2-  S241  1  0.62290113  -0.00237906  0.55027901  1
  S2-  S242  1  0.62897612  0.23912345  0.04092269  1
  S2-  S243  1  0.61594419  0.23956988  0.54192990  1
  S2-  S244  1  0.62624015  0.48845179  0.04616916  1
  S2-  S245  1  0.61813755  0.49384407  0.53495514  1
  S2-  S246  1  0.62597039  0.74107356  0.04726891  1
  S2-  S247  1  0.62375086  0.74599141  0.54270625  1
  S2-  S248  1  0.87718701  -0.00851084  0.04701928  1
  S2-  S249  1  0.87192374  -0.00030745  0.53907638  1
  S2-  S250  1  0.87343360  0.23723010  0.04484173  1
  S2-  S251  1  0.87028457  0.24490278  0.53615579  1
  S2-  S252  1  0.87697999  0.48972473  0.04223135  1
  S2-  S253  1  0.86920166  0.49175390  0.54011972  1
  S2-  S254  1  0.87676530  0.73752987  0.04242679  1
  S2-  S255  1  0.87084095  0.74078251  0.54687358  1
