# generated using pymatgen
data_La6Ce6Pr19Nd20Sm13(BiS2)64
_symmetry_space_group_name_H-M   'P 1'
_cell_length_a   16.08217648
_cell_length_b   16.08291286
_cell_length_c   27.36525081
_cell_angle_alpha   90.08675216
_cell_angle_beta   90.00776464
_cell_angle_gamma   90.02530086
_symmetry_Int_Tables_number   1
_chemical_formula_structural   La6Ce6Pr19Nd20Sm13(BiS2)64
_chemical_formula_sum   'La6 Ce6 Pr19 Nd20 Sm13 Bi64 S128'
_cell_volume   7077.96516606
_cell_formula_units_Z   1
loop_
 _symmetry_equiv_pos_site_id
 _symmetry_equiv_pos_as_xyz
  1  'x, y, z'
loop_
 _atom_type_symbol
 _atom_type_oxidation_number
  La3+  3.0
  Ce3+  3.0
  Pr3+  3.0
  Nd3+  3.0
  Sm3+  3.0
  Bi2+  2.0
  S2-  -2.0
loop_
 _atom_site_type_symbol
 _atom_site_label
 _atom_site_symmetry_multiplicity
 _atom_site_fract_x
 _atom_site_fract_y
 _atom_site_fract_z
 _atom_site_occupancy
  La3+  La0  1  -0.00089689  0.61281439  0.09600181  1
  La3+  La1  1  0.36868147  -0.00992473  0.39260188  1
  La3+  La2  1  0.12335491  0.49672720  0.43039015  1
  La3+  La3  1  0.00277200  0.87806512  0.56789475  1
  La3+  La4  1  0.50246066  0.37522683  0.09247074  1
  La3+  La5  1  0.25546620  0.35444665  0.61275241  1
  Ce3+  Ce6  1  0.37540019  0.48676670  0.94232258  1
  Ce3+  Ce7  1  0.37098900  0.75538314  0.44644794  1
  Ce3+  Ce8  1  0.38113711  0.25580907  0.41530967  1
  Ce3+  Ce9  1  0.61983900  0.24937290  0.44084725  1
  Ce3+  Ce10  1  0.24556668  0.87598104  0.57189383  1
  Ce3+  Ce11  1  0.62122181  0.24028633  0.95717920  1
  Pr3+  Pr12  1  0.75243146  0.88071225  0.57068378  1
  Pr3+  Pr13  1  0.61563054  -0.01027932  0.92204005  1
  Pr3+  Pr14  1  0.87294159  0.75648126  0.43150362  1
  Pr3+  Pr15  1  0.49439869  0.87815041  0.56124476  1
  Pr3+  Pr16  1  0.86228324  -0.00506960  0.92680726  1
  Pr3+  Pr17  1  0.75040671  0.37914132  0.56099688  1
  Pr3+  Pr18  1  -0.00418499  0.36464093  0.06584917  1
  Pr3+  Pr19  1  0.13134595  0.23922070  0.94053649  1
  Pr3+  Pr20  1  0.24865941  0.11499074  0.06958879  1
  Pr3+  Pr21  1  0.50103193  0.10833153  0.07672396  1
  Pr3+  Pr22  1  0.12174556  0.48660930  0.93400467  1
  Pr3+  Pr23  1  0.86981869  0.24201044  0.94246580  1
  Pr3+  Pr24  1  0.24397592  0.38248268  0.08044603  1
  Pr3+  Pr25  1  0.74943307  0.12605151  0.56263833  1
  Pr3+  Pr26  1  -0.00263089  0.38142706  0.56288124  1
  Pr3+  Pr27  1  0.36910265  0.50120628  0.42839128  1
  Pr3+  Pr28  1  0.74856688  0.36481770  0.07265131  1
  Pr3+  Pr29  1  0.50211656  0.86371030  0.06286962  1
  Pr3+  Pr30  1  0.12438905  0.00505465  0.44384270  1
  Nd3+  Nd31  1  0.87207924  0.00132940  0.43202416  1
  Nd3+  Nd32  1  0.37297078  0.74210790  0.94358087  1
  Nd3+  Nd33  1  0.37263635  -0.00619697  0.94225662  1
  Nd3+  Nd34  1  0.49145239  0.13098468  0.55689769  1
  Nd3+  Nd35  1  0.12006244  0.74074931  0.94115817  1
  Nd3+  Nd36  1  -0.00001001  0.11578557  0.05238638  1
  Nd3+  Nd37  1  0.74771175  0.62145239  0.06768859  1
  Nd3+  Nd38  1  0.62107874  0.75677858  0.43916005  1
  Nd3+  Nd39  1  0.87577181  0.50611583  0.41681347  1
  Nd3+  Nd40  1  0.11456477  -0.01269649  0.92472564  1
  Nd3+  Nd41  1  0.37787220  0.24363906  0.95721719  1
  Nd3+  Nd42  1  0.62154920  0.73173480  0.92443338  1
  Nd3+  Nd43  1  0.50001825  0.61810248  0.06132950  1
  Nd3+  Nd44  1  -0.00401050  0.13306439  0.56850193  1
  Nd3+  Nd45  1  0.12755298  0.75622510  0.44054680  1
  Nd3+  Nd46  1  -0.00261878  0.62524696  0.55338103  1
  Nd3+  Nd47  1  0.24445916  0.86433174  0.05594957  1
  Nd3+  Nd48  1  0.87455523  0.73769896  0.94161312  1
  Nd3+  Nd49  1  0.75047176  0.10045141  0.07100587  1
  Nd3+  Nd50  1  -0.00167954  0.86886935  0.06068368  1
  Sm3+  Sm51  1  0.62322305  0.50151172  0.44319535  1
  Sm3+  Sm52  1  0.49410339  0.37882721  0.55734164  1
  Sm3+  Sm53  1  0.25121846  0.13048951  0.55041412  1
  Sm3+  Sm54  1  0.61826938  0.00418033  0.43923998  1
  Sm3+  Sm55  1  0.87597939  0.49089979  0.95057977  1
  Sm3+  Sm56  1  0.49812289  0.62727735  0.55277041  1
  Sm3+  Sm57  1  0.87339161  0.25476753  0.43314748  1
  Sm3+  Sm58  1  0.12693412  0.25131451  0.44142887  1
  Sm3+  Sm59  1  0.74837269  0.86359813  0.04977130  1
  Sm3+  Sm60  1  0.24572655  0.61545230  0.04857186  1
  Sm3+  Sm61  1  0.24777760  0.61409794  0.56166526  1
  Sm3+  Sm62  1  0.62410869  0.49156099  0.94460069  1
  Sm3+  Sm63  1  0.74933888  0.62952391  0.54986180  1
  Bi2+  Bi64  1  -0.02805902  0.07658458  0.30900362  1
  Bi2+  Bi65  1  0.02845945  0.11668150  0.80439371  1
  Bi2+  Bi66  1  -0.02292708  0.38841072  0.28331009  1
  Bi2+  Bi67  1  -0.00858543  0.37305038  0.80618612  1
  Bi2+  Bi68  1  0.00455724  0.65487860  0.29193422  1
  Bi2+  Bi69  1  -0.06924373  0.61393155  0.78869528  1
  Bi2+  Bi70  1  -0.07808165  0.90380033  0.25615363  1
  Bi2+  Bi71  1  0.00023192  0.84598283  0.78564496  1
  Bi2+  Bi72  1  0.19700186  0.09386643  0.28319323  1
  Bi2+  Bi73  1  0.35344668  0.11662388  0.79640585  1
  Bi2+  Bi74  1  0.22695989  0.37083577  0.31000524  1
  Bi2+  Bi75  1  0.24530592  0.37610689  0.81866278  1
  Bi2+  Bi76  1  0.27299236  0.64563607  0.28358847  1
  Bi2+  Bi77  1  0.24238268  0.64390226  0.72480205  1
  Bi2+  Bi78  1  0.24528812  0.84520198  0.29067190  1
  Bi2+  Bi79  1  0.26347723  0.84351853  0.79058302  1
  Bi2+  Bi80  1  0.60174216  0.11008126  0.29379761  1
  Bi2+  Bi81  1  0.57709959  0.10654163  0.79763182  1
  Bi2+  Bi82  1  0.52225008  0.37048825  0.28878043  1
  Bi2+  Bi83  1  0.49589619  0.35338733  0.80237953  1
  Bi2+  Bi84  1  0.51658960  0.63858522  0.28659874  1
  Bi2+  Bi85  1  0.51325475  0.64932967  0.78396282  1
  Bi2+  Bi86  1  0.54122424  0.82511866  0.25228362  1
  Bi2+  Bi87  1  0.48598339  0.86279049  0.79408888  1
  Bi2+  Bi88  1  0.79394466  0.17052657  0.31623576  1
  Bi2+  Bi89  1  0.77179604  0.16070287  0.78273035  1
  Bi2+  Bi90  1  0.73296827  0.45120623  0.29985688  1
  Bi2+  Bi91  1  0.69056664  0.37051489  0.79046381  1
  Bi2+  Bi92  1  0.74233203  0.67416948  0.27826211  1
  Bi2+  Bi93  1  0.70970085  0.64726966  0.77987558  1
  Bi2+  Bi94  1  0.74954959  0.97439858  0.31498687  1
  Bi2+  Bi95  1  0.71861991  0.84627602  0.76322812  1
  Bi2+  Bi96  1  0.11888270  -0.01521368  0.19308996  1
  Bi2+  Bi97  1  0.13245166  -0.03488198  0.72808107  1
  Bi2+  Bi98  1  0.03010491  0.21867063  0.23355495  1
  Bi2+  Bi99  1  0.14206713  0.21986913  0.71183266  1
  Bi2+  Bi100  1  0.13889049  0.49378917  0.21295799  1
  Bi2+  Bi101  1  0.10579157  0.49477409  0.70880259  1
  Bi2+  Bi102  1  0.19610249  0.74833525  0.19482888  1
  Bi2+  Bi103  1  0.06728006  0.71925997  0.70246188  1
  Bi2+  Bi104  1  0.38814553  0.00483369  0.19779365  1
  Bi2+  Bi105  1  0.33093315  -0.01473509  0.71544477  1
  Bi2+  Bi106  1  0.34538151  0.23278353  0.22376350  1
  Bi2+  Bi107  1  0.41451000  0.22916248  0.70977011  1
  Bi2+  Bi108  1  0.35866517  0.49136609  0.21090886  1
  Bi2+  Bi109  1  0.48158703  0.48950463  0.72022387  1
  Bi2+  Bi110  1  0.39782495  0.72618959  0.20340824  1
  Bi2+  Bi111  1  0.34267832  0.79602648  0.68805269  1
  Bi2+  Bi112  1  0.66020746  -0.01747688  0.21051648  1
  Bi2+  Bi113  1  0.60983784  -0.01492344  0.71333216  1
  Bi2+  Bi114  1  0.70103582  0.28812043  0.23063287  1
  Bi2+  Bi115  1  0.64688121  0.23767395  0.70427470  1
  Bi2+  Bi116  1  0.62835964  0.55741551  0.20243445  1
  Bi2+  Bi117  1  0.65467449  0.42720449  0.68038026  1
  Bi2+  Bi118  1  0.61110217  0.73787607  0.15109567  1
  Bi2+  Bi119  1  0.61034704  0.72210450  0.68625933  1
  Bi2+  Bi120  1  0.86698919  0.10729812  0.20537781  1
  Bi2+  Bi121  1  0.88340405  0.02800990  0.69226992  1
  Bi2+  Bi122  1  0.88106695  0.32132419  0.18094362  1
  Bi2+  Bi123  1  0.90347795  0.28477796  0.71321337  1
  Bi2+  Bi124  1  0.84180063  0.51143977  0.21548145  1
  Bi2+  Bi125  1  0.83632727  0.46857454  0.72984191  1
  Bi2+  Bi126  1  0.78822540  0.79931913  0.19477684  1
  Bi2+  Bi127  1  0.86032406  0.74212441  0.70593796  1
  S2-  S128  1  0.02332826  0.10376966  0.14995768  1
  S2-  S129  1  0.04665364  0.08542397  0.66541289  1
  S2-  S130  1  0.02629150  0.45867911  0.14864787  1
  S2-  S131  1  0.08685563  0.35054039  0.65063248  1
  S2-  S132  1  0.05434259  0.66298931  0.18990532  1
  S2-  S133  1  0.00792980  0.57693831  0.65029112  1
  S2-  S134  1  0.00690908  0.87934945  0.16053635  1
  S2-  S135  1  -0.11393770  0.88212357  0.64222989  1
  S2-  S136  1  0.24580780  0.11761539  0.17056150  1
  S2-  S137  1  0.26033665  0.18204259  0.64496933  1
  S2-  S138  1  0.23006751  0.34895287  0.18209057  1
  S2-  S139  1  0.25219307  0.34207496  0.72472001  1
  S2-  S140  1  0.24146173  0.54523697  0.13698182  1
  S2-  S141  1  0.24657891  0.52545743  0.64651919  1
  S2-  S142  1  0.26437012  0.90150826  0.15171223  1
  S2-  S143  1  0.12555848  0.86893922  0.64505746  1
  S2-  S144  1  0.46199891  0.15412970  0.17587194  1
  S2-  S145  1  0.51491303  0.13188718  0.65663042  1
  S2-  S146  1  0.44771628  0.35162886  0.19274061  1
  S2-  S147  1  0.42420191  0.36706803  0.64702603  1
  S2-  S148  1  0.47610345  0.53155697  0.14680974  1
  S2-  S149  1  0.48754720  0.62029422  0.65020764  1
  S2-  S150  1  0.52617274  0.96923288  0.14151623  1
  S2-  S151  1  0.51542416  0.86782395  0.66057349  1
  S2-  S152  1  0.70966347  0.14632001  0.16517042  1
  S2-  S153  1  0.86645049  0.16636346  0.63917975  1
  S2-  S154  1  0.64951682  0.38966390  0.15388994  1
  S2-  S155  1  0.86897067  0.39131788  0.63622631  1
  S2-  S156  1  0.84772047  0.63733486  0.14986937  1
  S2-  S157  1  0.75719679  0.64398962  0.64711552  1
  S2-  S158  1  0.77497391  0.94710520  0.13418145  1
  S2-  S159  1  0.73200572  1.00940472  0.64226515  1
  S2-  S160  1  0.19384011  -0.02810228  0.35396759  1
  S2-  S161  1  0.16876407  0.05462005  0.83858407  1
  S2-  S162  1  0.09445037  0.30410349  0.34866970  1
  S2-  S163  1  0.10991777  0.26560354  0.84141362  1
  S2-  S164  1  0.23831098  0.53138974  0.35328939  1
  S2-  S165  1  0.11685285  0.49245197  0.83270991  1
  S2-  S166  1  0.09820376  0.75426822  0.34114457  1
  S2-  S167  1  0.12741005  0.78513685  0.84540474  1
  S2-  S168  1  0.35762206  0.03430112  0.28889204  1
  S2-  S169  1  0.46284908  0.00478278  0.85754710  1
  S2-  S170  1  0.29168533  0.21712413  0.32953222  1
  S2-  S171  1  0.32002226  0.23628074  0.86315744  1
  S2-  S172  1  0.39272801  0.39873605  0.34440648  1
  S2-  S173  1  0.38122136  0.47140179  0.84494359  1
  S2-  S174  1  0.36636815  0.82189696  0.35638937  1
  S2-  S175  1  0.39748614  0.73837679  0.84607883  1
  S2-  S176  1  0.53740345  -0.00645627  0.35241964  1
  S2-  S177  1  0.74287568  0.03933947  0.85460475  1
  S2-  S178  1  0.53341940  0.24223804  0.35392985  1
  S2-  S179  1  0.56442514  0.23568972  0.86472184  1
  S2-  S180  1  0.58825233  0.50436632  0.34723814  1
  S2-  S181  1  0.62312486  0.58851531  0.86208700  1
  S2-  S182  1  0.62125625  0.75942944  0.33984649  1
  S2-  S183  1  0.61908329  0.85034399  0.85083612  1
  S2-  S184  1  0.87966372  -0.11994783  0.35795645  1
  S2-  S185  1  0.97424053  -0.01668493  0.84924272  1
  S2-  S186  1  0.85938703  0.36272649  0.35610795  1
  S2-  S187  1  0.89877444  0.23274643  0.84346806  1
  S2-  S188  1  1.01425897  0.51620388  0.34842510  1
  S2-  S189  1  0.87692465  0.48041904  0.85325641  1
  S2-  S190  1  0.86099574  0.64846154  0.34952282  1
  S2-  S191  1  0.88256319  0.74971730  0.84283611  1
  S2-  S192  1  -0.00409719  0.12977366  0.45180384  1
  S2-  S193  1  -0.00070764  0.11866223  0.94876801  1
  S2-  S194  1  -0.00280081  0.37225817  0.45533824  1
  S2-  S195  1  -0.00174009  0.36277122  0.95865565  1
  S2-  S196  1  0.00043473  0.63362838  0.45055152  1
  S2-  S197  1  -0.00123096  0.61411298  0.94709265  1
  S2-  S198  1  0.00242724  0.87883118  0.45859299  1
  S2-  S199  1  -0.00402860  0.86474709  0.95390342  1
  S2-  S200  1  0.25404094  0.12603103  0.44673247  1
  S2-  S201  1  0.24909852  0.11364349  0.96193532  1
  S2-  S202  1  0.25035001  0.36922877  0.44466844  1
  S2-  S203  1  0.24820698  0.36782320  0.96543623  1
  S2-  S204  1  0.24914495  0.63061214  0.45717557  1
  S2-  S205  1  0.24729052  0.61580244  0.94409153  1
  S2-  S206  1  0.25092050  0.88165323  0.46439837  1
  S2-  S207  1  0.24647025  0.86778593  0.94999000  1
  S2-  S208  1  0.49063461  0.12264177  0.45278201  1
  S2-  S209  1  0.49593705  0.11554920  0.96798152  1
  S2-  S210  1  0.50055203  0.37941372  0.45483405  1
  S2-  S211  1  0.50146476  0.36997712  0.96666438  1
  S2-  S212  1  0.49787524  0.62814532  0.44802658  1
  S2-  S213  1  0.49548327  0.61453885  0.95672841  1
  S2-  S214  1  0.49524853  0.88031845  0.45629461  1
  S2-  S215  1  0.49526992  0.86365688  0.95655661  1
  S2-  S216  1  0.74616021  0.12610095  0.45199458  1
  S2-  S217  1  0.74565071  0.11973503  0.96366284  1
  S2-  S218  1  0.74166239  0.37665745  0.45402610  1
  S2-  S219  1  0.74758564  0.36953498  0.96045965  1
  S2-  S220  1  0.74227273  0.62771536  0.44681661  1
  S2-  S221  1  0.75227211  0.61282298  0.95882912  1
  S2-  S222  1  0.74325170  0.88135987  0.45927103  1
  S2-  S223  1  0.74837323  0.86068106  0.94742709  1
  S2-  S224  1  0.12392783  -0.00903181  0.03967608  1
  S2-  S225  1  0.12441734  0.01111956  0.54873460  1
  S2-  S226  1  0.12583392  0.24403074  0.05284529  1
  S2-  S227  1  0.12425817  0.25013871  0.54439487  1
  S2-  S228  1  0.11683950  0.49651611  0.04055570  1
  S2-  S229  1  0.12158637  0.50204623  0.53900720  1
  S2-  S230  1  0.11910420  0.73660544  0.04833054  1
  S2-  S231  1  0.12789042  0.74419994  0.54663513  1
  S2-  S232  1  0.37137868  -0.01173784  0.04722507  1
  S2-  S233  1  0.36914239  0.00385817  0.56224576  1
  S2-  S234  1  0.37065869  0.24859309  0.06334986  1
  S2-  S235  1  0.37132587  0.25701462  0.54139503  1
  S2-  S236  1  0.37325204  0.49300051  0.04535760  1
  S2-  S237  1  0.37807990  0.50428955  0.53876735  1
  S2-  S238  1  0.37026184  0.73924265  0.04998093  1
  S2-  S239  1  0.37018112  0.74710964  0.55144417  1
  S2-  S240  1  0.62683796  -0.01352957  0.03581880  1
  S2-  S241  1  0.61721873  0.00426943  0.54291656  1
  S2-  S242  1  0.62209460  0.23822531  0.06062419  1
  S2-  S243  1  0.62148300  0.25410686  0.54804505  1
  S2-  S244  1  0.62711196  0.49580287  0.04751097  1
  S2-  S245  1  0.62231753  0.50501878  0.54699931  1
  S2-  S246  1  0.62631339  0.74062380  0.03277900  1
  S2-  S247  1  0.62397020  0.75396297  0.54542640  1
  S2-  S248  1  0.87853072  -0.00997486  0.03465804  1
  S2-  S249  1  0.87710288  0.00588537  0.53797314  1
  S2-  S250  1  0.87019312  0.23608703  0.04998069  1
  S2-  S251  1  0.87169261  0.25410416  0.53462186  1
  S2-  S252  1  0.87145494  0.49317299  0.05371430  1
  S2-  S253  1  0.86941923  0.50789151  0.53185347  1
  S2-  S254  1  0.87770175  0.74234924  0.04690752  1
  S2-  S255  1  0.87265022  0.75163575  0.54024457  1
