# generated using pymatgen
data_La6Ce6Pr19Nd20Sm13(BiS2)64
_symmetry_space_group_name_H-M   'P 1'
_cell_length_a   16.19501125
_cell_length_b   16.16626700
_cell_length_c   27.32239616
_cell_angle_alpha   89.89688582
_cell_angle_beta   89.99875467
_cell_angle_gamma   90.04744635
_symmetry_Int_Tables_number   1
_chemical_formula_structural   La6Ce6Pr19Nd20Sm13(BiS2)64
_chemical_formula_sum   'La6 Ce6 Pr19 Nd20 Sm13 Bi64 S128'
_cell_volume   7153.34107788
_cell_formula_units_Z   1
loop_
 _symmetry_equiv_pos_site_id
 _symmetry_equiv_pos_as_xyz
  1  'x, y, z'
loop_
 _atom_type_symbol
 _atom_type_oxidation_number
  La3+  3.0
  Ce3+  3.0
  Pr3+  3.0
  Nd3+  3.0
  Sm3+  3.0
  Bi2+  2.0
  S2-  -2.0
loop_
 _atom_site_type_symbol
 _atom_site_label
 _atom_site_symmetry_multiplicity
 _atom_site_fract_x
 _atom_site_fract_y
 _atom_site_fract_z
 _atom_site_occupancy
  La3+  La0  1  -0.00502587  0.86925870  0.06270815  1
  La3+  La1  1  0.48673723  0.62067062  0.07496372  1
  La3+  La2  1  -0.00672948  0.36516740  0.06339330  1
  La3+  La3  1  0.39236557  0.25783446  0.43187226  1
  La3+  La4  1  0.38909980  0.00634138  0.42213292  1
  La3+  La5  1  0.73995225  0.36234142  0.07595165  1
  Ce3+  Ce6  1  0.13168354  0.75763522  0.44403046  1
  Ce3+  Ce7  1  0.00783065  0.88214066  0.55878577  1
  Ce3+  Ce8  1  0.88022831  0.00556284  0.44086514  1
  Ce3+  Ce9  1  0.24269347  0.36902877  0.05438768  1
  Ce3+  Ce10  1  0.38539902  0.75629162  0.44370047  1
  Ce3+  Ce11  1  0.24370589  0.86972240  0.05571449  1
  Pr3+  Pr12  1  0.61805378  0.49601400  0.94659915  1
  Pr3+  Pr13  1  0.36661804  0.49158796  0.93257720  1
  Pr3+  Pr14  1  0.50695748  0.88820934  0.56840807  1
  Pr3+  Pr15  1  0.88411436  0.51484621  0.41851620  1
  Pr3+  Pr16  1  0.49098334  0.11789908  0.06042038  1
  Pr3+  Pr17  1  0.86615665  0.49566166  0.94547120  1
  Pr3+  Pr18  1  0.74166381  0.61775322  0.07514700  1
  Pr3+  Pr19  1  0.61785849  0.24400757  0.94001458  1
  Pr3+  Pr20  1  0.62254162  0.51422486  0.41856221  1
  Pr3+  Pr21  1  0.25823102  0.88482778  0.55246028  1
  Pr3+  Pr22  1  0.25586679  0.38836436  0.56997830  1
  Pr3+  Pr23  1  0.38192531  0.50895013  0.44240374  1
  Pr3+  Pr24  1  0.75667632  0.13299590  0.55472261  1
  Pr3+  Pr25  1  0.11892324  0.23664812  0.92872928  1
  Pr3+  Pr26  1  0.61354983  0.74052723  0.94098866  1
  Pr3+  Pr27  1  0.86633240  -0.00510244  0.93639968  1
  Pr3+  Pr28  1  0.76053594  0.62021839  0.57183963  1
  Pr3+  Pr29  1  0.51572777  0.63683901  0.57751004  1
  Pr3+  Pr30  1  0.00835686  0.13748840  0.56550858  1
  Nd3+  Nd31  1  0.00479528  0.63017101  0.56525078  1
  Nd3+  Nd32  1  0.74254739  0.86971769  0.05543446  1
  Nd3+  Nd33  1  0.13239330  0.50964291  0.43956119  1
  Nd3+  Nd34  1  0.36613105  -0.00698292  0.93653371  1
  Nd3+  Nd35  1  0.36533972  0.74268558  0.93759756  1
  Nd3+  Nd36  1  0.87803219  0.75593467  0.44218512  1
  Nd3+  Nd37  1  0.11699546  0.74242715  0.94521984  1
  Nd3+  Nd38  1  0.11601394  0.49324548  0.93966145  1
  Nd3+  Nd39  1  0.49057948  0.37055811  0.06377169  1
  Nd3+  Nd40  1  0.25912733  0.13538067  0.55422115  1
  Nd3+  Nd41  1  0.86530554  0.24491183  0.93777624  1
  Nd3+  Nd42  1  0.13372569  0.25856126  0.43665227  1
  Nd3+  Nd43  1  0.63483824  0.26150124  0.43994398  1
  Nd3+  Nd44  1  0.74489636  0.11607959  0.06500292  1
  Nd3+  Nd45  1  0.12066566  0.01188086  0.43477961  1
  Nd3+  Nd46  1  0.36641649  0.24128972  0.94185658  1
  Nd3+  Nd47  1  0.49044941  0.86999593  0.05756950  1
  Nd3+  Nd48  1  -0.00696889  0.61710360  0.06322251  1
  Nd3+  Nd49  1  0.24456381  0.61104997  0.06558032  1
  Nd3+  Nd50  1  0.61792430  -0.00466763  0.94362100  1
  Sm3+  Sm51  1  0.75667840  0.38806075  0.54500353  1
  Sm3+  Sm52  1  0.63134693  0.75273645  0.44629896  1
  Sm3+  Sm53  1  0.50861990  0.38695301  0.56613160  1
  Sm3+  Sm54  1  0.63240006  0.00513440  0.43868616  1
  Sm3+  Sm55  1  0.25755163  0.63046099  0.56347474  1
  Sm3+  Sm56  1  0.00519539  0.38241918  0.55030497  1
  Sm3+  Sm57  1  0.50513745  0.13965118  0.56445306  1
  Sm3+  Sm58  1  0.11599619  -0.00578468  0.94074193  1
  Sm3+  Sm59  1  0.86767951  0.74248032  0.95076911  1
  Sm3+  Sm60  1  0.24139066  0.11791890  0.06202613  1
  Sm3+  Sm61  1  -0.00668752  0.11927805  0.05712543  1
  Sm3+  Sm62  1  0.75865240  0.88273760  0.56048445  1
  Sm3+  Sm63  1  0.88111427  0.25916803  0.43890272  1
  Bi2+  Bi64  1  -0.04919679  0.08516179  0.26641194  1
  Bi2+  Bi65  1  0.00560220  0.15927909  0.80307350  1
  Bi2+  Bi66  1  -0.00725682  0.35986433  0.30159806  1
  Bi2+  Bi67  1  0.05394868  0.43601195  0.72532965  1
  Bi2+  Bi68  1  0.02736462  0.63397316  0.29563113  1
  Bi2+  Bi69  1  0.00214098  0.57381778  0.80448657  1
  Bi2+  Bi70  1  -0.03503126  0.88551238  0.30710631  1
  Bi2+  Bi71  1  0.01334753  0.84845379  0.79649274  1
  Bi2+  Bi72  1  0.22159282  0.12486097  0.29074662  1
  Bi2+  Bi73  1  0.26482039  0.17402818  0.80454569  1
  Bi2+  Bi74  1  0.24757492  0.45422961  0.29881561  1
  Bi2+  Bi75  1  0.24921875  0.39470947  0.79862067  1
  Bi2+  Bi76  1  0.25723063  0.62613432  0.23929333  1
  Bi2+  Bi77  1  0.22957737  0.70530186  0.78219663  1
  Bi2+  Bi78  1  0.15496634  0.85461834  0.28332908  1
  Bi2+  Bi79  1  0.29287112  0.89383069  0.80708570  1
  Bi2+  Bi80  1  0.47159997  0.12954390  0.29613210  1
  Bi2+  Bi81  1  0.51716271  0.08215486  0.78891669  1
  Bi2+  Bi82  1  0.52093087  0.37510701  0.29334950  1
  Bi2+  Bi83  1  0.45867060  0.36188850  0.72987552  1
  Bi2+  Bi84  1  0.49329855  0.63434516  0.29553105  1
  Bi2+  Bi85  1  0.51070247  0.61593496  0.80855494  1
  Bi2+  Bi86  1  0.45178368  0.87177929  0.30387635  1
  Bi2+  Bi87  1  0.48004415  0.87405169  0.77587537  1
  Bi2+  Bi88  1  0.75097154  0.09166904  0.29578792  1
  Bi2+  Bi89  1  0.76248892  0.13736387  0.81479176  1
  Bi2+  Bi90  1  0.77067420  0.28271431  0.25984369  1
  Bi2+  Bi91  1  0.75343951  0.35882879  0.73280194  1
  Bi2+  Bi92  1  0.76033022  0.67405090  0.29320183  1
  Bi2+  Bi93  1  0.74665576  0.59597521  0.81750831  1
  Bi2+  Bi94  1  0.77436966  0.90295845  0.33915418  1
  Bi2+  Bi95  1  0.75856341  0.89245083  0.75589182  1
  Bi2+  Bi96  1  0.12603925  -0.01398828  0.19081819  1
  Bi2+  Bi97  1  0.14042923  -0.01994490  0.76005765  1
  Bi2+  Bi98  1  0.15518066  0.29423769  0.24081494  1
  Bi2+  Bi99  1  0.12790508  0.22712276  0.69062244  1
  Bi2+  Bi100  1  0.13319668  0.48157353  0.20229086  1
  Bi2+  Bi101  1  0.11392022  0.61467381  0.69370560  1
  Bi2+  Bi102  1  0.09662507  0.72988945  0.20380651  1
  Bi2+  Bi103  1  0.12499903  0.81022726  0.69308752  1
  Bi2+  Bi104  1  0.37678038  0.00062241  0.18586092  1
  Bi2+  Bi105  1  0.37946116  -0.00438303  0.70620785  1
  Bi2+  Bi106  1  0.35233556  0.31470112  0.24350529  1
  Bi2+  Bi107  1  0.35854371  0.19344643  0.70265817  1
  Bi2+  Bi108  1  0.41608067  0.49544918  0.19036423  1
  Bi2+  Bi109  1  0.35974042  0.52798800  0.72283993  1
  Bi2+  Bi110  1  0.37281539  0.78324912  0.21254248  1
  Bi2+  Bi111  1  0.35780612  0.74243026  0.70480614  1
  Bi2+  Bi112  1  0.63701077  0.00001123  0.21604213  1
  Bi2+  Bi113  1  0.64390503  0.02994965  0.70404796  1
  Bi2+  Bi114  1  0.61401525  0.19561754  0.21637865  1
  Bi2+  Bi115  1  0.60067252  0.23196200  0.72950622  1
  Bi2+  Bi116  1  0.64769736  0.50648978  0.21942762  1
  Bi2+  Bi117  1  0.62066468  0.49887638  0.70579780  1
  Bi2+  Bi118  1  0.63128022  0.81973362  0.27195161  1
  Bi2+  Bi119  1  0.61799852  0.76771571  0.71632434  1
  Bi2+  Bi120  1  0.82278693  0.03252535  0.18646128  1
  Bi2+  Bi121  1  0.92653739  -0.01956142  0.72543043  1
  Bi2+  Bi122  1  0.91270595  0.22445612  0.18678229  1
  Bi2+  Bi123  1  0.88233955  0.22534670  0.70063756  1
  Bi2+  Bi124  1  0.88475050  0.51173608  0.21063879  1
  Bi2+  Bi125  1  0.87608736  0.50921315  0.71173235  1
  Bi2+  Bi126  1  0.83675373  0.81710181  0.23358430  1
  Bi2+  Bi127  1  0.87441119  0.73359698  0.75314682  1
  S2-  S128  1  0.03916816  0.12909630  0.15098943  1
  S2-  S129  1  -0.00666734  0.10961153  0.66433874  1
  S2-  S130  1  -0.01370596  0.39062445  0.16281295  1
  S2-  S131  1  -0.00107821  0.33705979  0.64540817  1
  S2-  S132  1  -0.02224652  0.63231486  0.16114504  1
  S2-  S133  1  -0.10651514  0.62234611  0.64087945  1
  S2-  S134  1  0.01227099  0.88586380  0.16171998  1
  S2-  S135  1  -0.02719941  0.86697433  0.65357162  1
  S2-  S136  1  0.25784597  0.10253002  0.15973627  1
  S2-  S137  1  0.21825665  0.10987327  0.65011729  1
  S2-  S138  1  0.26060055  0.44566867  0.13981283  1
  S2-  S139  1  0.25256139  0.31700997  0.66341158  1
  S2-  S140  1  0.34602966  0.64462492  0.14297103  1
  S2-  S141  1  0.25269077  0.52854921  0.64314098  1
  S2-  S142  1  0.25582529  0.87943636  0.15288136  1
  S2-  S143  1  0.28029172  0.87666454  0.65198594  1
  S2-  S144  1  0.47589160  0.12105048  0.16037081  1
  S2-  S145  1  0.50706716  0.02211321  0.63712534  1
  S2-  S146  1  0.53324701  0.38759589  0.15977773  1
  S2-  S147  1  0.50817568  0.26312385  0.63853474  1
  S2-  S148  1  0.54517379  0.61135035  0.17234638  1
  S2-  S149  1  0.49406047  0.50212113  0.64384065  1
  S2-  S150  1  0.48680213  0.86524862  0.15636838  1
  S2-  S151  1  0.49605150  0.77276555  0.64601889  1
  S2-  S152  1  0.73412360  0.22016511  0.14303548  1
  S2-  S153  1  0.76205645  0.13631059  0.65473903  1
  S2-  S154  1  0.76591082  0.41862160  0.17145864  1
  S2-  S155  1  0.75256390  0.44242350  0.63725792  1
  S2-  S156  1  0.75809286  0.61701173  0.17595796  1
  S2-  S157  1  0.65522528  0.64132397  0.65362302  1
  S2-  S158  1  0.74131701  0.88212367  0.15319312  1
  S2-  S159  1  0.70984109  0.88497202  0.65355355  1
  S2-  S160  1  0.17038213  -0.00486360  0.34023841  1
  S2-  S161  1  0.12957141  0.07924517  0.85689504  1
  S2-  S162  1  0.10748136  0.23197504  0.33984843  1
  S2-  S163  1  0.12390575  0.28593271  0.83099921  1
  S2-  S164  1  0.08865214  0.49176688  0.34404528  1
  S2-  S165  1  0.15519802  0.50027630  0.84316807  1
  S2-  S166  1  0.13693532  0.70988047  0.35023382  1
  S2-  S167  1  0.09585707  0.72033659  0.84794284  1
  S2-  S168  1  0.35352272  0.01717258  0.31770923  1
  S2-  S169  1  0.37046100  0.06696846  0.84733157  1
  S2-  S170  1  0.34069739  0.22966928  0.33719767  1
  S2-  S171  1  0.37006966  0.29003104  0.84721987  1
  S2-  S172  1  0.46344211  0.50694547  0.35335131  1
  S2-  S173  1  0.37662809  0.52084911  0.83358427  1
  S2-  S174  1  0.38089098  0.72510349  0.34692314  1
  S2-  S175  1  0.44276332  0.74328457  0.84989963  1
  S2-  S176  1  0.53729917  0.00580241  0.35783098  1
  S2-  S177  1  0.64915556  0.01636500  0.84779116  1
  S2-  S178  1  0.54555135  0.24465751  0.35747558  1
  S2-  S179  1  0.66383525  0.25246880  0.84455343  1
  S2-  S180  1  0.65640905  0.44695147  0.32248604  1
  S2-  S181  1  0.61910268  0.49325976  0.84610302  1
  S2-  S182  1  0.62450310  0.66313541  0.36088643  1
  S2-  S183  1  0.64378202  0.71478510  0.84266763  1
  S2-  S184  1  0.97705716  0.03568757  0.36313661  1
  S2-  S185  1  0.89909923  0.03286143  0.84028131  1
  S2-  S186  1  0.86819011  0.26418684  0.34156735  1
  S2-  S187  1  0.88872282  0.25378525  0.83892262  1
  S2-  S188  1  0.88163683  0.47198366  0.31514856  1
  S2-  S189  1  0.88062327  0.48447313  0.84608311  1
  S2-  S190  1  0.88774411  0.66285688  0.35865397  1
  S2-  S191  1  0.85687247  0.71691974  0.85500661  1
  S2-  S192  1  0.00385601  0.14202302  0.45967225  1
  S2-  S193  1  -0.00844789  0.11859576  0.95374229  1
  S2-  S194  1  0.00463684  0.38179979  0.44647403  1
  S2-  S195  1  -0.00625628  0.36671088  0.95338355  1
  S2-  S196  1  0.00862487  0.63189470  0.45893990  1
  S2-  S197  1  -0.00773012  0.61981126  0.95738943  1
  S2-  S198  1  0.00496930  0.87859456  0.45310448  1
  S2-  S199  1  -0.00746919  0.86862597  0.95353221  1
  S2-  S200  1  0.25707432  0.13080587  0.44716345  1
  S2-  S201  1  0.24340096  0.11675778  0.95749251  1
  S2-  S202  1  0.25700949  0.38263678  0.45188287  1
  S2-  S203  1  0.24021184  0.36687489  0.95031431  1
  S2-  S204  1  0.25659417  0.63110634  0.45791753  1
  S2-  S205  1  0.24253516  0.61820146  0.95488479  1
  S2-  S206  1  0.25811664  0.88370404  0.44554573  1
  S2-  S207  1  0.23934912  0.87012119  0.94848923  1
  S2-  S208  1  0.51253354  0.13092950  0.46039239  1
  S2-  S209  1  0.49240572  0.11818914  0.95309617  1
  S2-  S210  1  0.51084388  0.38483356  0.45872012  1
  S2-  S211  1  0.49202251  0.36855334  0.95528545  1
  S2-  S212  1  0.50551764  0.63385111  0.46398560  1
  S2-  S213  1  0.48904548  0.61810688  0.96030169  1
  S2-  S214  1  0.51111892  0.87890838  0.45818085  1
  S2-  S215  1  0.49238487  0.87132236  0.95115626  1
  S2-  S216  1  0.75603024  0.13303003  0.44705454  1
  S2-  S217  1  0.74323253  0.11927824  0.95864593  1
  S2-  S218  1  0.75874674  0.38664388  0.44121089  1
  S2-  S219  1  0.74307397  0.36846215  0.96126791  1
  S2-  S220  1  0.75608938  0.63015523  0.45899828  1
  S2-  S221  1  0.74299894  0.62178112  0.96565037  1
  S2-  S222  1  0.75326419  0.87963206  0.45680664  1
  S2-  S223  1  0.74244091  0.86661484  0.94955434  1
  S2-  S224  1  0.11871159  -0.00315724  0.04464218  1
  S2-  S225  1  0.13029293  0.00925346  0.54309317  1
  S2-  S226  1  0.11981505  0.24076791  0.04355631  1
  S2-  S227  1  0.13317517  0.26140753  0.54355855  1
  S2-  S228  1  0.11599261  0.49375838  0.04616024  1
  S2-  S229  1  0.12672450  0.50604226  0.54540897  1
  S2-  S230  1  0.12099553  0.73998528  0.05166284  1
  S2-  S231  1  0.13307783  0.75327566  0.55076838  1
  S2-  S232  1  0.36574822  -0.00486937  0.04333911  1
  S2-  S233  1  0.38105773  0.01124786  0.53645273  1
  S2-  S234  1  0.36584694  0.24342067  0.05047348  1
  S2-  S235  1  0.37940508  0.26254072  0.54151018  1
  S2-  S236  1  0.36952234  0.49275438  0.03973327  1
  S2-  S237  1  0.38107639  0.50794355  0.54542789  1
  S2-  S238  1  0.36647510  0.74720979  0.04202588  1
  S2-  S239  1  0.37799660  0.75416259  0.54740316  1
  S2-  S240  1  0.61813626  -0.00585830  0.05037848  1
  S2-  S241  1  0.63620886  0.00733692  0.54179375  1
  S2-  S242  1  0.61206956  0.24329731  0.04678006  1
  S2-  S243  1  0.63636142  0.26174462  0.54435457  1
  S2-  S244  1  0.61748466  0.49420052  0.05391842  1
  S2-  S245  1  0.63077514  0.50523218  0.53826696  1
  S2-  S246  1  0.61691374  0.74510487  0.05150158  1
  S2-  S247  1  0.63798827  0.76093769  0.54759914  1
  S2-  S248  1  0.86965396  -0.00532437  0.04473203  1
  S2-  S249  1  0.88239152  0.00786890  0.54861054  1
  S2-  S250  1  0.86982331  0.24053542  0.04476666  1
  S2-  S251  1  0.87883073  0.26118045  0.54331963  1
  S2-  S252  1  0.86674232  0.49380596  0.05316054  1
  S2-  S253  1  0.88626053  0.50257312  0.53310598  1
  S2-  S254  1  0.86717548  0.74420733  0.05570386  1
  S2-  S255  1  0.87948058  0.75920774  0.54690648  1
