# generated using pymatgen
data_La6Ce6Pr19Nd20Sm13(BiS2)64
_symmetry_space_group_name_H-M   'P 1'
_cell_length_a   16.10823271
_cell_length_b   16.11828469
_cell_length_c   27.34389848
_cell_angle_alpha   89.90955322
_cell_angle_beta   89.89029492
_cell_angle_gamma   90.05461807
_symmetry_Int_Tables_number   1
_chemical_formula_structural   La6Ce6Pr19Nd20Sm13(BiS2)64
_chemical_formula_sum   'La6 Ce6 Pr19 Nd20 Sm13 Bi64 S128'
_cell_volume   7099.46487231
_cell_formula_units_Z   1
loop_
 _symmetry_equiv_pos_site_id
 _symmetry_equiv_pos_as_xyz
  1  'x, y, z'
loop_
 _atom_type_symbol
 _atom_type_oxidation_number
  La3+  3.0
  Ce3+  3.0
  Pr3+  3.0
  Nd3+  3.0
  Sm3+  3.0
  Bi2+  2.0
  S2-  -2.0
loop_
 _atom_site_type_symbol
 _atom_site_label
 _atom_site_symmetry_multiplicity
 _atom_site_fract_x
 _atom_site_fract_y
 _atom_site_fract_z
 _atom_site_occupancy
  La3+  La0  1  0.00366400  0.88243039  0.56083251  1
  La3+  La1  1  0.13640507  0.51194593  0.42490586  1
  La3+  La2  1  0.13308691  0.77474139  0.39249894  1
  La3+  La3  1  0.76851425  0.64879722  0.59986552  1
  La3+  La4  1  0.87012725  0.77108044  0.41181915  1
  La3+  La5  1  0.75229051  0.60677290  0.08109551  1
  Ce3+  Ce6  1  0.88608724  0.73808800  0.95673350  1
  Ce3+  Ce7  1  0.50297143  0.13870646  0.55771027  1
  Ce3+  Ce8  1  0.00345612  0.63968151  0.54176686  1
  Ce3+  Ce9  1  0.25312983  0.38945733  0.56339612  1
  Ce3+  Ce10  1  0.75660830  0.13693526  0.56002071  1
  Ce3+  Ce11  1  0.63800900  -0.01926923  0.92683420  1
  Pr3+  Pr12  1  0.76251380  0.11525111  0.05162907  1
  Pr3+  Pr13  1  0.75587369  0.88752134  0.56417226  1
  Pr3+  Pr14  1  0.25984022  0.61488527  0.06274067  1
  Pr3+  Pr15  1  0.37449436  0.01172344  0.44482042  1
  Pr3+  Pr16  1  0.12933996  0.26541162  0.43138000  1
  Pr3+  Pr17  1  0.38511421  0.23805424  0.92849421  1
  Pr3+  Pr18  1  0.14101439  0.23997362  0.93263613  1
  Pr3+  Pr19  1  0.01691085  0.60432634  0.08283634  1
  Pr3+  Pr20  1  0.01166244  0.11511256  0.05895686  1
  Pr3+  Pr21  1  0.61930357  0.47212202  0.88104290  1
  Pr3+  Pr22  1  0.01070860  0.86537520  0.07221914  1
  Pr3+  Pr23  1  0.49840529  0.64719774  0.57803062  1
  Pr3+  Pr24  1  0.75533286  0.39245752  0.56168127  1
  Pr3+  Pr25  1  0.50638667  0.39199317  0.55699687  1
  Pr3+  Pr26  1  0.88318443  0.01115587  0.43772987  1
  Pr3+  Pr27  1  0.63055845  0.26394585  0.44237881  1
  Pr3+  Pr28  1  0.13167290  0.49502034  0.93143151  1
  Pr3+  Pr29  1  0.26323168  0.36321196  0.05659949  1
  Pr3+  Pr30  1  0.00367903  0.39284382  0.56230534  1
  Nd3+  Nd31  1  0.51111512  0.36300181  0.05259363  1
  Nd3+  Nd32  1  0.25446157  0.14854939  0.57177597  1
  Nd3+  Nd33  1  0.25227271  0.88681193  0.56054683  1
  Nd3+  Nd34  1  0.75937537  0.86501914  0.06761735  1
  Nd3+  Nd35  1  0.89767886  0.24086389  0.92537387  1
  Nd3+  Nd36  1  0.63844507  0.23859879  0.93368937  1
  Nd3+  Nd37  1  0.38117783  -0.01184181  0.92872294  1
  Nd3+  Nd38  1  0.62959457  0.01256500  0.44603336  1
  Nd3+  Nd39  1  0.01205447  0.36595687  0.05773250  1
  Nd3+  Nd40  1  0.62872745  0.76093932  0.44286277  1
  Nd3+  Nd41  1  0.51048327  0.86750378  0.06036452  1
  Nd3+  Nd42  1  0.87952183  0.49686898  0.93559188  1
  Nd3+  Nd43  1  0.51144980  0.11229043  0.05509508  1
  Nd3+  Nd44  1  0.13068363  -0.01562692  0.92664501  1
  Nd3+  Nd45  1  0.87772740  0.51707116  0.43255378  1
  Nd3+  Nd46  1  0.38726738  0.49385779  0.94163579  1
  Nd3+  Nd47  1  0.75984830  0.36697554  0.05254814  1
  Nd3+  Nd48  1  0.88481721  -0.01449408  0.93343241  1
  Nd3+  Nd49  1  0.37845191  0.26341233  0.44122286  1
  Nd3+  Nd50  1  0.50252602  0.88807469  0.55977777  1
  Sm3+  Sm51  1  0.00582233  0.14058481  0.55760692  1
  Sm3+  Sm52  1  0.25507256  0.63798648  0.55933155  1
  Sm3+  Sm53  1  0.12963130  0.01214446  0.44637372  1
  Sm3+  Sm54  1  0.37782092  0.76185817  0.43684943  1
  Sm3+  Sm55  1  0.26141650  0.86758103  0.05853429  1
  Sm3+  Sm56  1  0.63145731  0.51734230  0.44657066  1
  Sm3+  Sm57  1  0.88041854  0.26437228  0.44707255  1
  Sm3+  Sm58  1  0.26034789  0.11363591  0.05407893  1
  Sm3+  Sm59  1  0.13309929  0.74173844  0.95059109  1
  Sm3+  Sm60  1  0.64039118  0.73558076  0.93942177  1
  Sm3+  Sm61  1  0.38515517  0.74114445  0.94731627  1
  Sm3+  Sm62  1  0.37871821  0.51533484  0.44265604  1
  Sm3+  Sm63  1  0.51301454  0.61458757  0.05701193  1
  Bi2+  Bi64  1  -0.02486055  0.13025362  0.30655727  1
  Bi2+  Bi65  1  0.02084870  0.10111863  0.77218557  1
  Bi2+  Bi66  1  -0.02483975  0.32976634  0.27911481  1
  Bi2+  Bi67  1  0.00210796  0.35749486  0.79882107  1
  Bi2+  Bi68  1  0.01153920  0.61641041  0.28133359  1
  Bi2+  Bi69  1  0.01321214  0.57247391  0.76721849  1
  Bi2+  Bi70  1  0.01255068  0.93648757  0.28792521  1
  Bi2+  Bi71  1  -0.03011455  0.84186819  0.80399511  1
  Bi2+  Bi72  1  0.17165258  0.17409835  0.31066079  1
  Bi2+  Bi73  1  0.29350849  0.11624932  0.78695950  1
  Bi2+  Bi74  1  0.24171559  0.35817174  0.29543519  1
  Bi2+  Bi75  1  0.18395865  0.44199580  0.80549467  1
  Bi2+  Bi76  1  0.28532849  0.61083403  0.28580147  1
  Bi2+  Bi77  1  0.26968879  0.62638564  0.80232096  1
  Bi2+  Bi78  1  0.27525064  0.91346478  0.28868615  1
  Bi2+  Bi79  1  0.21872058  0.85188073  0.79218550  1
  Bi2+  Bi80  1  0.39055578  0.12991398  0.27539426  1
  Bi2+  Bi81  1  0.47920502  0.11108777  0.83394112  1
  Bi2+  Bi82  1  0.51135527  0.34775884  0.28875290  1
  Bi2+  Bi83  1  0.36361242  0.36107006  0.80103453  1
  Bi2+  Bi84  1  0.50024048  0.61811167  0.29599124  1
  Bi2+  Bi85  1  0.49029089  0.63700475  0.79082547  1
  Bi2+  Bi86  1  0.47813627  0.81108927  0.31062837  1
  Bi2+  Bi87  1  0.48661336  0.92003985  0.80440095  1
  Bi2+  Bi88  1  0.70772347  0.12380592  0.28196563  1
  Bi2+  Bi89  1  0.74229998  0.09820497  0.77643096  1
  Bi2+  Bi90  1  0.71190533  0.38026992  0.28786792  1
  Bi2+  Bi91  1  0.75289328  0.36749779  0.77646593  1
  Bi2+  Bi92  1  0.75857799  0.62056418  0.30088211  1
  Bi2+  Bi93  1  0.76633429  0.63202286  0.79793920  1
  Bi2+  Bi94  1  0.66237303  0.87476465  0.28149556  1
  Bi2+  Bi95  1  0.73688949  0.87184005  0.78614568  1
  Bi2+  Bi96  1  0.15843105  0.05950306  0.21862866  1
  Bi2+  Bi97  1  0.12840410  -0.03248400  0.71779189  1
  Bi2+  Bi98  1  0.08172428  0.23984447  0.20367843  1
  Bi2+  Bi99  1  0.15339055  0.21949984  0.71141461  1
  Bi2+  Bi100  1  0.14110030  0.45904386  0.20806478  1
  Bi2+  Bi101  1  0.16617994  0.50875025  0.69447618  1
  Bi2+  Bi102  1  0.13378120  0.75979844  0.19434153  1
  Bi2+  Bi103  1  0.14305164  0.69977269  0.72115358  1
  Bi2+  Bi104  1  0.39442226  -0.07291956  0.19699868  1
  Bi2+  Bi105  1  0.40534957  0.01213446  0.71664921  1
  Bi2+  Bi106  1  0.36998162  0.24500044  0.18782017  1
  Bi2+  Bi107  1  0.40661105  0.26761762  0.70877997  1
  Bi2+  Bi108  1  0.41375198  0.48745667  0.22545890  1
  Bi2+  Bi109  1  0.35907951  0.52065167  0.71802407  1
  Bi2+  Bi110  1  0.38301597  0.72506403  0.21197421  1
  Bi2+  Bi111  1  0.34725819  0.77288860  0.70829388  1
  Bi2+  Bi112  1  0.54871425  0.03953109  0.23101372  1
  Bi2+  Bi113  1  0.60644640  -0.01839491  0.71257383  1
  Bi2+  Bi114  1  0.61521280  0.27182100  0.20066372  1
  Bi2+  Bi115  1  0.58537766  0.20581526  0.75771935  1
  Bi2+  Bi116  1  0.61308001  0.48687410  0.20810519  1
  Bi2+  Bi117  1  0.63220391  0.48446024  0.68043534  1
  Bi2+  Bi118  1  0.57943123  0.74578041  0.21274113  1
  Bi2+  Bi119  1  0.58341532  0.77094126  0.72776378  1
  Bi2+  Bi120  1  0.86006595  0.06259221  0.21763054  1
  Bi2+  Bi121  1  0.80472277  -0.02514041  0.69454846  1
  Bi2+  Bi122  1  0.81435097  0.26546053  0.21049127  1
  Bi2+  Bi123  1  0.90993504  0.22079150  0.70421575  1
  Bi2+  Bi124  1  0.87016014  0.51342961  0.20249639  1
  Bi2+  Bi125  1  0.90414641  0.48076375  0.68632964  1
  Bi2+  Bi126  1  0.87368668  0.79139602  0.21247262  1
  Bi2+  Bi127  1  0.92707512  0.76069199  0.70650690  1
  S2-  S128  1  0.00852625  0.10132092  0.15897109  1
  S2-  S129  1  0.00145357  0.11761226  0.65500698  1
  S2-  S130  1  0.00708252  0.45295344  0.14394564  1
  S2-  S131  1  0.01214391  0.34164782  0.65950261  1
  S2-  S132  1  -0.01228680  0.66318187  0.17843214  1
  S2-  S133  1  -0.05144486  0.63101524  0.63477355  1
  S2-  S134  1  0.01227382  0.87470896  0.17265692  1
  S2-  S135  1  0.01102457  0.88554933  0.66186627  1
  S2-  S136  1  0.27267641  0.12060317  0.15223393  1
  S2-  S137  1  0.21758569  0.09180047  0.66391363  1
  S2-  S138  1  0.24655165  0.36164405  0.15640538  1
  S2-  S139  1  0.25182106  0.29053860  0.64392881  1
  S2-  S140  1  0.17972863  0.60071679  0.15096216  1
  S2-  S141  1  0.35658221  0.63523355  0.64176069  1
  S2-  S142  1  0.23377384  0.87666259  0.15440407  1
  S2-  S143  1  0.25417581  0.87608317  0.65998591  1
  S2-  S144  1  0.50774523  0.15280379  0.15111893  1
  S2-  S145  1  0.45599319  0.13605593  0.65124291  1
  S2-  S146  1  0.48371185  0.37849010  0.15033692  1
  S2-  S147  1  0.48139567  0.39809508  0.65608730  1
  S2-  S148  1  0.59344934  0.61739211  0.14316520  1
  S2-  S149  1  0.61029461  0.64471816  0.65452372  1
  S2-  S150  1  0.54973873  0.91346469  0.15324594  1
  S2-  S151  1  0.48510923  0.81177207  0.64731775  1
  S2-  S152  1  0.75196204  0.13082409  0.15072278  1
  S2-  S153  1  0.77166126  0.14064975  0.65671506  1
  S2-  S154  1  0.76321846  0.45170985  0.14107169  1
  S2-  S155  1  0.76647139  0.37156829  0.66239452  1
  S2-  S156  1  0.78815670  0.65267131  0.18248450  1
  S2-  S157  1  0.77748465  0.57980480  0.69875116  1
  S2-  S158  1  0.78096321  0.89217032  0.16525852  1
  S2-  S159  1  0.78414353  0.80341335  0.65103867  1
  S2-  S160  1  0.14180018  -0.05226241  0.35579237  1
  S2-  S161  1  0.00153087  -0.01533008  0.85546304  1
  S2-  S162  1  0.11193852  0.38156570  0.35429108  1
  S2-  S163  1  0.03501074  0.22206906  0.85199756  1
  S2-  S164  1  0.13688420  0.61511569  0.34389188  1
  S2-  S165  1  0.00353993  0.50917305  0.86142257  1
  S2-  S166  1  0.08557820  0.77968135  0.28819374  1
  S2-  S167  1  0.10972547  0.77318792  0.85493379  1
  S2-  S168  1  0.38044616  0.00604069  0.34484350  1
  S2-  S169  1  0.25607709  -0.01374553  0.85598836  1
  S2-  S170  1  0.38109133  0.26823192  0.34276337  1
  S2-  S171  1  0.26251438  0.23915181  0.85566942  1
  S2-  S172  1  0.30723536  0.49215094  0.35464243  1
  S2-  S173  1  0.45024535  0.49516172  0.84997697  1
  S2-  S174  1  0.29586719  0.77173362  0.35030422  1
  S2-  S175  1  0.38413760  0.73440726  0.84889328  1
  S2-  S176  1  0.63873339  0.00625023  0.34774599  1
  S2-  S177  1  0.61965761  -0.15010797  0.86155206  1
  S2-  S178  1  0.62965432  0.24877264  0.34351711  1
  S2-  S179  1  0.62958716  0.30607105  0.84198210  1
  S2-  S180  1  0.65476462  0.51708983  0.34922352  1
  S2-  S181  1  0.61273878  0.47842067  0.77279734  1
  S2-  S182  1  0.70791587  0.76188158  0.35347306  1
  S2-  S183  1  0.63539779  0.64240071  0.85477523  1
  S2-  S184  1  0.88650317  -0.07588278  0.35126104  1
  S2-  S185  1  0.77014558  -0.00296235  0.85603637  1
  S2-  S186  1  0.87737466  0.25752144  0.34998225  1
  S2-  S187  1  0.85257762  0.28315042  0.82995390  1
  S2-  S188  1  0.89023842  0.51789490  0.33222576  1
  S2-  S189  1  0.78720598  0.49218062  0.84708474  1
  S2-  S190  1  0.89383044  0.72102069  0.31275697  1
  S2-  S191  1  0.86918243  0.73533056  0.85813029  1
  S2-  S192  1  0.00597486  0.13901252  0.45257937  1
  S2-  S193  1  0.01260713  0.11157533  0.95489385  1
  S2-  S194  1  -0.00047330  0.38908219  0.45527463  1
  S2-  S195  1  0.01322410  0.36537700  0.95377517  1
  S2-  S196  1  0.00288213  0.64490113  0.43818826  1
  S2-  S197  1  0.01441682  0.61904131  0.96766795  1
  S2-  S198  1  0.01062625  0.88373417  0.45299117  1
  S2-  S199  1  0.01167735  0.86504250  0.96460077  1
  S2-  S200  1  0.25167581  0.13927506  0.45730000  1
  S2-  S201  1  0.25951132  0.11011625  0.95306111  1
  S2-  S202  1  0.25699933  0.38630458  0.45844507  1
  S2-  S203  1  0.26173643  0.37151096  0.95098515  1
  S2-  S204  1  0.25720948  0.64013734  0.45580954  1
  S2-  S205  1  0.25960566  0.61811555  0.95496399  1
  S2-  S206  1  0.25115998  0.88447171  0.45615867  1
  S2-  S207  1  0.25939578  0.86249931  0.95545676  1
  S2-  S208  1  0.50329614  0.13711810  0.45048483  1
  S2-  S209  1  0.51196532  0.11159624  0.95021448  1
  S2-  S210  1  0.50446883  0.39179801  0.44935552  1
  S2-  S211  1  0.50979559  0.36354850  0.94724956  1
  S2-  S212  1  0.50252689  0.63791303  0.45344870  1
  S2-  S213  1  0.50780533  0.62071338  0.95555348  1
  S2-  S214  1  0.50285656  0.88715277  0.45365240  1
  S2-  S215  1  0.50288736  0.86495250  0.95649396  1
  S2-  S216  1  0.75686072  0.13734036  0.45258378  1
  S2-  S217  1  0.76632011  0.12119016  0.94718813  1
  S2-  S218  1  0.75513184  0.38956166  0.45327333  1
  S2-  S219  1  0.76476721  0.36013390  0.94893538  1
  S2-  S220  1  0.75427602  0.63743577  0.44945765  1
  S2-  S221  1  0.76329043  0.62011535  0.96645007  1
  S2-  S222  1  0.75216659  0.89049496  0.45734442  1
  S2-  S223  1  0.76195304  0.86340711  0.96045073  1
  S2-  S224  1  0.13771312  -0.01029582  0.04635110  1
  S2-  S225  1  0.12936662  0.01563807  0.54991277  1
  S2-  S226  1  0.13743035  0.23930817  0.04396156  1
  S2-  S227  1  0.12541037  0.26402030  0.54138445  1
  S2-  S228  1  0.13954254  0.48756158  0.03968497  1
  S2-  S229  1  0.13102529  0.51483935  0.54196570  1
  S2-  S230  1  0.13686467  0.74253070  0.05396374  1
  S2-  S231  1  0.13204065  0.75810092  0.55774831  1
  S2-  S232  1  0.38356278  -0.00914127  0.04245440  1
  S2-  S233  1  0.37555703  0.01338883  0.55124735  1
  S2-  S234  1  0.38559790  0.23583791  0.03756191  1
  S2-  S235  1  0.38191945  0.26575402  0.54552798  1
  S2-  S236  1  0.38731674  0.49255075  0.04844022  1
  S2-  S237  1  0.37919316  0.51309320  0.54525249  1
  S2-  S238  1  0.38619627  0.74119548  0.05300519  1
  S2-  S239  1  0.37601597  0.76483931  0.54025789  1
  S2-  S240  1  0.63707541  -0.00978548  0.03993177  1
  S2-  S241  1  0.62810241  0.01244015  0.55271671  1
  S2-  S242  1  0.63565374  0.23958720  0.04113330  1
  S2-  S243  1  0.63037372  0.26315094  0.54988129  1
  S2-  S244  1  0.62954396  0.48652220  0.04394726  1
  S2-  S245  1  0.63133624  0.52003576  0.55022750  1
  S2-  S246  1  0.63367490  0.74410285  0.04696812  1
  S2-  S247  1  0.62968240  0.76414034  0.54742014  1
  S2-  S248  1  0.88607365  -0.01093533  0.04721080  1
  S2-  S249  1  0.88266228  0.01407722  0.54582500  1
  S2-  S250  1  0.88778037  0.24268964  0.04359903  1
  S2-  S251  1  0.88060715  0.26329996  0.55059484  1
  S2-  S252  1  0.88734274  0.48930807  0.04187296  1
  S2-  S253  1  0.87604447  0.51525673  0.54063375  1
  S2-  S254  1  0.88515674  0.73824574  0.06250841  1
  S2-  S255  1  0.87678740  0.76205600  0.53782519  1
