# generated using pymatgen
data_La6Ce6Pr19Nd20Sm13(BiS2)64
_symmetry_space_group_name_H-M   'P 1'
_cell_length_a   16.17088790
_cell_length_b   16.14578565
_cell_length_c   27.28538791
_cell_angle_alpha   90.18212760
_cell_angle_beta   89.93268699
_cell_angle_gamma   89.98110298
_symmetry_Int_Tables_number   1
_chemical_formula_structural   La6Ce6Pr19Nd20Sm13(BiS2)64
_chemical_formula_sum   'La6 Ce6 Pr19 Nd20 Sm13 Bi64 S128'
_cell_volume   7123.94673246
_cell_formula_units_Z   1
loop_
 _symmetry_equiv_pos_site_id
 _symmetry_equiv_pos_as_xyz
  1  'x, y, z'
loop_
 _atom_type_symbol
 _atom_type_oxidation_number
  La3+  3.0
  Ce3+  3.0
  Pr3+  3.0
  Nd3+  3.0
  Sm3+  3.0
  Bi2+  2.0
  S2-  -2.0
loop_
 _atom_site_type_symbol
 _atom_site_label
 _atom_site_symmetry_multiplicity
 _atom_site_fract_x
 _atom_site_fract_y
 _atom_site_fract_z
 _atom_site_occupancy
  La3+  La0  1  0.12588437  0.48235391  0.91806151  1
  La3+  La1  1  0.40533184  0.75785414  0.89480158  1
  La3+  La2  1  0.76173383  0.87714772  0.08428822  1
  La3+  La3  1  0.25119586  0.62139197  0.61259167  1
  La3+  La4  1  0.62817010  0.49353224  0.38920513  1
  La3+  La5  1  0.87986523  0.23192003  0.92850494  1
  Ce3+  Ce6  1  0.63038013  0.74436306  0.95217345  1
  Ce3+  Ce7  1  0.00364169  0.86870393  0.05499708  1
  Ce3+  Ce8  1  0.12709490  0.24536910  0.44207227  1
  Ce3+  Ce9  1  0.62656460  -0.00232393  0.44079743  1
  Ce3+  Ce10  1  0.62762247  0.25002487  0.43749396  1
  Ce3+  Ce11  1  0.25232260  0.12439664  0.56242897  1
  Pr3+  Pr12  1  0.37651770  -0.00336791  0.44179934  1
  Pr3+  Pr13  1  0.75174076  0.37581769  0.55259792  1
  Pr3+  Pr14  1  0.75303536  0.12393513  0.56230482  1
  Pr3+  Pr15  1  0.87846525  0.74152346  0.93387031  1
  Pr3+  Pr16  1  0.88070432  0.50693826  0.42110571  1
  Pr3+  Pr17  1  0.50407777  0.87092374  0.06972769  1
  Pr3+  Pr18  1  0.00489361  0.11895851  0.05751184  1
  Pr3+  Pr19  1  0.50080956  0.86965858  0.55920706  1
  Pr3+  Pr20  1  0.00247216  0.36992992  0.05884920  1
  Pr3+  Pr21  1  0.25589700  0.86731739  0.05236324  1
  Pr3+  Pr22  1  0.38480239  0.49451658  0.92716173  1
  Pr3+  Pr23  1  0.75002771  0.87026374  0.56097995  1
  Pr3+  Pr24  1  0.25556452  0.62079551  0.04202381  1
  Pr3+  Pr25  1  -0.00002356  0.86871087  0.56489598  1
  Pr3+  Pr26  1  0.13226136  0.75351295  0.91962220  1
  Pr3+  Pr27  1  0.75730982  0.61868744  0.06088550  1
  Pr3+  Pr28  1  0.49977105  0.36732878  0.07155430  1
  Pr3+  Pr29  1  0.25589139  0.37529339  0.05943264  1
  Pr3+  Pr30  1  0.50335692  0.61970156  0.06448188  1
  Nd3+  Nd31  1  0.12534138  0.50034756  0.43476956  1
  Nd3+  Nd32  1  0.62544318  -0.01094238  0.93989702  1
  Nd3+  Nd33  1  0.87614393  0.24894112  0.44139119  1
  Nd3+  Nd34  1  0.12884832  0.74502821  0.44503744  1
  Nd3+  Nd35  1  0.62658388  0.49321382  0.94602715  1
  Nd3+  Nd36  1  0.50122451  0.37465566  0.56098244  1
  Nd3+  Nd37  1  0.37983422  0.24645625  0.92906693  1
  Nd3+  Nd38  1  0.00489990  0.61891079  0.04797926  1
  Nd3+  Nd39  1  0.25248020  0.86732552  0.56436410  1
  Nd3+  Nd40  1  0.00243883  0.12358006  0.55998051  1
  Nd3+  Nd41  1  0.87716007  0.48917215  0.93203567  1
  Nd3+  Nd42  1  0.75372669  0.61929158  0.55664086  1
  Nd3+  Nd43  1  0.87607575  0.75510184  0.43177332  1
  Nd3+  Nd44  1  -0.00055896  0.61971323  0.56664131  1
  Nd3+  Nd45  1  0.37885050  0.49540461  0.43824784  1
  Nd3+  Nd46  1  0.75607926  0.11863128  0.06135103  1
  Nd3+  Nd47  1  0.87323236  -0.02008770  0.92537070  1
  Nd3+  Nd48  1  0.49841107  0.62094332  0.55712960  1
  Nd3+  Nd49  1  0.25005539  0.37678811  0.55803712  1
  Nd3+  Nd50  1  0.26038997  0.11923606  0.06431040  1
  Sm3+  Sm51  1  0.50051213  0.12307799  0.55259386  1
  Sm3+  Sm52  1  0.13315065  0.24061782  0.94483230  1
  Sm3+  Sm53  1  0.37868477  0.74355150  0.43979577  1
  Sm3+  Sm54  1  0.37702048  0.24856595  0.44451142  1
  Sm3+  Sm55  1  0.87723457  -0.00496488  0.44172936  1
  Sm3+  Sm56  1  0.12866187  -0.00399532  0.45173511  1
  Sm3+  Sm57  1  0.75472222  0.36889157  0.05583271  1
  Sm3+  Sm58  1  0.50376689  0.11964167  0.05246324  1
  Sm3+  Sm59  1  0.62861564  0.24359909  0.94802456  1
  Sm3+  Sm60  1  0.00148436  0.37661190  0.55398623  1
  Sm3+  Sm61  1  0.13607323  -0.00723142  0.94033132  1
  Sm3+  Sm62  1  0.62759668  0.74422469  0.43884582  1
  Sm3+  Sm63  1  0.38143945  -0.00471111  0.93990534  1
  Bi2+  Bi64  1  -0.02318337  0.14081117  0.30127138  1
  Bi2+  Bi65  1  0.05604060  0.11953205  0.80794195  1
  Bi2+  Bi66  1  0.03738614  0.37805940  0.28304541  1
  Bi2+  Bi67  1  -0.02423910  0.37477389  0.79985360  1
  Bi2+  Bi68  1  0.02045396  0.63488812  0.28644880  1
  Bi2+  Bi69  1  -0.08106859  0.69244703  0.80336101  1
  Bi2+  Bi70  1  -0.03822841  0.85545218  0.27064889  1
  Bi2+  Bi71  1  0.03094271  0.93411378  0.77282910  1
  Bi2+  Bi72  1  0.31117109  0.13277295  0.30346074  1
  Bi2+  Bi73  1  0.25499323  0.12671761  0.84246581  1
  Bi2+  Bi74  1  0.24186275  0.43038643  0.29401485  1
  Bi2+  Bi75  1  0.23514534  0.30460358  0.78602996  1
  Bi2+  Bi76  1  0.21051757  0.62340208  0.32029313  1
  Bi2+  Bi77  1  0.23772478  0.61519866  0.81383745  1
  Bi2+  Bi78  1  0.21687295  0.88907275  0.31148496  1
  Bi2+  Bi79  1  0.25308852  0.94128911  0.78492600  1
  Bi2+  Bi80  1  0.51496731  0.13795854  0.28823279  1
  Bi2+  Bi81  1  0.44280173  0.13727100  0.79942969  1
  Bi2+  Bi82  1  0.49409901  0.35409598  0.28715825  1
  Bi2+  Bi83  1  0.49527679  0.37400890  0.79026595  1
  Bi2+  Bi84  1  0.42387108  0.61910535  0.28256131  1
  Bi2+  Bi85  1  0.53437962  0.62801773  0.78399041  1
  Bi2+  Bi86  1  0.49495730  0.91947771  0.27629833  1
  Bi2+  Bi87  1  0.55313448  0.88797126  0.79255951  1
  Bi2+  Bi88  1  0.71045748  0.10396668  0.30339664  1
  Bi2+  Bi89  1  0.74702472  0.14778672  0.81205709  1
  Bi2+  Bi90  1  0.77103492  0.33908429  0.27873267  1
  Bi2+  Bi91  1  0.70812719  0.43599050  0.77539440  1
  Bi2+  Bi92  1  0.75877622  0.63370738  0.29082161  1
  Bi2+  Bi93  1  0.73140724  0.66522441  0.78132535  1
  Bi2+  Bi94  1  0.75522697  0.89261963  0.28930305  1
  Bi2+  Bi95  1  0.74694117  0.89883451  0.76305346  1
  Bi2+  Bi96  1  0.08710157  0.00192115  0.24838756  1
  Bi2+  Bi97  1  0.15546817  0.04957764  0.71036128  1
  Bi2+  Bi98  1  0.18140055  0.25977089  0.24688506  1
  Bi2+  Bi99  1  0.08004090  0.24988944  0.72603969  1
  Bi2+  Bi100  1  0.14717904  0.54148000  0.21465215  1
  Bi2+  Bi101  1  0.10423481  0.47436563  0.70927131  1
  Bi2+  Bi102  1  0.12405389  0.82125060  0.20355427  1
  Bi2+  Bi103  1  0.11437149  0.75199412  0.71919612  1
  Bi2+  Bi104  1  0.33156383  0.01638725  0.20095141  1
  Bi2+  Bi105  1  0.38500026  0.01884028  0.71146399  1
  Bi2+  Bi106  1  0.36064237  0.22308372  0.20388676  1
  Bi2+  Bi107  1  0.36587630  0.23235131  0.71056915  1
  Bi2+  Bi108  1  0.35302598  0.49453264  0.20407333  1
  Bi2+  Bi109  1  0.38834283  0.48098168  0.70650956  1
  Bi2+  Bi110  1  0.29551164  0.75151495  0.24615415  1
  Bi2+  Bi111  1  0.37946496  0.75145171  0.71555149  1
  Bi2+  Bi112  1  0.59541967  0.02857433  0.20106592  1
  Bi2+  Bi113  1  0.58017160  0.05124121  0.72275533  1
  Bi2+  Bi114  1  0.64937951  0.22568665  0.21705826  1
  Bi2+  Bi115  1  0.62525189  0.26324625  0.74368554  1
  Bi2+  Bi116  1  0.63383686  0.50104166  0.19256305  1
  Bi2+  Bi117  1  0.64959732  0.56453232  0.69086810  1
  Bi2+  Bi118  1  0.58167261  0.76021908  0.22537280  1
  Bi2+  Bi119  1  0.62517290  0.76317712  0.69690252  1
  Bi2+  Bi120  1  0.85239050  0.05775856  0.22604732  1
  Bi2+  Bi121  1  0.88161725  0.02020192  0.71903166  1
  Bi2+  Bi122  1  0.91865604  0.24895962  0.20984831  1
  Bi2+  Bi123  1  0.82405831  0.21176669  0.70869504  1
  Bi2+  Bi124  1  0.89403318  0.49593214  0.18771255  1
  Bi2+  Bi125  1  0.84392287  0.47543210  0.69730017  1
  Bi2+  Bi126  1  0.87203405  0.74436579  0.19120965  1
  Bi2+  Bi127  1  0.86381477  0.75433195  0.69952871  1
  S2-  S128  1  -0.02071349  0.12092154  0.15627242  1
  S2-  S129  1  -0.04204701  0.12885191  0.65503457  1
  S2-  S130  1  0.01102266  0.39037425  0.15821738  1
  S2-  S131  1  -0.00833641  0.40785662  0.65131506  1
  S2-  S132  1  -0.01608837  0.62876787  0.14625117  1
  S2-  S133  1  0.08864883  0.61773053  0.65542519  1
  S2-  S134  1  -0.08423618  0.87646321  0.13829770  1
  S2-  S135  1  0.01470587  0.83293003  0.66325778  1
  S2-  S136  1  0.22064203  0.11514534  0.16022599  1
  S2-  S137  1  0.23259094  0.18176114  0.65381394  1
  S2-  S138  1  0.35953329  0.36094777  0.13799745  1
  S2-  S139  1  0.24544703  0.44665341  0.64872870  1
  S2-  S140  1  0.25425923  0.58931026  0.14162684  1
  S2-  S141  1  0.27052955  0.61575420  0.72052117  1
  S2-  S142  1  0.26610910  0.88218835  0.15252242  1
  S2-  S143  1  0.24852503  0.79325554  0.65402970  1
  S2-  S144  1  0.46241805  0.11052129  0.14706102  1
  S2-  S145  1  0.47918033  0.13031502  0.64955432  1
  S2-  S146  1  0.56189087  0.35939922  0.16964218  1
  S2-  S147  1  0.48919957  0.38461231  0.66064856  1
  S2-  S148  1  0.52168208  0.62317157  0.16441720  1
  S2-  S149  1  0.42216225  0.62217662  0.64692586  1
  S2-  S150  1  0.49708241  0.86720501  0.17089642  1
  S2-  S151  1  0.49026989  0.85061859  0.65877607  1
  S2-  S152  1  0.74479539  0.02808626  0.14509835  1
  S2-  S153  1  0.71215285  0.11566538  0.65940395  1
  S2-  S154  1  0.78015319  0.39596482  0.15143283  1
  S2-  S155  1  0.76393019  0.35156027  0.65203260  1
  S2-  S156  1  0.76508952  0.60975103  0.16143790  1
  S2-  S157  1  0.86501751  0.61934268  0.63497964  1
  S2-  S158  1  0.71374780  0.82002318  0.18277479  1
  S2-  S159  1  0.79274939  0.89955256  0.65650383  1
  S2-  S160  1  0.12024884  0.00461341  0.35480941  1
  S2-  S161  1  0.13009691  -0.09623831  0.85642932  1
  S2-  S162  1  0.10509845  0.24538938  0.34545335  1
  S2-  S163  1  0.11675471  0.32486494  0.86011987  1
  S2-  S164  1  0.01964696  0.48917741  0.35392178  1
  S2-  S165  1  0.11462155  0.50633794  0.81464065  1
  S2-  S166  1  0.09766885  0.75846999  0.34721231  1
  S2-  S167  1  0.08984942  0.70927147  0.82271350  1
  S2-  S168  1  0.36910100  -0.02621665  0.34280417  1
  S2-  S169  1  0.43848777  -0.07478205  0.85663169  1
  S2-  S170  1  0.37796830  0.27462870  0.34786968  1
  S2-  S171  1  0.37111331  0.36693183  0.85472413  1
  S2-  S172  1  0.45981195  0.48709841  0.35072513  1
  S2-  S173  1  0.40510094  0.59917172  0.84563902  1
  S2-  S174  1  0.41189668  0.74781617  0.34320811  1
  S2-  S175  1  0.30961617  0.77732902  0.80732150  1
  S2-  S176  1  0.62853848  -0.05202674  0.34639673  1
  S2-  S177  1  0.69005379  -0.00819347  0.84773542  1
  S2-  S178  1  0.61760779  0.32803144  0.34860804  1
  S2-  S179  1  0.61754689  0.23853055  0.85074672  1
  S2-  S180  1  0.61720377  0.54461085  0.28480114  1
  S2-  S181  1  0.59728571  0.48467109  0.84880931  1
  S2-  S182  1  0.66648493  0.73371464  0.34256647  1
  S2-  S183  1  0.57675962  0.75091796  0.85855017  1
  S2-  S184  1  0.87567913  -0.10509954  0.36068933  1
  S2-  S185  1  0.89501783  0.09765953  0.85540099  1
  S2-  S186  1  0.86661871  0.26240469  0.34253512  1
  S2-  S187  1  0.84918360  0.29856376  0.83589153  1
  S2-  S188  1  0.78280065  0.47924868  0.33810505  1
  S2-  S189  1  0.89623572  0.51600054  0.83483017  1
  S2-  S190  1  0.88993902  0.65600240  0.35191763  1
  S2-  S191  1  0.87927432  0.84514460  0.85374136  1
  S2-  S192  1  0.00047686  0.11834920  0.45387877  1
  S2-  S193  1  0.01489544  0.11459260  0.95238442  1
  S2-  S194  1  0.00238642  0.36894225  0.45106924  1
  S2-  S195  1  -0.00171084  0.36384345  0.95316766  1
  S2-  S196  1  0.00400255  0.62643600  0.45809013  1
  S2-  S197  1  0.00570923  0.61604937  0.94171496  1
  S2-  S198  1  0.00568529  0.87505021  0.45867537  1
  S2-  S199  1  0.00674909  0.87048505  0.95233954  1
  S2-  S200  1  0.25255904  0.12251204  0.45517145  1
  S2-  S201  1  0.25769166  0.11786945  0.95806777  1
  S2-  S202  1  0.25124093  0.37273111  0.45053713  1
  S2-  S203  1  0.25416339  0.36702833  0.95479677  1
  S2-  S204  1  0.25493852  0.62115418  0.44649361  1
  S2-  S205  1  0.24968644  0.61806815  0.93691840  1
  S2-  S206  1  0.25322094  0.87068017  0.45701727  1
  S2-  S207  1  0.26731795  0.86590662  0.94680683  1
  S2-  S208  1  0.50051706  0.12416114  0.44746931  1
  S2-  S209  1  0.50403226  0.11941168  0.94808104  1
  S2-  S210  1  0.50147967  0.37036787  0.45578297  1
  S2-  S211  1  0.50624794  0.36564886  0.95935248  1
  S2-  S212  1  0.50529128  0.62181638  0.45010477  1
  S2-  S213  1  0.50492248  0.62190982  0.95745094  1
  S2-  S214  1  0.50224021  0.86877583  0.45217168  1
  S2-  S215  1  0.50392524  0.86685055  0.96375879  1
  S2-  S216  1  0.75470520  0.12039100  0.45336945  1
  S2-  S217  1  0.74780533  0.11630795  0.95616278  1
  S2-  S218  1  0.75103764  0.37397230  0.44782912  1
  S2-  S219  1  0.75122845  0.36685262  0.95078890  1
  S2-  S220  1  0.74599813  0.62087320  0.45104088  1
  S2-  S221  1  0.75386599  0.61589004  0.95067938  1
  S2-  S222  1  0.74705380  0.87245276  0.45555457  1
  S2-  S223  1  0.75013757  0.86752737  0.96012108  1
  S2-  S224  1  0.13206127  -0.00509235  0.04645728  1
  S2-  S225  1  0.12738088  -0.00432860  0.55695335  1
  S2-  S226  1  0.13231779  0.24556604  0.05031552  1
  S2-  S227  1  0.12404030  0.25062488  0.54920784  1
  S2-  S228  1  0.12781043  0.49361488  0.03541843  1
  S2-  S229  1  0.12476727  0.49701928  0.54085027  1
  S2-  S230  1  0.12841845  0.74447701  0.03560813  1
  S2-  S231  1  0.12754793  0.74536265  0.54956937  1
  S2-  S232  1  0.38110760  -0.00509063  0.04436101  1
  S2-  S233  1  0.37615328  -0.00300257  0.54964503  1
  S2-  S234  1  0.38025912  0.24145769  0.03730143  1
  S2-  S235  1  0.37679374  0.24958808  0.54876541  1
  S2-  S236  1  0.38190241  0.49576081  0.03689802  1
  S2-  S237  1  0.37632675  0.49656666  0.54334488  1
  S2-  S238  1  0.37982304  0.74400592  0.05765125  1
  S2-  S239  1  0.37519527  0.74601710  0.54392800  1
  S2-  S240  1  0.62583760  -0.00413848  0.04682264  1
  S2-  S241  1  0.62460407  -0.00095545  0.54880021  1
  S2-  S242  1  0.62971767  0.24314207  0.05325567  1
  S2-  S243  1  0.62448879  0.24636587  0.54643949  1
  S2-  S244  1  0.62985150  0.49151657  0.05171669  1
  S2-  S245  1  0.62522848  0.49872447  0.55245054  1
  S2-  S246  1  0.63279810  0.74652816  0.05812130  1
  S2-  S247  1  0.62684480  0.74369039  0.54603646  1
  S2-  S248  1  0.88002225  -0.00201704  0.03563188  1
  S2-  S249  1  0.87748241  -0.00286854  0.54604904  1
  S2-  S250  1  0.87715906  0.24411412  0.04335234  1
  S2-  S251  1  0.87923709  0.24917188  0.54704691  1
  S2-  S252  1  0.87816617  0.49272166  0.03969691  1
  S2-  S253  1  0.87825322  0.49513943  0.53434470  1
  S2-  S254  1  0.87895566  0.74317802  0.04010205  1
  S2-  S255  1  0.87524375  0.75003872  0.53928116  1
