# generated using pymatgen
data_La6Ce6Pr19Nd20Sm13(BiS2)64
_symmetry_space_group_name_H-M   'P 1'
_cell_length_a   16.11794251
_cell_length_b   16.02169944
_cell_length_c   27.37026666
_cell_angle_alpha   89.55085517
_cell_angle_beta   89.66367791
_cell_angle_gamma   89.94365371
_symmetry_Int_Tables_number   1
_chemical_formula_structural   La6Ce6Pr19Nd20Sm13(BiS2)64
_chemical_formula_sum   'La6 Ce6 Pr19 Nd20 Sm13 Bi64 S128'
_cell_volume   7067.66887636
_cell_formula_units_Z   1
loop_
 _symmetry_equiv_pos_site_id
 _symmetry_equiv_pos_as_xyz
  1  'x, y, z'
loop_
 _atom_type_symbol
 _atom_type_oxidation_number
  La3+  3.0
  Ce3+  3.0
  Pr3+  3.0
  Nd3+  3.0
  Sm3+  3.0
  Bi2+  2.0
  S2-  -2.0
loop_
 _atom_site_type_symbol
 _atom_site_label
 _atom_site_symmetry_multiplicity
 _atom_site_fract_x
 _atom_site_fract_y
 _atom_site_fract_z
 _atom_site_occupancy
  La3+  La0  1  0.75698511  0.64606741  0.07480454  1
  La3+  La1  1  0.64235502  0.01554309  0.91180673  1
  La3+  La2  1  0.61386217  0.74893239  0.89527013  1
  La3+  La3  1  0.00935482  0.38127658  0.09086371  1
  La3+  La4  1  0.26678032  0.12864606  0.61048291  1
  La3+  La5  1  0.38291833  0.49632549  0.41037608  1
  Ce3+  Ce6  1  0.87666301  0.51040522  0.44216049  1
  Ce3+  Ce7  1  0.25682508  0.88597324  0.06519927  1
  Ce3+  Ce8  1  0.62536357  0.00189368  0.43119901  1
  Ce3+  Ce9  1  0.38426018  0.76611188  0.94784163  1
  Ce3+  Ce10  1  0.50549097  0.38718458  0.06562004  1
  Ce3+  Ce11  1  0.13054120  0.25673776  0.44739501  1
  Pr3+  Pr12  1  0.74822542  0.63322834  0.56736060  1
  Pr3+  Pr13  1  0.87642413  0.76434244  0.42937632  1
  Pr3+  Pr14  1  0.01226437  0.63593485  0.07167269  1
  Pr3+  Pr15  1  0.38057640  0.76644891  0.42671960  1
  Pr3+  Pr16  1  0.12821545  0.01053316  0.44049916  1
  Pr3+  Pr17  1  0.00373484  0.63312659  0.55869705  1
  Pr3+  Pr18  1  0.25454082  0.62531220  0.54503151  1
  Pr3+  Pr19  1  0.26254317  0.64026146  0.07418420  1
  Pr3+  Pr20  1  0.74985970  0.87876856  0.56653787  1
  Pr3+  Pr21  1  0.75784899  0.89271097  0.06053045  1
  Pr3+  Pr22  1  0.25661472  0.87914216  0.56128261  1
  Pr3+  Pr23  1  0.13406481  0.52025938  0.93930661  1
  Pr3+  Pr24  1  0.00401726  0.87783058  0.56536662  1
  Pr3+  Pr25  1  0.50062414  0.62700941  0.55709048  1
  Pr3+  Pr26  1  0.13340361  0.27302706  0.94214285  1
  Pr3+  Pr27  1  0.63434893  0.26542025  0.93869766  1
  Pr3+  Pr28  1  0.75831990  0.13550917  0.06674561  1
  Pr3+  Pr29  1  0.87669423  0.76098568  0.93360950  1
  Pr3+  Pr30  1  0.13220730  0.02256233  0.93328791  1
  Nd3+  Nd31  1  0.24570326  0.38643802  0.57300985  1
  Nd3+  Nd32  1  0.38358092  0.01367487  0.93918178  1
  Nd3+  Nd33  1  0.38574275  0.52188790  0.94488127  1
  Nd3+  Nd34  1  0.49977304  0.38069186  0.55572299  1
  Nd3+  Nd35  1  0.88732376  0.26699454  0.94405735  1
  Nd3+  Nd36  1  0.00369574  0.37755072  0.55671845  1
  Nd3+  Nd37  1  0.51237278  0.13033399  0.56744884  1
  Nd3+  Nd38  1  0.87822090  0.01135858  0.43466129  1
  Nd3+  Nd39  1  0.01597675  0.12799389  0.07388691  1
  Nd3+  Nd40  1  0.12697252  0.51101407  0.42339218  1
  Nd3+  Nd41  1  0.38210296  0.27048742  0.93837719  1
  Nd3+  Nd42  1  0.26087661  0.13997213  0.06484868  1
  Nd3+  Nd43  1  0.12831031  0.76584799  0.43018293  1
  Nd3+  Nd44  1  0.00575391  0.12323431  0.57257673  1
  Nd3+  Nd45  1  0.51348917  0.89107600  0.05264125  1
  Nd3+  Nd46  1  0.88312516  0.02288006  0.93180343  1
  Nd3+  Nd47  1  0.62747835  0.75937445  0.43440670  1
  Nd3+  Nd48  1  0.51413353  0.64325275  0.07509923  1
  Nd3+  Nd49  1  0.62959914  0.51349355  0.42650687  1
  Nd3+  Nd50  1  0.50478239  0.88410950  0.56863146  1
  Sm3+  Sm51  1  0.87955536  0.25272114  0.43997176  1
  Sm3+  Sm52  1  0.76035931  0.38632862  0.05805641  1
  Sm3+  Sm53  1  0.37926091  0.00944119  0.44535759  1
  Sm3+  Sm54  1  0.75216691  0.38173773  0.55088732  1
  Sm3+  Sm55  1  0.37572369  0.25681218  0.44821133  1
  Sm3+  Sm56  1  0.75058384  0.13050790  0.55700067  1
  Sm3+  Sm57  1  0.13254391  0.76583429  0.93932354  1
  Sm3+  Sm58  1  0.63393070  0.51767327  0.94951275  1
  Sm3+  Sm59  1  0.26304460  0.39599002  0.08012025  1
  Sm3+  Sm60  1  0.62677835  0.25590204  0.43971191  1
  Sm3+  Sm61  1  0.00692587  0.88490000  0.05923354  1
  Sm3+  Sm62  1  0.88363090  0.52058572  0.94972408  1
  Sm3+  Sm63  1  0.50729192  0.13903906  0.05217950  1
  Bi2+  Bi64  1  0.04676359  0.11070820  0.31366220  1
  Bi2+  Bi65  1  0.00103459  0.10895641  0.79399488  1
  Bi2+  Bi66  1  -0.07427230  0.27381339  0.29657398  1
  Bi2+  Bi67  1  -0.01772465  0.36155828  0.80577063  1
  Bi2+  Bi68  1  -0.01109917  0.59246757  0.29843440  1
  Bi2+  Bi69  1  -0.01510106  0.55673404  0.77383760  1
  Bi2+  Bi70  1  -0.00178321  0.92452812  0.28760603  1
  Bi2+  Bi71  1  0.01014223  0.80541574  0.78266909  1
  Bi2+  Bi72  1  0.26776860  0.09971368  0.28308487  1
  Bi2+  Bi73  1  0.25557001  0.09142834  0.81380352  1
  Bi2+  Bi74  1  0.25584885  0.30323296  0.28840837  1
  Bi2+  Bi75  1  0.21554201  0.40959800  0.77820298  1
  Bi2+  Bi76  1  0.25143777  0.66174945  0.29152921  1
  Bi2+  Bi77  1  0.27846326  0.59115671  0.80781455  1
  Bi2+  Bi78  1  0.25213224  0.89315698  0.29115213  1
  Bi2+  Bi79  1  0.21081087  0.79829174  0.80650841  1
  Bi2+  Bi80  1  0.45479225  0.06988175  0.31793017  1
  Bi2+  Bi81  1  0.48079463  0.20535417  0.78300878  1
  Bi2+  Bi82  1  0.51143252  0.32665585  0.28406044  1
  Bi2+  Bi83  1  0.59478102  0.35109623  0.81931754  1
  Bi2+  Bi84  1  0.51688637  0.60940265  0.28873619  1
  Bi2+  Bi85  1  0.52650427  0.52421726  0.78073551  1
  Bi2+  Bi86  1  0.50038980  0.93427503  0.23823692  1
  Bi2+  Bi87  1  0.46367196  0.86036291  0.79009697  1
  Bi2+  Bi88  1  0.65285327  0.07866225  0.30251085  1
  Bi2+  Bi89  1  0.76202660  0.20359772  0.78565179  1
  Bi2+  Bi90  1  0.74732670  0.36084345  0.29074461  1
  Bi2+  Bi91  1  0.78730880  0.40081478  0.80868849  1
  Bi2+  Bi92  1  0.75954157  0.59808687  0.28486366  1
  Bi2+  Bi93  1  0.77764172  0.62266967  0.79903238  1
  Bi2+  Bi94  1  0.73522212  0.87188243  0.28483451  1
  Bi2+  Bi95  1  0.73536642  0.88901133  0.78245047  1
  Bi2+  Bi96  1  0.11739584  -0.03898396  0.19065821  1
  Bi2+  Bi97  1  0.09916335  0.00732156  0.71190968  1
  Bi2+  Bi98  1  0.09938684  0.21939690  0.21865285  1
  Bi2+  Bi99  1  0.09387491  0.28634586  0.71850855  1
  Bi2+  Bi100  1  0.12988370  0.47270442  0.22070494  1
  Bi2+  Bi101  1  0.13647563  0.54177685  0.70160084  1
  Bi2+  Bi102  1  0.12548997  0.75334207  0.21956594  1
  Bi2+  Bi103  1  0.14681069  0.74273872  0.70225666  1
  Bi2+  Bi104  1  0.31940138  -0.04070093  0.18845066  1
  Bi2+  Bi105  1  0.35826230  -0.05537091  0.70409109  1
  Bi2+  Bi106  1  0.38280964  0.22529368  0.21794085  1
  Bi2+  Bi107  1  0.37663669  0.34452005  0.72554168  1
  Bi2+  Bi108  1  0.37303100  0.49211230  0.21506598  1
  Bi2+  Bi109  1  0.41880500  0.53380185  0.68647762  1
  Bi2+  Bi110  1  0.37965806  0.77052569  0.20972438  1
  Bi2+  Bi111  1  0.34628477  0.70660198  0.72271597  1
  Bi2+  Bi112  1  0.60704879  0.08899984  0.18840289  1
  Bi2+  Bi113  1  0.58664316  0.03415453  0.70914782  1
  Bi2+  Bi114  1  0.63513531  0.28852500  0.19291736  1
  Bi2+  Bi115  1  0.61974731  0.27688754  0.70807709  1
  Bi2+  Bi116  1  0.63275874  0.48241634  0.22129526  1
  Bi2+  Bi117  1  0.70225009  0.51595954  0.71263217  1
  Bi2+  Bi118  1  0.64476047  0.75632650  0.21051352  1
  Bi2+  Bi119  1  0.60741816  0.75282873  0.68468893  1
  Bi2+  Bi120  1  0.81664364  0.03284348  0.23475300  1
  Bi2+  Bi121  1  0.91023892  -0.04269558  0.73937310  1
  Bi2+  Bi122  1  0.82250653  0.22039438  0.20033381  1
  Bi2+  Bi123  1  0.90644664  0.22648888  0.70916980  1
  Bi2+  Bi124  1  0.89767695  0.45129149  0.22587851  1
  Bi2+  Bi125  1  0.87984753  0.42813104  0.70027775  1
  Bi2+  Bi126  1  0.88976952  0.81655045  0.21653175  1
  Bi2+  Bi127  1  0.89179629  0.70253090  0.71191367  1
  S2-  S128  1  -0.01956419  0.23388275  0.15252485  1
  S2-  S129  1  0.10607798  0.14925800  0.65309026  1
  S2-  S130  1  0.01142289  0.52310871  0.15524315  1
  S2-  S131  1  0.09110087  0.40261014  0.64036594  1
  S2-  S132  1  0.00684249  0.76085880  0.14668948  1
  S2-  S133  1  0.00844009  0.74513720  0.63674744  1
  S2-  S134  1  -0.01540472  0.98792364  0.13888853  1
  S2-  S135  1  -0.02645014  0.98748213  0.64286095  1
  S2-  S136  1  0.16307071  0.11679323  0.14593635  1
  S2-  S137  1  0.27150586  0.08450815  0.71556138  1
  S2-  S138  1  0.15627274  0.35063260  0.15691345  1
  S2-  S139  1  0.28371253  0.28794567  0.65363256  1
  S2-  S140  1  0.24342934  0.52863607  0.15413406  1
  S2-  S141  1  0.27005444  0.53316479  0.63231248  1
  S2-  S142  1  0.24007383  0.77182310  0.14420457  1
  S2-  S143  1  0.21323622  0.90506934  0.65745227  1
  S2-  S144  1  0.44594591  0.13144966  0.14460734  1
  S2-  S145  1  0.44499276  0.07870101  0.65565100  1
  S2-  S146  1  0.40323404  0.38207013  0.14675903  1
  S2-  S147  1  0.50867663  0.38065538  0.65526775  1
  S2-  S148  1  0.41642350  0.63492575  0.16079214  1
  S2-  S149  1  0.61378572  0.60423765  0.63625720  1
  S2-  S150  1  0.53555337  0.85357876  0.15117541  1
  S2-  S151  1  0.44455190  0.80123055  0.65208156  1
  S2-  S152  1  0.74200153  0.01204485  0.14083157  1
  S2-  S153  1  0.65586164  0.13267871  0.64128171  1
  S2-  S154  1  0.82261661  0.38893448  0.14940722  1
  S2-  S155  1  0.73525537  0.37419442  0.64846056  1
  S2-  S156  1  0.63569853  0.61893658  0.15155291  1
  S2-  S157  1  0.76921972  0.75522903  0.64346863  1
  S2-  S158  1  0.77784047  0.78312392  0.14592667  1
  S2-  S159  1  0.62847843  0.91330667  0.64445949  1
  S2-  S160  1  0.12820480  -0.09926969  0.36073964  1
  S2-  S161  1  0.15770718  -0.05169604  0.83966998  1
  S2-  S162  1  0.11875437  0.25825442  0.34996701  1
  S2-  S163  1  0.12132686  0.16133879  0.86214066  1
  S2-  S164  1  0.09441810  0.47473630  0.32618444  1
  S2-  S165  1  0.12548240  0.39710639  0.86412757  1
  S2-  S166  1  0.09665729  0.68492840  0.34328953  1
  S2-  S167  1  0.14417037  0.65166606  0.86445508  1
  S2-  S168  1  0.38376729  -0.07949095  0.36110217  1
  S2-  S169  1  0.38092842  -0.00440880  0.84036781  1
  S2-  S170  1  0.37890058  0.31638095  0.35510780  1
  S2-  S171  1  0.34882908  0.23529135  0.84272153  1
  S2-  S172  1  0.31038730  0.51668323  0.31553616  1
  S2-  S173  1  0.39426866  0.48189668  0.84741985  1
  S2-  S174  1  0.40858644  0.70830310  0.33117667  1
  S2-  S175  1  0.44186479  0.73734288  0.85833486  1
  S2-  S176  1  0.62160260  -0.11845701  0.35968739  1
  S2-  S177  1  0.58826719  -0.02717909  0.81071378  1
  S2-  S178  1  0.63830729  0.24533753  0.34151426  1
  S2-  S179  1  0.63819213  0.17054040  0.85343402  1
  S2-  S180  1  0.52775941  0.47361319  0.34724783  1
  S2-  S181  1  0.62848953  0.58312682  0.85832175  1
  S2-  S182  1  0.64212330  0.64760516  0.35539123  1
  S2-  S183  1  0.60513001  0.76397728  0.78156715  1
  S2-  S184  1  0.87411148  -0.09826974  0.35741748  1
  S2-  S185  1  0.78587982  -0.00966940  0.84899983  1
  S2-  S186  1  0.88508713  0.14475085  0.36250268  1
  S2-  S187  1  0.88993909  0.16769436  0.86168311  1
  S2-  S188  1  0.85171358  0.48371386  0.34676927  1
  S2-  S189  1  0.90485669  0.60914709  0.86497558  1
  S2-  S190  1  0.85931551  0.69511518  0.33445073  1
  S2-  S191  1  0.77170416  0.77268271  0.85225670  1
  S2-  S192  1  0.00368093  0.13329238  0.46498829  1
  S2-  S193  1  0.00954322  0.14307646  0.96600929  1
  S2-  S194  1  0.00036217  0.38096905  0.45024758  1
  S2-  S195  1  0.00249316  0.39576706  0.96375133  1
  S2-  S196  1  0.00195855  0.63346913  0.45186219  1
  S2-  S197  1  0.00942891  0.64319141  0.96560006  1
  S2-  S198  1  0.00210754  0.88484573  0.45959668  1
  S2-  S199  1  0.00735067  0.88897036  0.94713242  1
  S2-  S200  1  0.25700098  0.13181660  0.44135037  1
  S2-  S201  1  0.26329163  0.14142586  0.95863035  1
  S2-  S202  1  0.25108555  0.38464256  0.45188400  1
  S2-  S203  1  0.26431767  0.39587407  0.96206531  1
  S2-  S204  1  0.25475386  0.63237241  0.43947175  1
  S2-  S205  1  0.26173653  0.64379847  0.96460953  1
  S2-  S206  1  0.25538029  0.88483830  0.45724858  1
  S2-  S207  1  0.25774595  0.88831363  0.95574808  1
  S2-  S208  1  0.50340693  0.13405020  0.45539227  1
  S2-  S209  1  0.50499407  0.14044379  0.94891609  1
  S2-  S210  1  0.50646011  0.37658111  0.45218298  1
  S2-  S211  1  0.50920588  0.39253610  0.95780502  1
  S2-  S212  1  0.49867787  0.63138254  0.44991651  1
  S2-  S213  1  0.51205081  0.64152754  0.96472185  1
  S2-  S214  1  0.50140797  0.88440804  0.46267675  1
  S2-  S215  1  0.51486005  0.89002301  0.94537792  1
  S2-  S216  1  0.74826121  0.13320434  0.45444998  1
  S2-  S217  1  0.75751803  0.14320208  0.95976652  1
  S2-  S218  1  0.75336788  0.37766754  0.44716989  1
  S2-  S219  1  0.75980566  0.39330158  0.95369510  1
  S2-  S220  1  0.75488856  0.63335439  0.45858160  1
  S2-  S221  1  0.75430958  0.63797881  0.96320108  1
  S2-  S222  1  0.75127029  0.88427642  0.45912230  1
  S2-  S223  1  0.75885925  0.89370092  0.95522601  1
  S2-  S224  1  0.13763941  0.00716366  0.03998295  1
  S2-  S225  1  0.13460767  0.00822857  0.54714994  1
  S2-  S226  1  0.13868928  0.26590958  0.04777512  1
  S2-  S227  1  0.13159570  0.25414405  0.54886871  1
  S2-  S228  1  0.13681862  0.51102242  0.04768852  1
  S2-  S229  1  0.12328576  0.50706963  0.53160937  1
  S2-  S230  1  0.13225100  0.76501312  0.04165626  1
  S2-  S231  1  0.13346248  0.75441643  0.53736101  1
  S2-  S232  1  0.38319928  0.01239071  0.04463878  1
  S2-  S233  1  0.37632220  0.00995825  0.54931637  1
  S2-  S234  1  0.38178784  0.26466962  0.04479149  1
  S2-  S235  1  0.37963817  0.25004261  0.55008133  1
  S2-  S236  1  0.38893925  0.51779420  0.04946266  1
  S2-  S237  1  0.37975305  0.50006798  0.53109136  1
  S2-  S238  1  0.38822585  0.76689339  0.05101557  1
  S2-  S239  1  0.37744200  0.75254315  0.53766992  1
  S2-  S240  1  0.62845375  0.01965578  0.03676345  1
  S2-  S241  1  0.62926829  0.00875740  0.53724498  1
  S2-  S242  1  0.63231570  0.26339903  0.04761456  1
  S2-  S243  1  0.63001905  0.25936374  0.54290983  1
  S2-  S244  1  0.63479903  0.50691717  0.05248993  1
  S2-  S245  1  0.62845394  0.50055071  0.53412248  1
  S2-  S246  1  0.63289813  0.76615592  0.04751948  1
  S2-  S247  1  0.62243496  0.75624567  0.54070193  1
  S2-  S248  1  0.88492608  0.01518673  0.03801754  1
  S2-  S249  1  0.87041388  0.00814551  0.54235402  1
  S2-  S250  1  0.88148964  0.26175215  0.04733281  1
  S2-  S251  1  0.87593018  0.25391932  0.54744441  1
  S2-  S252  1  0.87925576  0.51576229  0.05212775  1
  S2-  S253  1  0.87759319  0.50564578  0.55034810  1
  S2-  S254  1  0.88583698  0.76526944  0.04091336  1
  S2-  S255  1  0.87711261  0.75568613  0.53751753  1
