# generated using pymatgen
data_La6Ce6Pr19Nd20Sm13(BiS2)64
_symmetry_space_group_name_H-M   'P 1'
_cell_length_a   16.11668517
_cell_length_b   16.10582472
_cell_length_c   27.42418894
_cell_angle_alpha   89.67629140
_cell_angle_beta   89.95848981
_cell_angle_gamma   90.14240318
_symmetry_Int_Tables_number   1
_chemical_formula_structural   La6Ce6Pr19Nd20Sm13(BiS2)64
_chemical_formula_sum   'La6 Ce6 Pr19 Nd20 Sm13 Bi64 S128'
_cell_volume   7118.42792232
_cell_formula_units_Z   1
loop_
 _symmetry_equiv_pos_site_id
 _symmetry_equiv_pos_as_xyz
  1  'x, y, z'
loop_
 _atom_type_symbol
 _atom_type_oxidation_number
  La3+  3.0
  Ce3+  3.0
  Pr3+  3.0
  Nd3+  3.0
  Sm3+  3.0
  Bi2+  2.0
  S2-  -2.0
loop_
 _atom_site_type_symbol
 _atom_site_label
 _atom_site_symmetry_multiplicity
 _atom_site_fract_x
 _atom_site_fract_y
 _atom_site_fract_z
 _atom_site_occupancy
  La3+  La0  1  0.24525968  0.88790058  0.58745559  1
  La3+  La1  1  0.36641657  0.26454683  0.41352209  1
  La3+  La2  1  0.38053951  0.75679056  0.43630152  1
  La3+  La3  1  0.23790400  0.86841099  0.08806382  1
  La3+  La4  1  0.38763956  0.01027239  0.41443550  1
  La3+  La5  1  0.73923123  0.11198688  0.08291791  1
  Ce3+  Ce6  1  0.86701046  0.49749664  0.94781106  1
  Ce3+  Ce7  1  0.86545728  0.74445508  0.93832451  1
  Ce3+  Ce8  1  0.86554045  -0.00003805  0.94365351  1
  Ce3+  Ce9  1  0.11685171  -0.00757345  0.94286176  1
  Ce3+  Ce10  1  -0.00818732  0.36762782  0.06553310  1
  Ce3+  Ce11  1  0.25407472  0.62882999  0.55561541  1
  Pr3+  Pr12  1  0.23584225  0.37064090  0.07193820  1
  Pr3+  Pr13  1  0.49292756  0.62448152  0.06311613  1
  Pr3+  Pr14  1  -0.00468303  0.62124233  0.06406174  1
  Pr3+  Pr15  1  0.11890559  0.25526168  0.43723043  1
  Pr3+  Pr16  1  -0.00985383  0.11756462  0.06271559  1
  Pr3+  Pr17  1  0.75401222  0.12526600  0.56810189  1
  Pr3+  Pr18  1  0.87598811  0.00101627  0.43517630  1
  Pr3+  Pr19  1  0.61709547  0.00043375  0.93448572  1
  Pr3+  Pr20  1  0.13130584  0.75326692  0.43517698  1
  Pr3+  Pr21  1  0.87334543  0.50242883  0.44581862  1
  Pr3+  Pr22  1  0.74011610  0.61350808  0.07190393  1
  Pr3+  Pr23  1  0.24452461  0.62199143  0.07542724  1
  Pr3+  Pr24  1  0.61633153  0.24377262  0.93879578  1
  Pr3+  Pr25  1  0.00517242  0.62835764  0.55794620  1
  Pr3+  Pr26  1  0.73858718  0.38290129  0.60543159  1
  Pr3+  Pr27  1  0.60693331  0.75673168  0.92766643  1
  Pr3+  Pr28  1  0.61756270  0.50861458  0.93305499  1
  Pr3+  Pr29  1  0.63872743  -0.00480784  0.42933606  1
  Pr3+  Pr30  1  0.49760956  0.63518356  0.57735283  1
  Nd3+  Nd31  1  0.13107100  0.00284367  0.42963817  1
  Nd3+  Nd32  1  0.50045578  0.12217073  0.55353734  1
  Nd3+  Nd33  1  0.48292653  0.12109215  0.06208910  1
  Nd3+  Nd34  1  0.36351305  0.50009178  0.94118103  1
  Nd3+  Nd35  1  0.62700647  0.50239171  0.45104636  1
  Nd3+  Nd36  1  0.12703238  0.50053760  0.44715079  1
  Nd3+  Nd37  1  0.87515228  0.75079009  0.43798483  1
  Nd3+  Nd38  1  0.86731516  0.24877145  0.94500603  1
  Nd3+  Nd39  1  0.35687096  0.75004561  0.93557207  1
  Nd3+  Nd40  1  -0.00071059  0.37661623  0.57011143  1
  Nd3+  Nd41  1  0.75413998  0.63302431  0.57726056  1
  Nd3+  Nd42  1  0.73932315  0.86839599  0.06059506  1
  Nd3+  Nd43  1  0.11573100  0.49963943  0.93889774  1
  Nd3+  Nd44  1  0.37767495  0.49922407  0.44651884  1
  Nd3+  Nd45  1  -0.01019432  0.86477660  0.06192612  1
  Nd3+  Nd46  1  0.49105384  0.87107623  0.05914732  1
  Nd3+  Nd47  1  0.49994696  0.88331673  0.56324887  1
  Nd3+  Nd48  1  0.62829968  0.25077531  0.43856136  1
  Nd3+  Nd49  1  0.48856344  0.37242513  0.05987538  1
  Nd3+  Nd50  1  0.24964181  0.37253976  0.57386132  1
  Sm3+  Sm51  1  0.73714761  0.36824389  0.05751694  1
  Sm3+  Sm52  1  0.11087229  0.75361124  0.92933711  1
  Sm3+  Sm53  1  0.75350776  0.87928247  0.56938387  1
  Sm3+  Sm54  1  0.00568720  0.12494181  0.55444623  1
  Sm3+  Sm55  1  0.36043265  -0.00407081  0.94199299  1
  Sm3+  Sm56  1  0.24300183  0.11949232  0.05614723  1
  Sm3+  Sm57  1  0.62629661  0.75169775  0.45147293  1
  Sm3+  Sm58  1  0.87181941  0.25297681  0.44590749  1
  Sm3+  Sm59  1  0.11617570  0.24927693  0.94749956  1
  Sm3+  Sm60  1  0.00550423  0.87823271  0.55142061  1
  Sm3+  Sm61  1  0.36366309  0.25133818  0.94117406  1
  Sm3+  Sm62  1  0.25475739  0.12647056  0.54708659  1
  Sm3+  Sm63  1  0.50264656  0.37545955  0.55926149  1
  Bi2+  Bi64  1  0.00406724  0.15536088  0.28877496  1
  Bi2+  Bi65  1  -0.00030968  0.10446358  0.76196515  1
  Bi2+  Bi66  1  0.00172407  0.45361634  0.28564253  1
  Bi2+  Bi67  1  -0.00086248  0.37026765  0.79842390  1
  Bi2+  Bi68  1  -0.04952957  0.64953481  0.28435128  1
  Bi2+  Bi69  1  -0.00287927  0.62986961  0.79734432  1
  Bi2+  Bi70  1  0.00680222  0.89693166  0.23437261  1
  Bi2+  Bi71  1  0.00312737  0.84035592  0.73424995  1
  Bi2+  Bi72  1  0.24084922  0.12235470  0.28849067  1
  Bi2+  Bi73  1  0.26373678  0.12114611  0.77924368  1
  Bi2+  Bi74  1  0.25619288  0.37943056  0.28842223  1
  Bi2+  Bi75  1  0.23768866  0.33767204  0.79498764  1
  Bi2+  Bi76  1  0.21181809  0.62272877  0.29558700  1
  Bi2+  Bi77  1  0.25711340  0.60819875  0.78950501  1
  Bi2+  Bi78  1  0.25097749  0.86703550  0.28583891  1
  Bi2+  Bi79  1  0.23876256  0.86426604  0.79950237  1
  Bi2+  Bi80  1  0.54773786  0.16903568  0.29448397  1
  Bi2+  Bi81  1  0.46063366  0.14819372  0.77732770  1
  Bi2+  Bi82  1  0.51623305  0.41482625  0.28830438  1
  Bi2+  Bi83  1  0.42219140  0.37478296  0.76471205  1
  Bi2+  Bi84  1  0.53275206  0.62150474  0.29989223  1
  Bi2+  Bi85  1  0.51703591  0.60777082  0.80666518  1
  Bi2+  Bi86  1  0.50763511  0.86786050  0.30398446  1
  Bi2+  Bi87  1  0.50103478  0.87787535  0.78997724  1
  Bi2+  Bi88  1  0.81126827  0.16694710  0.30262038  1
  Bi2+  Bi89  1  0.73403886  0.08304916  0.79487196  1
  Bi2+  Bi90  1  0.85467659  0.42051777  0.21230425  1
  Bi2+  Bi91  1  0.74059104  0.29147050  0.80361159  1
  Bi2+  Bi92  1  0.76241987  0.60029428  0.28689605  1
  Bi2+  Bi93  1  0.74854702  0.53048907  0.81602604  1
  Bi2+  Bi94  1  0.76513911  0.86478656  0.29653193  1
  Bi2+  Bi95  1  0.77017140  0.85883785  0.79346183  1
  Bi2+  Bi96  1  0.05939143  0.07527405  0.18719771  1
  Bi2+  Bi97  1  0.14143493  -0.00583824  0.71111102  1
  Bi2+  Bi98  1  0.14745215  0.24495636  0.21589306  1
  Bi2+  Bi99  1  0.13407322  0.21985624  0.71025100  1
  Bi2+  Bi100  1  0.15090326  0.49188487  0.21327203  1
  Bi2+  Bi101  1  0.08079690  0.48315260  0.71465002  1
  Bi2+  Bi102  1  0.11979589  0.73250905  0.21335936  1
  Bi2+  Bi103  1  0.11833589  0.68772570  0.71040399  1
  Bi2+  Bi104  1  0.39867726  0.00558749  0.20168521  1
  Bi2+  Bi105  1  0.37044793  0.00485724  0.70619302  1
  Bi2+  Bi106  1  0.40575106  0.24934186  0.19982046  1
  Bi2+  Bi107  1  0.32701384  0.25926964  0.68870190  1
  Bi2+  Bi108  1  0.37153245  0.54287103  0.24428726  1
  Bi2+  Bi109  1  0.28276972  0.45733153  0.70006327  1
  Bi2+  Bi110  1  0.41013416  0.72477138  0.20341887  1
  Bi2+  Bi111  1  0.39222836  0.71023191  0.70621728  1
  Bi2+  Bi112  1  0.64552039  0.06347876  0.22006411  1
  Bi2+  Bi113  1  0.59602955  0.03070351  0.71795734  1
  Bi2+  Bi114  1  0.65560508  0.32576624  0.22282511  1
  Bi2+  Bi115  1  0.60905696  0.24557305  0.72459872  1
  Bi2+  Bi116  1  0.60992957  0.53706863  0.20778687  1
  Bi2+  Bi117  1  0.61007485  0.48098109  0.71870869  1
  Bi2+  Bi118  1  0.68738285  0.74304995  0.21974989  1
  Bi2+  Bi119  1  0.63414995  0.82874655  0.71227450  1
  Bi2+  Bi120  1  0.84161845  -0.00803861  0.21822097  1
  Bi2+  Bi121  1  0.87040803  -0.01819257  0.71425158  1
  Bi2+  Bi122  1  0.95491072  0.26065271  0.18795758  1
  Bi2+  Bi123  1  0.87283382  0.22376407  0.70825754  1
  Bi2+  Bi124  1  0.88234557  0.61247326  0.17896400  1
  Bi2+  Bi125  1  0.82823336  0.43375951  0.73472810  1
  Bi2+  Bi126  1  0.86014283  0.80766845  0.16905410  1
  Bi2+  Bi127  1  0.84895729  0.71414124  0.73431798  1
  S2-  S128  1  -0.10909716  0.10443968  0.14580229  1
  S2-  S129  1  -0.00272527  0.13275318  0.65197795  1
  S2-  S130  1  0.09947936  0.36980362  0.14183292  1
  S2-  S131  1  -0.10413564  0.36653203  0.65021841  1
  S2-  S132  1  0.10481870  0.60881786  0.14368933  1
  S2-  S133  1  -0.00466505  0.60262164  0.65694076  1
  S2-  S134  1  0.08343262  0.85664575  0.14463533  1
  S2-  S135  1  0.08410743  0.88095557  0.63843026  1
  S2-  S136  1  0.31621009  0.12762834  0.14486626  1
  S2-  S137  1  0.24647376  0.04795397  0.63469503  1
  S2-  S138  1  0.31644839  0.36237180  0.16259537  1
  S2-  S139  1  0.12035826  0.36252470  0.64388497  1
  S2-  S140  1  0.26473106  0.73700722  0.15484249  1
  S2-  S141  1  0.26074215  0.63972541  0.65171871  1
  S2-  S142  1  0.26164117  0.93283309  0.19010268  1
  S2-  S143  1  0.31133383  0.84628143  0.68102338  1
  S2-  S144  1  0.52541357  0.10666709  0.15747946  1
  S2-  S145  1  0.49584947  0.01357500  0.63346048  1
  S2-  S146  1  0.52040416  0.34083846  0.15621271  1
  S2-  S147  1  0.57547668  0.36325851  0.64795997  1
  S2-  S148  1  0.39159754  0.58621890  0.14355877  1
  S2-  S149  1  0.49617344  0.57033020  0.67506199  1
  S2-  S150  1  0.46855236  0.86603439  0.15889637  1
  S2-  S151  1  0.50524568  0.77559496  0.64440860  1
  S2-  S152  1  0.71591485  0.20719613  0.17184368  1
  S2-  S153  1  0.73662379  0.22145271  0.65292458  1
  S2-  S154  1  0.72411696  0.45409184  0.14164589  1
  S2-  S155  1  0.74022673  0.53407903  0.65991943  1
  S2-  S156  1  0.61514972  0.66204493  0.13778530  1
  S2-  S157  1  0.76270996  0.76368387  0.64629006  1
  S2-  S158  1  0.70344427  0.96405750  0.14163012  1
  S2-  S159  1  0.75939153  0.99728587  0.64105474  1
  S2-  S160  1  0.15823364  0.00060671  0.33043253  1
  S2-  S161  1  0.12050973  -0.08518867  0.85697867  1
  S2-  S162  1  0.20801921  0.26271761  0.35169356  1
  S2-  S163  1  0.11113300  0.27830242  0.85085561  1
  S2-  S164  1  0.14185349  0.48321404  0.34962230  1
  S2-  S165  1  0.14296735  0.53775181  0.84188651  1
  S2-  S166  1  0.13262481  0.75923961  0.33533428  1
  S2-  S167  1  0.23560920  0.73651818  0.85949290  1
  S2-  S168  1  0.36505121  -0.03377477  0.31456797  1
  S2-  S169  1  0.36308431  -0.05608161  0.84812154  1
  S2-  S170  1  0.39690147  0.16737249  0.33224105  1
  S2-  S171  1  0.40319878  0.26945554  0.84696177  1
  S2-  S172  1  0.37862653  0.41584943  0.35914909  1
  S2-  S173  1  0.38079342  0.52756346  0.84285246  1
  S2-  S174  1  0.37724261  0.76346847  0.33517286  1
  S2-  S175  1  0.46610616  0.73967846  0.85319143  1
  S2-  S176  1  0.54445169  0.01318722  0.34668581  1
  S2-  S177  1  0.62313682  -0.11035112  0.85449098  1
  S2-  S178  1  0.68918730  0.24962781  0.34323192  1
  S2-  S179  1  0.62192215  0.12711608  0.86404491  1
  S2-  S180  1  0.62583669  0.50625283  0.35150490  1
  S2-  S181  1  0.59321736  0.45433659  0.83766488  1
  S2-  S182  1  0.63389584  0.81154539  0.35985734  1
  S2-  S183  1  0.66609626  0.65851610  0.85248632  1
  S2-  S184  1  0.77459649  0.01301808  0.35470284  1
  S2-  S185  1  0.85779823  -0.01355345  0.84680121  1
  S2-  S186  1  0.93766691  0.26279011  0.35570612  1
  S2-  S187  1  0.89161172  0.25924299  0.84625088  1
  S2-  S188  1  0.86359272  0.49861299  0.34596254  1
  S2-  S189  1  0.91581211  0.49938942  0.85407071  1
  S2-  S190  1  0.89231922  0.78696320  0.34160147  1
  S2-  S191  1  0.97635039  0.74765587  0.86232531  1
  S2-  S192  1  0.00099366  0.12430437  0.44945322  1
  S2-  S193  1  -0.00589348  0.12397975  0.95351456  1
  S2-  S194  1  -0.00096569  0.37942455  0.46171363  1
  S2-  S195  1  -0.00619595  0.37148750  0.95915894  1
  S2-  S196  1  0.00310020  0.62761657  0.44964349  1
  S2-  S197  1  -0.00719078  0.62085537  0.95869611  1
  S2-  S198  1  0.00340996  0.87708653  0.44682082  1
  S2-  S199  1  -0.01277705  0.87401497  0.95871125  1
  S2-  S200  1  0.25233791  0.12885076  0.44511701  1
  S2-  S201  1  0.24058824  0.12481854  0.95003518  1
  S2-  S202  1  0.24955214  0.37704785  0.46524352  1
  S2-  S203  1  0.23972422  0.37169166  0.95587835  1
  S2-  S204  1  0.25468105  0.62499536  0.44880925  1
  S2-  S205  1  0.24012397  0.61949680  0.96139539  1
  S2-  S206  1  0.25491886  0.88169029  0.43737243  1
  S2-  S207  1  0.23942168  0.87437963  0.96163441  1
  S2-  S208  1  0.49980166  0.13471171  0.44992203  1
  S2-  S209  1  0.47996688  0.12419644  0.95524691  1
  S2-  S210  1  0.50366498  0.37462055  0.45645587  1
  S2-  S211  1  0.49143694  0.37229696  0.95272802  1
  S2-  S212  1  0.50125863  0.62692684  0.46131434  1
  S2-  S213  1  0.48733828  0.62314600  0.95638284  1
  S2-  S214  1  0.50468179  0.87985594  0.45576270  1
  S2-  S215  1  0.48374302  0.87931345  0.95481638  1
  S2-  S216  1  0.75414153  0.12861398  0.45944385  1
  S2-  S217  1  0.74650976  0.12470541  0.96529255  1
  S2-  S218  1  0.75118182  0.37641096  0.45321306  1
  S2-  S219  1  0.73968093  0.37279926  0.95254027  1
  S2-  S220  1  0.74972267  0.63026453  0.46045536  1
  S2-  S221  1  0.74600351  0.62108814  0.96331183  1
  S2-  S222  1  0.75651025  0.87146519  0.46258563  1
  S2-  S223  1  0.74539731  0.87255665  0.95508313  1
  S2-  S224  1  0.11887437  -0.00332452  0.04821352  1
  S2-  S225  1  0.12736972  0.00330122  0.53485340  1
  S2-  S226  1  0.11833443  0.23841395  0.04982882  1
  S2-  S227  1  0.12850244  0.24685081  0.54348277  1
  S2-  S228  1  0.11612888  0.49362366  0.04265384  1
  S2-  S229  1  0.12998621  0.50279883  0.55142106  1
  S2-  S230  1  0.11723005  0.74575719  0.03923325  1
  S2-  S231  1  0.13092627  0.75554978  0.54149218  1
  S2-  S232  1  0.36204020  -0.00738414  0.04701466  1
  S2-  S233  1  0.37089886  0.00052346  0.53188311  1
  S2-  S234  1  0.36273956  0.24926553  0.04401377  1
  S2-  S235  1  0.37822149  0.25094237  0.55008229  1
  S2-  S236  1  0.36205601  0.49030986  0.04446564  1
  S2-  S237  1  0.37818498  0.49885024  0.55278780  1
  S2-  S238  1  0.36717287  0.74965656  0.04394783  1
  S2-  S239  1  0.36954543  0.76063834  0.54498493  1
  S2-  S240  1  0.61009845  -0.00040179  0.03976068  1
  S2-  S241  1  0.63068940  0.00097300  0.53719354  1
  S2-  S242  1  0.61443421  0.24509990  0.04591731  1
  S2-  S243  1  0.62313133  0.24906525  0.54449731  1
  S2-  S244  1  0.61367658  0.49431338  0.04027999  1
  S2-  S245  1  0.62239540  0.50697322  0.55440610  1
  S2-  S246  1  0.61585347  0.75234426  0.03507418  1
  S2-  S247  1  0.62799947  0.75390906  0.55095799  1
  S2-  S248  1  0.86712799  -0.01054803  0.04716262  1
  S2-  S249  1  0.88460811  -0.00014253  0.54138299  1
  S2-  S250  1  0.86263201  0.24770967  0.05069194  1
  S2-  S251  1  0.88360486  0.24596005  0.54702355  1
  S2-  S252  1  0.86931947  0.49064657  0.05135671  1
  S2-  S253  1  0.87396252  0.50706760  0.55149772  1
  S2-  S254  1  0.86363382  0.74181756  0.04441666  1
  S2-  S255  1  0.88302422  0.75546553  0.54523325  1
