# generated using pymatgen
data_La6Ce6Pr19Nd20Sm13(BiS2)64
_symmetry_space_group_name_H-M   'P 1'
_cell_length_a   16.14657729
_cell_length_b   16.16198947
_cell_length_c   27.29077210
_cell_angle_alpha   90.28804131
_cell_angle_beta   90.09064543
_cell_angle_gamma   89.92820388
_symmetry_Int_Tables_number   1
_chemical_formula_structural   La6Ce6Pr19Nd20Sm13(BiS2)64
_chemical_formula_sum   'La6 Ce6 Pr19 Nd20 Sm13 Bi64 S128'
_cell_volume   7121.71762111
_cell_formula_units_Z   1
loop_
 _symmetry_equiv_pos_site_id
 _symmetry_equiv_pos_as_xyz
  1  'x, y, z'
loop_
 _atom_type_symbol
 _atom_type_oxidation_number
  La3+  3.0
  Ce3+  3.0
  Pr3+  3.0
  Nd3+  3.0
  Sm3+  3.0
  Bi2+  2.0
  S2-  -2.0
loop_
 _atom_site_type_symbol
 _atom_site_label
 _atom_site_symmetry_multiplicity
 _atom_site_fract_x
 _atom_site_fract_y
 _atom_site_fract_z
 _atom_site_occupancy
  La3+  La0  1  0.00585983  0.61064073  0.11070114  1
  La3+  La1  1  0.01299805  0.88067088  0.08374244  1
  La3+  La2  1  0.74670020  0.14289715  0.56347420  1
  La3+  La3  1  0.63333847  0.49653189  0.92063434  1
  La3+  La4  1  -0.00996748  0.14324889  0.58742267  1
  La3+  La5  1  0.88001816  0.26326813  0.42761808  1
  Ce3+  Ce6  1  0.74956945  0.39115191  0.54780212  1
  Ce3+  Ce7  1  0.50307117  0.14511157  0.56197728  1
  Ce3+  Ce8  1  0.88131190  -0.00014389  0.94605216  1
  Ce3+  Ce9  1  0.24773286  0.64061671  0.56901081  1
  Ce3+  Ce10  1  0.38250160  0.74925732  0.94496289  1
  Ce3+  Ce11  1  0.12232628  0.76876711  0.44184427  1
  Pr3+  Pr12  1  0.50998925  0.62320842  0.06517216  1
  Pr3+  Pr13  1  0.24764805  0.15413421  0.57276736  1
  Pr3+  Pr14  1  0.87403715  0.51697468  0.43946482  1
  Pr3+  Pr15  1  0.49844965  0.89254760  0.55778692  1
  Pr3+  Pr16  1  0.24192800  0.89725218  0.56891396  1
  Pr3+  Pr17  1  0.50587080  0.87731243  0.06052719  1
  Pr3+  Pr18  1  0.12592297  0.51899329  0.44135866  1
  Pr3+  Pr19  1  0.62010969  0.02360990  0.42597979  1
  Pr3+  Pr20  1  0.25767066  0.88044045  0.07063537  1
  Pr3+  Pr21  1  0.12331067  0.26437632  0.43776481  1
  Pr3+  Pr22  1  0.74860224  0.89432782  0.55430626  1
  Pr3+  Pr23  1  0.13014170  0.75245538  0.94400756  1
  Pr3+  Pr24  1  0.37703620  0.25185331  0.92135538  1
  Pr3+  Pr25  1  0.86719606  0.76532776  0.42347279  1
  Pr3+  Pr26  1  0.63619481  0.74849975  0.93864900  1
  Pr3+  Pr27  1  -0.00258664  0.64453785  0.56140517  1
  Pr3+  Pr28  1  0.62119005  0.51618554  0.43536150  1
  Pr3+  Pr29  1  0.12971767  -0.00587319  0.93609313  1
  Pr3+  Pr30  1  0.75815128  0.13233162  0.07004725  1
  Nd3+  Nd31  1  0.64110919  0.24433679  0.92202694  1
  Nd3+  Nd32  1  -0.00269871  0.39180980  0.56517277  1
  Nd3+  Nd33  1  0.62256623  0.76937804  0.43112612  1
  Nd3+  Nd34  1  0.75800085  0.87501981  0.07136336  1
  Nd3+  Nd35  1  0.38161736  0.00042748  0.94382231  1
  Nd3+  Nd36  1  0.86754114  0.01951247  0.40928864  1
  Nd3+  Nd37  1  0.12939405  0.24027667  0.91506760  1
  Nd3+  Nd38  1  0.37107327  0.76916598  0.44279288  1
  Nd3+  Nd39  1  0.88237087  0.50246801  0.93545894  1
  Nd3+  Nd40  1  0.00994460  0.12719212  0.06336720  1
  Nd3+  Nd41  1  0.75390193  0.62159705  0.06773487  1
  Nd3+  Nd42  1  0.25304431  0.37669913  0.05473712  1
  Nd3+  Nd43  1  0.37084531  0.01712814  0.45074362  1
  Nd3+  Nd44  1  0.25374115  0.62661831  0.06204173  1
  Nd3+  Nd45  1  0.50189985  0.39408619  0.55662386  1
  Nd3+  Nd46  1  0.50689210  0.13187211  0.05331597  1
  Nd3+  Nd47  1  0.74868741  0.64519563  0.55911866  1
  Nd3+  Nd48  1  0.24952855  0.39881272  0.56850512  1
  Nd3+  Nd49  1  0.13011722  0.50032762  0.93599772  1
  Nd3+  Nd50  1  0.63395213  0.00127226  0.94778956  1
  Sm3+  Sm51  1  -0.00522028  0.89375486  0.55101815  1
  Sm3+  Sm52  1  0.36758339  0.26698079  0.43891677  1
  Sm3+  Sm53  1  0.37321715  0.51841571  0.44423322  1
  Sm3+  Sm54  1  0.25500450  0.13099943  0.05424766  1
  Sm3+  Sm55  1  0.00692273  0.37724023  0.05190661  1
  Sm3+  Sm56  1  0.62006368  0.26287072  0.43437563  1
  Sm3+  Sm57  1  0.88713479  0.24638167  0.93234598  1
  Sm3+  Sm58  1  0.38096038  0.50070926  0.94301371  1
  Sm3+  Sm59  1  0.50753572  0.37521994  0.04886479  1
  Sm3+  Sm60  1  0.88148942  0.74924559  0.95664854  1
  Sm3+  Sm61  1  0.75874906  0.37758781  0.05099689  1
  Sm3+  Sm62  1  0.12062852  0.01779795  0.44769497  1
  Sm3+  Sm63  1  0.50182345  0.64448921  0.55580518  1
  Bi2+  Bi64  1  0.00376525  0.12805434  0.30665252  1
  Bi2+  Bi65  1  -0.00435443  0.11815728  0.79211105  1
  Bi2+  Bi66  1  0.00818393  0.31977725  0.25549182  1
  Bi2+  Bi67  1  -0.00858089  0.38171261  0.77729865  1
  Bi2+  Bi68  1  0.02326993  0.61974951  0.31177898  1
  Bi2+  Bi69  1  -0.01949096  0.57293275  0.81582059  1
  Bi2+  Bi70  1  0.05129579  0.87235959  0.30199864  1
  Bi2+  Bi71  1  0.06897454  0.81442848  0.77108165  1
  Bi2+  Bi72  1  0.22309498  0.16018000  0.27668581  1
  Bi2+  Bi73  1  0.26534464  0.11798741  0.79320428  1
  Bi2+  Bi74  1  0.29710639  0.35328663  0.28582987  1
  Bi2+  Bi75  1  0.17562210  0.41491157  0.70928706  1
  Bi2+  Bi76  1  0.25035656  0.56135375  0.28470475  1
  Bi2+  Bi77  1  0.16269217  0.63894552  0.80045696  1
  Bi2+  Bi78  1  0.30162429  0.86047415  0.28826823  1
  Bi2+  Bi79  1  0.27320795  0.85547363  0.80242097  1
  Bi2+  Bi80  1  0.45173272  0.09933123  0.30717530  1
  Bi2+  Bi81  1  0.56512298  0.13688845  0.80262710  1
  Bi2+  Bi82  1  0.48078626  0.29351912  0.31173875  1
  Bi2+  Bi83  1  0.49019452  0.43397516  0.79159070  1
  Bi2+  Bi84  1  0.48944863  0.60853839  0.29267657  1
  Bi2+  Bi85  1  0.46993125  0.67471021  0.77284706  1
  Bi2+  Bi86  1  0.49794484  0.86923110  0.30568024  1
  Bi2+  Bi87  1  0.51554466  0.86341442  0.77001202  1
  Bi2+  Bi88  1  0.72131094  0.11982578  0.28271186  1
  Bi2+  Bi89  1  0.77723444  0.08607958  0.79567498  1
  Bi2+  Bi90  1  0.73970175  0.34528257  0.26224781  1
  Bi2+  Bi91  1  0.70347060  0.30276452  0.77010353  1
  Bi2+  Bi92  1  0.74927580  0.60060270  0.29434901  1
  Bi2+  Bi93  1  0.71855399  0.66294277  0.81123794  1
  Bi2+  Bi94  1  0.68434507  0.86161186  0.27698693  1
  Bi2+  Bi95  1  0.77068818  0.88427651  0.75146613  1
  Bi2+  Bi96  1  0.14701782  0.00957441  0.21020977  1
  Bi2+  Bi97  1  0.16692719  -0.04222573  0.70612139  1
  Bi2+  Bi98  1  0.12153603  0.21540910  0.18463283  1
  Bi2+  Bi99  1  0.14599272  0.22229899  0.70208106  1
  Bi2+  Bi100  1  0.13958644  0.45738101  0.20844541  1
  Bi2+  Bi101  1  0.00607466  0.50726499  0.68474115  1
  Bi2+  Bi102  1  0.22264797  0.73581449  0.21092530  1
  Bi2+  Bi103  1  0.12405602  0.67798547  0.68630813  1
  Bi2+  Bi104  1  0.38636288  -0.10778310  0.18725804  1
  Bi2+  Bi105  1  0.43180229  0.03364994  0.74193189  1
  Bi2+  Bi106  1  0.38512909  0.21357178  0.21599948  1
  Bi2+  Bi107  1  0.40803824  0.25346108  0.78522423  1
  Bi2+  Bi108  1  0.39512662  0.49631406  0.20877258  1
  Bi2+  Bi109  1  0.32065431  0.53468068  0.74552996  1
  Bi2+  Bi110  1  0.39978673  0.68513457  0.17700944  1
  Bi2+  Bi111  1  0.31315902  0.72331987  0.70593279  1
  Bi2+  Bi112  1  0.54712730  0.00266714  0.22202498  1
  Bi2+  Bi113  1  0.61683308  -0.00624663  0.70491784  1
  Bi2+  Bi114  1  0.58053552  0.27008634  0.21003500  1
  Bi2+  Bi115  1  0.55324936  0.25567832  0.70068452  1
  Bi2+  Bi116  1  0.59347984  0.48639743  0.21214452  1
  Bi2+  Bi117  1  0.62598796  0.49387853  0.68112097  1
  Bi2+  Bi118  1  0.58864649  0.71868961  0.21703961  1
  Bi2+  Bi119  1  0.65442837  0.74050204  0.68468212  1
  Bi2+  Bi120  1  0.87980522  -0.02277768  0.20937793  1
  Bi2+  Bi121  1  0.90631026  -0.02632499  0.69012267  1
  Bi2+  Bi122  1  0.85742245  0.22736482  0.20065572  1
  Bi2+  Bi123  1  0.85356451  0.27202622  0.70190693  1
  Bi2+  Bi124  1  0.86735371  0.46581084  0.21188037  1
  Bi2+  Bi125  1  0.82645856  0.47893465  0.75870521  1
  Bi2+  Bi126  1  0.86472060  0.73365807  0.22218980  1
  Bi2+  Bi127  1  0.89330633  0.72927902  0.76011735  1
  S2-  S128  1  0.00099249  0.03584748  0.14866792  1
  S2-  S129  1  0.03279859  0.09000798  0.68882572  1
  S2-  S130  1  0.00232293  0.44285304  0.14361771  1
  S2-  S131  1  -0.00246625  0.28948061  0.64627906  1
  S2-  S132  1  0.00783208  0.64623175  0.21820699  1
  S2-  S133  1  -0.04376762  0.67206137  0.65835774  1
  S2-  S134  1  -0.03595422  0.83964059  0.18172135  1
  S2-  S135  1  0.03073700  0.88964778  0.64723581  1
  S2-  S136  1  0.24772221  0.08170230  0.14847176  1
  S2-  S137  1  0.24334160  0.08794164  0.66723550  1
  S2-  S138  1  0.22450699  0.34693483  0.15169715  1
  S2-  S139  1  0.26477308  0.29137152  0.64658102  1
  S2-  S140  1  0.17226865  0.60098479  0.14824071  1
  S2-  S141  1  0.26580951  0.52294818  0.64142374  1
  S2-  S142  1  0.15764010  0.86553435  0.15197347  1
  S2-  S143  1  0.29787475  0.87925319  0.66361496  1
  S2-  S144  1  0.50642215  0.13545152  0.15179320  1
  S2-  S145  1  0.61675349  0.13393950  0.63656924  1
  S2-  S146  1  0.49581148  0.38598423  0.14666337  1
  S2-  S147  1  0.49146611  0.40362029  0.65649976  1
  S2-  S148  1  0.62749945  0.60796776  0.14015853  1
  S2-  S149  1  0.53133042  0.63108655  0.65261714  1
  S2-  S150  1  0.55865064  0.86900916  0.15544711  1
  S2-  S151  1  0.53954240  0.86676299  0.65347064  1
  S2-  S152  1  0.76202413  0.09461697  0.16924057  1
  S2-  S153  1  0.84100445  0.12536755  0.64935329  1
  S2-  S154  1  0.76947766  0.36342358  0.14922395  1
  S2-  S155  1  0.73863764  0.37341476  0.64427703  1
  S2-  S156  1  0.84407717  0.60281655  0.15359238  1
  S2-  S157  1  0.74452965  0.61315696  0.65713574  1
  S2-  S158  1  0.76957907  0.86189543  0.17137373  1
  S2-  S159  1  0.78649161  0.85228277  0.64976406  1
  S2-  S160  1  0.11667604  0.01547253  0.34914218  1
  S2-  S161  1  0.12596351  0.09211958  0.85084500  1
  S2-  S162  1  0.01488992  0.28147227  0.35729403  1
  S2-  S163  1  -0.00698608  0.25291544  0.85141677  1
  S2-  S164  1  0.12942223  0.48896928  0.34233704  1
  S2-  S165  1  0.12093579  0.47076439  0.83805561  1
  S2-  S166  1  0.14154145  0.73987371  0.34677854  1
  S2-  S167  1  0.12782795  0.86370018  0.86524807  1
  S2-  S168  1  0.34525110  -0.00585939  0.35380871  1
  S2-  S169  1  0.35867681  -0.00690170  0.84579890  1
  S2-  S170  1  0.25052779  0.25471875  0.36515614  1
  S2-  S171  1  0.25680582  0.26349792  0.84650341  1
  S2-  S172  1  0.38004851  0.50376248  0.34725334  1
  S2-  S173  1  0.36160294  0.48217543  0.84653428  1
  S2-  S174  1  0.39779130  0.74199069  0.34516619  1
  S2-  S175  1  0.35817096  0.73998226  0.84821793  1
  S2-  S176  1  0.72350398  -0.01489414  0.34551869  1
  S2-  S177  1  0.65856515  0.01155702  0.85022288  1
  S2-  S178  1  0.61407912  0.16137137  0.35445125  1
  S2-  S179  1  0.61157798  0.36359147  0.85100122  1
  S2-  S180  1  0.62787000  0.51817427  0.33548652  1
  S2-  S181  1  0.56475113  0.57537653  0.83273484  1
  S2-  S182  1  0.72522882  0.74869909  0.35167486  1
  S2-  S183  1  0.61304633  0.78764578  0.84120323  1
  S2-  S184  1  0.92309249  -0.02760249  0.31249625  1
  S2-  S185  1  0.90792835  0.00715893  0.84799442  1
  S2-  S186  1  0.84615180  0.15943233  0.34597221  1
  S2-  S187  1  0.77511250  0.22565828  0.85594874  1
  S2-  S188  1  0.88141574  0.52422529  0.33916208  1
  S2-  S189  1  0.77681733  0.50875158  0.85539636  1
  S2-  S190  1  0.93190315  0.76407562  0.32835883  1
  S2-  S191  1  0.83417860  0.75247222  0.86102001  1
  S2-  S192  1  -0.00349517  0.13303266  0.45228197  1
  S2-  S193  1  0.00641882  0.12409294  0.95789482  1
  S2-  S194  1  -0.00020181  0.39637049  0.45888316  1
  S2-  S195  1  0.00701174  0.37666599  0.94914149  1
  S2-  S196  1  -0.00274329  0.64366986  0.45257758  1
  S2-  S197  1  0.00477171  0.62800059  0.94767024  1
  S2-  S198  1  -0.00600399  0.89389488  0.44593876  1
  S2-  S199  1  0.00096470  0.87407753  0.96658442  1
  S2-  S200  1  0.24742061  0.13763746  0.46427614  1
  S2-  S201  1  0.25879537  0.12616765  0.95143329  1
  S2-  S202  1  0.25248512  0.39636914  0.46052252  1
  S2-  S203  1  0.25509282  0.37714116  0.95022214  1
  S2-  S204  1  0.25202359  0.64226783  0.45794256  1
  S2-  S205  1  0.25569588  0.62370867  0.95469292  1
  S2-  S206  1  0.24653743  0.89278642  0.46052813  1
  S2-  S207  1  0.26156818  0.87487221  0.96316997  1
  S2-  S208  1  0.49162291  0.14487051  0.45601679  1
  S2-  S209  1  0.50723556  0.12885781  0.94675949  1
  S2-  S210  1  0.49522274  0.38925091  0.44929456  1
  S2-  S211  1  0.49972760  0.37183014  0.94730167  1
  S2-  S212  1  0.49815966  0.64398287  0.45053814  1
  S2-  S213  1  0.50606836  0.62392670  0.95644314  1
  S2-  S214  1  0.49841562  0.89247697  0.45014998  1
  S2-  S215  1  0.50788168  0.87734034  0.95282102  1
  S2-  S216  1  0.74662756  0.14139738  0.45432861  1
  S2-  S217  1  0.76009639  0.12383142  0.96240303  1
  S2-  S218  1  0.74564851  0.38721416  0.43990466  1
  S2-  S219  1  0.76326073  0.36920608  0.94973553  1
  S2-  S220  1  0.74591483  0.63922524  0.45264960  1
  S2-  S221  1  0.75740103  0.62546483  0.96127584  1
  S2-  S222  1  0.74888864  0.89336710  0.44912229  1
  S2-  S223  1  0.75644604  0.87588909  0.96278425  1
  S2-  S224  1  0.13535200  0.00523912  0.04344558  1
  S2-  S225  1  0.11772276  0.02254559  0.55268059  1
  S2-  S226  1  0.12983268  0.25155337  0.03930510  1
  S2-  S227  1  0.12122638  0.26995854  0.54495292  1
  S2-  S228  1  0.12833772  0.50023136  0.04216641  1
  S2-  S229  1  0.12091751  0.51872851  0.54829781  1
  S2-  S230  1  0.12919229  0.74765932  0.04992348  1
  S2-  S231  1  0.12330657  0.76901218  0.54798878  1
  S2-  S232  1  0.38229586  0.00686583  0.04931624  1
  S2-  S233  1  0.37446585  0.02038585  0.55698391  1
  S2-  S234  1  0.37986445  0.25296688  0.04067648  1
  S2-  S235  1  0.37886052  0.26986351  0.54348635  1
  S2-  S236  1  0.38096356  0.50008581  0.04831990  1
  S2-  S237  1  0.38191884  0.52115644  0.54631993  1
  S2-  S238  1  0.38091459  0.74999557  0.05016556  1
  S2-  S239  1  0.37376345  0.76573763  0.55023132  1
  S2-  S240  1  0.63273114  0.00451434  0.05377516  1
  S2-  S241  1  0.62070076  0.01431043  0.53555219  1
  S2-  S242  1  0.63303653  0.25405179  0.04195558  1
  S2-  S243  1  0.62214964  0.26992418  0.53760748  1
  S2-  S244  1  0.63170683  0.49334417  0.03579730  1
  S2-  S245  1  0.62453003  0.51939697  0.54171412  1
  S2-  S246  1  0.63280775  0.75335351  0.04637888  1
  S2-  S247  1  0.62383957  0.76676245  0.53819532  1
  S2-  S248  1  0.87805736  0.00204605  0.05222019  1
  S2-  S249  1  0.87562777  0.01535082  0.54409227  1
  S2-  S250  1  0.88488582  0.25269086  0.04454021  1
  S2-  S251  1  0.87448441  0.26806068  0.53915278  1
  S2-  S252  1  0.88266850  0.49918335  0.04124389  1
  S2-  S253  1  0.87202177  0.51837132  0.54703255  1
  S2-  S254  1  0.88317531  0.74822734  0.05988895  1
  S2-  S255  1  0.87359579  0.76829694  0.53635389  1
