# generated using pymatgen
data_La6Ce6Pr19Nd20Sm13(BiS2)64
_symmetry_space_group_name_H-M   'P 1'
_cell_length_a   16.13282935
_cell_length_b   16.13640889
_cell_length_c   27.40815111
_cell_angle_alpha   90.13615662
_cell_angle_beta   90.06363811
_cell_angle_gamma   90.01140900
_symmetry_Int_Tables_number   1
_chemical_formula_structural   La6Ce6Pr19Nd20Sm13(BiS2)64
_chemical_formula_sum   'La6 Ce6 Pr19 Nd20 Sm13 Bi64 S128'
_cell_volume   7135.02776294
_cell_formula_units_Z   1
loop_
 _symmetry_equiv_pos_site_id
 _symmetry_equiv_pos_as_xyz
  1  'x, y, z'
loop_
 _atom_type_symbol
 _atom_type_oxidation_number
  La3+  3.0
  Ce3+  3.0
  Pr3+  3.0
  Nd3+  3.0
  Sm3+  3.0
  Bi2+  2.0
  S2-  -2.0
loop_
 _atom_site_type_symbol
 _atom_site_label
 _atom_site_symmetry_multiplicity
 _atom_site_fract_x
 _atom_site_fract_y
 _atom_site_fract_z
 _atom_site_occupancy
  La3+  La0  1  0.37277375  0.76559176  0.89493462  1
  La3+  La1  1  0.24228828  0.13421930  0.60278294  1
  La3+  La2  1  0.86658737  0.50655267  0.43618054  1
  La3+  La3  1  0.86096183  0.00768604  0.43290123  1
  La3+  La4  1  0.36957521  0.76831039  0.42733423  1
  La3+  La5  1  0.35917304  0.01888413  0.42501663  1
  Ce3+  Ce6  1  0.88910825  0.75148924  0.93067624  1
  Ce3+  Ce7  1  0.38596101  -0.00480163  0.94820374  1
  Ce3+  Ce8  1  0.63440507  -0.00645837  0.94446156  1
  Ce3+  Ce9  1  0.51197735  0.11083683  0.07057937  1
  Ce3+  Ce10  1  0.01248782  0.12167559  0.05224575  1
  Ce3+  Ce11  1  0.61706880  0.75944834  0.44065505  1
  Pr3+  Pr12  1  0.49088095  0.13560290  0.56316651  1
  Pr3+  Pr13  1  0.74321752  0.13308950  0.57619542  1
  Pr3+  Pr14  1  0.88303895  0.24069942  0.92777033  1
  Pr3+  Pr15  1  -0.01174819  0.13328401  0.56909836  1
  Pr3+  Pr16  1  0.51314778  0.37362733  0.05734373  1
  Pr3+  Pr17  1  0.63408788  0.49621089  0.92964504  1
  Pr3+  Pr18  1  0.01150219  0.87384710  0.06112203  1
  Pr3+  Pr19  1  0.73942341  0.63405174  0.55754517  1
  Pr3+  Pr20  1  0.76523020  0.12477269  0.06685338  1
  Pr3+  Pr21  1  -0.00657911  0.38407951  0.56343499  1
  Pr3+  Pr22  1  -0.00765800  0.88644881  0.56574696  1
  Pr3+  Pr23  1  0.50727855  0.86046004  0.07313464  1
  Pr3+  Pr24  1  0.76031310  0.86878471  0.06161226  1
  Pr3+  Pr25  1  0.48928728  0.88675314  0.55791765  1
  Pr3+  Pr26  1  0.26414059  0.37041769  0.07080973  1
  Pr3+  Pr27  1  0.74110718  0.38587556  0.56484447  1
  Pr3+  Pr28  1  0.38573264  0.49840199  0.92284757  1
  Pr3+  Pr29  1  0.24374887  0.88617100  0.56380487  1
  Pr3+  Pr30  1  0.76858257  0.37815258  0.06586427  1
  Nd3+  Nd31  1  0.63248858  0.75695129  0.92584339  1
  Nd3+  Nd32  1  0.88339179  0.48842229  0.92074633  1
  Nd3+  Nd33  1  0.11424318  0.01099158  0.44228677  1
  Nd3+  Nd34  1  0.48962204  0.63528981  0.55801780  1
  Nd3+  Nd35  1  0.13960400  0.49533646  0.93434181  1
  Nd3+  Nd36  1  -0.00707974  0.63278333  0.56094797  1
  Nd3+  Nd37  1  0.14058180  0.24598623  0.94086075  1
  Nd3+  Nd38  1  0.61741467  0.25771747  0.44428301  1
  Nd3+  Nd39  1  0.01175803  0.62003724  0.05064914  1
  Nd3+  Nd40  1  0.38540755  0.24355944  0.94242335  1
  Nd3+  Nd41  1  0.86404732  0.25649264  0.44354769  1
  Nd3+  Nd42  1  0.11874485  0.50853950  0.44495427  1
  Nd3+  Nd43  1  0.35558988  0.25681439  0.43251440  1
  Nd3+  Nd44  1  0.11684631  0.25695201  0.44833638  1
  Nd3+  Nd45  1  0.24639957  0.38190537  0.56836630  1
  Nd3+  Nd46  1  0.36588762  0.50830647  0.44061617  1
  Nd3+  Nd47  1  0.01055547  0.37298595  0.05434068  1
  Nd3+  Nd48  1  0.24366449  0.63596662  0.55800678  1
  Nd3+  Nd49  1  0.88619108  -0.00445816  0.93351099  1
  Nd3+  Nd50  1  0.26793981  0.12247065  0.08292243  1
  Sm3+  Sm51  1  0.11697202  0.76107431  0.44630119  1
  Sm3+  Sm52  1  0.76159231  0.62287796  0.04361963  1
  Sm3+  Sm53  1  0.26297203  0.87151794  0.07065522  1
  Sm3+  Sm54  1  0.14255132  -0.00381103  0.94099594  1
  Sm3+  Sm55  1  0.48840332  0.38226188  0.55315178  1
  Sm3+  Sm56  1  0.51006313  0.62520477  0.04826486  1
  Sm3+  Sm57  1  0.74167459  0.88303980  0.56119156  1
  Sm3+  Sm58  1  0.26365933  0.62047176  0.05366633  1
  Sm3+  Sm59  1  0.13897493  0.74835743  0.94550772  1
  Sm3+  Sm60  1  0.63767044  0.24387605  0.94772762  1
  Sm3+  Sm61  1  0.86771670  0.75882559  0.44895383  1
  Sm3+  Sm62  1  0.61503844  0.50647196  0.44452225  1
  Sm3+  Sm63  1  0.62183475  0.01084778  0.44786765  1
  Bi2+  Bi64  1  0.02439344  0.13402685  0.24531206  1
  Bi2+  Bi65  1  -0.02597930  0.18180657  0.79005118  1
  Bi2+  Bi66  1  -0.00606762  0.41366553  0.28049519  1
  Bi2+  Bi67  1  0.02144502  0.46401811  0.79963432  1
  Bi2+  Bi68  1  -0.01122266  0.62550721  0.25516796  1
  Bi2+  Bi69  1  -0.06573810  0.63533540  0.82106602  1
  Bi2+  Bi70  1  -0.01519097  0.88160051  0.30290983  1
  Bi2+  Bi71  1  -0.03155651  0.86235709  0.76442854  1
  Bi2+  Bi72  1  0.25687694  0.13627597  0.29681066  1
  Bi2+  Bi73  1  0.23706350  0.13425728  0.80805003  1
  Bi2+  Bi74  1  0.25752950  0.40140161  0.31065544  1
  Bi2+  Bi75  1  0.22413598  0.40560068  0.75649478  1
  Bi2+  Bi76  1  0.20552797  0.57758958  0.27235578  1
  Bi2+  Bi77  1  0.22766734  0.59055859  0.79538006  1
  Bi2+  Bi78  1  0.25918867  0.86416154  0.30994866  1
  Bi2+  Bi79  1  0.24070584  0.88782728  0.78979306  1
  Bi2+  Bi80  1  0.45700939  0.15006874  0.25301209  1
  Bi2+  Bi81  1  0.51936647  0.10920493  0.77946968  1
  Bi2+  Bi82  1  0.51430567  0.40873222  0.29266068  1
  Bi2+  Bi83  1  0.50490745  0.38091237  0.76295142  1
  Bi2+  Bi84  1  0.48791893  0.57474702  0.22538279  1
  Bi2+  Bi85  1  0.51030578  0.59702132  0.78448087  1
  Bi2+  Bi86  1  0.49419376  0.80512790  0.28969259  1
  Bi2+  Bi87  1  0.51289461  0.88429205  0.79611789  1
  Bi2+  Bi88  1  0.81192165  0.13186669  0.31039805  1
  Bi2+  Bi89  1  0.70857737  0.11300814  0.80678955  1
  Bi2+  Bi90  1  0.76058768  0.37601175  0.31056747  1
  Bi2+  Bi91  1  0.76654719  0.36039483  0.79154344  1
  Bi2+  Bi92  1  0.68969923  0.61612196  0.23391813  1
  Bi2+  Bi93  1  0.72823462  0.63502384  0.79221496  1
  Bi2+  Bi94  1  0.71743880  0.87651300  0.29870699  1
  Bi2+  Bi95  1  0.75914752  0.82538312  0.79756991  1
  Bi2+  Bi96  1  0.12232003  -0.03315722  0.22443025  1
  Bi2+  Bi97  1  0.06237266  0.02360530  0.72919847  1
  Bi2+  Bi98  1  0.11792655  0.30174603  0.22075727  1
  Bi2+  Bi99  1  0.09381200  0.26709099  0.71702550  1
  Bi2+  Bi100  1  0.11390546  0.48637597  0.18297313  1
  Bi2+  Bi101  1  0.08677093  0.50639894  0.69218734  1
  Bi2+  Bi102  1  0.13112832  0.76215643  0.24288148  1
  Bi2+  Bi103  1  0.08583375  0.70144937  0.75673425  1
  Bi2+  Bi104  1  0.37702007  -0.01649264  0.20416994  1
  Bi2+  Bi105  1  0.39093548  0.00760192  0.71434543  1
  Bi2+  Bi106  1  0.34779757  0.32973956  0.21842614  1
  Bi2+  Bi107  1  0.37487244  0.26653338  0.71531678  1
  Bi2+  Bi108  1  0.31194090  0.51123177  0.17372622  1
  Bi2+  Bi109  1  0.37426499  0.50271566  0.70635662  1
  Bi2+  Bi110  1  0.35292483  0.71962891  0.21139459  1
  Bi2+  Bi111  1  0.37888877  0.75621129  0.68013240  1
  Bi2+  Bi112  1  0.58092671  -0.00918812  0.25098360  1
  Bi2+  Bi113  1  0.62829346  -0.01480510  0.70470738  1
  Bi2+  Bi114  1  0.62219031  0.25893673  0.25565642  1
  Bi2+  Bi115  1  0.62635772  0.17527899  0.68838651  1
  Bi2+  Bi116  1  0.61742510  0.44606472  0.18654071  1
  Bi2+  Bi117  1  0.64524141  0.49356220  0.72171824  1
  Bi2+  Bi118  1  0.62304229  0.80866129  0.18987978  1
  Bi2+  Bi119  1  0.63716751  0.74364085  0.69985003  1
  Bi2+  Bi120  1  0.88035069  -0.00781496  0.19410200  1
  Bi2+  Bi121  1  0.82328516  -0.01494340  0.72147885  1
  Bi2+  Bi122  1  0.85106669  0.24025313  0.19441739  1
  Bi2+  Bi123  1  0.81487940  0.20388734  0.72007753  1
  Bi2+  Bi124  1  0.86973533  0.50236517  0.19743182  1
  Bi2+  Bi125  1  0.89784946  0.46077281  0.70754451  1
  Bi2+  Bi126  1  0.83591070  0.74911112  0.24798987  1
  Bi2+  Bi127  1  0.88447027  0.67531423  0.71192437  1
  S2-  S128  1  -0.02105344  0.13612691  0.14750747  1
  S2-  S129  1  0.08543110  0.13249192  0.65218376  1
  S2-  S130  1  -0.08899468  0.37315627  0.13488993  1
  S2-  S131  1  -0.02450710  0.32769188  0.65756845  1
  S2-  S132  1  -0.00391609  0.60838897  0.14834396  1
  S2-  S133  1  0.03913973  0.66145319  0.65491666  1
  S2-  S134  1  0.01198738  0.88410835  0.16110737  1
  S2-  S135  1  0.01446123  0.91065609  0.66437077  1
  S2-  S136  1  0.23143712  -0.00739254  0.14829023  1
  S2-  S137  1  0.24128672  0.06210566  0.70863814  1
  S2-  S138  1  0.23776117  0.25632077  0.14808787  1
  S2-  S139  1  0.24249454  0.29039711  0.65242452  1
  S2-  S140  1  0.24037186  0.67714671  0.14691965  1
  S2-  S141  1  0.28454300  0.61595966  0.65319285  1
  S2-  S142  1  0.37519412  0.85161699  0.14717466  1
  S2-  S143  1  0.25349784  0.84879318  0.66116714  1
  S2-  S144  1  0.40904430  0.12485700  0.14861217  1
  S2-  S145  1  0.40374187  0.14003766  0.64918626  1
  S2-  S146  1  0.47950422  0.35648435  0.15461545  1
  S2-  S147  1  0.46474380  0.38024015  0.64940026  1
  S2-  S148  1  0.53366422  0.70869439  0.13541511  1
  S2-  S149  1  0.52353082  0.65433680  0.65518260  1
  S2-  S150  1  0.55712085  0.96990173  0.15156656  1
  S2-  S151  1  0.49141093  0.89091482  0.65790102  1
  S2-  S152  1  0.76238799  0.09540804  0.16716708  1
  S2-  S153  1  0.86732088  0.10125622  0.64449068  1
  S2-  S154  1  0.72002077  0.30688824  0.15491094  1
  S2-  S155  1  0.74519417  0.39571734  0.66436596  1
  S2-  S156  1  0.75987091  0.59109253  0.14059967  1
  S2-  S157  1  0.74639905  0.63456526  0.65648026  1
  S2-  S158  1  0.79158294  0.86517742  0.16063277  1
  S2-  S159  1  0.74863677  0.86595247  0.65833621  1
  S2-  S160  1  0.20507710  0.01706531  0.35628459  1
  S2-  S161  1  0.13224564  0.00197235  0.84280743  1
  S2-  S162  1  0.20640200  0.25565956  0.36238619  1
  S2-  S163  1  0.12417685  0.23777130  0.84161899  1
  S2-  S164  1  0.10926874  0.49116920  0.34720242  1
  S2-  S165  1  0.24438987  0.45561160  0.85861299  1
  S2-  S166  1  0.11355887  0.77928979  0.34983814  1
  S2-  S167  1  0.19983698  0.77413128  0.85594014  1
  S2-  S168  1  0.40277886  -0.08617848  0.34839431  1
  S2-  S169  1  0.37090475  -0.06180213  0.85600430  1
  S2-  S170  1  0.39554715  0.15228722  0.35466358  1
  S2-  S171  1  0.36001054  0.22089362  0.84430373  1
  S2-  S172  1  0.38906970  0.49422602  0.34341712  1
  S2-  S173  1  0.37208619  0.61243360  0.84525360  1
  S2-  S174  1  0.35526570  0.72054365  0.33108798  1
  S2-  S175  1  0.36162962  0.78487313  0.77444489  1
  S2-  S176  1  0.71875004  0.01245926  0.36578516  1
  S2-  S177  1  0.64892793  -0.08671977  0.85703609  1
  S2-  S178  1  0.67387233  0.22657864  0.35189594  1
  S2-  S179  1  0.66047100  0.25720525  0.85062203  1
  S2-  S180  1  0.64505760  0.48164113  0.34975909  1
  S2-  S181  1  0.51860793  0.46938126  0.85126246  1
  S2-  S182  1  0.62317419  0.74489167  0.34402815  1
  S2-  S183  1  0.53022797  0.74681725  0.84494034  1
  S2-  S184  1  0.95272268  0.02145670  0.34749665  1
  S2-  S185  1  0.87308678  0.10940914  0.85643738  1
  S2-  S186  1  0.89463857  0.25718546  0.34489453  1
  S2-  S187  1  0.90264410  0.35453143  0.85127493  1
  S2-  S188  1  0.86567436  0.49470015  0.33614638  1
  S2-  S189  1  0.74731276  0.48826751  0.85342154  1
  S2-  S190  1  0.86877769  0.77604744  0.35263625  1
  S2-  S191  1  0.89394114  0.87368167  0.85943673  1
  S2-  S192  1  -0.00970735  0.13547397  0.45932964  1
  S2-  S193  1  0.01672748  0.11940110  0.94875686  1
  S2-  S194  1  -0.00781600  0.38300116  0.45544432  1
  S2-  S195  1  0.01565894  0.37101152  0.95030119  1
  S2-  S196  1  -0.00695090  0.63510086  0.45317684  1
  S2-  S197  1  0.01573408  0.62198379  0.94546242  1
  S2-  S198  1  -0.00786126  0.88162706  0.45861889  1
  S2-  S199  1  0.01942808  0.87410739  0.95524957  1
  S2-  S200  1  0.23786541  0.13445604  0.46241050  1
  S2-  S201  1  0.26126364  0.12023122  0.95905748  1
  S2-  S202  1  0.24148328  0.38617431  0.46149334  1
  S2-  S203  1  0.26364058  0.36760046  0.96352348  1
  S2-  S204  1  0.24170752  0.63607222  0.45045437  1
  S2-  S205  1  0.25801400  0.62365277  0.95169158  1
  S2-  S206  1  0.23947721  0.88392619  0.45637507  1
  S2-  S207  1  0.25990688  0.87257932  0.96311800  1
  S2-  S208  1  0.49778538  0.13177816  0.45737832  1
  S2-  S209  1  0.51259731  0.12082754  0.95658909  1
  S2-  S210  1  0.49015080  0.38061998  0.44881018  1
  S2-  S211  1  0.51180573  0.36474365  0.95225688  1
  S2-  S212  1  0.49195412  0.63209888  0.45049082  1
  S2-  S213  1  0.51369307  0.62392389  0.94806606  1
  S2-  S214  1  0.49789776  0.89057644  0.45308496  1
  S2-  S215  1  0.50764003  0.87106243  0.95839606  1
  S2-  S216  1  0.74103690  0.13673162  0.46836844  1
  S2-  S217  1  0.75759307  0.11810471  0.95912712  1
  S2-  S218  1  0.74029700  0.38377668  0.45801951  1
  S2-  S219  1  0.75997354  0.36695613  0.95810275  1
  S2-  S220  1  0.74196985  0.63224327  0.45117646  1
  S2-  S221  1  0.76202892  0.63077285  0.94229013  1
  S2-  S222  1  0.74139250  0.87850487  0.45841545  1
  S2-  S223  1  0.76314610  0.87155467  0.95698908  1
  S2-  S224  1  0.13673157  -0.00192537  0.04548749  1
  S2-  S225  1  0.11868900  0.00976380  0.54966922  1
  S2-  S226  1  0.13368055  0.24763586  0.04608289  1
  S2-  S227  1  0.11880826  0.26008916  0.55124473  1
  S2-  S228  1  0.13766753  0.49544800  0.04131910  1
  S2-  S229  1  0.12056404  0.50877254  0.55038791  1
  S2-  S230  1  0.13582393  0.74730602  0.04794072  1
  S2-  S231  1  0.11753595  0.75900014  0.54990717  1
  S2-  S232  1  0.38564846  -0.00618817  0.04976502  1
  S2-  S233  1  0.36421244  0.01198671  0.54804198  1
  S2-  S234  1  0.38953958  0.24551165  0.04735277  1
  S2-  S235  1  0.36696586  0.26084623  0.54123189  1
  S2-  S236  1  0.38812085  0.49886511  0.04020109  1
  S2-  S237  1  0.36754372  0.50823593  0.54610310  1
  S2-  S238  1  0.38086116  0.74107747  0.04231252  1
  S2-  S239  1  0.36749353  0.75926724  0.53982375  1
  S2-  S240  1  0.64149882  -0.00429852  0.04733093  1
  S2-  S241  1  0.61967447  0.00871628  0.55200488  1
  S2-  S242  1  0.63337783  0.24312095  0.05103185  1
  S2-  S243  1  0.61576606  0.26165230  0.55090764  1
  S2-  S244  1  0.63643277  0.50034978  0.03854109  1
  S2-  S245  1  0.61204896  0.50778861  0.54958602  1
  S2-  S246  1  0.63978844  0.74551844  0.03407579  1
  S2-  S247  1  0.61595746  0.76091354  0.54699829  1
  S2-  S248  1  0.88540050  -0.00416932  0.04300089  1
  S2-  S249  1  0.86345844  0.00260395  0.54234354  1
  S2-  S250  1  0.88677372  0.24553914  0.03628399  1
  S2-  S251  1  0.86435069  0.26109950  0.54997499  1
  S2-  S252  1  0.88670999  0.50111595  0.02995182  1
  S2-  S253  1  0.86777949  0.50982487  0.54720213  1
  S2-  S254  1  0.88807695  0.74483010  0.04196177  1
  S2-  S255  1  0.86777487  0.75841634  0.55348152  1
