# generated using pymatgen
data_La6Ce6Pr19Nd20Sm13(BiS2)64
_symmetry_space_group_name_H-M   'P 1'
_cell_length_a   16.14025892
_cell_length_b   16.14647104
_cell_length_c   27.21906197
_cell_angle_alpha   90.00270301
_cell_angle_beta   89.94639777
_cell_angle_gamma   90.05305793
_symmetry_Int_Tables_number   1
_chemical_formula_structural   La6Ce6Pr19Nd20Sm13(BiS2)64
_chemical_formula_sum   'La6 Ce6 Pr19 Nd20 Sm13 Bi64 S128'
_cell_volume   7093.50522344
_cell_formula_units_Z   1
loop_
 _symmetry_equiv_pos_site_id
 _symmetry_equiv_pos_as_xyz
  1  'x, y, z'
loop_
 _atom_type_symbol
 _atom_type_oxidation_number
  La3+  3.0
  Ce3+  3.0
  Pr3+  3.0
  Nd3+  3.0
  Sm3+  3.0
  Bi2+  2.0
  S2-  -2.0
loop_
 _atom_site_type_symbol
 _atom_site_label
 _atom_site_symmetry_multiplicity
 _atom_site_fract_x
 _atom_site_fract_y
 _atom_site_fract_z
 _atom_site_occupancy
  La3+  La0  1  0.25741533  0.63158635  0.08710261  1
  La3+  La1  1  0.49658990  0.61895362  0.61037744  1
  La3+  La2  1  -0.00620087  0.36461701  0.56088982  1
  La3+  La3  1  0.49609120  0.13448352  0.06829107  1
  La3+  La4  1  0.88828481  0.76630434  0.92200931  1
  La3+  La5  1  0.75396320  0.64228834  0.05868946  1
  Ce3+  Ce6  1  0.00364762  0.87989363  0.06892661  1
  Ce3+  Ce7  1  0.87701208  0.00810187  0.94071147  1
  Ce3+  Ce8  1  0.49155845  0.37073990  0.55918757  1
  Ce3+  Ce9  1  0.62928540  0.76201297  0.93116553  1
  Ce3+  Ce10  1  0.62854339  0.01272329  0.94572329  1
  Ce3+  Ce11  1  0.11533435  0.49123118  0.43294344  1
  Pr3+  Pr12  1  0.37824220  0.01232649  0.93271148  1
  Pr3+  Pr13  1  0.26721275  0.89705488  0.09658930  1
  Pr3+  Pr14  1  0.86963484  0.23883396  0.43136945  1
  Pr3+  Pr15  1  0.74461957  0.11706888  0.55644127  1
  Pr3+  Pr16  1  0.00357932  0.13144271  0.06476583  1
  Pr3+  Pr17  1  0.38099495  0.51213420  0.93038366  1
  Pr3+  Pr18  1  0.61598477  0.49457698  0.43793672  1
  Pr3+  Pr19  1  0.11588852  -0.01011863  0.44254503  1
  Pr3+  Pr20  1  0.12341119  0.26225062  0.94139043  1
  Pr3+  Pr21  1  0.12322415  0.51239690  0.93424609  1
  Pr3+  Pr22  1  0.50340553  0.38825467  0.06067373  1
  Pr3+  Pr23  1  0.87919564  0.51452754  0.92962024  1
  Pr3+  Pr24  1  -0.00790364  0.39725289  0.07827882  1
  Pr3+  Pr25  1  0.63675383  0.50823408  0.93442428  1
  Pr3+  Pr26  1  0.49106988  0.11611798  0.57232442  1
  Pr3+  Pr27  1  0.85769610  0.48466631  0.42079909  1
  Pr3+  Pr28  1  0.74425413  0.86062624  0.56322587  1
  Pr3+  Pr29  1  0.49931557  0.63950862  0.05778013  1
  Pr3+  Pr30  1  0.49221543  0.86916849  0.56760726  1
  Nd3+  Nd31  1  0.37562808  0.76185399  0.93991431  1
  Nd3+  Nd32  1  -0.00276930  0.11807982  0.57117294  1
  Nd3+  Nd33  1  0.37800840  0.26179406  0.94477337  1
  Nd3+  Nd34  1  0.36773671  0.49380164  0.43445503  1
  Nd3+  Nd35  1  0.37087060  0.23931779  0.44068639  1
  Nd3+  Nd36  1  0.24519963  0.38921448  0.05584050  1
  Nd3+  Nd37  1  0.75373947  0.88353445  0.06447589  1
  Nd3+  Nd38  1  -0.00760756  0.60536386  0.56012562  1
  Nd3+  Nd39  1  0.75260205  0.13417140  0.06237200  1
  Nd3+  Nd40  1  0.13154648  0.76374102  0.94944663  1
  Nd3+  Nd41  1  0.11910155  0.73924233  0.44207550  1
  Nd3+  Nd42  1  0.63039550  0.26128263  0.94345991  1
  Nd3+  Nd43  1  0.74674633  0.60641636  0.56983932  1
  Nd3+  Nd44  1  0.24522283  0.86498434  0.55874228  1
  Nd3+  Nd45  1  0.86933482  -0.01116065  0.44578802  1
  Nd3+  Nd46  1  0.61899766  -0.01028409  0.43927967  1
  Nd3+  Nd47  1  0.24812501  0.61138634  0.56437898  1
  Nd3+  Nd48  1  -0.00742958  0.85743619  0.56370500  1
  Nd3+  Nd49  1  0.37077977  -0.01017607  0.43527410  1
  Nd3+  Nd50  1  0.61751145  0.73853027  0.44803222  1
  Sm3+  Sm51  1  0.61402201  0.23841010  0.44626650  1
  Sm3+  Sm52  1  0.74116242  0.36843896  0.55594677  1
  Sm3+  Sm53  1  0.87862616  0.26425456  0.95378489  1
  Sm3+  Sm54  1  0.24335688  0.11519981  0.54846582  1
  Sm3+  Sm55  1  0.11662155  0.24033593  0.43592593  1
  Sm3+  Sm56  1  0.74614178  0.39744531  0.07839967  1
  Sm3+  Sm57  1  0.12834920  0.01027605  0.94735727  1
  Sm3+  Sm58  1  0.00348133  0.64126560  0.06094486  1
  Sm3+  Sm59  1  0.36947420  0.74003307  0.44313694  1
  Sm3+  Sm60  1  0.25024547  0.13530566  0.05606959  1
  Sm3+  Sm61  1  0.24541669  0.36688259  0.54917673  1
  Sm3+  Sm62  1  0.49898079  0.88594329  0.05212108  1
  Sm3+  Sm63  1  0.86821515  0.73525301  0.43906502  1
  Bi2+  Bi64  1  -0.01218760  0.16519719  0.31815666  1
  Bi2+  Bi65  1  -0.04002804  0.15348033  0.80090702  1
  Bi2+  Bi66  1  -0.00206048  0.35026158  0.28194414  1
  Bi2+  Bi67  1  0.03427128  0.36760809  0.78217911  1
  Bi2+  Bi68  1  0.03608877  0.62452575  0.28911652  1
  Bi2+  Bi69  1  0.00501993  0.63118929  0.79339162  1
  Bi2+  Bi70  1  -0.04668730  0.90377025  0.28931142  1
  Bi2+  Bi71  1  0.01941356  0.89822785  0.80046122  1
  Bi2+  Bi72  1  0.27789741  0.13102412  0.28370105  1
  Bi2+  Bi73  1  0.27896698  0.19389623  0.76819198  1
  Bi2+  Bi74  1  0.28350421  0.40166820  0.23791877  1
  Bi2+  Bi75  1  0.22919382  0.38613724  0.78355350  1
  Bi2+  Bi76  1  0.27354462  0.63213087  0.30707553  1
  Bi2+  Bi77  1  0.19840304  0.58037135  0.80986457  1
  Bi2+  Bi78  1  0.24947734  0.87571001  0.30298949  1
  Bi2+  Bi79  1  0.21128111  0.88100577  0.78275307  1
  Bi2+  Bi80  1  0.49852476  0.13524808  0.32037262  1
  Bi2+  Bi81  1  0.51440223  0.14068407  0.81899133  1
  Bi2+  Bi82  1  0.50485334  0.33062822  0.29256632  1
  Bi2+  Bi83  1  0.50415510  0.33100249  0.77662485  1
  Bi2+  Bi84  1  0.51628460  0.62005132  0.27842791  1
  Bi2+  Bi85  1  0.48266953  0.64592799  0.80417200  1
  Bi2+  Bi86  1  0.55046786  0.82250697  0.22576811  1
  Bi2+  Bi87  1  0.43524563  0.89368556  0.78142670  1
  Bi2+  Bi88  1  0.73024029  0.04851298  0.28724974  1
  Bi2+  Bi89  1  0.76891743  0.10309030  0.80902215  1
  Bi2+  Bi90  1  0.80983611  0.32907887  0.25064850  1
  Bi2+  Bi91  1  0.77194843  0.34137435  0.78410360  1
  Bi2+  Bi92  1  0.75467558  0.64050349  0.31286587  1
  Bi2+  Bi93  1  0.71771441  0.59937099  0.80314346  1
  Bi2+  Bi94  1  0.71490714  0.84504806  0.28984923  1
  Bi2+  Bi95  1  0.80587513  0.93257924  0.75985345  1
  Bi2+  Bi96  1  0.09998566  0.04862851  0.25392158  1
  Bi2+  Bi97  1  0.15608938  0.04620553  0.72741173  1
  Bi2+  Bi98  1  0.17922756  0.23840977  0.20664962  1
  Bi2+  Bi99  1  0.12230567  0.24866517  0.70443979  1
  Bi2+  Bi100  1  0.12225396  0.50262636  0.20455344  1
  Bi2+  Bi101  1  0.12835621  0.51366202  0.70440049  1
  Bi2+  Bi102  1  0.09056871  0.77255802  0.22519549  1
  Bi2+  Bi103  1  0.15456593  0.71249590  0.72713469  1
  Bi2+  Bi104  1  0.39047770  0.02508995  0.21002030  1
  Bi2+  Bi105  1  0.37424016  0.03405065  0.69704722  1
  Bi2+  Bi106  1  0.38126328  0.24713522  0.19552174  1
  Bi2+  Bi107  1  0.42336709  0.22390954  0.68707127  1
  Bi2+  Bi108  1  0.46071419  0.43162038  0.18767044  1
  Bi2+  Bi109  1  0.34969694  0.47469100  0.70699278  1
  Bi2+  Bi110  1  0.35758421  0.75281497  0.20616225  1
  Bi2+  Bi111  1  0.34609680  0.77177368  0.71028429  1
  Bi2+  Bi112  1  0.69684422  -0.05104294  0.18982383  1
  Bi2+  Bi113  1  0.61805926  0.03614014  0.74368585  1
  Bi2+  Bi114  1  0.63692965  0.20525109  0.22974115  1
  Bi2+  Bi115  1  0.62139350  0.21709516  0.69349920  1
  Bi2+  Bi116  1  0.62764636  0.46630798  0.24478671  1
  Bi2+  Bi117  1  0.64208860  0.40968435  0.70813113  1
  Bi2+  Bi118  1  0.62475215  0.65498872  0.18634440  1
  Bi2+  Bi119  1  0.63124309  0.76520096  0.71756231  1
  Bi2+  Bi120  1  0.89721130  -0.04759739  0.18155274  1
  Bi2+  Bi121  1  0.95776504  0.04073823  0.70325387  1
  Bi2+  Bi122  1  0.89495055  0.14450721  0.21381362  1
  Bi2+  Bi123  1  0.84647402  0.21611990  0.70575896  1
  Bi2+  Bi124  1  0.86406914  0.50859235  0.21046352  1
  Bi2+  Bi125  1  0.87531004  0.55213392  0.69511622  1
  Bi2+  Bi126  1  0.86576093  0.76258780  0.21264292  1
  Bi2+  Bi127  1  0.88388785  0.79002498  0.69840059  1
  S2-  S128  1  0.04943947  0.12952674  0.16205813  1
  S2-  S129  1  -0.01048421  0.24600389  0.63878068  1
  S2-  S130  1  0.07843949  0.35346628  0.16489745  1
  S2-  S131  1  -0.00800819  0.47936720  0.63825980  1
  S2-  S132  1  -0.00816169  0.54327283  0.14400647  1
  S2-  S133  1  -0.02938873  0.68176313  0.64983622  1
  S2-  S134  1  -0.00675241  0.75705958  0.13930896  1
  S2-  S135  1  0.01038185  0.89204226  0.66060169  1
  S2-  S136  1  0.28207836  0.05949684  0.14186432  1
  S2-  S137  1  0.20889534  0.12800368  0.64378352  1
  S2-  S138  1  0.25723372  0.47489031  0.14146375  1
  S2-  S139  1  0.23384689  0.40270644  0.64520958  1
  S2-  S140  1  0.20605491  0.66702250  0.18540624  1
  S2-  S141  1  0.33456857  0.61584836  0.65232271  1
  S2-  S142  1  0.21705244  0.87451325  0.19568368  1
  S2-  S143  1  0.28320963  0.89455491  0.65353502  1
  S2-  S144  1  0.51447912  0.12305957  0.16845404  1
  S2-  S145  1  0.50387965  -0.00614787  0.64338655  1
  S2-  S146  1  0.60887388  0.37999431  0.14317636  1
  S2-  S147  1  0.49279958  0.45118514  0.64634187  1
  S2-  S148  1  0.41039377  0.64062400  0.14581246  1
  S2-  S149  1  0.55646090  0.62214147  0.71419572  1
  S2-  S150  1  0.43110932  0.88865980  0.14358925  1
  S2-  S151  1  0.50250600  0.78052565  0.65469582  1
  S2-  S152  1  0.74154972  0.16891501  0.15994638  1
  S2-  S153  1  0.74250311  0.10509886  0.65613746  1
  S2-  S154  1  0.85947609  0.36913345  0.15197365  1
  S2-  S155  1  0.76416394  0.46234480  0.63779712  1
  S2-  S156  1  0.74985026  0.54330015  0.14378317  1
  S2-  S157  1  0.75354793  0.66769696  0.66721235  1
  S2-  S158  1  0.75606972  0.76126438  0.13769851  1
  S2-  S159  1  0.73760887  0.87993974  0.66327003  1
  S2-  S160  1  0.11781650  -0.03671996  0.34368359  1
  S2-  S161  1  0.13098842  -0.00069651  0.84893395  1
  S2-  S162  1  0.11607741  0.28120795  0.33976192  1
  S2-  S163  1  0.09487694  0.24161871  0.84313988  1
  S2-  S164  1  0.15259219  0.51730902  0.33831160  1
  S2-  S165  1  0.00711472  0.49042663  0.85786801  1
  S2-  S166  1  0.13630632  0.74529491  0.34240442  1
  S2-  S167  1  0.04705225  0.76270895  0.86061469  1
  S2-  S168  1  0.35334494  -0.01191257  0.33574550  1
  S2-  S169  1  0.38113083  0.02561616  0.83237407  1
  S2-  S170  1  0.36447526  0.25298453  0.34214902  1
  S2-  S171  1  0.38553057  0.26133565  0.84633736  1
  S2-  S172  1  0.39050876  0.53266908  0.33714065  1
  S2-  S173  1  0.36239305  0.52985301  0.82981933  1
  S2-  S174  1  0.36085720  0.76281941  0.34455919  1
  S2-  S175  1  0.36662335  0.76754068  0.84033917  1
  S2-  S176  1  0.58237618  -0.00145311  0.34225790  1
  S2-  S177  1  0.62956507  0.00617716  0.84795461  1
  S2-  S178  1  0.62890762  0.23968696  0.34845630  1
  S2-  S179  1  0.63059910  0.27127850  0.84361721  1
  S2-  S180  1  0.70899378  0.49917228  0.35303020  1
  S2-  S181  1  0.56816243  0.52563847  0.84107851  1
  S2-  S182  1  0.61023356  0.71861011  0.34842966  1
  S2-  S183  1  0.63368629  0.74921498  0.83088125  1
  S2-  S184  1  0.87119089  0.02582309  0.34847547  1
  S2-  S185  1  0.87410271  -0.09113189  0.85877899  1
  S2-  S186  1  0.86547323  0.34589012  0.35192930  1
  S2-  S187  1  0.87018556  0.27704172  0.85546409  1
  S2-  S188  1  0.90855500  0.57205086  0.33683347  1
  S2-  S189  1  0.76027255  0.47121398  0.85784929  1
  S2-  S190  1  0.86378489  0.78682992  0.34477771  1
  S2-  S191  1  0.85680806  0.65471803  0.84286811  1
  S2-  S192  1  -0.00637832  0.11685812  0.46101612  1
  S2-  S193  1  0.00112430  0.13386809  0.95669139  1
  S2-  S194  1  -0.00364490  0.36434451  0.45090362  1
  S2-  S195  1  0.00142076  0.38384644  0.96454709  1
  S2-  S196  1  -0.00643813  0.61719896  0.45224912  1
  S2-  S197  1  0.00584758  0.63904571  0.95770490  1
  S2-  S198  1  -0.00868553  0.86174715  0.45544493  1
  S2-  S199  1  0.00841696  0.89141607  0.96288703  1
  S2-  S200  1  0.24272098  0.11629200  0.44370943  1
  S2-  S201  1  0.25142518  0.13698420  0.95057395  1
  S2-  S202  1  0.24379734  0.36390335  0.44454438  1
  S2-  S203  1  0.25192845  0.38657937  0.94814434  1
  S2-  S204  1  0.24513654  0.61728283  0.45503756  1
  S2-  S205  1  0.25278471  0.63597492  0.94855547  1
  S2-  S206  1  0.24464606  0.86561104  0.45245523  1
  S2-  S207  1  0.25295732  0.88940536  0.94522922  1
  S2-  S208  1  0.49360246  0.11340189  0.46062492  1
  S2-  S209  1  0.50213484  0.13769041  0.95824563  1
  S2-  S210  1  0.49293418  0.36623129  0.45052460  1
  S2-  S211  1  0.50387286  0.38495030  0.95216512  1
  S2-  S212  1  0.49045151  0.61792439  0.44907524  1
  S2-  S213  1  0.50240986  0.63901947  0.95009012  1
  S2-  S214  1  0.49298615  0.86535695  0.45480454  1
  S2-  S215  1  0.50206962  0.88662605  0.94683876  1
  S2-  S216  1  0.74203480  0.11595136  0.44953357  1
  S2-  S217  1  0.75517664  0.13712074  0.95601495  1
  S2-  S218  1  0.73556740  0.35961515  0.45378146  1
  S2-  S219  1  0.75308713  0.38030661  0.96983376  1
  S2-  S220  1  0.74399738  0.61870571  0.45850891  1
  S2-  S221  1  0.75218712  0.64263297  0.95080973  1
  S2-  S222  1  0.74440619  0.86486474  0.45458628  1
  S2-  S223  1  0.74865564  0.88680390  0.95779762  1
  S2-  S224  1  0.13267872  0.00593267  0.05269601  1
  S2-  S225  1  0.11757030  -0.00993502  0.54969938  1
  S2-  S226  1  0.12796117  0.25822994  0.04842760  1
  S2-  S227  1  0.12395030  0.24086504  0.53962797  1
  S2-  S228  1  0.12784172  0.51789674  0.04214102  1
  S2-  S229  1  0.12470085  0.49086787  0.53876187  1
  S2-  S230  1  0.14385932  0.76585479  0.05452751  1
  S2-  S231  1  0.12148611  0.73757068  0.54998495  1
  S2-  S232  1  0.37552597  0.00977902  0.03896455  1
  S2-  S233  1  0.36558368  -0.00641701  0.54166097  1
  S2-  S234  1  0.37152926  0.26292493  0.05101729  1
  S2-  S235  1  0.36608878  0.24082845  0.54675995  1
  S2-  S236  1  0.37700837  0.51060525  0.03817855  1
  S2-  S237  1  0.36798564  0.49125026  0.54098044  1
  S2-  S238  1  0.37090677  0.76681193  0.04481503  1
  S2-  S239  1  0.36959744  0.74005101  0.54779119  1
  S2-  S240  1  0.62481374  0.00873735  0.05278896  1
  S2-  S241  1  0.62331053  -0.00986495  0.54536131  1
  S2-  S242  1  0.62515442  0.25472878  0.04902488  1
  S2-  S243  1  0.61674152  0.24335821  0.55129296  1
  S2-  S244  1  0.62272367  0.51608113  0.04179873  1
  S2-  S245  1  0.61655831  0.49335422  0.54457440  1
  S2-  S246  1  0.62026477  0.76640495  0.04020872  1
  S2-  S247  1  0.61960010  0.73334493  0.55370018  1
  S2-  S248  1  0.87686312  0.00862681  0.04883350  1
  S2-  S249  1  0.87229395  -0.00959985  0.55248264  1
  S2-  S250  1  0.87877955  0.25541393  0.05565408  1
  S2-  S251  1  0.86340560  0.24327045  0.53976051  1
  S2-  S252  1  0.87760763  0.51788221  0.03930224  1
  S2-  S253  1  0.86606751  0.48750644  0.53106071  1
  S2-  S254  1  0.88111429  0.76636735  0.03527941  1
  S2-  S255  1  0.86738238  0.73622072  0.54427499  1
