# generated using pymatgen
data_La6Ce6Pr19Nd20Sm13(BiS2)64
_symmetry_space_group_name_H-M   'P 1'
_cell_length_a   16.08333864
_cell_length_b   16.10102034
_cell_length_c   27.30413149
_cell_angle_alpha   90.11350508
_cell_angle_beta   90.06768241
_cell_angle_gamma   90.11252549
_symmetry_Int_Tables_number   1
_chemical_formula_structural   La6Ce6Pr19Nd20Sm13(BiS2)64
_chemical_formula_sum   'La6 Ce6 Pr19 Nd20 Sm13 Bi64 S128'
_cell_volume   7070.59524455
_cell_formula_units_Z   1
loop_
 _symmetry_equiv_pos_site_id
 _symmetry_equiv_pos_as_xyz
  1  'x, y, z'
loop_
 _atom_type_symbol
 _atom_type_oxidation_number
  La3+  3.0
  Ce3+  3.0
  Pr3+  3.0
  Nd3+  3.0
  Sm3+  3.0
  Bi2+  2.0
  S2-  -2.0
loop_
 _atom_site_type_symbol
 _atom_site_label
 _atom_site_symmetry_multiplicity
 _atom_site_fract_x
 _atom_site_fract_y
 _atom_site_fract_z
 _atom_site_occupancy
  La3+  La0  1  0.21766070  0.37853547  0.08266758  1
  La3+  La1  1  0.84037866  0.48624334  0.92713843  1
  La3+  La2  1  0.09598890  0.73822992  0.91302954  1
  La3+  La3  1  0.12260004  0.25835290  0.40396425  1
  La3+  La4  1  0.38757446  -0.00366572  0.40233809  1
  La3+  La5  1  0.49199963  0.13762798  0.59132268  1
  Ce3+  Ce6  1  0.10113872  0.24781609  0.94236750  1
  Ce3+  Ce7  1  0.84584461  0.74344442  0.93431516  1
  Ce3+  Ce8  1  0.38061915  0.50369049  0.43771736  1
  Ce3+  Ce9  1  -0.02102774  0.86396712  0.05320362  1
  Ce3+  Ce10  1  0.59610992  0.74585587  0.94325229  1
  Ce3+  Ce11  1  0.50449541  0.37845546  0.55640359  1
  Pr3+  Pr12  1  0.47091132  0.11573178  0.07390535  1
  Pr3+  Pr13  1  0.00391177  0.38540688  0.56952072  1
  Pr3+  Pr14  1  0.25724776  0.13282300  0.54325062  1
  Pr3+  Pr15  1  0.76211542  0.11872985  0.58085907  1
  Pr3+  Pr16  1  0.72554695  0.86658497  0.06206468  1
  Pr3+  Pr17  1  0.63383923  0.00671358  0.43166829  1
  Pr3+  Pr18  1  0.87687229  0.50231363  0.43913537  1
  Pr3+  Pr19  1  0.01276467  0.87538618  0.56704041  1
  Pr3+  Pr20  1  0.46955327  0.86753203  0.06810699  1
  Pr3+  Pr21  1  0.62856526  0.24766749  0.44782529  1
  Pr3+  Pr22  1  0.75311681  0.62675088  0.56732116  1
  Pr3+  Pr23  1  0.34789125  0.74493202  0.94366371  1
  Pr3+  Pr24  1  0.34477049  -0.00159152  0.93706671  1
  Pr3+  Pr25  1  0.75491036  0.37294548  0.57425323  1
  Pr3+  Pr26  1  0.88362667  0.00658909  0.43695793  1
  Pr3+  Pr27  1  0.12255600  0.50549048  0.42542430  1
  Pr3+  Pr28  1  0.26258751  0.88351614  0.56059809  1
  Pr3+  Pr29  1  0.72388330  0.61567395  0.05766843  1
  Pr3+  Pr30  1  0.13272285  0.75768117  0.42888373  1
  Nd3+  Nd31  1  0.59389764  0.23595998  0.94458866  1
  Nd3+  Nd32  1  0.25380156  0.38077473  0.55346743  1
  Nd3+  Nd33  1  0.47410448  0.36769480  0.06474069  1
  Nd3+  Nd34  1  0.47272435  0.61523236  0.06054781  1
  Nd3+  Nd35  1  0.35032705  0.48744781  0.93454758  1
  Nd3+  Nd36  1  0.09101928  0.48552501  0.91903243  1
  Nd3+  Nd37  1  0.84382458  0.23775322  0.94044544  1
  Nd3+  Nd38  1  0.10199114  -0.00446650  0.93190042  1
  Nd3+  Nd39  1  0.38200960  0.25725966  0.42554172  1
  Nd3+  Nd40  1  0.12821391  0.00212883  0.43154709  1
  Nd3+  Nd41  1  -0.02233682  0.11984728  0.06001225  1
  Nd3+  Nd42  1  -0.02784050  0.37254978  0.06374156  1
  Nd3+  Nd43  1  0.88136564  0.75475756  0.44669908  1
  Nd3+  Nd44  1  0.72259208  0.11468921  0.05978544  1
  Nd3+  Nd45  1  0.21813229  0.11060408  0.08008676  1
  Nd3+  Nd46  1  0.21457187  0.86396402  0.06211033  1
  Nd3+  Nd47  1  0.00845108  0.12995215  0.56451669  1
  Nd3+  Nd48  1  0.88134333  0.25377776  0.44337922  1
  Nd3+  Nd49  1  0.58904162  -0.01671411  0.91185450  1
  Nd3+  Nd50  1  0.50674225  0.62874711  0.55518225  1
  Sm3+  Sm51  1  0.72657571  0.36677328  0.06567047  1
  Sm3+  Sm52  1  0.34764061  0.23914347  0.95637178  1
  Sm3+  Sm53  1  -0.02549075  0.61432421  0.04762942  1
  Sm3+  Sm54  1  0.63507376  0.50477940  0.43647795  1
  Sm3+  Sm55  1  0.25604677  0.63159436  0.54919836  1
  Sm3+  Sm56  1  0.01029806  0.63154454  0.56582469  1
  Sm3+  Sm57  1  0.84893265  -0.00603701  0.94502705  1
  Sm3+  Sm58  1  0.75418702  0.88303296  0.55980280  1
  Sm3+  Sm59  1  0.38451819  0.75698173  0.44243903  1
  Sm3+  Sm60  1  0.59548136  0.48901622  0.93332964  1
  Sm3+  Sm61  1  0.21903934  0.61349048  0.04978811  1
  Sm3+  Sm62  1  0.50711052  0.88667720  0.55870383  1
  Sm3+  Sm63  1  0.63165608  0.75639953  0.44672961  1
  Bi2+  Bi64  1  -0.04725600  0.12804093  0.28105510  1
  Bi2+  Bi65  1  0.07193299  0.09355171  0.80832354  1
  Bi2+  Bi66  1  -0.00445793  0.39202250  0.28764384  1
  Bi2+  Bi67  1  0.08058976  0.35696325  0.75516196  1
  Bi2+  Bi68  1  -0.03130262  0.64476988  0.28551888  1
  Bi2+  Bi69  1  -0.01503742  0.61412381  0.78612373  1
  Bi2+  Bi70  1  -0.00095803  0.84681479  0.28963824  1
  Bi2+  Bi71  1  0.02099974  0.88131737  0.79306465  1
  Bi2+  Bi72  1  0.15535188  0.03943740  0.29707819  1
  Bi2+  Bi73  1  0.26009616  0.15418844  0.78574625  1
  Bi2+  Bi74  1  0.28112233  0.35177177  0.29008559  1
  Bi2+  Bi75  1  0.26281623  0.35710509  0.80320585  1
  Bi2+  Bi76  1  0.17402240  0.62721755  0.30878430  1
  Bi2+  Bi77  1  0.27295045  0.55354428  0.79199333  1
  Bi2+  Bi78  1  0.25898864  0.80011209  0.28594742  1
  Bi2+  Bi79  1  0.31218396  0.89622264  0.80604852  1
  Bi2+  Bi80  1  0.52829737  0.14815271  0.28888431  1
  Bi2+  Bi81  1  0.49672295  0.13874796  0.80422846  1
  Bi2+  Bi82  1  0.56018840  0.41325127  0.26414242  1
  Bi2+  Bi83  1  0.47409532  0.38545925  0.78028919  1
  Bi2+  Bi84  1  0.47552106  0.58444449  0.30392834  1
  Bi2+  Bi85  1  0.56806740  0.66896596  0.81708650  1
  Bi2+  Bi86  1  0.51669800  0.86407696  0.28649702  1
  Bi2+  Bi87  1  0.55023994  0.83276000  0.75120490  1
  Bi2+  Bi88  1  0.76078142  0.15293741  0.29822307  1
  Bi2+  Bi89  1  0.75572837  0.15236439  0.81691951  1
  Bi2+  Bi90  1  0.77284850  0.38241659  0.28409890  1
  Bi2+  Bi91  1  0.83187563  0.39236573  0.79157058  1
  Bi2+  Bi92  1  0.66951070  0.61984767  0.30307145  1
  Bi2+  Bi93  1  0.78049063  0.66966334  0.80580063  1
  Bi2+  Bi94  1  0.76563641  0.87317280  0.29407562  1
  Bi2+  Bi95  1  0.75117436  0.83783329  0.75031002  1
  Bi2+  Bi96  1  0.10728741  -0.03408980  0.19856090  1
  Bi2+  Bi97  1  0.09385681  -0.01109586  0.70352704  1
  Bi2+  Bi98  1  0.14286488  0.23470609  0.20610933  1
  Bi2+  Bi99  1  0.11352387  0.18688264  0.70410116  1
  Bi2+  Bi100  1  0.11077118  0.49624423  0.20438903  1
  Bi2+  Bi101  1  0.15661120  0.50810069  0.69967092  1
  Bi2+  Bi102  1  0.10597452  0.73348921  0.21629809  1
  Bi2+  Bi103  1  0.17315690  0.75336827  0.70696084  1
  Bi2+  Bi104  1  0.36644560  0.01311572  0.21140888  1
  Bi2+  Bi105  1  0.37882711  -0.00850516  0.69396531  1
  Bi2+  Bi106  1  0.41616304  0.25964910  0.19828614  1
  Bi2+  Bi107  1  0.35270705  0.26441131  0.70396780  1
  Bi2+  Bi108  1  0.32199028  0.58136624  0.23100645  1
  Bi2+  Bi109  1  0.40384568  0.50904248  0.70254287  1
  Bi2+  Bi110  1  0.36018527  0.76139045  0.19267757  1
  Bi2+  Bi111  1  0.40218339  0.68850769  0.74971924  1
  Bi2+  Bi112  1  0.70444471  0.01419626  0.22153451  1
  Bi2+  Bi113  1  0.67825633  0.05284880  0.71440534  1
  Bi2+  Bi114  1  0.67279506  0.28378202  0.20156120  1
  Bi2+  Bi115  1  0.62689147  0.31929571  0.71646010  1
  Bi2+  Bi116  1  0.67551382  0.49539390  0.18743407  1
  Bi2+  Bi117  1  0.65613324  0.51897670  0.76312375  1
  Bi2+  Bi118  1  0.56279010  0.70784843  0.22402836  1
  Bi2+  Bi119  1  0.65812759  0.69120244  0.69559435  1
  Bi2+  Bi120  1  0.90287474  -0.02925789  0.20997546  1
  Bi2+  Bi121  1  0.91135095  0.02893939  0.74567804  1
  Bi2+  Bi122  1  0.87462257  0.25932805  0.20836843  1
  Bi2+  Bi123  1  0.88555192  0.23280537  0.71534630  1
  Bi2+  Bi124  1  0.86971856  0.52070736  0.20696765  1
  Bi2+  Bi125  1  0.85948208  0.49438625  0.69890853  1
  Bi2+  Bi126  1  0.83684805  0.78553041  0.19969830  1
  Bi2+  Bi127  1  0.92281246  0.76337812  0.71658502  1
  S2-  S128  1  0.07217202  0.11907717  0.14462910  1
  S2-  S129  1  -0.09075267  0.11825935  0.64733740  1
  S2-  S130  1  0.07491402  0.35998210  0.14691605  1
  S2-  S131  1  -0.11285482  0.35564813  0.64607393  1
  S2-  S132  1  -0.00673415  0.57367105  0.14347338  1
  S2-  S133  1  0.02225891  0.51842554  0.64112562  1
  S2-  S134  1  0.08154679  0.83389344  0.13059683  1
  S2-  S135  1  0.04017134  0.75249433  0.63859981  1
  S2-  S136  1  0.28575558  0.15018310  0.17404726  1
  S2-  S137  1  0.32275210  0.12905666  0.63800550  1
  S2-  S138  1  0.27454333  0.34718309  0.18265799  1
  S2-  S139  1  0.27425805  0.39603560  0.65301535  1
  S2-  S140  1  0.22750365  0.54160876  0.13933489  1
  S2-  S141  1  0.24202721  0.64962965  0.64725558  1
  S2-  S142  1  0.25071829  0.96209656  0.14361232  1
  S2-  S143  1  0.24228244  0.88279451  0.66197234  1
  S2-  S144  1  0.50275984  0.11035541  0.17486330  1
  S2-  S145  1  0.51286260  0.08526136  0.69069387  1
  S2-  S146  1  0.49011359  0.39533448  0.16289350  1
  S2-  S147  1  0.49289280  0.29853410  0.64336231  1
  S2-  S148  1  0.45754347  0.61799420  0.15940277  1
  S2-  S149  1  0.51328897  0.61018689  0.65325608  1
  S2-  S150  1  0.46821597  0.88880465  0.16861410  1
  S2-  S151  1  0.47805628  0.87517590  0.65634690  1
  S2-  S152  1  0.75593002  0.14082951  0.15586087  1
  S2-  S153  1  0.71324484  0.21069513  0.66700124  1
  S2-  S154  1  0.84857894  0.38037913  0.13657748  1
  S2-  S155  1  0.69094498  0.44746449  0.65984664  1
  S2-  S156  1  0.76470621  0.63908307  0.15461697  1
  S2-  S157  1  0.82486467  0.65013203  0.65765222  1
  S2-  S158  1  0.70149178  0.86738612  0.16171953  1
  S2-  S159  1  0.74512956  0.96953341  0.64452187  1
  S2-  S160  1  -0.00020865  0.02996608  0.35975669  1
  S2-  S161  1  0.22329047  0.02094188  0.85923324  1
  S2-  S162  1  0.17592363  0.20520801  0.30824357  1
  S2-  S163  1  0.11361504  0.34183144  0.85903562  1
  S2-  S164  1  0.14524461  0.40209253  0.34165985  1
  S2-  S165  1  0.12434014  0.60233952  0.84411461  1
  S2-  S166  1  0.14417972  0.87735026  0.35566873  1
  S2-  S167  1  0.16744863  0.81460923  0.82619918  1
  S2-  S168  1  0.32037742  0.02583491  0.30763754  1
  S2-  S169  1  0.44391353  -0.00651038  0.85194427  1
  S2-  S170  1  0.40442961  0.23237597  0.32556026  1
  S2-  S171  1  0.38414581  0.20880995  0.86070347  1
  S2-  S172  1  0.37014845  0.44304086  0.34778515  1
  S2-  S173  1  0.47063749  0.48332717  0.86113217  1
  S2-  S174  1  0.39227852  0.82725603  0.35307844  1
  S2-  S175  1  0.37116748  0.75885852  0.84431344  1
  S2-  S176  1  0.53701340  -0.00274771  0.34338777  1
  S2-  S177  1  0.64041351  0.03766056  0.81975237  1
  S2-  S178  1  0.62937594  0.23367300  0.34619211  1
  S2-  S179  1  0.61453661  0.24550516  0.84542938  1
  S2-  S180  1  0.75010866  0.50169688  0.36335528  1
  S2-  S181  1  0.70780745  0.46265328  0.85813827  1
  S2-  S182  1  0.63552596  0.78057090  0.34961927  1
  S2-  S183  1  0.59899525  0.83128513  0.85815517  1
  S2-  S184  1  0.76489982  0.00407976  0.35974863  1
  S2-  S185  1  0.85341084  0.01806422  0.84827367  1
  S2-  S186  1  0.96514561  0.26729940  0.35487402  1
  S2-  S187  1  0.88996014  0.26166111  0.84542286  1
  S2-  S188  1  0.97942822  0.51703541  0.35764970  1
  S2-  S189  1  0.95085120  0.48752947  0.84710546  1
  S2-  S190  1  0.87888115  0.76041988  0.34750741  1
  S2-  S191  1  0.94114085  0.75052807  0.85268946  1
  S2-  S192  1  0.01447502  0.13751138  0.46050070  1
  S2-  S193  1  -0.02560706  0.11814422  0.95381929  1
  S2-  S194  1  0.00643329  0.37856548  0.46121237  1
  S2-  S195  1  -0.03278930  0.36246673  0.95702666  1
  S2-  S196  1  0.00756691  0.63524700  0.45857515  1
  S2-  S197  1  -0.03183111  0.61561842  0.94659718  1
  S2-  S198  1  0.00619133  0.87701932  0.45921786  1
  S2-  S199  1  -0.02515733  0.87345000  0.94915312  1
  S2-  S200  1  0.25486363  0.12968520  0.43679049  1
  S2-  S201  1  0.22111097  0.12303022  0.96544601  1
  S2-  S202  1  0.24917705  0.37455012  0.44912990  1
  S2-  S203  1  0.23138975  0.36631620  0.96073054  1
  S2-  S204  1  0.25956288  0.63229419  0.44422211  1
  S2-  S205  1  0.22841997  0.61281003  0.94738485  1
  S2-  S206  1  0.26446268  0.88347237  0.45412035  1
  S2-  S207  1  0.22046016  0.86668847  0.95446289  1
  S2-  S208  1  0.49858144  0.12749665  0.44392210  1
  S2-  S209  1  0.47549689  0.11352018  0.96557519  1
  S2-  S210  1  0.51031990  0.38179260  0.44787200  1
  S2-  S211  1  0.47401016  0.36114682  0.95960821  1
  S2-  S212  1  0.50899055  0.63001960  0.44841725  1
  S2-  S213  1  0.47346069  0.61800788  0.95589701  1
  S2-  S214  1  0.50907321  0.87922217  0.45529960  1
  S2-  S215  1  0.47277425  0.87022983  0.96143927  1
  S2-  S216  1  0.75906073  0.12925794  0.46226884  1
  S2-  S217  1  0.71681543  0.10845580  0.95385579  1
  S2-  S218  1  0.75350804  0.37435081  0.46197614  1
  S2-  S219  1  0.71786098  0.35920268  0.96213638  1
  S2-  S220  1  0.75319415  0.63431794  0.45981899  1
  S2-  S221  1  0.71760924  0.61964776  0.95062851  1
  S2-  S222  1  0.75541750  0.87771419  0.45777061  1
  S2-  S223  1  0.72441809  0.87317949  0.95509025  1
  S2-  S224  1  0.09689469  -0.00706631  0.03811581  1
  S2-  S225  1  0.13299710  0.00431325  0.54483288  1
  S2-  S226  1  0.10024297  0.24575020  0.04595676  1
  S2-  S227  1  0.13080817  0.25624965  0.55968273  1
  S2-  S228  1  0.09646261  0.49280421  0.03246815  1
  S2-  S229  1  0.13523075  0.50991972  0.53703862  1
  S2-  S230  1  0.09852029  0.73330677  0.02802875  1
  S2-  S231  1  0.13928211  0.75628470  0.53559711  1
  S2-  S232  1  0.34856769  -0.00667072  0.04491180  1
  S2-  S233  1  0.38689697  0.00746409  0.54533866  1
  S2-  S234  1  0.34611154  0.24456448  0.05964407  1
  S2-  S235  1  0.38095159  0.25818340  0.53374615  1
  S2-  S236  1  0.35095485  0.49164911  0.04254256  1
  S2-  S237  1  0.37979416  0.50661597  0.54356378  1
  S2-  S238  1  0.34350327  0.73896638  0.05052181  1
  S2-  S239  1  0.38458351  0.75472978  0.54697325  1
  S2-  S240  1  0.59848852  -0.00852786  0.05959749  1
  S2-  S241  1  0.62599087  0.00873267  0.54556542  1
  S2-  S242  1  0.60013020  0.24245220  0.05405537  1
  S2-  S243  1  0.62641286  0.24732731  0.55174293  1
  S2-  S244  1  0.59942058  0.48909897  0.04404312  1
  S2-  S245  1  0.63020366  0.50316891  0.54104792  1
  S2-  S246  1  0.59724172  0.74208317  0.05227261  1
  S2-  S247  1  0.63000368  0.75862695  0.55185476  1
  S2-  S248  1  0.85284409  -0.00739712  0.05117322  1
  S2-  S249  1  0.88723813  -0.00319014  0.54414902  1
  S2-  S250  1  0.84766732  0.23860127  0.04585248  1
  S2-  S251  1  0.87916585  0.24974481  0.54694117  1
  S2-  S252  1  0.84613404  0.49471376  0.03654163  1
  S2-  S253  1  0.87823924  0.50826139  0.54552444  1
  S2-  S254  1  0.85188341  0.74108836  0.04198671  1
  S2-  S255  1  0.87785217  0.75804002  0.55120769  1
