# generated using pymatgen
data_La6Ce6Pr19Nd20Sm13(BiS2)64
_symmetry_space_group_name_H-M   'P 1'
_cell_length_a   16.14493381
_cell_length_b   16.17212501
_cell_length_c   27.18526187
_cell_angle_alpha   89.91967229
_cell_angle_beta   90.01669816
_cell_angle_gamma   89.98543750
_symmetry_Int_Tables_number   1
_chemical_formula_structural   La6Ce6Pr19Nd20Sm13(BiS2)64
_chemical_formula_sum   'La6 Ce6 Pr19 Nd20 Sm13 Bi64 S128'
_cell_volume   7098.00694493
_cell_formula_units_Z   1
loop_
 _symmetry_equiv_pos_site_id
 _symmetry_equiv_pos_as_xyz
  1  'x, y, z'
loop_
 _atom_type_symbol
 _atom_type_oxidation_number
  La3+  3.0
  Ce3+  3.0
  Pr3+  3.0
  Nd3+  3.0
  Sm3+  3.0
  Bi2+  2.0
  S2-  -2.0
loop_
 _atom_site_type_symbol
 _atom_site_label
 _atom_site_symmetry_multiplicity
 _atom_site_fract_x
 _atom_site_fract_y
 _atom_site_fract_z
 _atom_site_occupancy
  La3+  La0  1  -0.00020357  0.86121557  0.59308745  1
  La3+  La1  1  0.36103593  0.24218575  0.40601356  1
  La3+  La2  1  0.72793468  0.37758162  0.56246909  1
  La3+  La3  1  0.62563001  0.00214214  0.88597308  1
  La3+  La4  1  0.73693489  0.13205070  0.58293863  1
  La3+  La5  1  0.62828745  0.49975573  0.41036643  1
  Ce3+  Ce6  1  0.86757790  0.50199320  0.44970601  1
  Ce3+  Ce7  1  -0.00833314  0.62478449  0.55721726  1
  Ce3+  Ce8  1  0.25806408  0.12851139  0.06105860  1
  Ce3+  Ce9  1  0.63466414  0.49820639  0.93714170  1
  Ce3+  Ce10  1  -0.00782369  0.12718486  0.57061945  1
  Ce3+  Ce11  1  0.51714721  0.38342732  0.07996734  1
  Pr3+  Pr12  1  0.24476160  0.62247905  0.55265321  1
  Pr3+  Pr13  1  0.35823787  0.49751498  0.41343757  1
  Pr3+  Pr14  1  0.26013344  0.88019218  0.05819076  1
  Pr3+  Pr15  1  0.11602472  0.75349668  0.43136936  1
  Pr3+  Pr16  1  0.13358466  0.00300176  0.92712861  1
  Pr3+  Pr17  1  0.76262142  0.37310014  0.06678928  1
  Pr3+  Pr18  1  0.75835272  0.63036756  0.05825646  1
  Pr3+  Pr19  1  0.61566938  0.75472145  0.42207036  1
  Pr3+  Pr20  1  0.62049618  0.24652878  0.42707011  1
  Pr3+  Pr21  1  0.24465102  0.87147328  0.56699200  1
  Pr3+  Pr22  1  0.48727264  0.13035798  0.56187064  1
  Pr3+  Pr23  1  0.62416693  0.00335937  0.44526084  1
  Pr3+  Pr24  1  0.00833971  0.63168314  0.05897415  1
  Pr3+  Pr25  1  0.86774299  -0.00157933  0.46312322  1
  Pr3+  Pr26  1  0.89443958  0.26098886  0.92282356  1
  Pr3+  Pr27  1  0.76148957  0.12776631  0.05167580  1
  Pr3+  Pr28  1  0.36490437  0.00172049  0.43756305  1
  Pr3+  Pr29  1  0.51915021  0.62789640  0.07330729  1
  Pr3+  Pr30  1  0.36388723  0.75236362  0.42867818  1
  Nd3+  Nd31  1  0.86571950  0.24657276  0.44031684  1
  Nd3+  Nd32  1  0.51214927  0.88165878  0.05658669  1
  Nd3+  Nd33  1  0.26140390  0.62857177  0.06620726  1
  Nd3+  Nd34  1  0.38537430  0.50414929  0.94682403  1
  Nd3+  Nd35  1  0.88524976  0.00587935  0.92367843  1
  Nd3+  Nd36  1  0.00623606  0.37778351  0.07134818  1
  Nd3+  Nd37  1  0.38621051  0.25405958  0.94843840  1
  Nd3+  Nd38  1  0.38416957  0.00642402  0.94164144  1
  Nd3+  Nd39  1  0.73299895  0.86563960  0.58377613  1
  Nd3+  Nd40  1  0.88409395  0.75573467  0.93552211  1
  Nd3+  Nd41  1  0.11506929  0.24989162  0.44668812  1
  Nd3+  Nd42  1  0.72744346  0.62523628  0.56272813  1
  Nd3+  Nd43  1  0.51425377  0.13040258  0.06488167  1
  Nd3+  Nd44  1  0.49319009  0.87399446  0.55644607  1
  Nd3+  Nd45  1  0.63564591  0.25786148  0.93327750  1
  Nd3+  Nd46  1  0.26285904  0.37873006  0.06550955  1
  Nd3+  Nd47  1  0.00849212  0.12664584  0.05690205  1
  Nd3+  Nd48  1  0.86186386  0.75478132  0.44252507  1
  Nd3+  Nd49  1  -0.00949548  0.37552718  0.56405116  1
  Nd3+  Nd50  1  0.63281221  0.75497722  0.93304609  1
  Sm3+  Sm51  1  0.13276322  0.25597058  0.94736617  1
  Sm3+  Sm52  1  0.24870190  0.37542074  0.55484850  1
  Sm3+  Sm53  1  0.13467607  0.50449213  0.95114901  1
  Sm3+  Sm54  1  0.24707105  0.12849261  0.56340217  1
  Sm3+  Sm55  1  0.49198809  0.62235331  0.54014391  1
  Sm3+  Sm56  1  0.13477935  0.75274962  0.94457159  1
  Sm3+  Sm57  1  0.11581285  0.49847565  0.43842043  1
  Sm3+  Sm58  1  0.48444138  0.37587775  0.54099920  1
  Sm3+  Sm59  1  0.38614273  0.75186170  0.94746501  1
  Sm3+  Sm60  1  0.75746416  0.88311038  0.04812992  1
  Sm3+  Sm61  1  0.88493239  0.50336623  0.94843870  1
  Sm3+  Sm62  1  0.11533949  -0.00007254  0.45408971  1
  Sm3+  Sm63  1  0.00847773  0.88091999  0.05360864  1
  Bi2+  Bi64  1  -0.01413148  0.09731844  0.31547718  1
  Bi2+  Bi65  1  0.09306249  0.13892172  0.79488756  1
  Bi2+  Bi66  1  -0.01974413  0.29420662  0.32756658  1
  Bi2+  Bi67  1  0.03898734  0.41522796  0.79950925  1
  Bi2+  Bi68  1  -0.01646857  0.54005083  0.32575353  1
  Bi2+  Bi69  1  0.04135161  0.59186095  0.74275804  1
  Bi2+  Bi70  1  -0.02597248  0.74222566  0.32730516  1
  Bi2+  Bi71  1  0.00673680  0.85700747  0.79599140  1
  Bi2+  Bi72  1  0.20032764  0.10157453  0.29711374  1
  Bi2+  Bi73  1  0.26816069  0.07660671  0.82607213  1
  Bi2+  Bi74  1  0.16149457  0.36092666  0.29068141  1
  Bi2+  Bi75  1  0.26877078  0.35945699  0.79320870  1
  Bi2+  Bi76  1  0.15331350  0.62405478  0.29335541  1
  Bi2+  Bi77  1  0.26761680  0.55794982  0.78689014  1
  Bi2+  Bi78  1  0.23751510  0.88714217  0.29890522  1
  Bi2+  Bi79  1  0.22992275  0.88204799  0.81547630  1
  Bi2+  Bi80  1  0.49345971  0.10710816  0.28530654  1
  Bi2+  Bi81  1  0.44213156  0.13789030  0.78335352  1
  Bi2+  Bi82  1  0.49736880  0.38141425  0.27870466  1
  Bi2+  Bi83  1  0.52091728  0.46152042  0.75903101  1
  Bi2+  Bi84  1  0.49455102  0.66228942  0.27804228  1
  Bi2+  Bi85  1  0.51488338  0.64282897  0.80091712  1
  Bi2+  Bi86  1  0.49019531  0.88776328  0.26587097  1
  Bi2+  Bi87  1  0.42353123  0.86436091  0.78175486  1
  Bi2+  Bi88  1  0.74287058  0.10661259  0.30244392  1
  Bi2+  Bi89  1  0.71952501  0.14468417  0.78256183  1
  Bi2+  Bi90  1  0.80356509  0.36963046  0.28699203  1
  Bi2+  Bi91  1  0.76748318  0.39178344  0.80397509  1
  Bi2+  Bi92  1  0.77369723  0.66496101  0.30621246  1
  Bi2+  Bi93  1  0.70668556  0.59431389  0.79356320  1
  Bi2+  Bi94  1  0.77829075  0.88491531  0.24653036  1
  Bi2+  Bi95  1  0.74646697  0.87582177  0.78190844  1
  Bi2+  Bi96  1  0.13286451  -0.02946286  0.20291522  1
  Bi2+  Bi97  1  0.18899433  0.00194169  0.72402606  1
  Bi2+  Bi98  1  0.06724567  0.22210944  0.22687589  1
  Bi2+  Bi99  1  0.18628194  0.24238369  0.71166973  1
  Bi2+  Bi100  1  0.06609072  0.48809202  0.22108878  1
  Bi2+  Bi101  1  0.14963009  0.43919370  0.70029761  1
  Bi2+  Bi102  1  0.08608571  0.78323104  0.23739272  1
  Bi2+  Bi103  1  0.20752159  0.76423198  0.72431823  1
  Bi2+  Bi104  1  0.33293117  -0.00802556  0.21568339  1
  Bi2+  Bi105  1  0.37875496  -0.00892887  0.69666108  1
  Bi2+  Bi106  1  0.33256756  0.24869429  0.21085503  1
  Bi2+  Bi107  1  0.37725221  0.27158216  0.70710624  1
  Bi2+  Bi108  1  0.33678676  0.50755625  0.21270438  1
  Bi2+  Bi109  1  0.37801417  0.52586802  0.69019099  1
  Bi2+  Bi110  1  0.35000681  0.76177168  0.22938461  1
  Bi2+  Bi111  1  0.39634546  0.72256536  0.70443047  1
  Bi2+  Bi112  1  0.65458991  0.01107458  0.18550604  1
  Bi2+  Bi113  1  0.58226540  -0.00823156  0.68433427  1
  Bi2+  Bi114  1  0.61166671  0.24624482  0.19923893  1
  Bi2+  Bi115  1  0.62123703  0.29434793  0.70236719  1
  Bi2+  Bi116  1  0.63448779  0.52383479  0.20884571  1
  Bi2+  Bi117  1  0.67156665  0.50393649  0.68573905  1
  Bi2+  Bi118  1  0.62550313  0.77311419  0.21594099  1
  Bi2+  Bi119  1  0.62099726  0.71166860  0.70786134  1
  Bi2+  Bi120  1  0.93889791  -0.00944551  0.22449154  1
  Bi2+  Bi121  1  0.89297159  0.01665080  0.71968869  1
  Bi2+  Bi122  1  0.87208161  0.24168302  0.21146208  1
  Bi2+  Bi123  1  0.90327449  0.25564340  0.71005478  1
  Bi2+  Bi124  1  0.87408860  0.51337968  0.21546851  1
  Bi2+  Bi125  1  0.85996173  0.51526435  0.72392240  1
  Bi2+  Bi126  1  0.88903849  0.71557029  0.21707493  1
  Bi2+  Bi127  1  0.88277642  0.70687765  0.71408179  1
  S2-  S128  1  -0.02990641  0.12509498  0.15394573  1
  S2-  S129  1  0.00071343  0.12438717  0.66899723  1
  S2-  S130  1  -0.11230524  0.36738406  0.14376147  1
  S2-  S131  1  -0.00415634  0.36415875  0.66337421  1
  S2-  S132  1  -0.00375355  0.61408229  0.15803301  1
  S2-  S133  1  0.01489913  0.67595657  0.64845445  1
  S2-  S134  1  0.01358720  0.87764366  0.15133313  1
  S2-  S135  1  -0.04656644  0.86604348  0.69270480  1
  S2-  S136  1  0.24967263  0.11976789  0.15818995  1
  S2-  S137  1  0.36187970  0.13825328  0.63690715  1
  S2-  S138  1  0.25035795  0.38036877  0.16489171  1
  S2-  S139  1  0.36841778  0.38591665  0.62571633  1
  S2-  S140  1  0.25330772  0.61525519  0.16533307  1
  S2-  S141  1  0.25792176  0.64674415  0.65167871  1
  S2-  S142  1  0.28189518  0.85447536  0.15602462  1
  S2-  S143  1  0.15129028  0.86636133  0.65196273  1
  S2-  S144  1  0.51424944  0.11946365  0.16699493  1
  S2-  S145  1  0.59271606  0.15352356  0.64518366  1
  S2-  S146  1  0.46334851  0.32756231  0.17130722  1
  S2-  S147  1  0.58084214  0.38447549  0.62575094  1
  S2-  S148  1  0.48254971  0.54229880  0.16136072  1
  S2-  S149  1  0.58029581  0.61128430  0.62528890  1
  S2-  S150  1  0.53946779  0.88982617  0.15520666  1
  S2-  S151  1  0.57471620  0.83927728  0.64181841  1
  S2-  S152  1  0.73636863  0.16162161  0.15131534  1
  S2-  S153  1  0.79256236  0.12777828  0.68314987  1
  S2-  S154  1  0.65741485  0.39168324  0.14897418  1
  S2-  S155  1  0.77561962  0.31276595  0.65456194  1
  S2-  S156  1  0.66133830  0.64386080  0.14206968  1
  S2-  S157  1  0.76101395  0.72422372  0.64473720  1
  S2-  S158  1  0.77594602  0.92865046  0.14275146  1
  S2-  S159  1  0.75090456  0.93524249  0.67906337  1
  S2-  S160  1  0.10980321  -0.01709215  0.35524118  1
  S2-  S161  1  0.01285000  0.00468648  0.85083440  1
  S2-  S162  1  0.19657915  0.23075035  0.35972736  1
  S2-  S163  1  0.05044022  0.26919330  0.86145691  1
  S2-  S164  1  0.20719974  0.48680012  0.35397982  1
  S2-  S165  1  0.13291849  0.52382764  0.85414360  1
  S2-  S166  1  0.23870020  0.74432713  0.35604264  1
  S2-  S167  1  0.10751369  0.76084640  0.84764918  1
  S2-  S168  1  0.36762158  0.08897590  0.35001230  1
  S2-  S169  1  0.45362410  -0.00076359  0.85066361  1
  S2-  S170  1  0.35613795  0.29787567  0.30269635  1
  S2-  S171  1  0.36928362  0.24487301  0.84883948  1
  S2-  S172  1  0.40819301  0.52018117  0.31368140  1
  S2-  S173  1  0.37514206  0.47893207  0.84839598  1
  S2-  S174  1  0.47555794  0.78613871  0.34991727  1
  S2-  S175  1  0.39063025  0.73061084  0.84971927  1
  S2-  S176  1  0.61390128  0.02319400  0.34359288  1
  S2-  S177  1  0.62482019  0.00053960  0.77631110  1
  S2-  S178  1  0.54684950  0.23665090  0.33079747  1
  S2-  S179  1  0.60777749  0.16823180  0.84912526  1
  S2-  S180  1  0.64012557  0.43672420  0.30840070  1
  S2-  S181  1  0.62819998  0.38836101  0.86150267  1
  S2-  S182  1  0.62221856  0.63438320  0.34563690  1
  S2-  S183  1  0.63238637  0.83304926  0.84476267  1
  S2-  S184  1  0.84668060  0.02382499  0.36281581  1
  S2-  S185  1  0.78877177  0.01277286  0.83961633  1
  S2-  S186  1  0.75883787  0.23761695  0.35901444  1
  S2-  S187  1  0.84528422  0.24549476  0.82295186  1
  S2-  S188  1  0.81302373  0.50668851  0.35753146  1
  S2-  S189  1  0.90077142  0.47231586  0.85319619  1
  S2-  S190  1  0.75713697  0.79798639  0.36356694  1
  S2-  S191  1  0.87236246  0.78377275  0.83703679  1
  S2-  S192  1  -0.00618208  0.12554117  0.46285258  1
  S2-  S193  1  0.01184557  0.12980228  0.95234780  1
  S2-  S194  1  -0.00836416  0.37600459  0.45734624  1
  S2-  S195  1  0.01234974  0.38459159  0.96465483  1
  S2-  S196  1  -0.00613514  0.62625528  0.45310408  1
  S2-  S197  1  0.00899945  0.62906338  0.95232035  1
  S2-  S198  1  -0.00559444  0.87527127  0.46231356  1
  S2-  S199  1  0.01066276  0.87517065  0.95076067  1
  S2-  S200  1  0.23781721  0.12144911  0.46046104  1
  S2-  S201  1  0.25492274  0.13103696  0.95543622  1
  S2-  S202  1  0.24006135  0.37333748  0.45215992  1
  S2-  S203  1  0.25691532  0.37923009  0.95800223  1
  S2-  S204  1  0.23808233  0.62230915  0.44901353  1
  S2-  S205  1  0.25889465  0.62975589  0.95834679  1
  S2-  S206  1  0.24052518  0.87836905  0.45919063  1
  S2-  S207  1  0.26013178  0.87563540  0.95192651  1
  S2-  S208  1  0.49225746  0.12446675  0.45253987  1
  S2-  S209  1  0.50712927  0.12939683  0.95756629  1
  S2-  S210  1  0.48733198  0.37376992  0.43297170  1
  S2-  S211  1  0.50557451  0.37939639  0.96330643  1
  S2-  S212  1  0.48343952  0.62183180  0.43827850  1
  S2-  S213  1  0.51066220  0.62838372  0.95796210  1
  S2-  S214  1  0.49265984  0.88192415  0.45207036  1
  S2-  S215  1  0.50606009  0.87645961  0.95158332  1
  S2-  S216  1  0.74510899  0.12612276  0.46973883  1
  S2-  S217  1  0.76667075  0.13633978  0.94530449  1
  S2-  S218  1  0.74576049  0.37432033  0.45398900  1
  S2-  S219  1  0.76665736  0.37945507  0.95792658  1
  S2-  S220  1  0.74493869  0.62751844  0.45690971  1
  S2-  S221  1  0.76027033  0.62899563  0.94971515  1
  S2-  S222  1  0.74208564  0.87891967  0.47296539  1
  S2-  S223  1  0.75934107  0.87991906  0.94598300  1
  S2-  S224  1  0.13307374  0.00207884  0.04200473  1
  S2-  S225  1  0.12118811  0.00413870  0.55833527  1
  S2-  S226  1  0.13203963  0.25562789  0.05378198  1
  S2-  S227  1  0.12205530  0.25325853  0.55408244  1
  S2-  S228  1  0.13345939  0.50296507  0.05665802  1
  S2-  S229  1  0.11927706  0.49647119  0.54622188  1
  S2-  S230  1  0.13440091  0.75477539  0.05069222  1
  S2-  S231  1  0.12074440  0.74806978  0.54147835  1
  S2-  S232  1  0.38603877  0.00557498  0.04984440  1
  S2-  S233  1  0.36514364  -0.00318559  0.54447944  1
  S2-  S234  1  0.38507630  0.25287322  0.05437556  1
  S2-  S235  1  0.36270234  0.25054530  0.52877180  1
  S2-  S236  1  0.38511613  0.50434945  0.05282374  1
  S2-  S237  1  0.36645880  0.50243932  0.52590935  1
  S2-  S238  1  0.38897080  0.75077399  0.05320106  1
  S2-  S239  1  0.36974837  0.74911639  0.54086992  1
  S2-  S240  1  0.63478691  0.00483630  0.04492229  1
  S2-  S241  1  0.61580576  0.00103608  0.55206322  1
  S2-  S242  1  0.63438749  0.25342141  0.04251660  1
  S2-  S243  1  0.61048654  0.25094462  0.53383216  1
  S2-  S244  1  0.63775547  0.50366715  0.04224684  1
  S2-  S245  1  0.61040862  0.49960260  0.52071675  1
  S2-  S246  1  0.63599510  0.75912184  0.04023940  1
  S2-  S247  1  0.61108501  0.74851499  0.53052660  1
  S2-  S248  1  0.88691924  0.00193016  0.03592528  1
  S2-  S249  1  0.87195013  -0.00403185  0.56895709  1
  S2-  S250  1  0.88958510  0.25189780  0.03807308  1
  S2-  S251  1  0.86951059  0.25064925  0.54853672  1
  S2-  S252  1  0.88410718  0.50699468  0.05173081  1
  S2-  S253  1  0.86335487  0.50175851  0.55756192  1
  S2-  S254  1  0.88270477  0.75805825  0.04485951  1
  S2-  S255  1  0.87231389  0.75157410  0.54839120  1
