# generated using pymatgen
data_La6Ce6Pr19Nd20Sm13(BiS2)64
_symmetry_space_group_name_H-M   'P 1'
_cell_length_a   16.11426316
_cell_length_b   16.11071914
_cell_length_c   27.38203914
_cell_angle_alpha   90.06076717
_cell_angle_beta   90.11923448
_cell_angle_gamma   90.03467769
_symmetry_Int_Tables_number   1
_chemical_formula_structural   La6Ce6Pr19Nd20Sm13(BiS2)64
_chemical_formula_sum   'La6 Ce6 Pr19 Nd20 Sm13 Bi64 S128'
_cell_volume   7108.69531455
_cell_formula_units_Z   1
loop_
 _symmetry_equiv_pos_site_id
 _symmetry_equiv_pos_as_xyz
  1  'x, y, z'
loop_
 _atom_type_symbol
 _atom_type_oxidation_number
  La3+  3.0
  Ce3+  3.0
  Pr3+  3.0
  Nd3+  3.0
  Sm3+  3.0
  Bi2+  2.0
  S2-  -2.0
loop_
 _atom_site_type_symbol
 _atom_site_label
 _atom_site_symmetry_multiplicity
 _atom_site_fract_x
 _atom_site_fract_y
 _atom_site_fract_z
 _atom_site_occupancy
  La3+  La0  1  0.13480368  0.48798981  0.89297306  1
  La3+  La1  1  0.49493846  0.61445732  0.57927172  1
  La3+  La2  1  0.01071970  0.61155651  0.59448362  1
  La3+  La3  1  0.85148942  0.75429424  0.89859795  1
  La3+  La4  1  0.37941492  0.25187288  0.38749590  1
  La3+  La5  1  0.85847659  0.49054184  0.90775218  1
  Ce3+  Ce6  1  0.24898944  0.36630228  0.55632523  1
  Ce3+  Ce7  1  0.36062196  0.49371100  0.94913231  1
  Ce3+  Ce8  1  0.12237677  0.49366201  0.44289905  1
  Ce3+  Ce9  1  0.11092782  -0.00949491  0.93524250  1
  Ce3+  Ce10  1  0.00088038  0.12283990  0.56492832  1
  Ce3+  Ce11  1  0.87689661  -0.00829774  0.44457068  1
  Pr3+  Pr12  1  0.24480806  0.86571231  0.07289800  1
  Pr3+  Pr13  1  0.73616693  0.86883835  0.06458243  1
  Pr3+  Pr14  1  0.36979789  -0.00812766  0.42882005  1
  Pr3+  Pr15  1  0.24913302  0.86760935  0.55847607  1
  Pr3+  Pr16  1  0.60506842  0.74806357  0.92781782  1
  Pr3+  Pr17  1  -0.01264381  0.61968820  0.03816999  1
  Pr3+  Pr18  1  0.48965051  0.36951682  0.06092018  1
  Pr3+  Pr19  1  0.60859701  0.24341516  0.93914954  1
  Pr3+  Pr20  1  0.85885885  0.24274479  0.92436745  1
  Pr3+  Pr21  1  0.37390058  0.74450904  0.43001423  1
  Pr3+  Pr22  1  0.35979074  -0.00462776  0.94685049  1
  Pr3+  Pr23  1  -0.01327745  0.37270937  0.04981153  1
  Pr3+  Pr24  1  0.49763870  0.86814355  0.55495533  1
  Pr3+  Pr25  1  0.87727052  0.24564331  0.43178808  1
  Pr3+  Pr26  1  0.86005615  -0.00403493  0.93976594  1
  Pr3+  Pr27  1  0.11547136  -0.00762870  0.43024175  1
  Pr3+  Pr28  1  0.60884431  -0.00495450  0.94699593  1
  Pr3+  Pr29  1  0.23501334  0.62162364  0.06614586  1
  Pr3+  Pr30  1  0.62018554  0.24393374  0.44398148  1
  Nd3+  Nd31  1  -0.01658317  0.11915694  0.06414814  1
  Nd3+  Nd32  1  0.87538903  0.49615790  0.45050297  1
  Nd3+  Nd33  1  0.75095992  0.11875369  0.55413245  1
  Nd3+  Nd34  1  0.62543449  0.73873417  0.44475729  1
  Nd3+  Nd35  1  0.23072028  0.11155036  0.07884929  1
  Nd3+  Nd36  1  0.75031484  0.86771068  0.56736047  1
  Nd3+  Nd37  1  0.11278016  0.74630795  0.92835929  1
  Nd3+  Nd38  1  0.49058605  0.62146574  0.05889777  1
  Nd3+  Nd39  1  0.74116272  0.62159628  0.04971077  1
  Nd3+  Nd40  1  0.23414837  0.36979595  0.06494283  1
  Nd3+  Nd41  1  0.61295208  0.49614169  0.93609053  1
  Nd3+  Nd42  1  0.62539373  -0.00663713  0.44039502  1
  Nd3+  Nd43  1  0.75236309  0.36829637  0.56383125  1
  Nd3+  Nd44  1  -0.00006593  0.86735728  0.56436561  1
  Nd3+  Nd45  1  0.49627330  0.12165139  0.56651321  1
  Nd3+  Nd46  1  0.35874233  0.74201138  0.93837983  1
  Nd3+  Nd47  1  0.24875727  0.11924272  0.54927837  1
  Nd3+  Nd48  1  0.11031515  0.24388798  0.93851369  1
  Nd3+  Nd49  1  0.48401039  0.12454647  0.07986264  1
  Nd3+  Nd50  1  0.74459328  0.61575463  0.58093236  1
  Sm3+  Sm51  1  0.74237563  0.12510301  0.06159930  1
  Sm3+  Sm52  1  0.12045391  0.73991620  0.44327792  1
  Sm3+  Sm53  1  0.74053991  0.37035344  0.05224407  1
  Sm3+  Sm54  1  0.49602733  0.36252330  0.56885131  1
  Sm3+  Sm55  1  0.24875595  0.61836380  0.55419060  1
  Sm3+  Sm56  1  -0.01014107  0.86746477  0.05060540  1
  Sm3+  Sm57  1  0.35766805  0.24572085  0.94868152  1
  Sm3+  Sm58  1  0.87300659  0.73887559  0.45642454  1
  Sm3+  Sm59  1  0.37617177  0.49201986  0.44281816  1
  Sm3+  Sm60  1  0.49498070  0.87042349  0.06834268  1
  Sm3+  Sm61  1  0.12535183  0.24510592  0.43251994  1
  Sm3+  Sm62  1  0.00068321  0.36324891  0.56617845  1
  Sm3+  Sm63  1  0.62156118  0.49268268  0.45242871  1
  Bi2+  Bi64  1  -0.04101497  0.12590342  0.29282981  1
  Bi2+  Bi65  1  0.05201941  0.11479317  0.83057603  1
  Bi2+  Bi66  1  -0.02267098  0.39158360  0.29872636  1
  Bi2+  Bi67  1  0.01757052  0.30104521  0.78689475  1
  Bi2+  Bi68  1  0.00549525  0.62459981  0.32447850  1
  Bi2+  Bi69  1  0.03559394  0.64784403  0.78940130  1
  Bi2+  Bi70  1  -0.05816576  0.86507353  0.24914775  1
  Bi2+  Bi71  1  0.00050830  0.93072407  0.78954882  1
  Bi2+  Bi72  1  0.26340968  0.12451311  0.28545937  1
  Bi2+  Bi73  1  0.23834288  0.08595369  0.78637476  1
  Bi2+  Bi74  1  0.16612630  0.39740327  0.25190045  1
  Bi2+  Bi75  1  0.30024212  0.34985804  0.79612953  1
  Bi2+  Bi76  1  0.25629258  0.65906810  0.30125959  1
  Bi2+  Bi77  1  0.30665562  0.69482250  0.79017896  1
  Bi2+  Bi78  1  0.24990122  0.85802443  0.29237675  1
  Bi2+  Bi79  1  0.25351865  0.88639511  0.78939262  1
  Bi2+  Bi80  1  0.52593438  0.12861525  0.28460870  1
  Bi2+  Bi81  1  0.51863293  0.18686130  0.79585744  1
  Bi2+  Bi82  1  0.53115745  0.39779108  0.29571212  1
  Bi2+  Bi83  1  0.51183774  0.39083202  0.78755364  1
  Bi2+  Bi84  1  0.45323774  0.64489858  0.32052116  1
  Bi2+  Bi85  1  0.49970370  0.58732568  0.80272872  1
  Bi2+  Bi86  1  0.52287578  0.81017556  0.27860683  1
  Bi2+  Bi87  1  0.48085383  0.89481556  0.79514080  1
  Bi2+  Bi88  1  0.77874087  0.20556126  0.29607055  1
  Bi2+  Bi89  1  0.85264703  0.10459385  0.81125092  1
  Bi2+  Bi90  1  0.75789635  0.38531343  0.25361436  1
  Bi2+  Bi91  1  0.72364512  0.34936110  0.79037595  1
  Bi2+  Bi92  1  0.75825267  0.65899372  0.30766561  1
  Bi2+  Bi93  1  0.74010693  0.61890972  0.78317439  1
  Bi2+  Bi94  1  0.80412032  0.94652754  0.32171055  1
  Bi2+  Bi95  1  0.72786274  0.93145039  0.77679832  1
  Bi2+  Bi96  1  0.09979418  0.00242153  0.21126631  1
  Bi2+  Bi97  1  0.08623726  0.04994763  0.71076997  1
  Bi2+  Bi98  1  0.10911586  0.21145524  0.23310619  1
  Bi2+  Bi99  1  0.14401994  0.24237158  0.70116285  1
  Bi2+  Bi100  1  0.09373563  0.57609367  0.22404622  1
  Bi2+  Bi101  1  0.15744757  0.48725858  0.70629311  1
  Bi2+  Bi102  1  0.08844930  0.76534826  0.19954860  1
  Bi2+  Bi103  1  0.17463058  0.77953753  0.70337791  1
  Bi2+  Bi104  1  0.38457008  -0.00184866  0.19772126  1
  Bi2+  Bi105  1  0.41339108  -0.02490025  0.69455435  1
  Bi2+  Bi106  1  0.36853481  0.30859777  0.18889993  1
  Bi2+  Bi107  1  0.37673816  0.16360110  0.71258350  1
  Bi2+  Bi108  1  0.35979327  0.50577828  0.26159265  1
  Bi2+  Bi109  1  0.36672534  0.52645458  0.72505074  1
  Bi2+  Bi110  1  0.36989764  0.70883930  0.20786572  1
  Bi2+  Bi111  1  0.37651753  0.70848507  0.68252858  1
  Bi2+  Bi112  1  0.65771955  -0.06146430  0.24605951  1
  Bi2+  Bi113  1  0.59624720  0.03288409  0.72045592  1
  Bi2+  Bi114  1  0.63971725  0.23302674  0.20580415  1
  Bi2+  Bi115  1  0.63394145  0.21993506  0.70412031  1
  Bi2+  Bi116  1  0.62949004  0.54681255  0.25282933  1
  Bi2+  Bi117  1  0.61519631  0.48042733  0.70196568  1
  Bi2+  Bi118  1  0.61952678  0.71317027  0.18607450  1
  Bi2+  Bi119  1  0.55469288  0.73124280  0.73132577  1
  Bi2+  Bi120  1  0.82407200  0.02782273  0.21754643  1
  Bi2+  Bi121  1  0.88633757  0.02886625  0.70454211  1
  Bi2+  Bi122  1  0.89705841  0.27872019  0.19374194  1
  Bi2+  Bi123  1  0.87909857  0.22548883  0.71833950  1
  Bi2+  Bi124  1  0.90281664  0.54175135  0.19715175  1
  Bi2+  Bi125  1  0.88887264  0.49154260  0.71264725  1
  Bi2+  Bi126  1  0.81316878  0.73433729  0.20896760  1
  Bi2+  Bi127  1  0.87710827  0.77651306  0.70192043  1
  S2-  S128  1  0.09128446  0.13158455  0.14370054  1
  S2-  S129  1  -0.00448808  0.23733143  0.63887786  1
  S2-  S130  1  -0.02200311  0.39900465  0.15065594  1
  S2-  S131  1  0.01189918  0.45407024  0.65066489  1
  S2-  S132  1  -0.00086207  0.64143716  0.13910775  1
  S2-  S133  1  -0.01143197  0.63493633  0.69628982  1
  S2-  S134  1  0.00106283  0.89877269  0.14728485  1
  S2-  S135  1  0.02123313  0.83650650  0.66050757  1
  S2-  S136  1  0.35026115  0.14410909  0.15164418  1
  S2-  S137  1  0.23918250  0.12814773  0.64912297  1
  S2-  S138  1  0.23760522  0.42091721  0.16037152  1
  S2-  S139  1  0.24258334  0.36172927  0.65503588  1
  S2-  S140  1  0.22383563  0.73513858  0.14284016  1
  S2-  S141  1  0.17815326  0.62438661  0.64352486  1
  S2-  S142  1  0.22753557  0.97650376  0.15262051  1
  S2-  S143  1  0.26249334  0.89550852  0.65717676  1
  S2-  S144  1  0.55715772  0.10293441  0.17188956  1
  S2-  S145  1  0.49474087  0.23824263  0.64354089  1
  S2-  S146  1  0.51805269  0.34973472  0.15911646  1
  S2-  S147  1  0.47930866  0.46990182  0.64716110  1
  S2-  S148  1  0.47852269  0.61208403  0.15734113  1
  S2-  S149  1  0.61285537  0.63280338  0.65350391  1
  S2-  S150  1  0.40054476  0.86042875  0.15064666  1
  S2-  S151  1  0.49838014  0.83287446  0.65243030  1
  S2-  S152  1  0.85536921  0.13164419  0.13542366  1
  S2-  S153  1  0.76797830  0.13566706  0.65179818  1
  S2-  S154  1  0.74949478  0.34276733  0.14866429  1
  S2-  S155  1  0.76217376  0.39984551  0.66152494  1
  S2-  S156  1  0.75294510  0.59459273  0.14826631  1
  S2-  S157  1  0.80336325  0.62260376  0.67621107  1
  S2-  S158  1  0.62228007  0.86531855  0.14092863  1
  S2-  S159  1  0.75088087  0.86254892  0.66660892  1
  S2-  S160  1  0.18790375  -0.01036448  0.33655266  1
  S2-  S161  1  0.11790597  -0.12142265  0.85747716  1
  S2-  S162  1  0.21867777  0.24513113  0.34764799  1
  S2-  S163  1  0.15411190  0.31787227  0.85221670  1
  S2-  S164  1  0.11457091  0.47580484  0.34585023  1
  S2-  S165  1  0.08393363  0.47780757  0.79184578  1
  S2-  S166  1  0.11871998  0.75783452  0.34535876  1
  S2-  S167  1  0.17494458  0.65237246  0.85143342  1
  S2-  S168  1  0.40092879  0.08828668  0.34695058  1
  S2-  S169  1  0.35848949  -0.00794598  0.84603558  1
  S2-  S170  1  0.39295323  0.24229940  0.27439703  1
  S2-  S171  1  0.37412023  0.23060728  0.85173523  1
  S2-  S172  1  0.38389080  0.42201569  0.35299786  1
  S2-  S173  1  0.30580925  0.47616775  0.85767268  1
  S2-  S174  1  0.37710132  0.86462821  0.35381398  1
  S2-  S175  1  0.46653034  0.76049751  0.86053185  1
  S2-  S176  1  0.62373096  0.01504620  0.34106551  1
  S2-  S177  1  0.60763484  -0.02813560  0.84745045  1
  S2-  S178  1  0.55179470  0.25632294  0.35271550  1
  S2-  S179  1  0.68114808  0.22529995  0.84850835  1
  S2-  S180  1  0.63112731  0.49205936  0.35503463  1
  S2-  S181  1  0.69995910  0.49288285  0.85035138  1
  S2-  S182  1  0.64665076  0.76722505  0.34762135  1
  S2-  S183  1  0.70357147  0.74025234  0.84252850  1
  S2-  S184  1  0.97059297  -0.00682964  0.36297238  1
  S2-  S185  1  0.83621329  -0.07743926  0.85024771  1
  S2-  S186  1  1.00007267  0.25372842  0.36069764  1
  S2-  S187  1  0.87352211  0.34620626  0.84334063  1
  S2-  S188  1  0.88464311  0.49808301  0.35068796  1
  S2-  S189  1  0.88764727  0.55901457  0.81353933  1
  S2-  S190  1  0.89265615  0.73121625  0.35889450  1
  S2-  S191  1  0.92647725  0.76479222  0.80477400  1
  S2-  S192  1  -0.00153789  0.12069516  0.46045656  1
  S2-  S193  1  -0.01465228  0.11978626  0.95590727  1
  S2-  S194  1  -0.00126455  0.37120793  0.46112745  1
  S2-  S195  1  -0.00527781  0.37720737  0.94360860  1
  S2-  S196  1  -0.00096838  0.61894033  0.46388312  1
  S2-  S197  1  -0.01586202  0.62274604  0.93224694  1
  S2-  S198  1  -0.00271593  0.86085446  0.45908182  1
  S2-  S199  1  -0.02148479  0.86432465  0.94809789  1
  S2-  S200  1  0.24319239  0.11501653  0.44654595  1
  S2-  S201  1  0.23544609  0.12060400  0.95590015  1
  S2-  S202  1  0.24966525  0.37011953  0.45124507  1
  S2-  S203  1  0.23648289  0.36977456  0.96075916  1
  S2-  S204  1  0.25014240  0.61826044  0.44945003  1
  S2-  S205  1  0.23789622  0.61657221  0.96041515  1
  S2-  S206  1  0.24230850  0.86570978  0.45306052  1
  S2-  S207  1  0.24071452  0.86751801  0.95884578  1
  S2-  S208  1  0.50209573  0.11411727  0.45992056  1
  S2-  S209  1  0.48354795  0.12274744  0.96032857  1
  S2-  S210  1  0.49879164  0.37139823  0.46289657  1
  S2-  S211  1  0.48641409  0.36939608  0.95286983  1
  S2-  S212  1  0.49884369  0.61689936  0.46107753  1
  S2-  S213  1  0.48675554  0.61649639  0.95344552  1
  S2-  S214  1  0.50409425  0.86738290  0.45041713  1
  S2-  S215  1  0.48443416  0.87135351  0.96365650  1
  S2-  S216  1  0.75049907  0.11944601  0.44839323  1
  S2-  S217  1  0.73609087  0.11981057  0.95710446  1
  S2-  S218  1  0.74916219  0.36972016  0.45506129  1
  S2-  S219  1  0.73530235  0.36742945  0.95007827  1
  S2-  S220  1  0.74754077  0.61583958  0.46621659  1
  S2-  S221  1  0.73886682  0.62330212  0.94617923  1
  S2-  S222  1  0.74966479  0.86577982  0.46055639  1
  S2-  S223  1  0.73292720  0.86888581  0.95767691  1
  S2-  S224  1  0.11050949  -0.00822215  0.04034967  1
  S2-  S225  1  0.12190632  -0.00719304  0.54570073  1
  S2-  S226  1  0.11225534  0.24579737  0.04493177  1
  S2-  S227  1  0.12507999  0.24416979  0.53904800  1
  S2-  S228  1  0.11305967  0.49651240  0.05142312  1
  S2-  S229  1  0.12538182  0.49237582  0.54639425  1
  S2-  S230  1  0.11186509  0.74713967  0.03589402  1
  S2-  S231  1  0.12307873  0.74244254  0.54709088  1
  S2-  S232  1  0.36877145  -0.00283074  0.05138825  1
  S2-  S233  1  0.37432926  -0.00532214  0.54230148  1
  S2-  S234  1  0.36004124  0.24639924  0.05072728  1
  S2-  S235  1  0.37200046  0.24223485  0.54666083  1
  S2-  S236  1  0.36336652  0.49550749  0.05458060  1
  S2-  S237  1  0.36928332  0.49408405  0.54654959  1
  S2-  S238  1  0.36786284  0.74288779  0.04355014  1
  S2-  S239  1  0.37292384  0.74117584  0.54041331  1
  S2-  S240  1  0.61444667  0.00566219  0.05180846  1
  S2-  S241  1  0.62465279  -0.00558146  0.55065694  1
  S2-  S242  1  0.61549675  0.24375435  0.04707446  1
  S2-  S243  1  0.62735718  0.24401026  0.54859621  1
  S2-  S244  1  0.61566521  0.49406378  0.04348228  1
  S2-  S245  1  0.62451790  0.48867950  0.55416769  1
  S2-  S246  1  0.61281867  0.74266112  0.03782386  1
  S2-  S247  1  0.62534507  0.74382085  0.55026380  1
  S2-  S248  1  0.86154952  -0.00929963  0.04532054  1
  S2-  S249  1  0.87530316  -0.00704252  0.55164898  1
  S2-  S250  1  0.86170105  0.24816240  0.03279497  1
  S2-  S251  1  0.87223311  0.24518113  0.53970509  1
  S2-  S252  1  0.86012712  0.49436848  0.03450801  1
  S2-  S253  1  0.87491757  0.49581057  0.55528926  1
  S2-  S254  1  0.86286520  0.74760581  0.04799950  1
  S2-  S255  1  0.87520361  0.73860247  0.56058005  1
