# generated using pymatgen
data_La6Ce6Pr19Nd20Sm13(BiS2)64
_symmetry_space_group_name_H-M   'P 1'
_cell_length_a   16.09368047
_cell_length_b   16.01345939
_cell_length_c   27.43009539
_cell_angle_alpha   89.92553971
_cell_angle_beta   89.85947867
_cell_angle_gamma   89.79729249
_symmetry_Int_Tables_number   1
_chemical_formula_structural   La6Ce6Pr19Nd20Sm13(BiS2)64
_chemical_formula_sum   'La6 Ce6 Pr19 Nd20 Sm13 Bi64 S128'
_cell_volume   7069.08931938
_cell_formula_units_Z   1
loop_
 _symmetry_equiv_pos_site_id
 _symmetry_equiv_pos_as_xyz
  1  'x, y, z'
loop_
 _atom_type_symbol
 _atom_type_oxidation_number
  La3+  3.0
  Ce3+  3.0
  Pr3+  3.0
  Nd3+  3.0
  Sm3+  3.0
  Bi2+  2.0
  S2-  -2.0
loop_
 _atom_site_type_symbol
 _atom_site_label
 _atom_site_symmetry_multiplicity
 _atom_site_fract_x
 _atom_site_fract_y
 _atom_site_fract_z
 _atom_site_occupancy
  La3+  La0  1  0.36491256  0.27237555  0.91237406  1
  La3+  La1  1  0.76510432  0.34001720  0.59204919  1
  La3+  La2  1  0.36317979  0.00786865  0.90999761  1
  La3+  La3  1  0.13329783  -0.04241433  0.42364420  1
  La3+  La4  1  0.88323242  0.45105545  0.42534376  1
  La3+  La5  1  0.00429014  0.14678730  0.11388146  1
  Ce3+  Ce6  1  -0.00742821  0.63758638  0.05707752  1
  Ce3+  Ce7  1  0.38638945  0.21100200  0.43608379  1
  Ce3+  Ce8  1  0.00464195  0.83744738  0.55331569  1
  Ce3+  Ce9  1  0.75854545  0.58688414  0.55538053  1
  Ce3+  Ce10  1  0.61897078  0.76836159  0.93584448  1
  Ce3+  Ce11  1  0.25717151  0.58494149  0.55548582  1
  Pr3+  Pr12  1  0.63006884  0.71070611  0.44151785  1
  Pr3+  Pr13  1  0.62414203  0.51613795  0.93362713  1
  Pr3+  Pr14  1  0.49828517  0.33153812  0.58649621  1
  Pr3+  Pr15  1  0.88069379  0.70806890  0.42365135  1
  Pr3+  Pr16  1  0.50557152  0.08337674  0.56963877  1
  Pr3+  Pr17  1  0.13336933  0.45792736  0.44424668  1
  Pr3+  Pr18  1  0.87300601  0.77401058  0.92731715  1
  Pr3+  Pr19  1  -0.00251875  0.40238049  0.10540904  1
  Pr3+  Pr20  1  0.12303167  0.26523306  0.94706528  1
  Pr3+  Pr21  1  0.88295177  -0.03722509  0.42457612  1
  Pr3+  Pr22  1  -0.00728803  0.89352025  0.06667205  1
  Pr3+  Pr23  1  0.49473259  0.38788833  0.05558753  1
  Pr3+  Pr24  1  0.49367984  0.14274828  0.05279198  1
  Pr3+  Pr25  1  0.25479177  0.82797738  0.56121408  1
  Pr3+  Pr26  1  0.38762533  0.45745927  0.43052420  1
  Pr3+  Pr27  1  0.75872900  0.08080496  0.57283321  1
  Pr3+  Pr28  1  0.63221125  0.26646505  0.92189081  1
  Pr3+  Pr29  1  0.25203815  0.14237713  0.06412410  1
  Pr3+  Pr30  1  0.74753538  0.14317473  0.06726340  1
  Nd3+  Nd31  1  0.00736578  0.07962550  0.56537802  1
  Nd3+  Nd32  1  0.37238406  0.51547835  0.93512339  1
  Nd3+  Nd33  1  0.62971751  0.45572577  0.45415796  1
  Nd3+  Nd34  1  0.26006132  0.07694387  0.55869160  1
  Nd3+  Nd35  1  0.50151514  0.83521865  0.56712096  1
  Nd3+  Nd36  1  0.12312613  0.01741764  0.94826075  1
  Nd3+  Nd37  1  0.38440751  0.71587985  0.43020080  1
  Nd3+  Nd38  1  0.25763741  0.33088002  0.56033136  1
  Nd3+  Nd39  1  0.38312741  -0.03443444  0.42203237  1
  Nd3+  Nd40  1  0.00072923  0.58015242  0.55514356  1
  Nd3+  Nd41  1  0.49857347  0.64017282  0.05730192  1
  Nd3+  Nd42  1  0.87076190  0.01796917  0.94108957  1
  Nd3+  Nd43  1  0.24832534  0.38734097  0.06530513  1
  Nd3+  Nd44  1  0.24593754  0.63656710  0.05771731  1
  Nd3+  Nd45  1  0.24733709  0.89485034  0.06764626  1
  Nd3+  Nd46  1  0.87455951  0.26631954  0.94946961  1
  Nd3+  Nd47  1  0.50340218  0.58656947  0.56540181  1
  Nd3+  Nd48  1  0.00751259  0.32722359  0.56888420  1
  Nd3+  Nd49  1  0.12087426  0.76657633  0.95165485  1
  Nd3+  Nd50  1  0.37021942  0.76569511  0.94275616  1
  Sm3+  Sm51  1  0.61816519  0.01879173  0.94255254  1
  Sm3+  Sm52  1  0.63354715  -0.03876098  0.44933556  1
  Sm3+  Sm53  1  0.74974150  0.38881289  0.06175684  1
  Sm3+  Sm54  1  0.49521931  0.89062808  0.05366293  1
  Sm3+  Sm55  1  0.11947705  0.51426378  0.94208476  1
  Sm3+  Sm56  1  0.74520595  0.89001948  0.05594562  1
  Sm3+  Sm57  1  0.87426260  0.51622572  0.93630570  1
  Sm3+  Sm58  1  0.87966099  0.20778454  0.44325068  1
  Sm3+  Sm59  1  0.13341147  0.71005624  0.43366302  1
  Sm3+  Sm60  1  0.74742173  0.63824878  0.04864158  1
  Sm3+  Sm61  1  0.13220922  0.20896030  0.43789433  1
  Sm3+  Sm62  1  0.75991609  0.82803945  0.56411273  1
  Sm3+  Sm63  1  0.63174544  0.21048659  0.45100082  1
  Bi2+  Bi64  1  -0.01096514  0.16101269  0.31473263  1
  Bi2+  Bi65  1  0.00474243  0.16629633  0.81870545  1
  Bi2+  Bi66  1  -0.04280369  0.43039611  0.29257662  1
  Bi2+  Bi67  1  0.00426688  0.35736496  0.77214631  1
  Bi2+  Bi68  1  0.01746881  0.64281980  0.30880842  1
  Bi2+  Bi69  1  -0.02095099  0.58377751  0.79075196  1
  Bi2+  Bi70  1  -0.00733961  0.85690197  0.29586652  1
  Bi2+  Bi71  1  -0.01897888  0.85279170  0.80463410  1
  Bi2+  Bi72  1  0.28838504  0.11416296  0.28999811  1
  Bi2+  Bi73  1  0.19203832  0.15468930  0.78165375  1
  Bi2+  Bi74  1  0.26601361  0.42715145  0.29957680  1
  Bi2+  Bi75  1  0.21544949  0.40858270  0.79182256  1
  Bi2+  Bi76  1  0.30727672  0.61357052  0.32358919  1
  Bi2+  Bi77  1  0.30274184  0.63484753  0.78800589  1
  Bi2+  Bi78  1  0.28012751  0.84092167  0.29193608  1
  Bi2+  Bi79  1  0.22127352  0.89215744  0.79481810  1
  Bi2+  Bi80  1  0.53088708  0.15310384  0.27856718  1
  Bi2+  Bi81  1  0.53725932  0.12002405  0.80250236  1
  Bi2+  Bi82  1  0.47120740  0.40177895  0.28280814  1
  Bi2+  Bi83  1  0.49134864  0.39825583  0.78852207  1
  Bi2+  Bi84  1  0.49851662  0.62064770  0.30192520  1
  Bi2+  Bi85  1  0.49519342  0.65252109  0.80316945  1
  Bi2+  Bi86  1  0.51455522  0.94031190  0.28127786  1
  Bi2+  Bi87  1  0.50662524  0.85234928  0.80346013  1
  Bi2+  Bi88  1  0.73269402  0.13133293  0.28951548  1
  Bi2+  Bi89  1  0.81929454  0.10512716  0.80992586  1
  Bi2+  Bi90  1  0.67354215  0.39146245  0.28886323  1
  Bi2+  Bi91  1  0.74899017  0.38978460  0.79622777  1
  Bi2+  Bi92  1  0.74181292  0.67015578  0.28078854  1
  Bi2+  Bi93  1  0.69064051  0.67922319  0.73327646  1
  Bi2+  Bi94  1  0.71731596  0.93956070  0.26117263  1
  Bi2+  Bi95  1  0.80887834  0.83983078  0.72931243  1
  Bi2+  Bi96  1  0.14209654  0.00507445  0.21666093  1
  Bi2+  Bi97  1  0.07039377  0.01340966  0.74907053  1
  Bi2+  Bi98  1  0.14739576  0.27610088  0.21911498  1
  Bi2+  Bi99  1  0.13849313  0.28502161  0.69574827  1
  Bi2+  Bi100  1  0.09460702  0.51318384  0.22687962  1
  Bi2+  Bi101  1  0.11148742  0.48205172  0.70201150  1
  Bi2+  Bi102  1  0.17960273  0.68992250  0.24471670  1
  Bi2+  Bi103  1  0.13587584  0.73076552  0.75056359  1
  Bi2+  Bi104  1  0.39026140  -0.00880044  0.20112629  1
  Bi2+  Bi105  1  0.37227199  -0.00239579  0.70532671  1
  Bi2+  Bi106  1  0.41453883  0.25464630  0.20553824  1
  Bi2+  Bi107  1  0.37574961  0.23545274  0.71018119  1
  Bi2+  Bi108  1  0.35074722  0.51485890  0.20088536  1
  Bi2+  Bi109  1  0.29818556  0.54255908  0.68803223  1
  Bi2+  Bi110  1  0.44632956  0.73084661  0.21191213  1
  Bi2+  Bi111  1  0.34760069  0.76218021  0.69998347  1
  Bi2+  Bi112  1  0.60811269  0.14791282  0.17254924  1
  Bi2+  Bi113  1  0.68015476  0.01824822  0.74849323  1
  Bi2+  Bi114  1  0.60386854  0.34365165  0.16450113  1
  Bi2+  Bi115  1  0.63451104  0.26556571  0.70756305  1
  Bi2+  Bi116  1  0.63028928  0.52917046  0.20836362  1
  Bi2+  Bi117  1  0.53054785  0.57638803  0.70067282  1
  Bi2+  Bi118  1  0.62835490  0.78808621  0.20949498  1
  Bi2+  Bi119  1  0.60025776  0.85071109  0.70534968  1
  Bi2+  Bi120  1  0.88005783  -0.02544219  0.19667606  1
  Bi2+  Bi121  1  0.89278043  0.01757478  0.69716889  1
  Bi2+  Bi122  1  0.76763918  0.27202724  0.21248278  1
  Bi2+  Bi123  1  0.89349272  0.21709709  0.72080606  1
  Bi2+  Bi124  1  0.84742475  0.54012620  0.20647506  1
  Bi2+  Bi125  1  0.85272077  0.53522229  0.68411488  1
  Bi2+  Bi126  1  0.90255080  0.72982892  0.22761614  1
  Bi2+  Bi127  1  0.98444087  0.78487677  0.68498057  1
  S2-  S128  1  0.00164883  0.08858550  0.22581132  1
  S2-  S129  1  0.01763461  0.19863121  0.64245796  1
  S2-  S130  1  0.00374500  0.28262997  0.18041381  1
  S2-  S131  1  -0.08531714  0.40454373  0.64131367  1
  S2-  S132  1  -0.00354151  0.56799084  0.14575530  1
  S2-  S133  1  0.00012421  0.61931938  0.65260461  1
  S2-  S134  1  0.02834415  0.90366553  0.16459795  1
  S2-  S135  1  0.01822929  0.94181619  0.63340212  1
  S2-  S136  1  0.16923337  0.13951301  0.15697529  1
  S2-  S137  1  0.28473270  0.11707051  0.65584056  1
  S2-  S138  1  0.16211541  0.39933872  0.15439029  1
  S2-  S139  1  0.34285245  0.34893723  0.64572528  1
  S2-  S140  1  0.25874371  0.63238848  0.15595588  1
  S2-  S141  1  0.24509855  0.68800948  0.63370886  1
  S2-  S142  1  0.26172684  0.89920411  0.16669682  1
  S2-  S143  1  0.27342919  0.90359572  0.65370637  1
  S2-  S144  1  0.38642324  0.13317183  0.13451173  1
  S2-  S145  1  0.51023769  0.18791197  0.65466982  1
  S2-  S146  1  0.37967705  0.38127149  0.13520225  1
  S2-  S147  1  0.52922314  0.39863836  0.68330735  1
  S2-  S148  1  0.48883883  0.59425181  0.15245670  1
  S2-  S149  1  0.48389375  0.70817192  0.63907220  1
  S2-  S150  1  0.49663552  0.87404824  0.15100859  1
  S2-  S151  1  0.49653655  0.95680575  0.64404710  1
  S2-  S152  1  0.84023919  0.12452800  0.15217352  1
  S2-  S153  1  0.75643251  0.19506272  0.65383637  1
  S2-  S154  1  0.83298918  0.39995201  0.14776029  1
  S2-  S155  1  0.73358576  0.41338705  0.69085055  1
  S2-  S156  1  0.73165589  0.62531659  0.14520071  1
  S2-  S157  1  0.76756988  0.67758801  0.63859796  1
  S2-  S158  1  0.74399125  0.88748423  0.15303713  1
  S2-  S159  1  0.77078684  0.94081271  0.63920968  1
  S2-  S160  1  0.01729157  0.00109029  0.35017242  1
  S2-  S161  1  0.20352442  0.01698192  0.85915731  1
  S2-  S162  1  0.14953134  0.20025637  0.33782863  1
  S2-  S163  1  0.20819734  0.26712640  0.85754765  1
  S2-  S164  1  0.10680509  0.43712544  0.34620143  1
  S2-  S165  1  0.12129699  0.52145481  0.84426119  1
  S2-  S166  1  0.13754941  0.80988049  0.35270851  1
  S2-  S167  1  0.12707750  0.77852718  0.85408388  1
  S2-  S168  1  0.25271809  -0.01505857  0.34575781  1
  S2-  S169  1  0.40500737  0.03145972  0.80860531  1
  S2-  S170  1  0.41362259  0.10563032  0.35742101  1
  S2-  S171  1  0.41560893  0.24290293  0.81278778  1
  S2-  S172  1  0.38249146  0.33103112  0.35960330  1
  S2-  S173  1  0.36544425  0.43021776  0.84969315  1
  S2-  S174  1  0.40473303  0.83348354  0.35293135  1
  S2-  S175  1  0.35933479  0.84464544  0.85528085  1
  S2-  S176  1  0.63204783  -0.03042999  0.35046893  1
  S2-  S177  1  0.61992827  -0.02040765  0.84703666  1
  S2-  S178  1  0.63412937  0.23411929  0.35183822  1
  S2-  S179  1  0.61096624  0.28148742  0.81919154  1
  S2-  S180  1  0.57900933  0.47603917  0.35914325  1
  S2-  S181  1  0.62223739  0.48697849  0.83476645  1
  S2-  S182  1  0.61916349  0.72403990  0.34162998  1
  S2-  S183  1  0.63652298  0.74169264  0.84024457  1
  S2-  S184  1  0.84689831  0.10396056  0.36312835  1
  S2-  S185  1  0.86331698  -0.08066817  0.85906276  1
  S2-  S186  1  0.90563666  0.31242597  0.35692112  1
  S2-  S187  1  0.79120963  0.26125094  0.86201269  1
  S2-  S188  1  0.87072341  0.57368906  0.35086991  1
  S2-  S189  1  0.85737208  0.49095875  0.83959706  1
  S2-  S190  1  0.86104175  0.83510580  0.35242450  1
  S2-  S191  1  0.89873490  0.70314348  0.83433221  1
  S2-  S192  1  0.00977520  0.09053910  0.45935770  1
  S2-  S193  1  -0.00339580  0.13944042  0.95168746  1
  S2-  S194  1  0.01196747  0.33018493  0.46218127  1
  S2-  S195  1  -0.00342260  0.39146115  0.94170590  1
  S2-  S196  1  0.00984834  0.58483913  0.44932989  1
  S2-  S197  1  -0.00447817  0.64115175  0.95158307  1
  S2-  S198  1  0.00590870  0.83011430  0.45055308  1
  S2-  S199  1  -0.00184008  0.89271917  0.95986483  1
  S2-  S200  1  0.25755866  0.08917611  0.45309565  1
  S2-  S201  1  0.25140719  0.13858507  0.95656386  1
  S2-  S202  1  0.25587100  0.33319877  0.45596695  1
  S2-  S203  1  0.24471359  0.39701503  0.95775662  1
  S2-  S204  1  0.25871169  0.58483380  0.45013430  1
  S2-  S205  1  0.24551752  0.63917037  0.95121935  1
  S2-  S206  1  0.25905952  0.83118144  0.45354494  1
  S2-  S207  1  0.24505014  0.88875726  0.96202596  1
  S2-  S208  1  0.51217019  0.08382919  0.46235154  1
  S2-  S209  1  0.49469214  0.14161217  0.94077912  1
  S2-  S210  1  0.50778094  0.33353751  0.46578809  1
  S2-  S211  1  0.50110785  0.38885293  0.94714215  1
  S2-  S212  1  0.50425030  0.58627111  0.45916877  1
  S2-  S213  1  0.49614076  0.64073721  0.95043950  1
  S2-  S214  1  0.50899434  0.83886387  0.45828996  1
  S2-  S215  1  0.49475594  0.89345856  0.95046791  1
  S2-  S216  1  0.75141642  0.08599929  0.46575894  1
  S2-  S217  1  0.74428167  0.13769553  0.95941312  1
  S2-  S218  1  0.75370628  0.33307187  0.45505837  1
  S2-  S219  1  0.74979325  0.39457832  0.95647649  1
  S2-  S220  1  0.75262000  0.58326002  0.45118138  1
  S2-  S221  1  0.75047614  0.64283200  0.94461539  1
  S2-  S222  1  0.75376305  0.83497711  0.45875611  1
  S2-  S223  1  0.74065494  0.89254596  0.95372365  1
  S2-  S224  1  0.11831502  0.01863146  0.05374422  1
  S2-  S225  1  0.13530835  -0.04217404  0.53535908  1
  S2-  S226  1  0.11665427  0.26587378  0.05281594  1
  S2-  S227  1  0.13775951  0.20556594  0.54304901  1
  S2-  S228  1  0.11929470  0.51370304  0.04583862  1
  S2-  S229  1  0.13121955  0.45779218  0.55178298  1
  S2-  S230  1  0.12134622  0.76496746  0.05763163  1
  S2-  S231  1  0.12493509  0.70665636  0.53690153  1
  S2-  S232  1  0.37307842  0.00945069  0.03818307  1
  S2-  S233  1  0.38064163  -0.04367087  0.53728527  1
  S2-  S234  1  0.37150998  0.26700729  0.02979079  1
  S2-  S235  1  0.38122017  0.20715561  0.54406422  1
  S2-  S236  1  0.37264840  0.51797697  0.03974609  1
  S2-  S237  1  0.38272687  0.46171872  0.54230014  1
  S2-  S238  1  0.37088592  0.76477156  0.04912435  1
  S2-  S239  1  0.38111677  0.70803013  0.53488200  1
  S2-  S240  1  0.61999021  0.01384779  0.04724422  1
  S2-  S241  1  0.63249707  -0.04514269  0.55007063  1
  S2-  S242  1  0.62400024  0.26561450  0.03476186  1
  S2-  S243  1  0.63330539  0.21576572  0.55403189  1
  S2-  S244  1  0.62342303  0.51439424  0.04134867  1
  S2-  S245  1  0.63185449  0.46081854  0.56049493  1
  S2-  S246  1  0.62211373  0.76517703  0.04389620  1
  S2-  S247  1  0.63039050  0.71123359  0.54631167  1
  S2-  S248  1  0.86787828  0.01351671  0.04573170  1
  S2-  S249  1  0.88118207  -0.04189808  0.53533401  1
  S2-  S250  1  0.87705326  0.26619893  0.05307956  1
  S2-  S251  1  0.87931956  0.20983109  0.54737815  1
  S2-  S252  1  0.87060083  0.51337538  0.04089413  1
  S2-  S253  1  0.87709585  0.45953306  0.53414484  1
  S2-  S254  1  0.86870075  0.76555414  0.04402785  1
  S2-  S255  1  0.88351693  0.70940112  0.53496482  1
