# generated using pymatgen
data_La6Ce6Pr19Nd20Sm13(BiS2)64
_symmetry_space_group_name_H-M   'P 1'
_cell_length_a   16.08611377
_cell_length_b   16.15675396
_cell_length_c   27.29800766
_cell_angle_alpha   89.89478397
_cell_angle_beta   89.54364589
_cell_angle_gamma   90.10561667
_symmetry_Int_Tables_number   1
_chemical_formula_structural   La6Ce6Pr19Nd20Sm13(BiS2)64
_chemical_formula_sum   'La6 Ce6 Pr19 Nd20 Sm13 Bi64 S128'
_cell_volume   7094.48608123
_cell_formula_units_Z   1
loop_
 _symmetry_equiv_pos_site_id
 _symmetry_equiv_pos_as_xyz
  1  'x, y, z'
loop_
 _atom_type_symbol
 _atom_type_oxidation_number
  La3+  3.0
  Ce3+  3.0
  Pr3+  3.0
  Nd3+  3.0
  Sm3+  3.0
  Bi2+  2.0
  S2-  -2.0
loop_
 _atom_site_type_symbol
 _atom_site_label
 _atom_site_symmetry_multiplicity
 _atom_site_fract_x
 _atom_site_fract_y
 _atom_site_fract_z
 _atom_site_occupancy
  La3+  La0  1  0.50238698  0.36007343  0.08664535  1
  La3+  La1  1  0.88755146  0.73858920  0.42898812  1
  La3+  La2  1  0.89141401  0.24795059  0.43036486  1
  La3+  La3  1  0.51240134  0.62501805  0.57773815  1
  La3+  La4  1  0.24092094  0.88060942  0.59993981  1
  La3+  La5  1  0.62855761  0.76295302  0.39245812  1
  Ce3+  Ce6  1  0.62912308  0.49788126  0.43254247  1
  Ce3+  Ce7  1  0.88631649  -0.00518105  0.93925297  1
  Ce3+  Ce8  1  0.75459350  0.86842543  0.55477570  1
  Ce3+  Ce9  1  0.75786917  0.61797614  0.06086966  1
  Ce3+  Ce10  1  0.13715793  0.49668101  0.94526943  1
  Ce3+  Ce11  1  0.50365717  0.11990738  0.55478212  1
  Pr3+  Pr12  1  0.00857188  0.86912661  0.05514156  1
  Pr3+  Pr13  1  0.38859677  0.74497653  0.44720731  1
  Pr3+  Pr14  1  0.39096044  -0.00758904  0.92330170  1
  Pr3+  Pr15  1  0.12996271  -0.00829713  0.43577510  1
  Pr3+  Pr16  1  0.26101672  0.86857087  0.05499902  1
  Pr3+  Pr17  1  0.00829951  0.11912807  0.05420049  1
  Pr3+  Pr18  1  0.00673860  0.36428063  0.05625605  1
  Pr3+  Pr19  1  0.26050446  0.11675566  0.05632928  1
  Pr3+  Pr20  1  0.39009196  0.24670304  0.93136760  1
  Pr3+  Pr21  1  0.00695043  0.61868460  0.06077173  1
  Pr3+  Pr22  1  0.26089212  0.61864991  0.05912937  1
  Pr3+  Pr23  1  0.26012918  0.12279041  0.57446019  1
  Pr3+  Pr24  1  0.75726188  0.86878782  0.05994062  1
  Pr3+  Pr25  1  0.88651765  0.49833041  0.44120693  1
  Pr3+  Pr26  1  0.63034126  0.25207968  0.43223785  1
  Pr3+  Pr27  1  0.88682856  0.49089059  0.93858404  1
  Pr3+  Pr28  1  0.26326557  0.62644315  0.58591279  1
  Pr3+  Pr29  1  0.25986534  0.36583863  0.06023992  1
  Pr3+  Pr30  1  0.25791343  0.36863507  0.56951988  1
  Nd3+  Nd31  1  0.00733968  0.61811919  0.57062504  1
  Nd3+  Nd32  1  -0.00825838  0.86301115  0.57595740  1
  Nd3+  Nd33  1  0.39041188  0.49678554  0.94001345  1
  Nd3+  Nd34  1  0.75770597  0.36574748  0.05627838  1
  Nd3+  Nd35  1  0.50505488  0.37002509  0.55499591  1
  Nd3+  Nd36  1  0.63851185  -0.00133447  0.43392840  1
  Nd3+  Nd37  1  0.88591661  0.74325088  0.93865620  1
  Nd3+  Nd38  1  0.13699364  0.49672937  0.44999023  1
  Nd3+  Nd39  1  0.63605886  0.74145042  0.93534983  1
  Nd3+  Nd40  1  0.50711619  0.86686307  0.05702877  1
  Nd3+  Nd41  1  0.75700131  0.36756852  0.55390111  1
  Nd3+  Nd42  1  0.50805000  0.61745031  0.06461177  1
  Nd3+  Nd43  1  0.88461788  -0.00859486  0.43394956  1
  Nd3+  Nd44  1  0.39142427  0.73733481  0.90758498  1
  Nd3+  Nd45  1  0.89048335  0.23954101  0.92639815  1
  Nd3+  Nd46  1  0.75666247  0.12102391  0.05480269  1
  Nd3+  Nd47  1  0.14329102  0.24499263  0.92831402  1
  Nd3+  Nd48  1  0.37947047  0.24195654  0.43229971  1
  Nd3+  Nd49  1  0.75571120  0.12067504  0.55330612  1
  Nd3+  Nd50  1  0.00641218  0.11449358  0.56310047  1
  Sm3+  Sm51  1  0.38109488  0.49832028  0.44702479  1
  Sm3+  Sm52  1  0.50737986  0.11931251  0.05874163  1
  Sm3+  Sm53  1  0.63175229  0.24625602  0.93653633  1
  Sm3+  Sm54  1  0.13529831  0.24396237  0.45169440  1
  Sm3+  Sm55  1  0.13338638  0.74644602  0.45230524  1
  Sm3+  Sm56  1  0.63281618  -0.00666732  0.93973458  1
  Sm3+  Sm57  1  0.63472655  0.49405073  0.95015372  1
  Sm3+  Sm58  1  0.00543149  0.37003916  0.56356844  1
  Sm3+  Sm59  1  0.13781207  0.74540411  0.94073026  1
  Sm3+  Sm60  1  0.50078941  0.87023526  0.56792037  1
  Sm3+  Sm61  1  0.75068701  0.61959282  0.55801442  1
  Sm3+  Sm62  1  0.38030701  -0.00813273  0.44442206  1
  Sm3+  Sm63  1  0.14076768  -0.00691658  0.93330715  1
  Bi2+  Bi64  1  0.04746447  0.11739379  0.29017959  1
  Bi2+  Bi65  1  -0.07928292  0.16530239  0.78555555  1
  Bi2+  Bi66  1  -0.00487230  0.37765692  0.31486646  1
  Bi2+  Bi67  1  0.01448958  0.37950285  0.79586136  1
  Bi2+  Bi68  1  0.02695059  0.62459441  0.29411523  1
  Bi2+  Bi69  1  -0.00164770  0.63374912  0.80992143  1
  Bi2+  Bi70  1  -0.00776440  0.85376488  0.29179605  1
  Bi2+  Bi71  1  -0.10584553  0.86608870  0.76044727  1
  Bi2+  Bi72  1  0.24861236  0.09262705  0.30314758  1
  Bi2+  Bi73  1  0.19547920  0.13207895  0.79916961  1
  Bi2+  Bi74  1  0.29084290  0.40572897  0.29705789  1
  Bi2+  Bi75  1  0.30078223  0.38667281  0.78798274  1
  Bi2+  Bi76  1  0.28174410  0.70060642  0.28987459  1
  Bi2+  Bi77  1  0.24079974  0.57235958  0.78642200  1
  Bi2+  Bi78  1  0.19160350  0.89097078  0.30511651  1
  Bi2+  Bi79  1  0.21132581  0.88329202  0.79682375  1
  Bi2+  Bi80  1  0.54809069  0.19746132  0.31597897  1
  Bi2+  Bi81  1  0.51449360  0.13397466  0.78397238  1
  Bi2+  Bi82  1  0.54094637  0.38148585  0.27234800  1
  Bi2+  Bi83  1  0.49668915  0.41288412  0.75975507  1
  Bi2+  Bi84  1  0.48961065  0.62189189  0.29326909  1
  Bi2+  Bi85  1  0.51605523  0.60168281  0.79224182  1
  Bi2+  Bi86  1  0.38730526  0.86879336  0.28230148  1
  Bi2+  Bi87  1  0.50404619  0.88151929  0.78868191  1
  Bi2+  Bi88  1  0.77426010  0.09987002  0.26037080  1
  Bi2+  Bi89  1  0.72208564  0.08825339  0.79993540  1
  Bi2+  Bi90  1  0.80624705  0.39834581  0.29073114  1
  Bi2+  Bi91  1  0.65494970  0.27266118  0.78884945  1
  Bi2+  Bi92  1  0.76403068  0.63990561  0.29026864  1
  Bi2+  Bi93  1  0.72857855  0.62156741  0.80551831  1
  Bi2+  Bi94  1  0.73596106  0.90476791  0.28260007  1
  Bi2+  Bi95  1  0.70300651  0.88429628  0.79215550  1
  Bi2+  Bi96  1  0.17983625  0.00728712  0.20610523  1
  Bi2+  Bi97  1  0.08231407  0.01478930  0.72137834  1
  Bi2+  Bi98  1  0.15442917  0.27590578  0.25463048  1
  Bi2+  Bi99  1  0.13685143  0.32849434  0.71435613  1
  Bi2+  Bi100  1  0.13908823  0.46865920  0.23386210  1
  Bi2+  Bi101  1  0.06903937  0.53530966  0.69946393  1
  Bi2+  Bi102  1  0.13134712  0.75531810  0.22559290  1
  Bi2+  Bi103  1  0.09840633  0.73316537  0.72445126  1
  Bi2+  Bi104  1  0.37676965  0.03884837  0.20585661  1
  Bi2+  Bi105  1  0.36415849  0.01686615  0.71814362  1
  Bi2+  Bi106  1  0.37899343  0.23052979  0.21033787  1
  Bi2+  Bi107  1  0.39318764  0.27058433  0.70269251  1
  Bi2+  Bi108  1  0.36916353  0.50071654  0.20388530  1
  Bi2+  Bi109  1  0.26117522  0.48178551  0.68615266  1
  Bi2+  Bi110  1  0.36646008  0.75897524  0.18546003  1
  Bi2+  Bi111  1  0.39116863  0.74867871  0.70612144  1
  Bi2+  Bi112  1  0.54861341  0.02725752  0.26302291  1
  Bi2+  Bi113  1  0.61219043  -0.00923714  0.70787481  1
  Bi2+  Bi114  1  0.63946066  0.22619610  0.21566329  1
  Bi2+  Bi115  1  0.59422413  0.18302624  0.68176874  1
  Bi2+  Bi116  1  0.68858537  0.47957570  0.21385227  1
  Bi2+  Bi117  1  0.67550781  0.48289223  0.71976512  1
  Bi2+  Bi118  1  0.62499515  0.75335363  0.17665592  1
  Bi2+  Bi119  1  0.64981666  0.71940221  0.71598682  1
  Bi2+  Bi120  1  0.95021177  0.00153580  0.22017398  1
  Bi2+  Bi121  1  0.83140390  0.01692745  0.69830111  1
  Bi2+  Bi122  1  0.87860056  0.23690319  0.18786406  1
  Bi2+  Bi123  1  0.84741967  0.27885926  0.70734957  1
  Bi2+  Bi124  1  0.94151871  0.49447569  0.21832222  1
  Bi2+  Bi125  1  0.87867470  0.51132606  0.72866541  1
  Bi2+  Bi126  1  0.87214833  0.75639632  0.18806297  1
  Bi2+  Bi127  1  0.84550049  0.69959566  0.70683218  1
  S2-  S128  1  -0.00432708  0.13149055  0.15360617  1
  S2-  S129  1  -0.01140125  0.10398789  0.66308121  1
  S2-  S130  1  -0.02351153  0.35319707  0.15483656  1
  S2-  S131  1  -0.01259066  0.33021446  0.65834324  1
  S2-  S132  1  -0.01161967  0.63653812  0.15909907  1
  S2-  S133  1  -0.01397765  0.72378134  0.64758198  1
  S2-  S134  1  -0.02229336  0.86470218  0.15341366  1
  S2-  S135  1  0.08791175  0.89608332  0.65742882  1
  S2-  S136  1  0.25600787  0.15547481  0.15404999  1
  S2-  S137  1  0.23029926  0.03732890  0.66412929  1
  S2-  S138  1  0.34590338  0.36036461  0.14674150  1
  S2-  S139  1  0.25039580  0.25337252  0.64571236  1
  S2-  S140  1  0.26709935  0.60167564  0.15864193  1
  S2-  S141  1  0.23434272  0.73984766  0.66553869  1
  S2-  S142  1  0.22437558  0.85904062  0.15364516  1
  S2-  S143  1  0.39278943  0.89830794  0.65187710  1
  S2-  S144  1  0.51121448  0.20970255  0.14255351  1
  S2-  S145  1  0.42913402  0.12301011  0.64328759  1
  S2-  S146  1  0.53604702  0.44983335  0.17214544  1
  S2-  S147  1  0.49941422  0.37763581  0.65407528  1
  S2-  S148  1  0.48970950  0.64846088  0.16256993  1
  S2-  S149  1  0.39576331  0.60769429  0.65700060  1
  S2-  S150  1  0.49912008  0.86573204  0.15622349  1
  S2-  S151  1  0.53222258  0.76503437  0.64866440  1
  S2-  S152  1  0.74839689  0.12051886  0.15374068  1
  S2-  S153  1  0.76018988  0.16111425  0.64994337  1
  S2-  S154  1  0.74248879  0.34505162  0.15449449  1
  S2-  S155  1  0.75384720  0.37881807  0.65297188  1
  S2-  S156  1  0.74987247  0.62898313  0.15890446  1
  S2-  S157  1  0.65385657  0.59087206  0.64308718  1
  S2-  S158  1  0.75025993  0.87384494  0.16062846  1
  S2-  S159  1  0.84073708  0.88557833  0.64028666  1
  S2-  S160  1  0.00869310  -0.00864596  0.36048406  1
  S2-  S161  1  0.09739178  0.00219380  0.83778425  1
  S2-  S162  1  0.09532348  0.24990545  0.35718326  1
  S2-  S163  1  0.06187389  0.22804588  0.83938247  1
  S2-  S164  1  0.10983290  0.50114828  0.35224172  1
  S2-  S165  1  0.11810278  0.49948334  0.84749173  1
  S2-  S166  1  0.04114694  0.74744287  0.36839724  1
  S2-  S167  1  0.12964787  0.74988226  0.84282309  1
  S2-  S168  1  0.37787898  0.01056103  0.34597079  1
  S2-  S169  1  0.30818861  0.01619183  0.83190687  1
  S2-  S170  1  0.36434945  0.26519654  0.33398516  1
  S2-  S171  1  0.27182491  0.25016440  0.85627449  1
  S2-  S172  1  0.40261542  0.51932537  0.34851051  1
  S2-  S173  1  0.37757774  0.58640944  0.85409008  1
  S2-  S174  1  0.46311027  0.75025421  0.35460088  1
  S2-  S175  1  0.34425847  0.79943945  0.81532600  1
  S2-  S176  1  0.60088838  -0.07253562  0.34530582  1
  S2-  S177  1  0.53175393  -0.00057207  0.85966158  1
  S2-  S178  1  0.63179488  0.37443059  0.35629948  1
  S2-  S179  1  0.52115261  0.25631006  0.86078907  1
  S2-  S180  1  0.63464552  0.59789136  0.35114085  1
  S2-  S181  1  0.62850298  0.50408921  0.85274273  1
  S2-  S182  1  0.63561190  0.75589136  0.27135248  1
  S2-  S183  1  0.54151535  0.74138641  0.85257024  1
  S2-  S184  1  0.78256063  0.01454854  0.35146770  1
  S2-  S185  1  0.87763155  0.04179216  0.84700228  1
  S2-  S186  1  0.85930525  0.25392490  0.33133380  1
  S2-  S187  1  0.86900904  0.31384861  0.83729793  1
  S2-  S188  1  0.88672481  0.59093284  0.35522986  1
  S2-  S189  1  0.87240221  0.53752213  0.84298003  1
  S2-  S190  1  0.79064030  0.77572682  0.34605168  1
  S2-  S191  1  0.89720596  0.76433609  0.84097412  1
  S2-  S192  1  0.00879377  0.12260904  0.45692472  1
  S2-  S193  1  0.01646490  0.11742843  0.94810831  1
  S2-  S194  1  0.01251058  0.37211865  0.45964978  1
  S2-  S195  1  0.01303613  0.36618850  0.94936115  1
  S2-  S196  1  0.01373092  0.61689308  0.46617024  1
  S2-  S197  1  0.01148884  0.62179527  0.95351370  1
  S2-  S198  1  0.00739422  0.86806729  0.46693755  1
  S2-  S199  1  0.01308249  0.86963754  0.94808087  1
  S2-  S200  1  0.25535006  0.11884410  0.45426975  1
  S2-  S201  1  0.26383376  0.11268979  0.95063763  1
  S2-  S202  1  0.25813963  0.36847216  0.45694005  1
  S2-  S203  1  0.26352626  0.37563170  0.95432063  1
  S2-  S204  1  0.25804937  0.62299923  0.45550641  1
  S2-  S205  1  0.26137524  0.62457476  0.95271009  1
  S2-  S206  1  0.25731811  0.86774216  0.44519187  1
  S2-  S207  1  0.26540716  0.86627254  0.94698256  1
  S2-  S208  1  0.50511223  0.11884039  0.44889541  1
  S2-  S209  1  0.51212931  0.11847806  0.95688621  1
  S2-  S210  1  0.49720352  0.37030690  0.44980238  1
  S2-  S211  1  0.51240236  0.37457065  0.95990949  1
  S2-  S212  1  0.50439276  0.61505641  0.46325896  1
  S2-  S213  1  0.51282030  0.61972193  0.95800361  1
  S2-  S214  1  0.50873135  0.87707712  0.45989167  1
  S2-  S215  1  0.50921190  0.86480800  0.95253615  1
  S2-  S216  1  0.75790748  0.12880013  0.44891636  1
  S2-  S217  1  0.75490483  0.12120990  0.94823967  1
  S2-  S218  1  0.76370767  0.37134202  0.44974529  1
  S2-  S219  1  0.75776419  0.36737981  0.94896515  1
  S2-  S220  1  0.75656711  0.61626062  0.45639697  1
  S2-  S221  1  0.76073861  0.61828031  0.95412657  1
  S2-  S222  1  0.75503884  0.87069907  0.45171893  1
  S2-  S223  1  0.75819562  0.87006957  0.94978678  1
  S2-  S224  1  0.13442301  -0.00682661  0.04152881  1
  S2-  S225  1  0.13282158  -0.00324072  0.54433601  1
  S2-  S226  1  0.13581543  0.24274865  0.03983356  1
  S2-  S227  1  0.12612804  0.24480206  0.55279830  1
  S2-  S228  1  0.13304375  0.49186939  0.05382511  1
  S2-  S229  1  0.13307593  0.49431559  0.55646872  1
  S2-  S230  1  0.13377322  0.74325149  0.04676943  1
  S2-  S231  1  0.13416212  0.74287631  0.55363725  1
  S2-  S232  1  0.38701259  -0.00575399  0.04272222  1
  S2-  S233  1  0.37571853  -0.00453713  0.54557641  1
  S2-  S234  1  0.38422462  0.24088911  0.03849156  1
  S2-  S235  1  0.38032471  0.24624605  0.53920569  1
  S2-  S236  1  0.38660298  0.49333633  0.04650122  1
  S2-  S237  1  0.37959187  0.49528585  0.55044883  1
  S2-  S238  1  0.38492800  0.74267675  0.04714040  1
  S2-  S239  1  0.37492969  0.75309974  0.55142539  1
  S2-  S240  1  0.63111066  -0.00461631  0.04532847  1
  S2-  S241  1  0.62997617  -0.00423247  0.54809403  1
  S2-  S242  1  0.63207178  0.24349374  0.04094514  1
  S2-  S243  1  0.62967997  0.24578666  0.54012499  1
  S2-  S244  1  0.63267001  0.49090166  0.05438128  1
  S2-  S245  1  0.63223549  0.48856931  0.54001682  1
  S2-  S246  1  0.63309969  0.74287830  0.04279624  1
  S2-  S247  1  0.63470981  0.74859171  0.54596078  1
  S2-  S248  1  0.88108971  -0.00484420  0.04602831  1
  S2-  S249  1  0.88002487  -0.00182613  0.54074883  1
  S2-  S250  1  0.88174737  0.24201135  0.03574190  1
  S2-  S251  1  0.88526205  0.24511539  0.54254189  1
  S2-  S252  1  0.88266062  0.49138223  0.04700730  1
  S2-  S253  1  0.88143000  0.49480524  0.55234738  1
  S2-  S254  1  0.88207007  0.74396592  0.04461982  1
  S2-  S255  1  0.87523502  0.73748865  0.54184546  1
