# generated using pymatgen
data_La6Ce6Pr19Nd20Sm13(BiS2)64
_symmetry_space_group_name_H-M   'P 1'
_cell_length_a   16.16885237
_cell_length_b   16.16062255
_cell_length_c   27.25425870
_cell_angle_alpha   90.08414188
_cell_angle_beta   90.05175163
_cell_angle_gamma   89.94437320
_symmetry_Int_Tables_number   1
_chemical_formula_structural   La6Ce6Pr19Nd20Sm13(BiS2)64
_chemical_formula_sum   'La6 Ce6 Pr19 Nd20 Sm13 Bi64 S128'
_cell_volume   7121.48898698
_cell_formula_units_Z   1
loop_
 _symmetry_equiv_pos_site_id
 _symmetry_equiv_pos_as_xyz
  1  'x, y, z'
loop_
 _atom_type_symbol
 _atom_type_oxidation_number
  La3+  3.0
  Ce3+  3.0
  Pr3+  3.0
  Nd3+  3.0
  Sm3+  3.0
  Bi2+  2.0
  S2-  -2.0
loop_
 _atom_site_type_symbol
 _atom_site_label
 _atom_site_symmetry_multiplicity
 _atom_site_fract_x
 _atom_site_fract_y
 _atom_site_fract_z
 _atom_site_occupancy
  La3+  La0  1  0.13480348  -0.00211354  0.94758944  1
  La3+  La1  1  0.12192314  0.49088311  0.90127010  1
  La3+  La2  1  0.26140540  0.85933989  0.08035206  1
  La3+  La3  1  0.26189923  0.13453108  0.10080528  1
  La3+  La4  1  0.38462548  0.49203967  0.90341811  1
  La3+  La5  1  0.11809156  0.74786075  0.38800085  1
  Ce3+  Ce6  1  0.89169252  0.50651609  0.44101200  1
  Ce3+  Ce7  1  0.37867345  -0.00170365  0.95070210  1
  Ce3+  Ce8  1  0.25631038  0.37916924  0.05939868  1
  Ce3+  Ce9  1  0.25615659  0.62415039  0.03526978  1
  Ce3+  Ce10  1  0.13273697  0.25416314  0.94549187  1
  Ce3+  Ce11  1  0.75688498  0.12675711  0.06064389  1
  Pr3+  Pr12  1  0.63432224  0.50602691  0.43822539  1
  Pr3+  Pr13  1  0.88355309  0.25220147  0.94281113  1
  Pr3+  Pr14  1  0.01850473  0.38100756  0.56180777  1
  Pr3+  Pr15  1  0.51883943  0.63455503  0.56986453  1
  Pr3+  Pr16  1  0.63570326  0.00417931  0.42484043  1
  Pr3+  Pr17  1  0.62994600  0.25034090  0.94537629  1
  Pr3+  Pr18  1  0.88715324  0.75614220  0.44169884  1
  Pr3+  Pr19  1  0.62966770  0.00032698  0.94387381  1
  Pr3+  Pr20  1  0.26556305  0.88852539  0.57048075  1
  Pr3+  Pr21  1  0.89375048  0.00433762  0.43898106  1
  Pr3+  Pr22  1  0.02030458  0.63289075  0.56430872  1
  Pr3+  Pr23  1  0.01078861  0.87324888  0.06521017  1
  Pr3+  Pr24  1  0.87912491  0.74916554  0.93820260  1
  Pr3+  Pr25  1  0.51682174  0.88863867  0.56159480  1
  Pr3+  Pr26  1  0.50635221  0.38085182  0.06199905  1
  Pr3+  Pr27  1  0.27392375  0.63792438  0.57651530  1
  Pr3+  Pr28  1  0.14138694  0.50923479  0.44366503  1
  Pr3+  Pr29  1  0.51661727  0.13467487  0.55599654  1
  Pr3+  Pr30  1  0.76285597  0.13244858  0.55344566  1
  Nd3+  Nd31  1  0.37967521  0.25202474  0.94063288  1
  Nd3+  Nd32  1  0.38062728  0.75680845  0.43901150  1
  Nd3+  Nd33  1  0.63526371  0.25435904  0.42456745  1
  Nd3+  Nd34  1  0.38582986  0.50771001  0.44729395  1
  Nd3+  Nd35  1  0.76404200  0.88224618  0.55370687  1
  Nd3+  Nd36  1  0.76453102  0.38118373  0.55274232  1
  Nd3+  Nd37  1  0.89073597  0.25586810  0.44108020  1
  Nd3+  Nd38  1  0.63020435  0.50257027  0.93363588  1
  Nd3+  Nd39  1  0.14486308  0.25321002  0.42354776  1
  Nd3+  Nd40  1  0.50403246  0.62656222  0.05363158  1
  Nd3+  Nd41  1  0.87905710  0.50240230  0.93868138  1
  Nd3+  Nd42  1  0.50476511  0.12653063  0.06461161  1
  Nd3+  Nd43  1  0.76444543  0.63208181  0.55293742  1
  Nd3+  Nd44  1  0.00768050  0.62550031  0.05588992  1
  Nd3+  Nd45  1  0.01800178  0.13085199  0.55718575  1
  Nd3+  Nd46  1  0.50583898  0.87428470  0.06607869  1
  Nd3+  Nd47  1  0.00810693  0.12533771  0.06146909  1
  Nd3+  Nd48  1  0.38748641  0.75883766  0.92120087  1
  Nd3+  Nd49  1  0.12448200  0.75222597  0.92453129  1
  Nd3+  Nd50  1  0.15008385  0.00407997  0.42606749  1
  Sm3+  Sm51  1  0.75640779  0.37756314  0.05637225  1
  Sm3+  Sm52  1  0.26772227  0.38190223  0.56451340  1
  Sm3+  Sm53  1  0.39033885  0.00408162  0.43494650  1
  Sm3+  Sm54  1  0.88110631  -0.00089963  0.95108970  1
  Sm3+  Sm55  1  0.62863923  0.75518749  0.43621771  1
  Sm3+  Sm56  1  0.63017146  0.74982561  0.94476889  1
  Sm3+  Sm57  1  0.75582435  0.87474114  0.06149029  1
  Sm3+  Sm58  1  0.39100667  0.25664098  0.43655907  1
  Sm3+  Sm59  1  0.51952168  0.37960692  0.56299757  1
  Sm3+  Sm60  1  0.01979516  0.88108562  0.55592895  1
  Sm3+  Sm61  1  0.00785981  0.37742004  0.06111535  1
  Sm3+  Sm62  1  0.26470125  0.12972600  0.56008947  1
  Sm3+  Sm63  1  0.75684702  0.62516641  0.06368661  1
  Bi2+  Bi64  1  -0.01364167  0.12560726  0.28803977  1
  Bi2+  Bi65  1  -0.01543008  0.13274895  0.77751657  1
  Bi2+  Bi66  1  0.03689568  0.38597700  0.31179734  1
  Bi2+  Bi67  1  -0.01362161  0.34538031  0.79303043  1
  Bi2+  Bi68  1  0.00194126  0.57440993  0.28488108  1
  Bi2+  Bi69  1  -0.08291176  0.61691440  0.78085974  1
  Bi2+  Bi70  1  -0.02658194  0.85925571  0.28730203  1
  Bi2+  Bi71  1  -0.00427208  0.87916148  0.79677546  1
  Bi2+  Bi72  1  0.25516537  0.12964992  0.29130329  1
  Bi2+  Bi73  1  0.21150117  0.12700727  0.77769713  1
  Bi2+  Bi74  1  0.24059299  0.38685219  0.29527255  1
  Bi2+  Bi75  1  0.25303232  0.38336996  0.79104626  1
  Bi2+  Bi76  1  0.28410676  0.62353683  0.28894181  1
  Bi2+  Bi77  1  0.24715502  0.64383328  0.77064244  1
  Bi2+  Bi78  1  0.24067315  0.88039626  0.28272945  1
  Bi2+  Bi79  1  0.24922721  0.88319917  0.80168148  1
  Bi2+  Bi80  1  0.50267128  0.13836897  0.28891231  1
  Bi2+  Bi81  1  0.49246279  0.14765786  0.80003006  1
  Bi2+  Bi82  1  0.50186932  0.41267840  0.29370879  1
  Bi2+  Bi83  1  0.57073525  0.38306880  0.77461087  1
  Bi2+  Bi84  1  0.53367489  0.62159643  0.29500421  1
  Bi2+  Bi85  1  0.57869371  0.63285963  0.78489154  1
  Bi2+  Bi86  1  0.50585614  0.86633698  0.28969854  1
  Bi2+  Bi87  1  0.50587646  0.95553604  0.78597738  1
  Bi2+  Bi88  1  0.69695532  0.12141986  0.31615876  1
  Bi2+  Bi89  1  0.70339802  0.13213374  0.78935680  1
  Bi2+  Bi90  1  0.73053564  0.30602036  0.28389892  1
  Bi2+  Bi91  1  0.75196787  0.42066793  0.80537802  1
  Bi2+  Bi92  1  0.72030325  0.67384918  0.26668723  1
  Bi2+  Bi93  1  0.75265745  0.61517964  0.84254682  1
  Bi2+  Bi94  1  0.69587517  0.84249662  0.32199631  1
  Bi2+  Bi95  1  0.72405506  0.82305675  0.81308629  1
  Bi2+  Bi96  1  0.07898778  0.00639626  0.20325773  1
  Bi2+  Bi97  1  0.11159206  0.00636745  0.70235131  1
  Bi2+  Bi98  1  0.11601565  0.31141658  0.21554609  1
  Bi2+  Bi99  1  0.09696941  0.24725502  0.71243955  1
  Bi2+  Bi100  1  0.14509378  0.50908956  0.21539519  1
  Bi2+  Bi101  1  0.09619492  0.49391221  0.69842014  1
  Bi2+  Bi102  1  0.11457131  0.74109569  0.17996436  1
  Bi2+  Bi103  1  0.10172250  0.75707490  0.69010634  1
  Bi2+  Bi104  1  0.43116010  -0.00433137  0.21233281  1
  Bi2+  Bi105  1  0.37167107  0.04449902  0.72016594  1
  Bi2+  Bi106  1  0.38287115  0.30329659  0.22075073  1
  Bi2+  Bi107  1  0.35684738  0.23814505  0.73668509  1
  Bi2+  Bi108  1  0.34266764  0.49360153  0.20799919  1
  Bi2+  Bi109  1  0.38179091  0.48180201  0.69971057  1
  Bi2+  Bi110  1  0.38982795  0.70147145  0.19683628  1
  Bi2+  Bi111  1  0.39113497  0.76179756  0.71583922  1
  Bi2+  Bi112  1  0.61568907  -0.04594316  0.19028885  1
  Bi2+  Bi113  1  0.66767062  0.00071508  0.69507621  1
  Bi2+  Bi114  1  0.63315238  0.18231951  0.20897403  1
  Bi2+  Bi115  1  0.60856192  0.19825278  0.68900695  1
  Bi2+  Bi116  1  0.60750873  0.45896429  0.19973378  1
  Bi2+  Bi117  1  0.65877312  0.50874572  0.70652235  1
  Bi2+  Bi118  1  0.58135104  0.75838215  0.19957908  1
  Bi2+  Bi119  1  0.61186975  0.79016530  0.71772634  1
  Bi2+  Bi120  1  0.78153347  -0.02824343  0.25436654  1
  Bi2+  Bi121  1  0.84555811  -0.00514814  0.75793165  1
  Bi2+  Bi122  1  0.87745684  0.22591506  0.21710453  1
  Bi2+  Bi123  1  0.78838053  0.26403374  0.71404068  1
  Bi2+  Bi124  1  0.86525791  0.41926149  0.22998900  1
  Bi2+  Bi125  1  0.85954272  0.46332759  0.71365423  1
  Bi2+  Bi126  1  0.86508944  0.73776674  0.19445145  1
  Bi2+  Bi127  1  0.80347275  0.73997016  0.71975231  1
  S2-  S128  1  0.00794056  0.13355458  0.16052471  1
  S2-  S129  1  0.01697656  0.12107165  0.65646289  1
  S2-  S130  1  -0.01329999  0.38183553  0.15853141  1
  S2-  S131  1  -0.01199775  0.36724811  0.66065740  1
  S2-  S132  1  -0.01944311  0.63299768  0.15466932  1
  S2-  S133  1  -0.00827819  0.62456912  0.66399146  1
  S2-  S134  1  -0.01268694  0.86748525  0.16514230  1
  S2-  S135  1  0.01407250  0.88743995  0.65565599  1
  S2-  S136  1  0.21512374  0.09834561  0.19888749  1
  S2-  S137  1  0.25616823  0.02840721  0.63981591  1
  S2-  S138  1  0.25448257  0.29645523  0.14679416  1
  S2-  S139  1  0.23765634  0.40551586  0.66094839  1
  S2-  S140  1  0.25637019  0.68871853  0.12765562  1
  S2-  S141  1  0.19261195  0.61139344  0.66640331  1
  S2-  S142  1  0.20386885  0.88788724  0.17728853  1
  S2-  S143  1  0.24982547  0.80936161  0.66370210  1
  S2-  S144  1  0.41740356  0.12493374  0.15011545  1
  S2-  S145  1  0.51800701  0.06879325  0.64844590  1
  S2-  S146  1  0.51769679  0.33314986  0.15895223  1
  S2-  S147  1  0.47202454  0.37408464  0.65686656  1
  S2-  S148  1  0.51781538  0.59533067  0.15185388  1
  S2-  S149  1  0.41214367  0.62735262  0.64955217  1
  S2-  S150  1  0.40434275  0.85383119  0.14507269  1
  S2-  S151  1  0.47999932  0.84939307  0.65732684  1
  S2-  S152  1  0.77295691  0.13368900  0.15746108  1
  S2-  S153  1  0.77920329  0.12090312  0.65249296  1
  S2-  S154  1  0.74112604  0.40404732  0.15274279  1
  S2-  S155  1  0.69813531  0.34831921  0.64164331  1
  S2-  S156  1  0.75598038  0.63174563  0.16124844  1
  S2-  S157  1  0.71634514  0.63635974  0.64771220  1
  S2-  S158  1  0.77021700  0.87844390  0.15923682  1
  S2-  S159  1  0.75900952  0.87496243  0.65190506  1
  S2-  S160  1  0.10804005  -0.08855598  0.34347883  1
  S2-  S161  1  0.12802206  -0.03914638  0.84872592  1
  S2-  S162  1  0.12114114  0.13059283  0.35145822  1
  S2-  S163  1  0.12744432  0.32507456  0.85647242  1
  S2-  S164  1  0.14069458  0.58174836  0.35212231  1
  S2-  S165  1  0.14107979  0.52899608  0.79952631  1
  S2-  S166  1  0.11610015  0.75861090  0.27550079  1
  S2-  S167  1  0.15532934  0.75624046  0.82474658  1
  S2-  S168  1  0.29074084  -0.00159022  0.35248642  1
  S2-  S169  1  0.38600847  -0.05419599  0.85835129  1
  S2-  S170  1  0.28256596  0.25981534  0.35890592  1
  S2-  S171  1  0.37013703  0.33403999  0.85342630  1
  S2-  S172  1  0.39055037  0.52384131  0.34786222  1
  S2-  S173  1  0.35048188  0.52758545  0.80251662  1
  S2-  S174  1  0.28498609  0.76363954  0.35238259  1
  S2-  S175  1  0.36143284  0.74705131  0.82161278  1
  S2-  S176  1  0.50625785  0.00222192  0.35570391  1
  S2-  S177  1  0.65001433  -0.01383636  0.84491348  1
  S2-  S178  1  0.50478270  0.27275692  0.35860766  1
  S2-  S179  1  0.61033408  0.25476009  0.84608097  1
  S2-  S180  1  0.63525925  0.50509456  0.33770893  1
  S2-  S181  1  0.53826049  0.49454329  0.84900321  1
  S2-  S182  1  0.50514626  0.73944119  0.36611627  1
  S2-  S183  1  0.56937678  0.76381413  0.85402219  1
  S2-  S184  1  0.89993962  -0.00570834  0.33838850  1
  S2-  S185  1  0.89665542  -0.02054156  0.85498287  1
  S2-  S186  1  0.93763415  0.25525725  0.34597342  1
  S2-  S187  1  0.89250794  0.23572335  0.84292972  1
  S2-  S188  1  0.88957166  0.49964150  0.34342182  1
  S2-  S189  1  0.96137908  0.49088225  0.85157694  1
  S2-  S190  1  0.94566942  0.73516013  0.34776823  1
  S2-  S191  1  0.96447013  0.74870914  0.85084453  1
  S2-  S192  1  0.01519227  0.13197853  0.45306575  1
  S2-  S193  1  0.00601827  0.12411166  0.95466508  1
  S2-  S194  1  0.01797482  0.37855363  0.45464312  1
  S2-  S195  1  0.00613751  0.37847569  0.95767650  1
  S2-  S196  1  0.01493249  0.63350038  0.45660818  1
  S2-  S197  1  0.00949500  0.62125243  0.95021182  1
  S2-  S198  1  0.01614073  0.87643997  0.45162566  1
  S2-  S199  1  0.00382477  0.87552241  0.95874946  1
  S2-  S200  1  0.26791810  0.13404249  0.45803000  1
  S2-  S201  1  0.25657542  0.12810834  0.94377604  1
  S2-  S202  1  0.26364315  0.38070790  0.45896271  1
  S2-  S203  1  0.25319704  0.38415590  0.95435874  1
  S2-  S204  1  0.26506470  0.63037977  0.46375863  1
  S2-  S205  1  0.25461020  0.62142069  0.92970650  1
  S2-  S206  1  0.26775086  0.88624964  0.46198402  1
  S2-  S207  1  0.25597079  0.86812601  0.95460899  1
  S2-  S208  1  0.51364909  0.13140362  0.45190163  1
  S2-  S209  1  0.50343554  0.12582484  0.95662380  1
  S2-  S210  1  0.51184567  0.38346081  0.45841704  1
  S2-  S211  1  0.50661893  0.37692046  0.95517075  1
  S2-  S212  1  0.51265729  0.62775983  0.46353601  1
  S2-  S213  1  0.50354976  0.62587088  0.94772686  1
  S2-  S214  1  0.51425183  0.88150603  0.45649248  1
  S2-  S215  1  0.50883900  0.87567860  0.95992602  1
  S2-  S216  1  0.76540785  0.13118662  0.44649872  1
  S2-  S217  1  0.75838522  0.12448528  0.95303760  1
  S2-  S218  1  0.76224196  0.37903352  0.44530704  1
  S2-  S219  1  0.75569388  0.37647600  0.95143439  1
  S2-  S220  1  0.75946226  0.63200166  0.44567481  1
  S2-  S221  1  0.75380039  0.62632722  0.95936450  1
  S2-  S222  1  0.76108973  0.88149357  0.44803064  1
  S2-  S223  1  0.75555102  0.87478392  0.95649426  1
  S2-  S224  1  0.13842830  0.00287693  0.05682233  1
  S2-  S225  1  0.13644646  0.00769450  0.53948612  1
  S2-  S226  1  0.12980946  0.24990976  0.05062071  1
  S2-  S227  1  0.14446381  0.25541336  0.54968994  1
  S2-  S228  1  0.13001057  0.50116689  0.05399056  1
  S2-  S229  1  0.14382116  0.50532259  0.55023990  1
  S2-  S230  1  0.12916647  0.74961356  0.03469135  1
  S2-  S231  1  0.14025728  0.75899008  0.55677203  1
  S2-  S232  1  0.37574631  0.00125182  0.05308693  1
  S2-  S233  1  0.39153221  0.01111132  0.54188697  1
  S2-  S234  1  0.38189498  0.25199931  0.04564636  1
  S2-  S235  1  0.38745823  0.25646291  0.54923086  1
  S2-  S236  1  0.38059662  0.50266715  0.04757720  1
  S2-  S237  1  0.39243558  0.50100202  0.55181543  1
  S2-  S238  1  0.38425650  0.74805419  0.03117800  1
  S2-  S239  1  0.39366383  0.76080083  0.54663352  1
  S2-  S240  1  0.63095436  -0.00007016  0.05138207  1
  S2-  S241  1  0.64180628  0.00762128  0.53621467  1
  S2-  S242  1  0.63182909  0.25199161  0.05182540  1
  S2-  S243  1  0.63926055  0.25734454  0.53258584  1
  S2-  S244  1  0.63462786  0.50307784  0.04242776  1
  S2-  S245  1  0.63864940  0.50524247  0.54607894  1
  S2-  S246  1  0.63262041  0.75054846  0.05092541  1
  S2-  S247  1  0.63966485  0.75805674  0.54223069  1
  S2-  S248  1  0.88162752  -0.00175710  0.05527345  1
  S2-  S249  1  0.89178111  0.00516308  0.54628007  1
  S2-  S250  1  0.88231296  0.25389764  0.05064439  1
  S2-  S251  1  0.89036919  0.25679137  0.54821503  1
  S2-  S252  1  0.87995762  0.50047566  0.04748221  1
  S2-  S253  1  0.88930172  0.50629930  0.54881923  1
  S2-  S254  1  0.87870641  0.75049403  0.04646942  1
  S2-  S255  1  0.89032195  0.75731485  0.54974207  1
