# generated using pymatgen
data_La6Ce6Pr19Nd20Sm13(BiS2)64
_symmetry_space_group_name_H-M   'P 1'
_cell_length_a   15.98626199
_cell_length_b   16.11967837
_cell_length_c   27.50859334
_cell_angle_alpha   90.10453402
_cell_angle_beta   89.77388340
_cell_angle_gamma   90.08470344
_symmetry_Int_Tables_number   1
_chemical_formula_structural   La6Ce6Pr19Nd20Sm13(BiS2)64
_chemical_formula_sum   'La6 Ce6 Pr19 Nd20 Sm13 Bi64 S128'
_cell_volume   7088.70832271
_cell_formula_units_Z   1
loop_
 _symmetry_equiv_pos_site_id
 _symmetry_equiv_pos_as_xyz
  1  'x, y, z'
loop_
 _atom_type_symbol
 _atom_type_oxidation_number
  La3+  3.0
  Ce3+  3.0
  Pr3+  3.0
  Nd3+  3.0
  Sm3+  3.0
  Bi2+  2.0
  S2-  -2.0
loop_
 _atom_site_type_symbol
 _atom_site_label
 _atom_site_symmetry_multiplicity
 _atom_site_fract_x
 _atom_site_fract_y
 _atom_site_fract_z
 _atom_site_occupancy
  La3+  La0  1  0.63658843  0.74342202  0.43626686  1
  La3+  La1  1  0.75567639  0.61539571  0.59303053  1
  La3+  La2  1  0.23744242  0.62450075  0.07038729  1
  La3+  La3  1  0.38380245  -0.01648679  0.40121972  1
  La3+  La4  1  0.25329319  0.61871220  0.59506147  1
  La3+  La5  1  0.24520414  0.12357397  0.11593845  1
  Ce3+  Ce6  1  0.36794723  0.49891665  0.93979236  1
  Ce3+  Ce7  1  0.00062661  0.37401790  0.05225648  1
  Ce3+  Ce8  1  0.00316615  0.12355983  0.05253619  1
  Ce3+  Ce9  1  0.36493926  0.74812052  0.94470480  1
  Ce3+  Ce10  1  0.74815287  0.11968466  0.06246904  1
  Ce3+  Ce11  1  0.00367214  0.37057864  0.55447592  1
  Pr3+  Pr12  1  0.87298513  -0.00149801  0.92752662  1
  Pr3+  Pr13  1  0.88010827  0.49276430  0.43212357  1
  Pr3+  Pr14  1  0.12773046  0.24905857  0.93601908  1
  Pr3+  Pr15  1  0.50510662  0.11924102  0.07513102  1
  Pr3+  Pr16  1  0.75283159  0.37649399  0.06571517  1
  Pr3+  Pr17  1  0.37483476  0.00287335  0.94153322  1
  Pr3+  Pr18  1  0.75651545  0.11519787  0.57115268  1
  Pr3+  Pr19  1  0.62319289  0.25168942  0.94723021  1
  Pr3+  Pr20  1  0.25261933  0.36768177  0.56425400  1
  Pr3+  Pr21  1  0.00375825  0.61438308  0.57468940  1
  Pr3+  Pr22  1  0.38215715  0.49081893  0.43348272  1
  Pr3+  Pr23  1  0.63169371  0.49162965  0.43704252  1
  Pr3+  Pr24  1  0.13282884  0.49529444  0.43313156  1
  Pr3+  Pr25  1  0.50351191  0.61872996  0.56770930  1
  Pr3+  Pr26  1  0.25211458  0.11703511  0.56993953  1
  Pr3+  Pr27  1  0.87186477  0.74640105  0.88397867  1
  Pr3+  Pr28  1  0.49595347  0.37807199  0.06327218  1
  Pr3+  Pr29  1  0.61936901  0.00100688  0.93199539  1
  Pr3+  Pr30  1  0.12884511  0.49636917  0.91111761  1
  Nd3+  Nd31  1  0.24332273  0.87978670  0.06074919  1
  Nd3+  Nd32  1  0.75404037  0.62418926  0.06328084  1
  Nd3+  Nd33  1  0.12967850  -0.01198500  0.43557225  1
  Nd3+  Nd34  1  0.13469047  0.24072710  0.43855763  1
  Nd3+  Nd35  1  0.62830366  0.50345348  0.94152811  1
  Nd3+  Nd36  1  0.00308641  0.11675801  0.55397339  1
  Nd3+  Nd37  1  0.12543027  0.75243373  0.91610949  1
  Nd3+  Nd38  1  0.49752611  0.87519048  0.06420107  1
  Nd3+  Nd39  1  0.88156669  -0.00999764  0.43612867  1
  Nd3+  Nd40  1  0.87680171  0.49794748  0.92913906  1
  Nd3+  Nd41  1  0.24513072  0.37491817  0.06747874  1
  Nd3+  Nd42  1  0.12975543  0.00071841  0.92803011  1
  Nd3+  Nd43  1  0.50365646  0.37040404  0.56373490  1
  Nd3+  Nd44  1  0.25451571  0.86657839  0.56467178  1
  Nd3+  Nd45  1  0.62491802  0.74824222  0.94356941  1
  Nd3+  Nd46  1  0.75177927  0.86856270  0.57198307  1
  Nd3+  Nd47  1  0.37975240  0.23843110  0.44154762  1
  Nd3+  Nd48  1  0.87758206  0.24185781  0.43521126  1
  Nd3+  Nd49  1  0.13456293  0.74186613  0.44657581  1
  Nd3+  Nd50  1  -0.00409336  0.62689456  0.05002713  1
  Sm3+  Sm51  1  0.75186111  0.87391232  0.04664995  1
  Sm3+  Sm52  1  0.63148727  -0.00744914  0.44418495  1
  Sm3+  Sm53  1  0.37288827  0.24929691  0.95280711  1
  Sm3+  Sm54  1  0.50193252  0.86635160  0.55615102  1
  Sm3+  Sm55  1  0.38748330  0.74077170  0.43673985  1
  Sm3+  Sm56  1  0.87217852  0.25112381  0.93604286  1
  Sm3+  Sm57  1  0.49669675  0.62723792  0.05186259  1
  Sm3+  Sm58  1  0.87682433  0.74004307  0.44915175  1
  Sm3+  Sm59  1  0.50141393  0.11465615  0.55529588  1
  Sm3+  Sm60  1  0.00361599  0.86603518  0.56254707  1
  Sm3+  Sm61  1  0.75581003  0.36820389  0.56116827  1
  Sm3+  Sm62  1  0.63023914  0.23757612  0.45227059  1
  Sm3+  Sm63  1  -0.00158182  0.87380034  0.04304730  1
  Bi2+  Bi64  1  -0.03231955  0.09014385  0.28788809  1
  Bi2+  Bi65  1  0.06808042  0.14751880  0.81977352  1
  Bi2+  Bi66  1  0.02318208  0.38531732  0.29047023  1
  Bi2+  Bi67  1  -0.06838455  0.30001333  0.76776584  1
  Bi2+  Bi68  1  -0.04689174  0.60181026  0.27441347  1
  Bi2+  Bi69  1  -0.04139236  0.64010088  0.76256117  1
  Bi2+  Bi70  1  -0.02084974  0.79129007  0.23948818  1
  Bi2+  Bi71  1  0.06542975  0.97109128  0.76324180  1
  Bi2+  Bi72  1  0.26513691  0.15260270  0.31426886  1
  Bi2+  Bi73  1  0.27135478  0.16107355  0.80079409  1
  Bi2+  Bi74  1  0.25397637  0.37882724  0.29070829  1
  Bi2+  Bi75  1  0.25660620  0.35735145  0.79691069  1
  Bi2+  Bi76  1  0.21944287  0.64611109  0.28860819  1
  Bi2+  Bi77  1  0.21419022  0.62744484  0.79482757  1
  Bi2+  Bi78  1  0.21601569  0.85416050  0.29052139  1
  Bi2+  Bi79  1  0.26822371  0.89072886  0.79633977  1
  Bi2+  Bi80  1  0.51282252  0.20822167  0.28423087  1
  Bi2+  Bi81  1  0.52704337  0.13884135  0.79708487  1
  Bi2+  Bi82  1  0.56738627  0.41028883  0.27289461  1
  Bi2+  Bi83  1  0.48241169  0.33785336  0.77018852  1
  Bi2+  Bi84  1  0.48674107  0.59635029  0.28795673  1
  Bi2+  Bi85  1  0.45888347  0.64270362  0.75450433  1
  Bi2+  Bi86  1  0.49395143  0.83676259  0.29291581  1
  Bi2+  Bi87  1  0.56521159  0.87282081  0.80790625  1
  Bi2+  Bi88  1  0.78857049  0.15201714  0.32140020  1
  Bi2+  Bi89  1  0.86733881  0.13240728  0.81790766  1
  Bi2+  Bi90  1  0.75719653  0.37613889  0.28709530  1
  Bi2+  Bi91  1  0.72531898  0.34746566  0.80109195  1
  Bi2+  Bi92  1  0.75390167  0.63655452  0.29323001  1
  Bi2+  Bi93  1  0.71259087  0.59504887  0.79279536  1
  Bi2+  Bi94  1  0.86663020  0.88596591  0.31421884  1
  Bi2+  Bi95  1  0.72630276  0.98714064  0.81559049  1
  Bi2+  Bi96  1  0.04173407  -0.02461172  0.20701491  1
  Bi2+  Bi97  1  0.20974817  -0.00580825  0.68209259  1
  Bi2+  Bi98  1  0.07038180  0.26829775  0.20242097  1
  Bi2+  Bi99  1  0.14020139  0.18611830  0.71389696  1
  Bi2+  Bi100  1  0.11880806  0.53803223  0.21445516  1
  Bi2+  Bi101  1  0.11488646  0.48328023  0.71002922  1
  Bi2+  Bi102  1  0.19662662  0.74952752  0.19024371  1
  Bi2+  Bi103  1  0.12734037  0.80731374  0.70995741  1
  Bi2+  Bi104  1  0.37299510  0.00282910  0.21547973  1
  Bi2+  Bi105  1  0.39649719  0.01859921  0.71486866  1
  Bi2+  Bi106  1  0.37312107  0.28168642  0.21277783  1
  Bi2+  Bi107  1  0.38381620  0.21389631  0.70309128  1
  Bi2+  Bi108  1  0.37424648  0.52301590  0.20311407  1
  Bi2+  Bi109  1  0.37197286  0.48479093  0.71779047  1
  Bi2+  Bi110  1  0.38556503  0.72833638  0.21473307  1
  Bi2+  Bi111  1  0.40029389  0.81930546  0.72027210  1
  Bi2+  Bi112  1  0.70761557  -0.01608840  0.28109965  1
  Bi2+  Bi113  1  0.62986071  0.02794542  0.71794232  1
  Bi2+  Bi114  1  0.66708096  0.23701123  0.21388396  1
  Bi2+  Bi115  1  0.66034625  0.22636884  0.72014122  1
  Bi2+  Bi116  1  0.63515724  0.58972935  0.20704387  1
  Bi2+  Bi117  1  0.60817556  0.49831447  0.71556572  1
  Bi2+  Bi118  1  0.62311081  0.83339288  0.20822104  1
  Bi2+  Bi119  1  0.61803776  0.76469468  0.71455690  1
  Bi2+  Bi120  1  0.83320428  0.02314650  0.19346581  1
  Bi2+  Bi121  1  0.88948121  0.06569387  0.70732639  1
  Bi2+  Bi122  1  0.86510227  0.21282666  0.21261377  1
  Bi2+  Bi123  1  0.83274064  0.24458494  0.67004993  1
  Bi2+  Bi124  1  0.85930323  0.48466820  0.19855082  1
  Bi2+  Bi125  1  0.86978911  0.45071181  0.70182393  1
  Bi2+  Bi126  1  0.79165520  0.73295067  0.19337988  1
  Bi2+  Bi127  1  0.84240290  0.86741066  0.72102306  1
  S2-  S128  1  0.06856745  0.11882086  0.14284032  1
  S2-  S129  1  0.02708356  0.10584894  0.65129733  1
  S2-  S130  1  -0.01500284  0.38406690  0.14936974  1
  S2-  S131  1  0.02142813  0.38762503  0.65104628  1
  S2-  S132  1  0.09471962  0.64172187  0.13548400  1
  S2-  S133  1  -0.10467593  0.60093286  0.65965626  1
  S2-  S134  1  0.00705985  0.86244365  0.14241509  1
  S2-  S135  1  -0.01396106  0.84678196  0.66012470  1
  S2-  S136  1  0.23939355  0.10812657  0.22652711  1
  S2-  S137  1  0.25178692  0.24384968  0.64142472  1
  S2-  S138  1  0.22329241  0.28716645  0.15511109  1
  S2-  S139  1  0.24760266  0.46261872  0.64904881  1
  S2-  S140  1  0.24661576  0.49647974  0.14457169  1
  S2-  S141  1  0.10810306  0.62054274  0.65950380  1
  S2-  S142  1  0.25918755  0.95424959  0.14985838  1
  S2-  S143  1  0.26121461  0.77804336  0.65085557  1
  S2-  S144  1  0.41045299  0.13739093  0.15905420  1
  S2-  S145  1  0.51174837  0.11508410  0.65252286  1
  S2-  S146  1  0.46895475  0.38788809  0.16216215  1
  S2-  S147  1  0.49888405  0.38716912  0.66236397  1
  S2-  S148  1  0.49317606  0.63049839  0.14899262  1
  S2-  S149  1  0.39943288  0.61495931  0.65347649  1
  S2-  S150  1  0.50640090  0.92733616  0.15832176  1
  S2-  S151  1  0.53220638  0.85865100  0.65297343  1
  S2-  S152  1  0.64754345  0.11660883  0.14240524  1
  S2-  S153  1  0.75618810  -0.00536369  0.64525905  1
  S2-  S154  1  0.71628257  0.45777678  0.15176737  1
  S2-  S155  1  0.73191300  0.45162988  0.64683726  1
  S2-  S156  1  0.87883074  0.61753374  0.13362990  1
  S2-  S157  1  0.60964184  0.62505606  0.65068631  1
  S2-  S158  1  0.75894911  0.89109954  0.14423843  1
  S2-  S159  1  0.76009430  0.77131717  0.65477849  1
  S2-  S160  1  0.22328410  0.00067070  0.35158490  1
  S2-  S161  1  0.11818062  -0.10480206  0.84709468  1
  S2-  S162  1  0.13250161  0.26767079  0.34015006  1
  S2-  S163  1  0.12492527  0.34522954  0.85176297  1
  S2-  S164  1  0.25783104  0.49473096  0.35603412  1
  S2-  S165  1  0.07801701  0.53401865  0.81002428  1
  S2-  S166  1  0.12021052  0.75337636  0.34643139  1
  S2-  S167  1  0.02341021  0.72474330  0.83138847  1
  S2-  S168  1  0.41964636  0.06818464  0.31210480  1
  S2-  S169  1  0.27098451  0.02185513  0.85822637  1
  S2-  S170  1  0.37185121  0.28918587  0.34638849  1
  S2-  S171  1  0.38959937  0.28581390  0.85613375  1
  S2-  S172  1  0.51164256  0.47302467  0.36091343  1
  S2-  S173  1  0.28545929  0.50975051  0.85333292  1
  S2-  S174  1  0.35287861  0.83055112  0.35181382  1
  S2-  S175  1  0.28104348  0.74268754  0.85847860  1
  S2-  S176  1  0.58611215  -0.05098959  0.35357152  1
  S2-  S177  1  0.49164975  0.00504370  0.86134373  1
  S2-  S178  1  0.63877364  0.22305293  0.35563345  1
  S2-  S179  1  0.65019855  0.21662514  0.85119983  1
  S2-  S180  1  0.75208493  0.49970355  0.35957205  1
  S2-  S181  1  0.62286673  0.47571490  0.84443554  1
  S2-  S182  1  0.52205057  0.71662053  0.36102450  1
  S2-  S183  1  0.63347975  0.72459197  0.84620297  1
  S2-  S184  1  1.00037528  -0.02460132  0.36124129  1
  S2-  S185  1  0.87320400  -0.09096781  0.84053452  1
  S2-  S186  1  0.88934584  0.31311705  0.34479095  1
  S2-  S187  1  0.86828489  0.36101118  0.85831437  1
  S2-  S188  1  1.00891807  0.50802862  0.35862503  1
  S2-  S189  1  0.85888630  0.58062514  0.84215719  1
  S2-  S190  1  0.77661438  0.75656580  0.36591940  1
  S2-  S191  1  0.82219160  0.74034167  0.77876366  1
  S2-  S192  1  0.00516788  0.12003868  0.44973676  1
  S2-  S193  1  -0.00310760  0.12553872  0.94783425  1
  S2-  S194  1  0.00702433  0.36324368  0.45159307  1
  S2-  S195  1  -0.00010328  0.37410713  0.95025728  1
  S2-  S196  1  0.00309415  0.62285790  0.46064159  1
  S2-  S197  1  0.00358051  0.62095987  0.94314605  1
  S2-  S198  1  0.00286710  0.86208152  0.45965523  1
  S2-  S199  1  -0.00569753  0.86968997  0.94278920  1
  S2-  S200  1  0.25796749  0.11321102  0.45848654  1
  S2-  S201  1  0.25139735  0.12990972  0.95556615  1
  S2-  S202  1  0.25644215  0.36437135  0.45725841  1
  S2-  S203  1  0.25029501  0.37424837  0.95958986  1
  S2-  S204  1  0.26059252  0.62290624  0.45098506  1
  S2-  S205  1  0.24417257  0.62176133  0.95851035  1
  S2-  S206  1  0.25777743  0.86872549  0.45892130  1
  S2-  S207  1  0.24849087  0.87630836  0.95599541  1
  S2-  S208  1  0.50301486  0.11164192  0.45089894  1
  S2-  S209  1  0.49958363  0.12962266  0.96423846  1
  S2-  S210  1  0.50719915  0.35842770  0.45951759  1
  S2-  S211  1  0.49926394  0.37902633  0.95671183  1
  S2-  S212  1  0.50527910  0.61559072  0.46177244  1
  S2-  S213  1  0.49605930  0.62463632  0.94758805  1
  S2-  S214  1  0.50192354  0.87340431  0.45569320  1
  S2-  S215  1  0.49627538  0.86806178  0.95790696  1
  S2-  S216  1  0.75645125  0.11433793  0.46163425  1
  S2-  S217  1  0.74936115  0.12522283  0.95547824  1
  S2-  S218  1  0.75277440  0.36094160  0.45796246  1
  S2-  S219  1  0.74799958  0.37611499  0.95939815  1
  S2-  S220  1  0.75798661  0.61647073  0.46311875  1
  S2-  S221  1  0.75287329  0.62757122  0.95357468  1
  S2-  S222  1  0.75651642  0.87470963  0.46397462  1
  S2-  S223  1  0.74693798  0.87192596  0.94379955  1
  S2-  S224  1  0.12163907  -0.00178582  0.03664985  1
  S2-  S225  1  0.12740919  -0.00937004  0.54432001  1
  S2-  S226  1  0.12379248  0.24977369  0.04263528  1
  S2-  S227  1  0.12641469  0.24078373  0.54342457  1
  S2-  S228  1  0.11946007  0.49671192  0.03866025  1
  S2-  S229  1  0.12892727  0.49584081  0.54143006  1
  S2-  S230  1  0.12317126  0.75504261  0.03296785  1
  S2-  S231  1  0.12696057  0.74251177  0.55071234  1
  S2-  S232  1  0.37604592  0.00051967  0.04792775  1
  S2-  S233  1  0.37930925  -0.00769378  0.55826147  1
  S2-  S234  1  0.37305508  0.25022613  0.05456860  1
  S2-  S235  1  0.38284444  0.24012485  0.54636811  1
  S2-  S236  1  0.37402698  0.50447185  0.04433858  1
  S2-  S237  1  0.37942157  0.49111084  0.54386753  1
  S2-  S238  1  0.37016211  0.75057774  0.05152566  1
  S2-  S239  1  0.37892594  0.74430279  0.54339339  1
  S2-  S240  1  0.62523115  -0.00629696  0.03835784  1
  S2-  S241  1  0.62524886  -0.00604437  0.54722405  1
  S2-  S242  1  0.62470803  0.25572999  0.05214451  1
  S2-  S243  1  0.62904144  0.24053926  0.55624193  1
  S2-  S244  1  0.62204977  0.50519193  0.04602028  1
  S2-  S245  1  0.62913232  0.48909012  0.54433841  1
  S2-  S246  1  0.62549029  0.74897099  0.04974035  1
  S2-  S247  1  0.62920850  0.74714993  0.54471545  1
  S2-  S248  1  0.87447880  -0.00095611  0.03766580  1
  S2-  S249  1  0.88285439  -0.00937777  0.54362608  1
  S2-  S250  1  0.87236824  0.24760383  0.04371903  1
  S2-  S251  1  0.87899015  0.24223896  0.54221193  1
  S2-  S252  1  0.87339521  0.49717977  0.03591923  1
  S2-  S253  1  0.87765856  0.48996878  0.54397600  1
  S2-  S254  1  0.87237949  0.75377799  0.04040824  1
  S2-  S255  1  0.88033184  0.74337519  0.55091572  1
