# generated using pymatgen
data_La6Ce6Pr19Nd20Sm13(BiS2)64
_symmetry_space_group_name_H-M   'P 1'
_cell_length_a   16.08139685
_cell_length_b   16.06436367
_cell_length_c   27.33813934
_cell_angle_alpha   89.90666727
_cell_angle_beta   89.95684217
_cell_angle_gamma   89.86425253
_symmetry_Int_Tables_number   1
_chemical_formula_structural   La6Ce6Pr19Nd20Sm13(BiS2)64
_chemical_formula_sum   'La6 Ce6 Pr19 Nd20 Sm13 Bi64 S128'
_cell_volume   7062.43286330
_cell_formula_units_Z   1
loop_
 _symmetry_equiv_pos_site_id
 _symmetry_equiv_pos_as_xyz
  1  'x, y, z'
loop_
 _atom_type_symbol
 _atom_type_oxidation_number
  La3+  3.0
  Ce3+  3.0
  Pr3+  3.0
  Nd3+  3.0
  Sm3+  3.0
  Bi2+  2.0
  S2-  -2.0
loop_
 _atom_site_type_symbol
 _atom_site_label
 _atom_site_symmetry_multiplicity
 _atom_site_fract_x
 _atom_site_fract_y
 _atom_site_fract_z
 _atom_site_occupancy
  La3+  La0  1  0.89256197  -0.01509025  0.42189958  1
  La3+  La1  1  0.01716471  0.35926715  0.57524798  1
  La3+  La2  1  0.00740993  0.40416831  0.08206554  1
  La3+  La3  1  0.77801235  0.38026800  0.61328918  1
  La3+  La4  1  0.14698548  0.73840164  0.41303691  1
  La3+  La5  1  0.13797236  0.51553300  0.92575610  1
  Ce3+  Ce6  1  0.13349524  0.27114577  0.94667368  1
  Ce3+  Ce7  1  0.88360829  0.76877992  0.93931011  1
  Ce3+  Ce8  1  0.00768868  0.64172164  0.05533536  1
  Ce3+  Ce9  1  0.89152803  0.74146359  0.44161047  1
  Ce3+  Ce10  1  0.65207496  0.02960819  0.89535898  1
  Ce3+  Ce11  1  0.88922122  0.23970490  0.44754981  1
  Pr3+  Pr12  1  0.26417411  0.36911023  0.57453555  1
  Pr3+  Pr13  1  0.25683838  0.65243980  0.07526105  1
  Pr3+  Pr14  1  0.64145549  0.48516354  0.42560430  1
  Pr3+  Pr15  1  0.76128797  0.11335204  0.56153519  1
  Pr3+  Pr16  1  0.63843198  0.73516149  0.42783887  1
  Pr3+  Pr17  1  0.13533392  0.77221003  0.94051369  1
  Pr3+  Pr18  1  0.89426668  0.48481449  0.43115057  1
  Pr3+  Pr19  1  0.26014043  0.89630757  0.06695318  1
  Pr3+  Pr20  1  0.25685978  0.39736372  0.07115130  1
  Pr3+  Pr21  1  0.64324659  -0.01257938  0.41972366  1
  Pr3+  Pr22  1  0.63787220  0.51846125  0.92367550  1
  Pr3+  Pr23  1  0.39170995  0.01527446  0.92849483  1
  Pr3+  Pr24  1  0.00500559  0.14393292  0.06194787  1
  Pr3+  Pr25  1  0.01171882  0.11106707  0.56382315  1
  Pr3+  Pr26  1  0.51602698  0.61133715  0.55377921  1
  Pr3+  Pr27  1  0.14021185  -0.01072806  0.42360488  1
  Pr3+  Pr28  1  0.26129586  0.86501949  0.56716083  1
  Pr3+  Pr29  1  0.38185351  0.48612375  0.43150345  1
  Pr3+  Pr30  1  0.76263276  0.61182616  0.55489974  1
  Nd3+  Nd31  1  0.25039339  0.14080359  0.07270166  1
  Nd3+  Nd32  1  0.51863255  0.36453272  0.56214041  1
  Nd3+  Nd33  1  0.14050834  0.02056707  0.93098011  1
  Nd3+  Nd34  1  0.38936296  0.23988683  0.44677737  1
  Nd3+  Nd35  1  0.76153941  0.86859405  0.56034097  1
  Nd3+  Nd36  1  0.75544718  0.89559863  0.05238523  1
  Nd3+  Nd37  1  0.63377873  0.27104212  0.93539328  1
  Nd3+  Nd38  1  0.14237820  0.24187434  0.43815835  1
  Nd3+  Nd39  1  0.51511056  0.11181454  0.55671461  1
  Nd3+  Nd40  1  0.63448006  0.76682854  0.92824637  1
  Nd3+  Nd41  1  0.50899335  0.39596546  0.05957568  1
  Nd3+  Nd42  1  0.13761224  0.48669333  0.43836290  1
  Nd3+  Nd43  1  0.38389503  0.76925497  0.94294514  1
  Nd3+  Nd44  1  0.01510210  0.86600811  0.55933133  1
  Nd3+  Nd45  1  0.75757523  0.64157879  0.05424680  1
  Nd3+  Nd46  1  0.01181281  0.60961832  0.56156544  1
  Nd3+  Nd47  1  0.51183938  0.64474767  0.05972031  1
  Nd3+  Nd48  1  0.64153835  0.24186851  0.43453463  1
  Nd3+  Nd49  1  0.38233185  0.26709236  0.94840800  1
  Nd3+  Nd50  1  0.38050104  0.51973145  0.93970438  1
  Sm3+  Sm51  1  0.51370364  0.86395787  0.54861045  1
  Sm3+  Sm52  1  0.88985491  0.51724074  0.92586708  1
  Sm3+  Sm53  1  0.26267728  0.11349570  0.55888782  1
  Sm3+  Sm54  1  0.88484303  0.02013209  0.93919491  1
  Sm3+  Sm55  1  0.38556646  -0.01110356  0.43845075  1
  Sm3+  Sm56  1  0.51200212  0.89798118  0.05456385  1
  Sm3+  Sm57  1  0.38625183  0.73951393  0.44335150  1
  Sm3+  Sm58  1  0.00706739  0.89570199  0.05693612  1
  Sm3+  Sm59  1  0.50922805  0.14269388  0.05488837  1
  Sm3+  Sm60  1  0.88705686  0.27197555  0.94556139  1
  Sm3+  Sm61  1  0.75752348  0.39634679  0.05637714  1
  Sm3+  Sm62  1  0.26140946  0.62015260  0.56220153  1
  Sm3+  Sm63  1  0.75567863  0.14475832  0.05691149  1
  Bi2+  Bi64  1  -0.03612887  0.09276263  0.26012834  1
  Bi2+  Bi65  1  0.08018261  0.10297708  0.79616171  1
  Bi2+  Bi66  1  -0.05400290  0.36287696  0.30076736  1
  Bi2+  Bi67  1  -0.00085440  0.37976129  0.80429766  1
  Bi2+  Bi68  1  -0.05927025  0.60334877  0.30572934  1
  Bi2+  Bi69  1  -0.00269051  0.64923054  0.77607160  1
  Bi2+  Bi70  1  -0.00101120  0.89010983  0.28604845  1
  Bi2+  Bi71  1  -0.05103898  0.83693045  0.75501856  1
  Bi2+  Bi72  1  0.28733204  0.10625720  0.27215221  1
  Bi2+  Bi73  1  0.27403691  0.11059641  0.76242113  1
  Bi2+  Bi74  1  0.21153796  0.36176443  0.29734615  1
  Bi2+  Bi75  1  0.27238430  0.37500966  0.79194843  1
  Bi2+  Bi76  1  0.25589978  0.60996925  0.28414006  1
  Bi2+  Bi77  1  0.24776763  0.63099079  0.78068834  1
  Bi2+  Bi78  1  0.27761865  0.87588006  0.28828527  1
  Bi2+  Bi79  1  0.21522258  0.88379429  0.81177385  1
  Bi2+  Bi80  1  0.46816696  0.08021164  0.32474194  1
  Bi2+  Bi81  1  0.45997204  0.04956228  0.74841451  1
  Bi2+  Bi82  1  0.46505751  0.33002984  0.30822401  1
  Bi2+  Bi83  1  0.48538762  0.32575973  0.78669995  1
  Bi2+  Bi84  1  0.46515582  0.52587603  0.30303826  1
  Bi2+  Bi85  1  0.49556728  0.53266820  0.80591559  1
  Bi2+  Bi86  1  0.50952065  0.89561444  0.29387178  1
  Bi2+  Bi87  1  0.55352709  0.86539368  0.80900359  1
  Bi2+  Bi88  1  0.65199499  0.12914964  0.30230050  1
  Bi2+  Bi89  1  0.72004793  0.09923723  0.76824806  1
  Bi2+  Bi90  1  0.67110249  0.35777557  0.25593539  1
  Bi2+  Bi91  1  0.75175695  0.33243599  0.81412643  1
  Bi2+  Bi92  1  0.70309875  0.67804345  0.27479699  1
  Bi2+  Bi93  1  0.73412925  0.68771623  0.77976122  1
  Bi2+  Bi94  1  0.77205452  0.89530447  0.28137368  1
  Bi2+  Bi95  1  0.74459213  0.88415556  0.79936283  1
  Bi2+  Bi96  1  0.14161584  -0.02238565  0.18986157  1
  Bi2+  Bi97  1  0.17100561  -0.02746283  0.68997061  1
  Bi2+  Bi98  1  0.12100590  0.20978055  0.23856674  1
  Bi2+  Bi99  1  0.12301231  0.23303675  0.71517620  1
  Bi2+  Bi100  1  0.08719016  0.49227326  0.21034796  1
  Bi2+  Bi101  1  0.09459309  0.50854962  0.69560317  1
  Bi2+  Bi102  1  0.14624846  0.72600484  0.21531763  1
  Bi2+  Bi103  1  0.12383340  0.77713684  0.70805978  1
  Bi2+  Bi104  1  0.41376437  -0.01097176  0.21000112  1
  Bi2+  Bi105  1  0.35484288  -0.09420346  0.69983947  1
  Bi2+  Bi106  1  0.30506611  0.24890244  0.19375863  1
  Bi2+  Bi107  1  0.37356074  0.34284113  0.69516394  1
  Bi2+  Bi108  1  0.35436723  0.43318132  0.22100152  1
  Bi2+  Bi109  1  0.37884769  0.53635041  0.70946770  1
  Bi2+  Bi110  1  0.42769790  0.71503651  0.27653434  1
  Bi2+  Bi111  1  0.42536111  0.71626341  0.78617046  1
  Bi2+  Bi112  1  0.65250937  0.00514776  0.20981506  1
  Bi2+  Bi113  1  0.63937153  -0.03426380  0.69829453  1
  Bi2+  Bi114  1  0.53035880  0.23540159  0.21310245  1
  Bi2+  Bi115  1  0.60614121  0.22628678  0.70522016  1
  Bi2+  Bi116  1  0.59500937  0.51748938  0.19467797  1
  Bi2+  Bi117  1  0.60731070  0.50840018  0.71195271  1
  Bi2+  Bi118  1  0.57748849  0.75438610  0.19980873  1
  Bi2+  Bi119  1  0.59708036  0.75255806  0.70245528  1
  Bi2+  Bi120  1  0.86189909  -0.00831178  0.18111226  1
  Bi2+  Bi121  1  0.94749389  0.02599618  0.72588000  1
  Bi2+  Bi122  1  0.80844797  0.21307094  0.24973617  1
  Bi2+  Bi123  1  0.87463767  0.20373933  0.71894863  1
  Bi2+  Bi124  1  0.84125475  0.49321576  0.19121812  1
  Bi2+  Bi125  1  0.85301850  0.52349541  0.73083944  1
  Bi2+  Bi126  1  0.87348173  0.73949913  0.23695597  1
  Bi2+  Bi127  1  0.78916211  0.79834349  0.68674117  1
  S2-  S128  1  0.10465096  0.12823139  0.14402361  1
  S2-  S129  1  -0.00196144  0.21686558  0.64815596  1
  S2-  S130  1  -0.06415185  0.36669108  0.17700048  1
  S2-  S131  1  -0.05520237  0.45028670  0.65246740  1
  S2-  S132  1  -0.01883993  0.56760548  0.14283634  1
  S2-  S133  1  0.02272114  0.65821187  0.65872830  1
  S2-  S134  1  0.01051666  0.89066887  0.15530906  1
  S2-  S135  1  0.01577801  0.97972255  0.63629495  1
  S2-  S136  1  0.28135728  0.01574772  0.14133873  1
  S2-  S137  1  0.23848918  0.12892328  0.65665407  1
  S2-  S138  1  0.14482708  0.38720894  0.14926341  1
  S2-  S139  1  0.14936974  0.36356999  0.65142727  1
  S2-  S140  1  0.21551837  0.58720107  0.16814430  1
  S2-  S141  1  0.23468189  0.55266682  0.65097832  1
  S2-  S142  1  0.24540917  0.78649750  0.14976371  1
  S2-  S143  1  0.27433789  0.77210876  0.65299899  1
  S2-  S144  1  0.53236930  0.10321771  0.15053507  1
  S2-  S145  1  0.50124537  0.13224703  0.65541957  1
  S2-  S146  1  0.49167124  0.39056393  0.15835055  1
  S2-  S147  1  0.60563875  0.37664821  0.64859273  1
  S2-  S148  1  0.48138209  0.62569308  0.15703105  1
  S2-  S149  1  0.51451986  0.61831090  0.65403712  1
  S2-  S150  1  0.48149667  0.86599385  0.15009582  1
  S2-  S151  1  0.50571953  0.87492501  0.64634013  1
  S2-  S152  1  0.80409468  0.14255619  0.15087314  1
  S2-  S153  1  0.75030101  0.21056625  0.64728614  1
  S2-  S154  1  0.71813841  0.39328513  0.15258520  1
  S2-  S155  1  0.79945535  0.36912656  0.72078684  1
  S2-  S156  1  0.72711796  0.61786590  0.15082044  1
  S2-  S157  1  0.74788672  0.54900163  0.64962943  1
  S2-  S158  1  0.72591801  0.88807929  0.15065179  1
  S2-  S159  1  0.76518235  0.98541852  0.63560529  1
  S2-  S160  1  0.13654217  -0.13057741  0.34371213  1
  S2-  S161  1  0.07334849  -0.05256689  0.84645777  1
  S2-  S162  1  0.09708480  0.25972514  0.34142880  1
  S2-  S163  1  0.13390358  0.34484002  0.85715479  1
  S2-  S164  1  0.02723581  0.47602184  0.35792121  1
  S2-  S165  1  0.01482763  0.52346086  0.85167679  1
  S2-  S166  1  0.10325367  0.66906575  0.31724281  1
  S2-  S167  1  0.15872540  0.72408683  0.84491476  1
  S2-  S168  1  0.28369135  0.00174772  0.35815772  1
  S2-  S169  1  0.26792492  0.03292870  0.85765899  1
  S2-  S170  1  0.32393500  0.27330710  0.35709721  1
  S2-  S171  1  0.36390075  0.26409531  0.84922377  1
  S2-  S172  1  0.25386052  0.49473575  0.36128646  1
  S2-  S173  1  0.27615612  0.51525343  0.85833146  1
  S2-  S174  1  0.30727959  0.74186350  0.35653108  1
  S2-  S175  1  0.37106976  0.83825605  0.85177920  1
  S2-  S176  1  0.77046245  0.02188471  0.34942786  1
  S2-  S177  1  0.50264019  0.02242983  0.84638183  1
  S2-  S178  1  0.62867226  0.35172425  0.35432107  1
  S2-  S179  1  0.65424484  0.18525187  0.84740257  1
  S2-  S180  1  0.63025051  0.61001260  0.35246569  1
  S2-  S181  1  0.61236020  0.38823104  0.85673395  1
  S2-  S182  1  0.64463054  0.85014349  0.35009540  1
  S2-  S183  1  0.62733581  0.64877471  0.85278538  1
  S2-  S184  1  1.01419868  0.02884250  0.34882046  1
  S2-  S185  1  0.81148757  0.02479237  0.85075552  1
  S2-  S186  1  0.86713867  0.24769804  0.34930544  1
  S2-  S187  1  0.90541227  0.26095112  0.84672253  1
  S2-  S188  1  0.83152397  0.48126486  0.33217792  1
  S2-  S189  1  0.80246894  0.48710949  0.84021135  1
  S2-  S190  1  0.89645869  0.82921324  0.35765824  1
  S2-  S191  1  0.89585798  0.73456648  0.84359872  1
  S2-  S192  1  0.01781775  0.11816627  0.45684634  1
  S2-  S193  1  0.00803496  0.14253001  0.95327262  1
  S2-  S194  1  0.01666657  0.35984090  0.46250827  1
  S2-  S195  1  0.00701793  0.39502284  0.96111399  1
  S2-  S196  1  0.01836697  0.61996761  0.45386886  1
  S2-  S197  1  0.00951456  0.64514257  0.95171407  1
  S2-  S198  1  0.02308392  0.85923750  0.45521556  1
  S2-  S199  1  0.00526843  0.89508733  0.95361492  1
  S2-  S200  1  0.26537673  0.11646729  0.45570203  1
  S2-  S201  1  0.25743703  0.14648972  0.96396045  1
  S2-  S202  1  0.26394158  0.36400042  0.46622594  1
  S2-  S203  1  0.26142118  0.39308192  0.96441215  1
  S2-  S204  1  0.26301564  0.61663900  0.45902379  1
  S2-  S205  1  0.25998003  0.64731530  0.96201919  1
  S2-  S206  1  0.26566179  0.86375965  0.45948853  1
  S2-  S207  1  0.25995956  0.89470281  0.95981939  1
  S2-  S208  1  0.51356102  0.11291812  0.45021563  1
  S2-  S209  1  0.51225333  0.14580180  0.95118223  1
  S2-  S210  1  0.50924934  0.36659362  0.45602452  1
  S2-  S211  1  0.50343967  0.39568679  0.95566850  1
  S2-  S212  1  0.50526637  0.61235197  0.44908182  1
  S2-  S213  1  0.50656594  0.64262307  0.95298051  1
  S2-  S214  1  0.50780062  0.86403921  0.44526604  1
  S2-  S215  1  0.51496651  0.88951347  0.95128965  1
  S2-  S216  1  0.76164432  0.11580361  0.45453407  1
  S2-  S217  1  0.76363125  0.14647495  0.95439235  1
  S2-  S218  1  0.76620014  0.36280720  0.44928867  1
  S2-  S219  1  0.76357755  0.39332508  0.95312417  1
  S2-  S220  1  0.76851527  0.61452033  0.44875575  1
  S2-  S221  1  0.76409831  0.64119276  0.94876640  1
  S2-  S222  1  0.76059658  0.86086262  0.45511203  1
  S2-  S223  1  0.75712557  0.89388870  0.94706137  1
  S2-  S224  1  0.12890046  0.01627479  0.03912917  1
  S2-  S225  1  0.14351628  -0.00909066  0.53831844  1
  S2-  S226  1  0.12992452  0.27045365  0.04958287  1
  S2-  S227  1  0.14440504  0.23527898  0.54605987  1
  S2-  S228  1  0.13677987  0.52387467  0.04377464  1
  S2-  S229  1  0.13925165  0.49245367  0.54440034  1
  S2-  S230  1  0.12731540  0.77123076  0.04685070  1
  S2-  S231  1  0.13745558  0.73829594  0.54872999  1
  S2-  S232  1  0.39005286  0.02000657  0.03901323  1
  S2-  S233  1  0.38762209  -0.01133845  0.54411666  1
  S2-  S234  1  0.38323171  0.26710434  0.05464575  1
  S2-  S235  1  0.38824283  0.23842582  0.55244714  1
  S2-  S236  1  0.38234527  0.52182758  0.04960699  1
  S2-  S237  1  0.38755743  0.49002611  0.54663791  1
  S2-  S238  1  0.38854037  0.77029829  0.04775079  1
  S2-  S239  1  0.39058975  0.73914705  0.54658908  1
  S2-  S240  1  0.63481987  0.02178564  0.04591030  1
  S2-  S241  1  0.63344011  -0.01364320  0.53397580  1
  S2-  S242  1  0.63348463  0.26942253  0.04601925  1
  S2-  S243  1  0.63233963  0.23684593  0.53957249  1
  S2-  S244  1  0.63311305  0.51733227  0.03786612  1
  S2-  S245  1  0.63948507  0.48759466  0.53677425  1
  S2-  S246  1  0.63364784  0.76868529  0.03885164  1
  S2-  S247  1  0.63743993  0.74073571  0.54039454  1
  S2-  S248  1  0.88107851  0.01945060  0.04292661  1
  S2-  S249  1  0.88899413  -0.01452677  0.53336070  1
  S2-  S250  1  0.88074517  0.27125513  0.05023307  1
  S2-  S251  1  0.88147765  0.24511922  0.55073026  1
  S2-  S252  1  0.87937946  0.51717533  0.03771904  1
  S2-  S253  1  0.88678585  0.48861845  0.54110765  1
  S2-  S254  1  0.88224593  0.77003692  0.04817362  1
  S2-  S255  1  0.88863582  0.74158799  0.54899854  1
