# generated using pymatgen
data_La6Ce6Pr19Nd20Sm13(BiS2)64
_symmetry_space_group_name_H-M   'P 1'
_cell_length_a   16.16169329
_cell_length_b   16.10408723
_cell_length_c   27.18706228
_cell_angle_alpha   90.11826101
_cell_angle_beta   89.98137513
_cell_angle_gamma   89.98904425
_symmetry_Int_Tables_number   1
_chemical_formula_structural   La6Ce6Pr19Nd20Sm13(BiS2)64
_chemical_formula_sum   'La6 Ce6 Pr19 Nd20 Sm13 Bi64 S128'
_cell_volume   7075.94259990
_cell_formula_units_Z   1
loop_
 _symmetry_equiv_pos_site_id
 _symmetry_equiv_pos_as_xyz
  1  'x, y, z'
loop_
 _atom_type_symbol
 _atom_type_oxidation_number
  La3+  3.0
  Ce3+  3.0
  Pr3+  3.0
  Nd3+  3.0
  Sm3+  3.0
  Bi2+  2.0
  S2-  -2.0
loop_
 _atom_site_type_symbol
 _atom_site_label
 _atom_site_symmetry_multiplicity
 _atom_site_fract_x
 _atom_site_fract_y
 _atom_site_fract_z
 _atom_site_occupancy
  La3+  La0  1  0.00364746  0.62469214  0.08036949  1
  La3+  La1  1  0.25434578  0.36291835  0.10839691  1
  La3+  La2  1  -0.00354949  0.37008161  0.10134827  1
  La3+  La3  1  0.74456069  0.37126891  0.07197050  1
  La3+  La4  1  0.11357101  0.73740503  0.92239534  1
  La3+  La5  1  0.50623573  0.87244286  0.61066747  1
  Ce3+  Ce6  1  0.37599352  -0.01492084  0.44859372  1
  Ce3+  Ce7  1  0.74865719  0.85529877  0.57370439  1
  Ce3+  Ce8  1  0.49164813  0.12307286  0.04915277  1
  Ce3+  Ce9  1  0.24243484  0.87095245  0.04932356  1
  Ce3+  Ce10  1  0.00394757  0.60796979  0.56560477  1
  Ce3+  Ce11  1  0.49259728  0.87268913  0.04808817  1
  Pr3+  Pr12  1  0.62288069  0.73877819  0.44406602  1
  Pr3+  Pr13  1  0.11886894  0.24817230  0.94029204  1
  Pr3+  Pr14  1  0.74476928  0.87155552  0.05446510  1
  Pr3+  Pr15  1  0.74647582  0.62438504  0.06215236  1
  Pr3+  Pr16  1  0.61959300  -0.00510987  0.93266389  1
  Pr3+  Pr17  1  0.24370247  0.62015347  0.06362222  1
  Pr3+  Pr18  1  0.36871862  -0.00485403  0.93362367  1
  Pr3+  Pr19  1  0.87508759  0.48477701  0.44006143  1
  Pr3+  Pr20  1  0.75001036  0.61238712  0.56768641  1
  Pr3+  Pr21  1  0.62407055  0.48780607  0.43749474  1
  Pr3+  Pr22  1  0.87145409  0.74031496  0.93587789  1
  Pr3+  Pr23  1  0.25023318  0.11805202  0.56177424  1
  Pr3+  Pr24  1  0.12802868  0.73677159  0.44766033  1
  Pr3+  Pr25  1  0.49875617  0.61435313  0.57049383  1
  Pr3+  Pr26  1  0.49445080  0.63105347  0.06444842  1
  Pr3+  Pr27  1  0.74880715  0.11414902  0.57151326  1
  Pr3+  Pr28  1  0.49568960  0.37354102  0.06319072  1
  Pr3+  Pr29  1  0.87429062  0.23453766  0.44361763  1
  Pr3+  Pr30  1  0.87790543  0.73746691  0.44085766  1
  Nd3+  Nd31  1  -0.00129597  0.87070982  0.06669843  1
  Nd3+  Nd32  1  0.25082509  0.36272216  0.55234153  1
  Nd3+  Nd33  1  0.75205053  0.36736997  0.57258073  1
  Nd3+  Nd34  1  0.24668290  0.87708442  0.58158108  1
  Nd3+  Nd35  1  0.37619253  0.23705050  0.43452944  1
  Nd3+  Nd36  1  0.24259833  0.12484376  0.05596104  1
  Nd3+  Nd37  1  -0.00257207  0.11474693  0.57548964  1
  Nd3+  Nd38  1  0.50092847  0.36688901  0.56340265  1
  Nd3+  Nd39  1  0.24899549  0.60519230  0.56962135  1
  Nd3+  Nd40  1  0.00147709  0.85640379  0.57081587  1
  Nd3+  Nd41  1  0.87032088  0.49528135  0.94782999  1
  Nd3+  Nd42  1  0.11873345  0.49437630  0.94966328  1
  Nd3+  Nd43  1  0.12461033  -0.01008357  0.43825158  1
  Nd3+  Nd44  1  0.12336617  0.23254413  0.42937756  1
  Nd3+  Nd45  1  0.74438066  0.12215369  0.05550127  1
  Nd3+  Nd46  1  -0.00521773  0.12543852  0.06039577  1
  Nd3+  Nd47  1  0.11689677  0.48003390  0.42216353  1
  Nd3+  Nd48  1  0.37418326  0.49184826  0.43359099  1
  Nd3+  Nd49  1  0.61948663  0.73923184  0.92858531  1
  Nd3+  Nd50  1  0.36537626  0.73946032  0.92779886  1
  Sm3+  Sm51  1  0.36870852  0.24876793  0.93780292  1
  Sm3+  Sm52  1  0.62540237  -0.01478198  0.44711348  1
  Sm3+  Sm53  1  0.62501600  0.23644569  0.44344792  1
  Sm3+  Sm54  1  0.86984916  0.24728457  0.94077576  1
  Sm3+  Sm55  1  0.50130036  0.11388583  0.55829736  1
  Sm3+  Sm56  1  0.61938869  0.49309255  0.94345154  1
  Sm3+  Sm57  1  0.86966899  -0.00571624  0.94352088  1
  Sm3+  Sm58  1  0.87425078  -0.01322215  0.45121977  1
  Sm3+  Sm59  1  0.11648468  -0.00544584  0.93764230  1
  Sm3+  Sm60  1  0.00638319  0.36324931  0.56392110  1
  Sm3+  Sm61  1  0.62135262  0.24774104  0.94126719  1
  Sm3+  Sm62  1  0.37487116  0.74101066  0.46019039  1
  Sm3+  Sm63  1  0.36919155  0.49484475  0.95007705  1
  Bi2+  Bi64  1  -0.02982651  0.10120042  0.29522943  1
  Bi2+  Bi65  1  -0.02992169  0.17613847  0.76277638  1
  Bi2+  Bi66  1  -0.02195077  0.35650362  0.29156680  1
  Bi2+  Bi67  1  0.03086628  0.36089679  0.77310127  1
  Bi2+  Bi68  1  -0.02148958  0.64982083  0.29699578  1
  Bi2+  Bi69  1  0.00401875  0.62253766  0.79272844  1
  Bi2+  Bi70  1  0.04086161  0.91185496  0.28328009  1
  Bi2+  Bi71  1  -0.00127885  0.90281250  0.79442604  1
  Bi2+  Bi72  1  0.23794782  0.09009999  0.28820044  1
  Bi2+  Bi73  1  0.23163524  0.18506891  0.78163629  1
  Bi2+  Bi74  1  0.26199107  0.38565313  0.29513672  1
  Bi2+  Bi75  1  0.22472674  0.38680404  0.77259704  1
  Bi2+  Bi76  1  0.24997741  0.65044181  0.31177513  1
  Bi2+  Bi77  1  0.26731780  0.64042214  0.80499396  1
  Bi2+  Bi78  1  0.23879397  0.89183358  0.29418365  1
  Bi2+  Bi79  1  0.24288179  0.91409158  0.78144584  1
  Bi2+  Bi80  1  0.47001282  0.06330719  0.28604848  1
  Bi2+  Bi81  1  0.52107830  0.12759187  0.78510803  1
  Bi2+  Bi82  1  0.51271875  0.27928336  0.28690074  1
  Bi2+  Bi83  1  0.48318752  0.32844602  0.78055718  1
  Bi2+  Bi84  1  0.50699159  0.62240411  0.30922609  1
  Bi2+  Bi85  1  0.50285624  0.53025967  0.78349385  1
  Bi2+  Bi86  1  0.55682660  0.86531435  0.27862630  1
  Bi2+  Bi87  1  0.50890357  0.93504528  0.80317521  1
  Bi2+  Bi88  1  0.67079191  0.11443343  0.28243873  1
  Bi2+  Bi89  1  0.71543459  0.16847720  0.79527449  1
  Bi2+  Bi90  1  0.70340152  0.39576602  0.28032133  1
  Bi2+  Bi91  1  0.76084716  0.36256639  0.78830866  1
  Bi2+  Bi92  1  0.74231571  0.66626026  0.26690497  1
  Bi2+  Bi93  1  0.75701192  0.61700323  0.79623011  1
  Bi2+  Bi94  1  0.77462025  0.95160688  0.27516785  1
  Bi2+  Bi95  1  0.77757303  0.86020777  0.79058580  1
  Bi2+  Bi96  1  0.13891839  0.01647992  0.19455202  1
  Bi2+  Bi97  1  0.10145924  0.06888119  0.70305671  1
  Bi2+  Bi98  1  0.11117849  0.20981496  0.22246464  1
  Bi2+  Bi99  1  0.20697460  0.25591943  0.67220647  1
  Bi2+  Bi100  1  0.11864094  0.52233371  0.21735164  1
  Bi2+  Bi101  1  0.12436909  0.51744245  0.70794204  1
  Bi2+  Bi102  1  0.12035135  0.77328506  0.21040781  1
  Bi2+  Bi103  1  0.11953332  0.77557745  0.70191816  1
  Bi2+  Bi104  1  0.40522213  -0.06654146  0.19852384  1
  Bi2+  Bi105  1  0.36855823  0.10147221  0.70975563  1
  Bi2+  Bi106  1  0.37450261  0.19742935  0.21569233  1
  Bi2+  Bi107  1  0.40976759  0.27924452  0.67072907  1
  Bi2+  Bi108  1  0.44156004  0.45430472  0.21935087  1
  Bi2+  Bi109  1  0.36577814  0.47630656  0.70783649  1
  Bi2+  Bi110  1  0.37716513  0.76214929  0.25465211  1
  Bi2+  Bi111  1  0.38749400  0.73314658  0.72507018  1
  Bi2+  Bi112  1  0.58628720  0.00117514  0.19234253  1
  Bi2+  Bi113  1  0.64830010  0.06853941  0.70074908  1
  Bi2+  Bi114  1  0.63785693  0.26731636  0.19577169  1
  Bi2+  Bi115  1  0.62310632  0.25395703  0.66030926  1
  Bi2+  Bi116  1  0.62774773  0.45913085  0.17874458  1
  Bi2+  Bi117  1  0.62924956  0.44043012  0.70963225  1
  Bi2+  Bi118  1  0.61252989  0.74067229  0.19112414  1
  Bi2+  Bi119  1  0.64158944  0.76761306  0.71919248  1
  Bi2+  Bi120  1  0.94437587  -0.01153715  0.18902804  1
  Bi2+  Bi121  1  0.86976393  0.00454633  0.73270246  1
  Bi2+  Bi122  1  0.85860746  0.23856700  0.21597906  1
  Bi2+  Bi123  1  0.81582777  0.25846435  0.68904648  1
  Bi2+  Bi124  1  0.83425273  0.50786000  0.22469150  1
  Bi2+  Bi125  1  0.88416745  0.44349066  0.71153165  1
  Bi2+  Bi126  1  0.85963837  0.81250966  0.21336115  1
  Bi2+  Bi127  1  0.87702417  0.72273256  0.72697835  1
  S2-  S128  1  -0.01277078  0.20505748  0.14978650  1
  S2-  S129  1  0.04389516  0.24829829  0.63821431  1
  S2-  S130  1  0.11864913  0.36380626  0.17696888  1
  S2-  S131  1  0.00541137  0.48537303  0.63685830  1
  S2-  S132  1  -0.01430089  0.52157480  0.16264758  1
  S2-  S133  1  -0.00960824  0.72146477  0.64353755  1
  S2-  S134  1  -0.01532511  0.76505253  0.14665559  1
  S2-  S135  1  0.05112058  0.92900466  0.65966909  1
  S2-  S136  1  0.24725358  0.19438057  0.14798975  1
  S2-  S137  1  0.24563826  0.02990685  0.64809853  1
  S2-  S138  1  0.28555773  0.47898979  0.18987485  1
  S2-  S139  1  0.24262756  0.46225198  0.63498677  1
  S2-  S140  1  0.16203285  0.64610396  0.15110684  1
  S2-  S141  1  0.20820588  0.65452838  0.66657059  1
  S2-  S142  1  0.20912470  0.87877676  0.14497542  1
  S2-  S143  1  0.27245079  0.84138319  0.68118292  1
  S2-  S144  1  0.47687716  0.11079197  0.14615434  1
  S2-  S145  1  0.49865129  0.04479231  0.64807677  1
  S2-  S146  1  0.41799446  0.33463340  0.15082609  1
  S2-  S147  1  0.50012266  0.48355837  0.64053093  1
  S2-  S148  1  0.51501097  0.59289108  0.16285075  1
  S2-  S149  1  0.51218585  0.70547147  0.65924369  1
  S2-  S150  1  0.47831768  0.80178625  0.13586937  1
  S2-  S151  1  0.46827035  0.87533461  0.71666525  1
  S2-  S152  1  0.74818268  0.15051362  0.15341401  1
  S2-  S153  1  0.86730597  0.09963557  0.64704625  1
  S2-  S154  1  0.84410816  0.36570545  0.15634286  1
  S2-  S155  1  0.75483656  0.49225029  0.64557588  1
  S2-  S156  1  0.77916541  0.63108066  0.16117559  1
  S2-  S157  1  0.75221402  0.72070756  0.65020758  1
  S2-  S158  1  0.71837843  0.86299793  0.15375907  1
  S2-  S159  1  0.66453192  0.90125476  0.65718366  1
  S2-  S160  1  0.11317014  0.10229866  0.36078611  1
  S2-  S161  1  0.12076850  -0.00710352  0.83873129  1
  S2-  S162  1  0.11934573  0.33351531  0.34732063  1
  S2-  S163  1  0.09759432  0.23227933  0.83997678  1
  S2-  S164  1  0.15844660  0.52003980  0.32436417  1
  S2-  S165  1  0.12354675  0.58120878  0.86097229  1
  S2-  S166  1  0.10469610  0.72574142  0.34729726  1
  S2-  S167  1  0.19553515  0.78354264  0.83231814  1
  S2-  S168  1  0.34814815  -0.01012088  0.35196678  1
  S2-  S169  1  0.35106147  -0.00216465  0.83362567  1
  S2-  S170  1  0.35136303  0.26900688  0.33691995  1
  S2-  S171  1  0.36600695  0.25385469  0.84001134  1
  S2-  S172  1  0.37087363  0.50085036  0.33350891  1
  S2-  S173  1  0.36837816  0.53009410  0.85408198  1
  S2-  S174  1  0.38597203  0.72741682  0.36181148  1
  S2-  S175  1  0.40381262  0.74366273  0.83045825  1
  S2-  S176  1  0.64798240  -0.03361031  0.34975632  1
  S2-  S177  1  0.66400605  -0.02623587  0.83630434  1
  S2-  S178  1  0.65531759  0.24666504  0.34766309  1
  S2-  S179  1  0.62403090  0.29818871  0.84811738  1
  S2-  S180  1  0.59512423  0.49526083  0.33826949  1
  S2-  S181  1  0.63286049  0.53654776  0.84945391  1
  S2-  S182  1  0.62571078  0.71945518  0.34319325  1
  S2-  S183  1  0.65275040  0.75026307  0.83018646  1
  S2-  S184  1  0.88873172  -0.01185378  0.35258765  1
  S2-  S185  1  0.89245241  -0.00634698  0.84641052  1
  S2-  S186  1  0.89466738  0.24424609  0.34237986  1
  S2-  S187  1  0.85947074  0.23696276  0.84228224  1
  S2-  S188  1  0.95041682  0.49939644  0.34960467  1
  S2-  S189  1  0.87584401  0.54795625  0.85168566  1
  S2-  S190  1  0.86205255  0.73236791  0.34020732  1
  S2-  S191  1  0.97571099  0.75548752  0.85606400  1
  S2-  S192  1  -0.00529848  0.10950579  0.46434548  1
  S2-  S193  1  -0.00803073  0.11977090  0.95208613  1
  S2-  S194  1  -0.00167833  0.35893405  0.45657717  1
  S2-  S195  1  -0.00789722  0.37123962  0.94268209  1
  S2-  S196  1  0.00204189  0.61122115  0.45679717  1
  S2-  S197  1  -0.00678753  0.61717150  0.96608240  1
  S2-  S198  1  0.00150571  0.86507388  0.45719279  1
  S2-  S199  1  -0.00597996  0.87589791  0.95839208  1
  S2-  S200  1  0.25386477  0.11306072  0.45440311  1
  S2-  S201  1  0.24397781  0.12140146  0.94830802  1
  S2-  S202  1  0.25279259  0.36429160  0.44676619  1
  S2-  S203  1  0.24663311  0.37279213  0.94321345  1
  S2-  S204  1  0.25273622  0.61297124  0.45812627  1
  S2-  S205  1  0.24710472  0.61794732  0.95782129  1
  S2-  S206  1  0.24905612  0.86480480  0.46221121  1
  S2-  S207  1  0.24239268  0.87106464  0.94460267  1
  S2-  S208  1  0.50316390  0.11249408  0.45036809  1
  S2-  S209  1  0.49541705  0.12471947  0.94219408  1
  S2-  S210  1  0.50043632  0.36132217  0.45027845  1
  S2-  S211  1  0.49490988  0.37069109  0.95354052  1
  S2-  S212  1  0.49810230  0.61348680  0.46049683  1
  S2-  S213  1  0.49572359  0.61899670  0.95447330  1
  S2-  S214  1  0.50017282  0.86280534  0.45073470  1
  S2-  S215  1  0.49442095  0.86614972  0.94166211  1
  S2-  S216  1  0.74802186  0.11049596  0.45844785  1
  S2-  S217  1  0.74568072  0.12159246  0.94875686  1
  S2-  S218  1  0.74796378  0.36113694  0.45537191  1
  S2-  S219  1  0.74438220  0.37047687  0.95764680  1
  S2-  S220  1  0.75058210  0.61208223  0.45326436  1
  S2-  S221  1  0.74296972  0.61928678  0.95518574  1
  S2-  S222  1  0.75078757  0.86267617  0.45870700  1
  S2-  S223  1  0.74616341  0.86819030  0.94717128  1
  S2-  S224  1  0.11722868  -0.00013903  0.04360793  1
  S2-  S225  1  0.12163763  -0.00819965  0.54434125  1
  S2-  S226  1  0.11880978  0.25077218  0.04720858  1
  S2-  S227  1  0.12784539  0.23727978  0.53368373  1
  S2-  S228  1  0.12725453  0.48554758  0.05544697  1
  S2-  S229  1  0.12689168  0.48436230  0.53203686  1
  S2-  S230  1  0.12045773  0.74813015  0.03770658  1
  S2-  S231  1  0.13345173  0.74171683  0.55253617  1
  S2-  S232  1  0.36615088  -0.00210236  0.04118911  1
  S2-  S233  1  0.38036885  -0.01426802  0.55228276  1
  S2-  S234  1  0.36605450  0.24960656  0.04135400  1
  S2-  S235  1  0.37923936  0.23809828  0.54130600  1
  S2-  S236  1  0.37058264  0.49740779  0.05550919  1
  S2-  S237  1  0.37651477  0.48716859  0.53951125  1
  S2-  S238  1  0.36566699  0.74626361  0.03643282  1
  S2-  S239  1  0.36915078  0.74312227  0.56327360  1
  S2-  S240  1  0.61872002  -0.00242422  0.04075258  1
  S2-  S241  1  0.62505793  -0.01057561  0.54920990  1
  S2-  S242  1  0.61915823  0.24676897  0.04647211  1
  S2-  S243  1  0.62535007  0.23972902  0.54595713  1
  S2-  S244  1  0.61980087  0.49970537  0.04709012  1
  S2-  S245  1  0.62727899  0.48638110  0.54310430  1
  S2-  S246  1  0.62087396  0.74795179  0.03701760  1
  S2-  S247  1  0.62031056  0.74095524  0.55015439  1
  S2-  S248  1  0.87080423  -0.00227781  0.04894238  1
  S2-  S249  1  0.87383352  -0.01950893  0.55342489  1
  S2-  S250  1  0.86864182  0.24773523  0.04452540  1
  S2-  S251  1  0.87308563  0.24302299  0.54923834  1
  S2-  S252  1  0.87076879  0.49614240  0.05282136  1
  S2-  S253  1  0.87498752  0.48501893  0.54381437  1
  S2-  S254  1  0.87013996  0.74871815  0.04324421  1
  S2-  S255  1  0.87589488  0.73642483  0.54531335  1
