# generated using pymatgen
data_La6Ce6Pr19Nd20Sm13(BiS2)64
_symmetry_space_group_name_H-M   'P 1'
_cell_length_a   16.18602121
_cell_length_b   16.17021756
_cell_length_c   27.21503813
_cell_angle_alpha   89.82270542
_cell_angle_beta   90.02763830
_cell_angle_gamma   90.02798919
_symmetry_Int_Tables_number   1
_chemical_formula_structural   La6Ce6Pr19Nd20Sm13(BiS2)64
_chemical_formula_sum   'La6 Ce6 Pr19 Nd20 Sm13 Bi64 S128'
_cell_volume   7122.99655406
_cell_formula_units_Z   1
loop_
 _symmetry_equiv_pos_site_id
 _symmetry_equiv_pos_as_xyz
  1  'x, y, z'
loop_
 _atom_type_symbol
 _atom_type_oxidation_number
  La3+  3.0
  Ce3+  3.0
  Pr3+  3.0
  Nd3+  3.0
  Sm3+  3.0
  Bi2+  2.0
  S2-  -2.0
loop_
 _atom_site_type_symbol
 _atom_site_label
 _atom_site_symmetry_multiplicity
 _atom_site_fract_x
 _atom_site_fract_y
 _atom_site_fract_z
 _atom_site_occupancy
  La3+  La0  1  0.00559029  0.13622144  0.09556567  1
  La3+  La1  1  0.87392227  0.25085874  0.92853921  1
  La3+  La2  1  0.87468901  0.75960803  0.93359127  1
  La3+  La3  1  0.86525429  0.76407083  0.40956620  1
  La3+  La4  1  0.12157218  0.22834749  0.88565056  1
  La3+  La5  1  0.74281409  0.12102865  0.07724420  1
  Ce3+  Ce6  1  0.12246930  0.00648079  0.44331882  1
  Ce3+  Ce7  1  0.75372377  0.13024908  0.55870028  1
  Ce3+  Ce8  1  0.24850996  0.87927161  0.56149745  1
  Ce3+  Ce9  1  0.00178769  0.62649114  0.05215609  1
  Ce3+  Ce10  1  0.49788224  0.12380585  0.06383450  1
  Ce3+  Ce11  1  0.75227505  0.62902785  0.05942486  1
  Pr3+  Pr12  1  0.62474313  0.75909426  0.43711077  1
  Pr3+  Pr13  1  0.00622455  0.87711123  0.56654698  1
  Pr3+  Pr14  1  0.12579602  0.25888428  0.43559357  1
  Pr3+  Pr15  1  0.62639971  0.24816819  0.93244979  1
  Pr3+  Pr16  1  0.75266617  0.86858150  0.07606780  1
  Pr3+  Pr17  1  0.75109528  0.63359925  0.56088833  1
  Pr3+  Pr18  1  0.75013516  0.37310162  0.06237197  1
  Pr3+  Pr19  1  0.00582391  0.86173750  0.09526227  1
  Pr3+  Pr20  1  0.12267815  0.50618011  0.44540875  1
  Pr3+  Pr21  1  0.87531757  0.50280048  0.44152036  1
  Pr3+  Pr22  1  0.00030777  0.37202398  0.05468459  1
  Pr3+  Pr23  1  0.25143810  0.38235150  0.56780839  1
  Pr3+  Pr24  1  -0.00166578  0.13052804  0.56040797  1
  Pr3+  Pr25  1  0.62809282  0.00207598  0.94322720  1
  Pr3+  Pr26  1  0.62750019  0.50413181  0.44220439  1
  Pr3+  Pr27  1  0.49980029  0.62486394  0.05418520  1
  Pr3+  Pr28  1  0.87142000  0.25987310  0.40743160  1
  Pr3+  Pr29  1  0.25016538  0.12544184  0.06497836  1
  Pr3+  Pr30  1  0.87097195  0.50093182  0.93522312  1
  Nd3+  Nd31  1  0.87669441  0.01118166  0.42854571  1
  Nd3+  Nd32  1  0.50045975  0.13154139  0.55936096  1
  Nd3+  Nd33  1  0.24747234  0.37189726  0.05246713  1
  Nd3+  Nd34  1  0.12532526  0.75415460  0.93795679  1
  Nd3+  Nd35  1  0.24902685  0.62339318  0.05169090  1
  Nd3+  Nd36  1  0.12422676  0.75841255  0.43314987  1
  Nd3+  Nd37  1  0.12276657  0.00421950  0.94962009  1
  Nd3+  Nd38  1  0.25067088  0.13171812  0.56492887  1
  Nd3+  Nd39  1  0.37168248  0.25666838  0.43585385  1
  Nd3+  Nd40  1  -0.00080605  0.37921522  0.56831612  1
  Nd3+  Nd41  1  0.37284379  0.00695898  0.44619695  1
  Nd3+  Nd42  1  0.37376687  0.75148354  0.94140418  1
  Nd3+  Nd43  1  0.12442271  0.49267791  0.92746111  1
  Nd3+  Nd44  1  0.24838025  0.87615096  0.06544144  1
  Nd3+  Nd45  1  0.75015628  0.37960863  0.56832860  1
  Nd3+  Nd46  1  0.37285148  0.24809865  0.93539618  1
  Nd3+  Nd47  1  0.75562843  0.88178054  0.56152774  1
  Nd3+  Nd48  1  0.25061080  0.63082088  0.55725430  1
  Nd3+  Nd49  1  0.62625484  0.00961891  0.44183641  1
  Nd3+  Nd50  1  0.37534620  0.50664875  0.44511545  1
  Sm3+  Sm51  1  0.37537986  0.50158852  0.93920386  1
  Sm3+  Sm52  1  0.37335092  0.00231367  0.93987626  1
  Sm3+  Sm53  1  -0.00198172  0.63258642  0.55214466  1
  Sm3+  Sm54  1  0.62601498  0.50318914  0.93953968  1
  Sm3+  Sm55  1  0.50285873  0.63207435  0.55330008  1
  Sm3+  Sm56  1  0.62616302  0.25583167  0.44778069  1
  Sm3+  Sm57  1  0.49987704  0.87451419  0.05358963  1
  Sm3+  Sm58  1  0.37416009  0.75720186  0.44740352  1
  Sm3+  Sm59  1  0.50163744  0.37525995  0.04822039  1
  Sm3+  Sm60  1  0.50116342  0.38059359  0.55658618  1
  Sm3+  Sm61  1  0.50216846  0.88136211  0.55461773  1
  Sm3+  Sm62  1  0.62639885  0.75487033  0.94231305  1
  Sm3+  Sm63  1  0.88130790  0.00421153  0.95979281  1
  Bi2+  Bi64  1  0.01559572  0.11837393  0.29833526  1
  Bi2+  Bi65  1  -0.01072129  0.07087725  0.79246438  1
  Bi2+  Bi66  1  0.01020080  0.38958141  0.28277305  1
  Bi2+  Bi67  1  0.00126855  0.35987917  0.78078830  1
  Bi2+  Bi68  1  0.04762799  0.59590498  0.29195149  1
  Bi2+  Bi69  1  0.06719775  0.59884916  0.79283233  1
  Bi2+  Bi70  1  0.01076115  0.85862051  0.29443347  1
  Bi2+  Bi71  1  -0.02436072  0.86223510  0.79431592  1
  Bi2+  Bi72  1  0.25549169  0.14347859  0.29140604  1
  Bi2+  Bi73  1  0.25906286  0.10997289  0.78694949  1
  Bi2+  Bi74  1  0.28714825  0.36195074  0.27604076  1
  Bi2+  Bi75  1  0.33296372  0.35996865  0.77099417  1
  Bi2+  Bi76  1  0.31034863  0.61783796  0.28352580  1
  Bi2+  Bi77  1  0.26524632  0.61446960  0.79716021  1
  Bi2+  Bi78  1  0.29632877  0.88919382  0.29520592  1
  Bi2+  Bi79  1  0.22677747  0.87065855  0.78179587  1
  Bi2+  Bi80  1  0.45467933  0.15041195  0.28999193  1
  Bi2+  Bi81  1  0.50359058  0.15662922  0.82095189  1
  Bi2+  Bi82  1  0.47897010  0.37617194  0.29960191  1
  Bi2+  Bi83  1  0.52584831  0.34989846  0.80030975  1
  Bi2+  Bi84  1  0.50310275  0.66824261  0.28623546  1
  Bi2+  Bi85  1  0.50630768  0.62388223  0.78977353  1
  Bi2+  Bi86  1  0.49332283  0.86388977  0.28210631  1
  Bi2+  Bi87  1  0.47750556  0.82288628  0.79197758  1
  Bi2+  Bi88  1  0.71399680  0.13174023  0.29280499  1
  Bi2+  Bi89  1  0.68918655  0.13008512  0.78231706  1
  Bi2+  Bi90  1  0.73719246  0.38136537  0.29334609  1
  Bi2+  Bi91  1  0.75274525  0.38208046  0.79289740  1
  Bi2+  Bi92  1  0.74455524  0.57065368  0.26975948  1
  Bi2+  Bi93  1  0.70279330  0.62857114  0.77397931  1
  Bi2+  Bi94  1  0.72401899  0.86774740  0.29105686  1
  Bi2+  Bi95  1  0.76090607  0.87447608  0.80598624  1
  Bi2+  Bi96  1  0.20281433  0.00160454  0.21732628  1
  Bi2+  Bi97  1  0.09125919  -0.03819238  0.71703900  1
  Bi2+  Bi98  1  0.14022100  0.27395862  0.20937371  1
  Bi2+  Bi99  1  0.13667045  0.24211161  0.67960755  1
  Bi2+  Bi100  1  0.17354373  0.51982078  0.21223010  1
  Bi2+  Bi101  1  0.17436287  0.48597995  0.72320604  1
  Bi2+  Bi102  1  0.14734096  0.73263965  0.20626081  1
  Bi2+  Bi103  1  0.11911966  0.72773545  0.70740902  1
  Bi2+  Bi104  1  0.37368789  0.04077941  0.16720333  1
  Bi2+  Bi105  1  0.37800838  -0.05294188  0.71509364  1
  Bi2+  Bi106  1  0.35860177  0.23021976  0.19523499  1
  Bi2+  Bi107  1  0.43354904  0.22150350  0.71607060  1
  Bi2+  Bi108  1  0.45166854  0.51307876  0.21632994  1
  Bi2+  Bi109  1  0.38625625  0.56349879  0.70343306  1
  Bi2+  Bi110  1  0.35538875  0.77081997  0.21280097  1
  Bi2+  Bi111  1  0.33803408  0.75675759  0.71005376  1
  Bi2+  Bi112  1  0.55252379  0.00463911  0.20668279  1
  Bi2+  Bi113  1  0.56321847  0.00386793  0.72962698  1
  Bi2+  Bi114  1  0.55744154  0.26159909  0.21713398  1
  Bi2+  Bi115  1  0.63810348  0.28061697  0.70753074  1
  Bi2+  Bi116  1  0.64707447  0.47115215  0.19148181  1
  Bi2+  Bi117  1  0.56901962  0.48525265  0.71357638  1
  Bi2+  Bi118  1  0.61969856  0.74684935  0.20612346  1
  Bi2+  Bi119  1  0.59783053  0.75702818  0.70949899  1
  Bi2+  Bi120  1  0.83637365  0.00086780  0.22298175  1
  Bi2+  Bi121  1  0.81864626  -0.02023400  0.71700925  1
  Bi2+  Bi122  1  0.88333416  0.25539889  0.21375762  1
  Bi2+  Bi123  1  0.87919915  0.23429685  0.68979062  1
  Bi2+  Bi124  1  0.91202097  0.51903685  0.21627307  1
  Bi2+  Bi125  1  0.89707981  0.58811103  0.73452653  1
  Bi2+  Bi126  1  0.88205860  0.71793140  0.21389536  1
  Bi2+  Bi127  1  0.85896028  0.75437967  0.68686982  1
  S2-  S128  1  -0.02840457  0.10306255  0.19825607  1
  S2-  S129  1  -0.00032312  0.13789338  0.66186980  1
  S2-  S130  1  0.00170711  0.29915111  0.14712045  1
  S2-  S131  1  -0.00058772  0.36524436  0.66915415  1
  S2-  S132  1  0.00927746  0.69482890  0.14251684  1
  S2-  S133  1  -0.00650259  0.65383604  0.64980372  1
  S2-  S134  1  -0.05405830  0.87811521  0.19280150  1
  S2-  S135  1  -0.06108743  0.90939651  0.65863726  1
  S2-  S136  1  0.15806038  0.13240682  0.15119288  1
  S2-  S137  1  0.24667234  0.12153263  0.66439959  1
  S2-  S138  1  0.22513118  0.39433265  0.15089737  1
  S2-  S139  1  0.25883077  0.36832426  0.66790591  1
  S2-  S140  1  0.25895363  0.63829764  0.15003585  1
  S2-  S141  1  0.22136481  0.61580473  0.65427904  1
  S2-  S142  1  0.15636794  0.87089760  0.15063394  1
  S2-  S143  1  0.14811840  0.86368766  0.64009742  1
  S2-  S144  1  0.59345896  0.14016858  0.14369086  1
  S2-  S145  1  0.52294848  0.11323276  0.65706007  1
  S2-  S146  1  0.50623853  0.38552533  0.14566466  1
  S2-  S147  1  0.49800871  0.36001015  0.65325894  1
  S2-  S148  1  0.52842530  0.62782507  0.15281780  1
  S2-  S149  1  0.52747088  0.63204810  0.64958826  1
  S2-  S150  1  0.52301311  0.85972287  0.15014642  1
  S2-  S151  1  0.50935183  0.88036549  0.65207103  1
  S2-  S152  1  0.78850597  0.14599614  0.17418947  1
  S2-  S153  1  0.77687153  0.11900545  0.65523883  1
  S2-  S154  1  0.76881400  0.36143847  0.16308714  1
  S2-  S155  1  0.76749200  0.37038690  0.66785852  1
  S2-  S156  1  0.75921967  0.72503708  0.14146910  1
  S2-  S157  1  0.76920790  0.61483685  0.66011499  1
  S2-  S158  1  0.72211512  0.94622835  0.16543941  1
  S2-  S159  1  0.72997854  0.86344370  0.66034626  1
  S2-  S160  1  0.08648142  -0.00846779  0.34705903  1
  S2-  S161  1  0.13646092  0.05423498  0.85273912  1
  S2-  S162  1  0.02340137  0.25354908  0.35257507  1
  S2-  S163  1  0.13057339  0.21770993  0.77400633  1
  S2-  S164  1  0.11632580  0.47294937  0.34738354  1
  S2-  S165  1  0.11531364  0.39457611  0.84514189  1
  S2-  S166  1  0.11958086  0.75910048  0.33323244  1
  S2-  S167  1  0.10589267  0.79654430  0.84234558  1
  S2-  S168  1  0.36551311  0.03014750  0.34827641  1
  S2-  S169  1  0.38159689  0.03540839  0.84381061  1
  S2-  S170  1  0.25332512  0.26787124  0.36258870  1
  S2-  S171  1  0.28898363  0.24379239  0.84792267  1
  S2-  S172  1  0.36685968  0.48194358  0.34755548  1
  S2-  S173  1  0.34463386  0.48747557  0.84286859  1
  S2-  S174  1  0.34097677  0.74983239  0.35275442  1
  S2-  S175  1  0.33781298  0.77540376  0.84616804  1
  S2-  S176  1  0.64445262  0.00340198  0.34289754  1
  S2-  S177  1  0.64999806  -0.01162350  0.84372449  1
  S2-  S178  1  0.67005814  0.25073131  0.35287542  1
  S2-  S179  1  0.74295448  0.24310278  0.85707340  1
  S2-  S180  1  0.63353227  0.49329077  0.34245143  1
  S2-  S181  1  0.69122805  0.50484287  0.84837393  1
  S2-  S182  1  0.71227492  0.74475469  0.35136896  1
  S2-  S183  1  0.66914938  0.75910217  0.84769648  1
  S2-  S184  1  0.86826396  -0.09138222  0.34626541  1
  S2-  S185  1  0.88503353  -0.01508687  0.85933418  1
  S2-  S186  1  0.85762922  0.12056464  0.34560559  1
  S2-  S187  1  0.95977564  0.21846780  0.83959672  1
  S2-  S188  1  0.86764672  0.41132238  0.35567436  1
  S2-  S189  1  0.88584539  0.42729965  0.84299641  1
  S2-  S190  1  0.92015918  0.71223836  0.31796315  1
  S2-  S191  1  0.87998722  0.73946925  0.83358561  1
  S2-  S192  1  -0.00117614  0.13385820  0.45427167  1
  S2-  S193  1  0.00075693  0.12621223  0.95326744  1
  S2-  S194  1  -0.00113735  0.37964941  0.46081497  1
  S2-  S195  1  -0.00287228  0.37699617  0.95033922  1
  S2-  S196  1  -0.00374248  0.63329326  0.44687626  1
  S2-  S197  1  0.00184830  0.62463338  0.94442654  1
  S2-  S198  1  -0.00005822  0.87879385  0.45448874  1
  S2-  S199  1  0.00277297  0.87768226  0.95592846  1
  S2-  S200  1  0.24965143  0.13007875  0.45825730  1
  S2-  S201  1  0.25335497  0.12385013  0.95754487  1
  S2-  S202  1  0.25155042  0.38523028  0.46147314  1
  S2-  S203  1  0.25546421  0.37897772  0.94896556  1
  S2-  S204  1  0.25043247  0.63141625  0.45111719  1
  S2-  S205  1  0.24857952  0.62396170  0.94581433  1
  S2-  S206  1  0.25023822  0.88062506  0.45425508  1
  S2-  S207  1  0.25096200  0.87777111  0.95631749  1
  S2-  S208  1  0.49862523  0.13376940  0.45218097  1
  S2-  S209  1  0.49891700  0.12455426  0.95600888  1
  S2-  S210  1  0.49984412  0.37829948  0.45156503  1
  S2-  S211  1  0.50051864  0.37838423  0.94342606  1
  S2-  S212  1  0.49965969  0.63254961  0.44799179  1
  S2-  S213  1  0.50149913  0.62725269  0.94616229  1
  S2-  S214  1  0.49819396  0.88266821  0.44884994  1
  S2-  S215  1  0.49844511  0.87634468  0.94804560  1
  S2-  S216  1  0.75071404  0.13483203  0.45459197  1
  S2-  S217  1  0.75238451  0.12152072  0.96298427  1
  S2-  S218  1  0.74929311  0.37720014  0.46054549  1
  S2-  S219  1  0.74611692  0.37905973  0.95558969  1
  S2-  S220  1  0.75223406  0.63006577  0.45325455  1
  S2-  S221  1  0.74875988  0.62950134  0.95269275  1
  S2-  S222  1  0.74880598  0.88552956  0.45475757  1
  S2-  S223  1  0.75055840  0.87789517  0.96295215  1
  S2-  S224  1  0.12072011  -0.00115867  0.05397294  1
  S2-  S225  1  0.12696199  0.00850839  0.54928566  1
  S2-  S226  1  0.12616457  0.24992486  0.04664033  1
  S2-  S227  1  0.12670316  0.25768749  0.54848770  1
  S2-  S228  1  0.12492926  0.49991477  0.03839996  1
  S2-  S229  1  0.12252594  0.50740255  0.55241896  1
  S2-  S230  1  0.12856785  0.75047754  0.04278047  1
  S2-  S231  1  0.12500266  0.74922622  0.53979870  1
  S2-  S232  1  0.37494471  -0.00391412  0.04456953  1
  S2-  S233  1  0.37616456  0.00479739  0.55296558  1
  S2-  S234  1  0.37725917  0.25263361  0.04380975  1
  S2-  S235  1  0.37659912  0.25659785  0.54636183  1
  S2-  S236  1  0.37513700  0.49857838  0.04477138  1
  S2-  S237  1  0.37959725  0.50743560  0.55148323  1
  S2-  S238  1  0.37357274  0.75145955  0.04798634  1
  S2-  S239  1  0.37820229  0.75563505  0.55241764  1
  S2-  S240  1  0.62213391  -0.00565652  0.04892170  1
  S2-  S241  1  0.62497171  0.00481875  0.54888512  1
  S2-  S242  1  0.62322529  0.25393804  0.04050082  1
  S2-  S243  1  0.62475565  0.25621991  0.55201688  1
  S2-  S244  1  0.62626763  0.50131841  0.04381079  1
  S2-  S245  1  0.62458626  0.50489434  0.54960166  1
  S2-  S246  1  0.62273573  0.75115506  0.04467863  1
  S2-  S247  1  0.62476788  0.75815859  0.54466275  1
  S2-  S248  1  0.88378073  -0.00224526  0.06493222  1
  S2-  S249  1  0.87709248  0.00392970  0.54230096  1
  S2-  S250  1  0.87243528  0.24641300  0.04702037  1
  S2-  S251  1  0.87491855  0.25867061  0.55367001  1
  S2-  S252  1  0.87496704  0.50172526  0.04643341  1
  S2-  S253  1  0.87607808  0.50558430  0.55043699  1
  S2-  S254  1  0.88180219  0.75283338  0.04249441  1
  S2-  S255  1  0.87642276  0.75638727  0.54398941  1
