# generated using pymatgen
data_La6Ce6Pr19Nd20Sm13(BiS2)64
_symmetry_space_group_name_H-M   'P 1'
_cell_length_a   16.16096411
_cell_length_b   16.17494512
_cell_length_c   27.23644568
_cell_angle_alpha   90.19382979
_cell_angle_beta   90.11771976
_cell_angle_gamma   90.00098732
_symmetry_Int_Tables_number   1
_chemical_formula_structural   La6Ce6Pr19Nd20Sm13(BiS2)64
_chemical_formula_sum   'La6 Ce6 Pr19 Nd20 Sm13 Bi64 S128'
_cell_volume   7119.62487814
_cell_formula_units_Z   1
loop_
 _symmetry_equiv_pos_site_id
 _symmetry_equiv_pos_as_xyz
  1  'x, y, z'
loop_
 _atom_type_symbol
 _atom_type_oxidation_number
  La3+  3.0
  Ce3+  3.0
  Pr3+  3.0
  Nd3+  3.0
  Sm3+  3.0
  Bi2+  2.0
  S2-  -2.0
loop_
 _atom_site_type_symbol
 _atom_site_label
 _atom_site_symmetry_multiplicity
 _atom_site_fract_x
 _atom_site_fract_y
 _atom_site_fract_z
 _atom_site_occupancy
  La3+  La0  1  0.00697672  0.12749245  0.08128238  1
  La3+  La1  1  0.38513416  0.25305343  0.88985365  1
  La3+  La2  1  0.51383848  0.12052483  0.59213968  1
  La3+  La3  1  0.25314427  0.38341127  0.58350935  1
  La3+  La4  1  0.74207597  0.13213347  0.08240798  1
  La3+  La5  1  0.87933158  0.24042695  0.93255604  1
  Ce3+  Ce6  1  0.25391100  0.87265017  0.05473074  1
  Ce3+  Ce7  1  0.01011495  0.37102343  0.07074462  1
  Ce3+  Ce8  1  0.62646274  0.75415934  0.43979628  1
  Ce3+  Ce9  1  0.87511748  0.00370347  0.95463510  1
  Ce3+  Ce10  1  0.62618451  0.24863921  0.43882214  1
  Ce3+  Ce11  1  0.00486971  0.37251183  0.55568855  1
  Pr3+  Pr12  1  0.00030219  0.87357287  0.06938895  1
  Pr3+  Pr13  1  0.25764682  0.62644705  0.06626657  1
  Pr3+  Pr14  1  0.50440896  0.62127790  0.07044211  1
  Pr3+  Pr15  1  0.25387358  0.62879474  0.56373718  1
  Pr3+  Pr16  1  0.13073498  0.49939870  0.44265490  1
  Pr3+  Pr17  1  0.01128257  0.62168645  0.07549593  1
  Pr3+  Pr18  1  0.14729442  0.25707105  0.42223293  1
  Pr3+  Pr19  1  0.75806104  0.12022575  0.55826922  1
  Pr3+  Pr20  1  0.87934622  0.75065276  0.43074149  1
  Pr3+  Pr21  1  0.12546274  0.74252103  0.93711967  1
  Pr3+  Pr22  1  0.37752019  -0.00594957  0.93253073  1
  Pr3+  Pr23  1  0.01014124  0.12740880  0.54439744  1
  Pr3+  Pr24  1  0.12415702  -0.00682483  0.93526734  1
  Pr3+  Pr25  1  0.24119041  0.11628593  0.58104045  1
  Pr3+  Pr26  1  0.87907643  0.49891319  0.44195877  1
  Pr3+  Pr27  1  0.25312017  0.11838227  0.06134703  1
  Pr3+  Pr28  1  0.13137787  0.74915322  0.43874558  1
  Pr3+  Pr29  1  0.25937573  0.37052120  0.06619614  1
  Pr3+  Pr30  1  0.87834711  0.74418555  0.94500207  1
  Nd3+  Nd31  1  0.62557067  0.00230376  0.43891179  1
  Nd3+  Nd32  1  0.50392547  0.87736558  0.56693177  1
  Nd3+  Nd33  1  0.13448366  0.00220627  0.42504100  1
  Nd3+  Nd34  1  0.25305980  0.87636869  0.55986355  1
  Nd3+  Nd35  1  0.37458772  0.00404258  0.44215938  1
  Nd3+  Nd36  1  0.75430853  0.37153825  0.55568612  1
  Nd3+  Nd37  1  0.50857356  0.37529409  0.56628064  1
  Nd3+  Nd38  1  0.62872108  0.50002135  0.44159060  1
  Nd3+  Nd39  1  0.87947656  0.24903953  0.43223256  1
  Nd3+  Nd40  1  0.62931983  0.74389906  0.94430453  1
  Nd3+  Nd41  1  0.62781769  -0.00076037  0.93919704  1
  Nd3+  Nd42  1  0.50436238  0.87191396  0.05977452  1
  Nd3+  Nd43  1  0.50708935  0.62782783  0.55468683  1
  Nd3+  Nd44  1  0.37639403  0.24944681  0.45991800  1
  Nd3+  Nd45  1  0.37713478  0.49654365  0.93668360  1
  Nd3+  Nd46  1  0.88217295  0.00186322  0.42391128  1
  Nd3+  Nd47  1  0.38265686  0.74622856  0.92952974  1
  Nd3+  Nd48  1  0.12855305  0.24424932  0.93761811  1
  Nd3+  Nd49  1  0.75447809  0.62907426  0.55534413  1
  Nd3+  Nd50  1  0.00064471  0.62823607  0.55683003  1
  Sm3+  Sm51  1  0.37889765  0.49773475  0.44654487  1
  Sm3+  Sm52  1  0.75403616  0.37066276  0.05527547  1
  Sm3+  Sm53  1  0.37980134  0.75002664  0.44426113  1
  Sm3+  Sm54  1  0.75655400  0.87884004  0.54834174  1
  Sm3+  Sm55  1  0.00347028  0.87791744  0.54967294  1
  Sm3+  Sm56  1  0.75282049  0.87277594  0.05976520  1
  Sm3+  Sm57  1  0.12972361  0.49315720  0.94694172  1
  Sm3+  Sm58  1  0.62538877  0.49388201  0.94454919  1
  Sm3+  Sm59  1  0.87979290  0.49350621  0.94875706  1
  Sm3+  Sm60  1  0.62475253  0.24685384  0.93934267  1
  Sm3+  Sm61  1  0.50238706  0.12205193  0.05408711  1
  Sm3+  Sm62  1  0.75616158  0.62143003  0.05927090  1
  Sm3+  Sm63  1  0.49652755  0.37238850  0.05973798  1
  Bi2+  Bi64  1  -0.02530535  0.09010612  0.29323725  1
  Bi2+  Bi65  1  -0.01543460  0.11857985  0.79643899  1
  Bi2+  Bi66  1  -0.01593563  0.39304633  0.27273135  1
  Bi2+  Bi67  1  0.00842207  0.38287461  0.79585409  1
  Bi2+  Bi68  1  0.07729415  0.55920314  0.31415189  1
  Bi2+  Bi69  1  0.02489777  0.68960346  0.80142346  1
  Bi2+  Bi70  1  0.02194697  0.82489651  0.28076384  1
  Bi2+  Bi71  1  -0.03353492  0.87309836  0.75004964  1
  Bi2+  Bi72  1  0.24180146  0.13489100  0.29609024  1
  Bi2+  Bi73  1  0.24748556  0.13047470  0.78467775  1
  Bi2+  Bi74  1  0.26671325  0.36805984  0.29555082  1
  Bi2+  Bi75  1  0.23616825  0.39484312  0.79224435  1
  Bi2+  Bi76  1  0.28153339  0.61150944  0.29398084  1
  Bi2+  Bi77  1  0.28405739  0.66392786  0.81147634  1
  Bi2+  Bi78  1  0.30295724  0.88312431  0.28527526  1
  Bi2+  Bi79  1  0.24035168  0.84988236  0.78592735  1
  Bi2+  Bi80  1  0.47312782  0.10362831  0.29041660  1
  Bi2+  Bi81  1  0.50843216  0.12641413  0.78808204  1
  Bi2+  Bi82  1  0.48149155  0.38597150  0.28462181  1
  Bi2+  Bi83  1  0.53053189  0.44391401  0.76711397  1
  Bi2+  Bi84  1  0.55670111  0.59863790  0.28916778  1
  Bi2+  Bi85  1  0.47186078  0.61689139  0.81282283  1
  Bi2+  Bi86  1  0.52113628  0.87790032  0.30107655  1
  Bi2+  Bi87  1  0.50897549  0.87545311  0.79266130  1
  Bi2+  Bi88  1  0.73252125  0.12542101  0.30373310  1
  Bi2+  Bi89  1  0.78234329  0.20928712  0.80224921  1
  Bi2+  Bi90  1  0.76323593  0.40041383  0.22369326  1
  Bi2+  Bi91  1  0.76012470  0.40348562  0.79083647  1
  Bi2+  Bi92  1  0.74548977  0.54537108  0.30381364  1
  Bi2+  Bi93  1  0.73334975  0.72161060  0.78788125  1
  Bi2+  Bi94  1  0.69187147  0.82005980  0.25513316  1
  Bi2+  Bi95  1  0.78524749  0.91184376  0.79218517  1
  Bi2+  Bi96  1  0.12652974  -0.00560865  0.19774431  1
  Bi2+  Bi97  1  0.11348428  -0.01926846  0.70307522  1
  Bi2+  Bi98  1  0.09966486  0.26673770  0.21224609  1
  Bi2+  Bi99  1  0.10603227  0.23770066  0.69875193  1
  Bi2+  Bi100  1  0.13566447  0.51797576  0.21206545  1
  Bi2+  Bi101  1  0.09097213  0.57359159  0.72144085  1
  Bi2+  Bi102  1  0.19879248  0.74493417  0.22763531  1
  Bi2+  Bi103  1  0.22232180  0.72049095  0.69655757  1
  Bi2+  Bi104  1  0.37514995  0.01741554  0.20558219  1
  Bi2+  Bi105  1  0.37457966  -0.05063201  0.71972182  1
  Bi2+  Bi106  1  0.36009205  0.22141751  0.21763457  1
  Bi2+  Bi107  1  0.37602544  0.29745773  0.69094601  1
  Bi2+  Bi108  1  0.38808029  0.50341285  0.20605498  1
  Bi2+  Bi109  1  0.36387482  0.55724729  0.72266410  1
  Bi2+  Bi110  1  0.41319220  0.74386250  0.23382158  1
  Bi2+  Bi111  1  0.41443151  0.76715008  0.68901910  1
  Bi2+  Bi112  1  0.60415354  -0.00520194  0.20540375  1
  Bi2+  Bi113  1  0.66826729  -0.01913490  0.70729689  1
  Bi2+  Bi114  1  0.55479045  0.23854053  0.22372884  1
  Bi2+  Bi115  1  0.65915965  0.25684952  0.71164516  1
  Bi2+  Bi116  1  0.58657656  0.48853937  0.18967263  1
  Bi2+  Bi117  1  0.64172153  0.58510068  0.72317959  1
  Bi2+  Bi118  1  0.58828035  0.69661822  0.18896788  1
  Bi2+  Bi119  1  0.61033754  0.78568989  0.70121303  1
  Bi2+  Bi120  1  0.86021112  -0.05808317  0.20829877  1
  Bi2+  Bi121  1  0.86178315  0.03816259  0.71535192  1
  Bi2+  Bi122  1  0.84870578  0.22273117  0.21022333  1
  Bi2+  Bi123  1  0.86190227  0.28771007  0.70620218  1
  Bi2+  Bi124  1  0.92705163  0.49153092  0.18158916  1
  Bi2+  Bi125  1  0.90739646  0.51832197  0.74726630  1
  Bi2+  Bi126  1  0.87148017  0.64936532  0.25005685  1
  Bi2+  Bi127  1  0.85764414  0.74125708  0.69359894  1
  S2-  S128  1  -0.02526136  0.06761097  0.18249025  1
  S2-  S129  1  0.06702216  0.10527666  0.63802472  1
  S2-  S130  1  -0.02829142  0.26569373  0.14644305  1
  S2-  S131  1  -0.00487713  0.34896333  0.65234465  1
  S2-  S132  1  -0.07803005  0.66167014  0.15970610  1
  S2-  S133  1  -0.00674081  0.65288320  0.65434056  1
  S2-  S134  1  0.01681938  0.86646870  0.17118967  1
  S2-  S135  1  0.02610820  0.87785630  0.64685320  1
  S2-  S136  1  0.15916231  0.13589236  0.14737287  1
  S2-  S137  1  0.26078526  0.16458939  0.67980694  1
  S2-  S138  1  0.14702185  0.37676647  0.14687349  1
  S2-  S139  1  0.20539257  0.36075477  0.68552676  1
  S2-  S140  1  0.14495944  0.64753709  0.14595955  1
  S2-  S141  1  0.26643218  0.53318632  0.64557644  1
  S2-  S142  1  0.25338674  0.92518680  0.14824742  1
  S2-  S143  1  0.24882811  0.96785275  0.64326039  1
  S2-  S144  1  0.58007123  0.13245010  0.14210540  1
  S2-  S145  1  0.49703808  0.18899425  0.68611983  1
  S2-  S146  1  0.38892418  0.37847724  0.13894806  1
  S2-  S147  1  0.48993610  0.41434780  0.66253702  1
  S2-  S148  1  0.37967824  0.63882434  0.14149099  1
  S2-  S149  1  0.52847457  0.64127676  0.65244490  1
  S2-  S150  1  0.49459879  0.90746846  0.15766490  1
  S2-  S151  1  0.50256410  0.97520053  0.64998784  1
  S2-  S152  1  0.76642932  0.06589879  0.17946719  1
  S2-  S153  1  0.67653986  0.12614358  0.64620877  1
  S2-  S154  1  0.74852567  0.28519858  0.14062833  1
  S2-  S155  1  0.73056022  0.37412736  0.65373236  1
  S2-  S156  1  0.71171148  0.59820775  0.15207438  1
  S2-  S157  1  0.77168266  0.61699530  0.65361443  1
  S2-  S158  1  0.76262135  0.84412820  0.15639264  1
  S2-  S159  1  0.78835694  0.92500016  0.64066082  1
  S2-  S160  1  0.05932516  -0.03033957  0.33360560  1
  S2-  S161  1  0.11782242  0.05146010  0.83879693  1
  S2-  S162  1  0.09887995  0.19387879  0.32801504  1
  S2-  S163  1  0.21819747  0.25539459  0.85006282  1
  S2-  S164  1  0.14915598  0.40224087  0.35916161  1
  S2-  S165  1  0.12835416  0.48214760  0.84709553  1
  S2-  S166  1  0.11103653  0.72884958  0.33974797  1
  S2-  S167  1  0.10470485  0.82666924  0.85083978  1
  S2-  S168  1  0.27250356  0.00413903  0.36080466  1
  S2-  S169  1  0.37273965  0.08650436  0.84685555  1
  S2-  S170  1  0.30582800  0.24813751  0.36851662  1
  S2-  S171  1  0.37938429  0.24366371  0.78118485  1
  S2-  S172  1  0.36783209  0.48448319  0.34873978  1
  S2-  S173  1  0.36851288  0.41854441  0.84805158  1
  S2-  S174  1  0.35561434  0.74624245  0.34815726  1
  S2-  S175  1  0.37545558  0.86729099  0.85697091  1
  S2-  S176  1  0.61376826  0.01029837  0.33959004  1
  S2-  S177  1  0.59955218  0.00491284  0.84059517  1
  S2-  S178  1  0.64068936  0.23931743  0.34201510  1
  S2-  S179  1  0.55286922  0.24503189  0.84944949  1
  S2-  S180  1  0.61044887  0.45744869  0.34654011  1
  S2-  S181  1  0.62738268  0.48176339  0.84653307  1
  S2-  S182  1  0.63312176  0.75219621  0.34248191  1
  S2-  S183  1  0.57088821  0.74197229  0.85145554  1
  S2-  S184  1  0.84292654  -0.00512645  0.32651273  1
  S2-  S185  1  0.86232068  0.08938759  0.86998883  1
  S2-  S186  1  0.86871923  0.21781569  0.33430578  1
  S2-  S187  1  1.00494908  0.25755100  0.86085502  1
  S2-  S188  1  0.90537591  0.48674221  0.34347595  1
  S2-  S189  1  0.88618089  0.47577295  0.85123487  1
  S2-  S190  1  0.88861407  0.76727835  0.33118177  1
  S2-  S191  1  0.87678421  0.71189645  0.84682306  1
  S2-  S192  1  0.00755123  0.12855703  0.43982167  1
  S2-  S193  1  0.00558179  0.11832708  0.96612129  1
  S2-  S194  1  0.00390132  0.37091751  0.45008230  1
  S2-  S195  1  0.00408096  0.37630960  0.96227254  1
  S2-  S196  1  0.00333354  0.62570150  0.45074002  1
  S2-  S197  1  0.00289768  0.61677634  0.95947064  1
  S2-  S198  1  0.00472968  0.87513112  0.44470594  1
  S2-  S199  1  -0.00359900  0.87285558  0.95987638  1
  S2-  S200  1  0.25096398  0.12580115  0.46726508  1
  S2-  S201  1  0.24954741  0.11546107  0.95498546  1
  S2-  S202  1  0.25866762  0.38015506  0.47128564  1
  S2-  S203  1  0.25397528  0.37454380  0.95802754  1
  S2-  S204  1  0.25746282  0.62429600  0.45573374  1
  S2-  S205  1  0.25338608  0.62207425  0.95421283  1
  S2-  S206  1  0.25587535  0.87099693  0.45422011  1
  S2-  S207  1  0.25003884  0.86736236  0.95131916  1
  S2-  S208  1  0.50010834  0.12576610  0.45142647  1
  S2-  S209  1  0.50368213  0.12236678  0.95191308  1
  S2-  S210  1  0.50220190  0.37517060  0.45789725  1
  S2-  S211  1  0.50158727  0.37219985  0.95490458  1
  S2-  S212  1  0.50233171  0.62439427  0.44829463  1
  S2-  S213  1  0.50490667  0.61976626  0.95914327  1
  S2-  S214  1  0.49945960  0.87729373  0.45576361  1
  S2-  S215  1  0.50819339  0.87079137  0.95491708  1
  S2-  S216  1  0.75505197  0.12281841  0.45019800  1
  S2-  S217  1  0.74286500  0.12503870  0.96606892  1
  S2-  S218  1  0.75392243  0.37359153  0.44857842  1
  S2-  S219  1  0.75113315  0.37116722  0.95076266  1
  S2-  S220  1  0.75265852  0.62650136  0.44840841  1
  S2-  S221  1  0.75179718  0.61578206  0.95314270  1
  S2-  S222  1  0.75490159  0.87915253  0.44317610  1
  S2-  S223  1  0.75242403  0.87168915  0.95281506  1
  S2-  S224  1  0.12524573  -0.00663143  0.04531852  1
  S2-  S225  1  0.12733669  -0.00626317  0.53315184  1
  S2-  S226  1  0.13190267  0.24774347  0.04364940  1
  S2-  S227  1  0.13377053  0.25482568  0.54776057  1
  S2-  S228  1  0.13372314  0.49962949  0.04872133  1
  S2-  S229  1  0.12405146  0.50381189  0.54992814  1
  S2-  S230  1  0.12636503  0.75263571  0.04382324  1
  S2-  S231  1  0.12730736  0.75218290  0.54598738  1
  S2-  S232  1  0.38215749  -0.00336759  0.04265251  1
  S2-  S233  1  0.38105144  0.00268567  0.54687385  1
  S2-  S234  1  0.38142586  0.23959492  0.05006909  1
  S2-  S235  1  0.38143063  0.24850368  0.56501747  1
  S2-  S236  1  0.38064328  0.50136670  0.04124280  1
  S2-  S237  1  0.38638923  0.50272452  0.54950213  1
  S2-  S238  1  0.38102143  0.75123187  0.03811332  1
  S2-  S239  1  0.38048092  0.75193522  0.54889538  1
  S2-  S240  1  0.62948134  -0.00572345  0.04704149  1
  S2-  S241  1  0.62962564  -0.00242022  0.54356485  1
  S2-  S242  1  0.62014746  0.25520489  0.04254826  1
  S2-  S243  1  0.62814785  0.24756639  0.54610446  1
  S2-  S244  1  0.62742856  0.49338437  0.04803642  1
  S2-  S245  1  0.63159745  0.50181082  0.54853595  1
  S2-  S246  1  0.63121348  0.74634209  0.05000877  1
  S2-  S247  1  0.63167044  0.75612864  0.54666010  1
  S2-  S248  1  0.87322255  -0.00017647  0.05937072  1
  S2-  S249  1  0.88390304  0.00057823  0.53319257  1
  S2-  S250  1  0.87497116  0.24816144  0.04095161  1
  S2-  S251  1  0.87855509  0.24786004  0.54086913  1
  S2-  S252  1  0.87665506  0.49593135  0.05232367  1
  S2-  S253  1  0.87737333  0.50030590  0.54914806  1
  S2-  S254  1  0.87542770  0.74673258  0.05032903  1
  S2-  S255  1  0.87855432  0.75476304  0.53925642  1
