# generated using pymatgen
data_La6Ce6Pr19Nd20Sm13(BiS2)64
_symmetry_space_group_name_H-M   'P 1'
_cell_length_a   16.09229190
_cell_length_b   16.02491770
_cell_length_c   27.45096604
_cell_angle_alpha   89.77606083
_cell_angle_beta   90.14077520
_cell_angle_gamma   89.98050936
_symmetry_Int_Tables_number   1
_chemical_formula_structural   La6Ce6Pr19Nd20Sm13(BiS2)64
_chemical_formula_sum   'La6 Ce6 Pr19 Nd20 Sm13 Bi64 S128'
_cell_volume   7078.91483175
_cell_formula_units_Z   1
loop_
 _symmetry_equiv_pos_site_id
 _symmetry_equiv_pos_as_xyz
  1  'x, y, z'
loop_
 _atom_type_symbol
 _atom_type_oxidation_number
  La3+  3.0
  Ce3+  3.0
  Pr3+  3.0
  Nd3+  3.0
  Sm3+  3.0
  Bi2+  2.0
  S2-  -2.0
loop_
 _atom_site_type_symbol
 _atom_site_label
 _atom_site_symmetry_multiplicity
 _atom_site_fract_x
 _atom_site_fract_y
 _atom_site_fract_z
 _atom_site_occupancy
  La3+  La0  1  0.50021931  0.86573468  0.07179827  1
  La3+  La1  1  0.00201895  0.87855446  0.56297460  1
  La3+  La2  1  0.50103652  0.87370741  0.56981521  1
  La3+  La3  1  -0.00465240  0.61758151  0.10693178  1
  La3+  La4  1  0.76384273  0.13349419  0.61518897  1
  La3+  La5  1  0.39067599  0.50055016  0.40003732  1
  Ce3+  Ce6  1  0.87560869  0.50756342  0.42977582  1
  Ce3+  Ce7  1  0.87918138  0.49096480  0.93388809  1
  Ce3+  Ce8  1  0.50101738  0.61657368  0.07844559  1
  Ce3+  Ce9  1  0.50457276  0.37436581  0.56406046  1
  Ce3+  Ce10  1  0.00111718  0.37652022  0.55295524  1
  Ce3+  Ce11  1  0.61196325  -0.02388984  0.92337912  1
  Pr3+  Pr12  1  0.50028827  0.63130589  0.55996447  1
  Pr3+  Pr13  1  0.75568378  0.37743047  0.55895817  1
  Pr3+  Pr14  1  0.00279141  0.12229123  0.56466949  1
  Pr3+  Pr15  1  0.50274939  0.12232426  0.57543280  1
  Pr3+  Pr16  1  0.38107658  0.49346154  0.93756791  1
  Pr3+  Pr17  1  0.12721766  0.50879638  0.42257479  1
  Pr3+  Pr18  1  0.37309467  -0.01311010  0.93900627  1
  Pr3+  Pr19  1  0.13216647  0.25829210  0.43984981  1
  Pr3+  Pr20  1  0.86033910  -0.01143741  0.90402184  1
  Pr3+  Pr21  1  0.75088794  0.11234705  0.05723955  1
  Pr3+  Pr22  1  0.87694872  0.00804250  0.43512191  1
  Pr3+  Pr23  1  0.50729133  0.36097932  0.06205122  1
  Pr3+  Pr24  1  0.37753894  0.76151144  0.41723995  1
  Pr3+  Pr25  1  0.38837895  0.25450526  0.42812515  1
  Pr3+  Pr26  1  0.12899482  0.76147584  0.41644910  1
  Pr3+  Pr27  1  0.25284569  0.11163256  0.06417422  1
  Pr3+  Pr28  1  0.00520738  0.62886250  0.56042524  1
  Pr3+  Pr29  1  0.75390112  0.87614928  0.56452518  1
  Pr3+  Pr30  1  0.88254393  0.73412026  0.91733389  1
  Nd3+  Nd31  1  0.25560976  0.62645684  0.54061614  1
  Nd3+  Nd32  1  0.25572386  0.12772848  0.55634165  1
  Nd3+  Nd33  1  0.00096806  0.11163974  0.04995174  1
  Nd3+  Nd34  1  0.62254950  0.76272424  0.42928890  1
  Nd3+  Nd35  1  0.25568208  0.37847584  0.55386655  1
  Nd3+  Nd36  1  0.37392358  0.73404640  0.94493185  1
  Nd3+  Nd37  1  0.62970248  0.00596546  0.44914038  1
  Nd3+  Nd38  1  0.87898125  0.75560072  0.43007617  1
  Nd3+  Nd39  1  0.24374524  0.84678545  0.06813528  1
  Nd3+  Nd40  1  0.75520959  0.86290529  0.05249260  1
  Nd3+  Nd41  1  0.50821754  0.10988413  0.06267631  1
  Nd3+  Nd42  1  0.62681832  0.23550350  0.92593404  1
  Nd3+  Nd43  1  0.26168693  0.35518439  0.07528189  1
  Nd3+  Nd44  1  0.75451471  0.36580290  0.05179762  1
  Nd3+  Nd45  1  0.12253274  0.73340578  0.94142531  1
  Nd3+  Nd46  1  0.13025510  0.48848474  0.94950666  1
  Nd3+  Nd47  1  0.37827474  0.24394244  0.93177575  1
  Nd3+  Nd48  1  0.38127435  0.00604702  0.43582577  1
  Nd3+  Nd49  1  0.25750350  0.59822607  0.07986630  1
  Nd3+  Nd50  1  0.00264602  0.36826498  0.06418120  1
  Sm3+  Sm51  1  0.62404246  0.73956050  0.94736903  1
  Sm3+  Sm52  1  0.75783809  0.61594672  0.05324559  1
  Sm3+  Sm53  1  0.75389945  0.63272203  0.55694432  1
  Sm3+  Sm54  1  0.88007918  0.24107651  0.93912701  1
  Sm3+  Sm55  1  0.12811995  0.24015303  0.94613601  1
  Sm3+  Sm56  1  0.25335564  0.87608044  0.54862761  1
  Sm3+  Sm57  1  0.62370525  0.50789589  0.44770938  1
  Sm3+  Sm58  1  0.12681149  0.01515896  0.43000130  1
  Sm3+  Sm59  1  0.62539608  0.48983875  0.94641911  1
  Sm3+  Sm60  1  0.62631007  0.25535993  0.44727866  1
  Sm3+  Sm61  1  0.87627242  0.25527191  0.43104088  1
  Sm3+  Sm62  1  0.12466152  -0.01262831  0.94630255  1
  Sm3+  Sm63  1  -0.00256910  0.85886026  0.05225821  1
  Bi2+  Bi64  1  0.00869266  0.08950043  0.29816291  1
  Bi2+  Bi65  1  0.04524398  0.20237646  0.79444773  1
  Bi2+  Bi66  1  -0.04764863  0.27551987  0.24719032  1
  Bi2+  Bi67  1  0.03835325  0.47776693  0.77661500  1
  Bi2+  Bi68  1  -0.03409116  0.56489182  0.28657622  1
  Bi2+  Bi69  1  -0.03961293  0.64833445  0.72482919  1
  Bi2+  Bi70  1  -0.01177271  0.82555091  0.29627819  1
  Bi2+  Bi71  1  0.00132629  0.87476915  0.80054750  1
  Bi2+  Bi72  1  0.34489675  0.12616173  0.31941974  1
  Bi2+  Bi73  1  0.27427770  0.17073781  0.81108265  1
  Bi2+  Bi74  1  0.22119416  0.29359815  0.30625952  1
  Bi2+  Bi75  1  0.26726731  0.38444748  0.77793192  1
  Bi2+  Bi76  1  0.20290373  0.62989528  0.28060376  1
  Bi2+  Bi77  1  0.23018309  0.66850572  0.81657022  1
  Bi2+  Bi78  1  0.24306869  0.95893252  0.29158143  1
  Bi2+  Bi79  1  0.26843206  0.87875803  0.80294790  1
  Bi2+  Bi80  1  0.54092855  0.11163922  0.29573924  1
  Bi2+  Bi81  1  0.45670494  0.11165427  0.77887577  1
  Bi2+  Bi82  1  0.57577019  0.37835109  0.28584248  1
  Bi2+  Bi83  1  0.51005089  0.37075214  0.80850371  1
  Bi2+  Bi84  1  0.50703019  0.62284410  0.28004886  1
  Bi2+  Bi85  1  0.49542121  0.63026356  0.78898710  1
  Bi2+  Bi86  1  0.50996054  0.89282016  0.29041364  1
  Bi2+  Bi87  1  0.45943385  0.83899019  0.80059074  1
  Bi2+  Bi88  1  0.75024713  0.08508888  0.28539792  1
  Bi2+  Bi89  1  0.79249055  0.17472216  0.81100591  1
  Bi2+  Bi90  1  0.77003019  0.34194523  0.29236531  1
  Bi2+  Bi91  1  0.75754643  0.45294809  0.79464698  1
  Bi2+  Bi92  1  0.72321411  0.62028933  0.28607447  1
  Bi2+  Bi93  1  0.76394550  0.65044685  0.78045160  1
  Bi2+  Bi94  1  0.74018355  0.87804803  0.28896187  1
  Bi2+  Bi95  1  0.69725212  0.88656993  0.78392905  1
  Bi2+  Bi96  1  0.11276764  0.00331986  0.20832977  1
  Bi2+  Bi97  1  0.16316606  0.04927485  0.75670072  1
  Bi2+  Bi98  1  0.13416467  0.20432381  0.21344883  1
  Bi2+  Bi99  1  0.11180251  0.32391886  0.71079488  1
  Bi2+  Bi100  1  0.09172063  0.41144536  0.22272617  1
  Bi2+  Bi101  1  0.13948851  0.57093065  0.69547969  1
  Bi2+  Bi102  1  0.10119230  0.80117414  0.20934435  1
  Bi2+  Bi103  1  0.13129930  0.77098490  0.74064582  1
  Bi2+  Bi104  1  0.38165184  0.02667621  0.21665321  1
  Bi2+  Bi105  1  0.35418377  -0.00888800  0.70664780  1
  Bi2+  Bi106  1  0.39460271  0.22034463  0.21713837  1
  Bi2+  Bi107  1  0.36000399  0.25810835  0.70625830  1
  Bi2+  Bi108  1  0.35600029  0.45998525  0.21300408  1
  Bi2+  Bi109  1  0.33696945  0.55465911  0.73316932  1
  Bi2+  Bi110  1  0.34950955  0.77393632  0.20725771  1
  Bi2+  Bi111  1  0.35939921  0.75082656  0.69954249  1
  Bi2+  Bi112  1  0.63716865  0.00457920  0.19944811  1
  Bi2+  Bi113  1  0.60894977  0.02546600  0.72481792  1
  Bi2+  Bi114  1  0.66000053  0.24886470  0.21262792  1
  Bi2+  Bi115  1  0.62307462  0.29598686  0.71223951  1
  Bi2+  Bi116  1  0.60686894  0.52479573  0.20289478  1
  Bi2+  Bi117  1  0.62313295  0.52831110  0.71735725  1
  Bi2+  Bi118  1  0.63768571  0.74338378  0.20924691  1
  Bi2+  Bi119  1  0.62507604  0.74139769  0.71468989  1
  Bi2+  Bi120  1  0.90366023  -0.03361229  0.22618453  1
  Bi2+  Bi121  1  0.93472448  0.05292178  0.71015540  1
  Bi2+  Bi122  1  0.85040340  0.14557170  0.18749217  1
  Bi2+  Bi123  1  0.88195356  0.37560667  0.71980089  1
  Bi2+  Bi124  1  0.80059322  0.48726905  0.21318695  1
  Bi2+  Bi125  1  0.80816930  0.54291722  0.67600729  1
  Bi2+  Bi126  1  0.83850776  0.75522994  0.20823215  1
  Bi2+  Bi127  1  0.86567013  0.82820448  0.68925799  1
  S2-  S128  1  0.01489787  0.12126670  0.14731385  1
  S2-  S129  1  -0.07097478  0.17723602  0.65030838  1
  S2-  S130  1  -0.01522167  0.44792477  0.15095421  1
  S2-  S131  1  0.00390296  0.41694244  0.64717862  1
  S2-  S132  1  0.04874023  0.62420907  0.21149747  1
  S2-  S133  1  -0.00282202  0.74924562  0.63569618  1
  S2-  S134  1  -0.02550536  0.79078227  0.14140595  1
  S2-  S135  1  0.02825407  0.99246747  0.64122494  1
  S2-  S136  1  0.26358194  0.21786019  0.14434385  1
  S2-  S137  1  0.29685207  0.12879821  0.65266460  1
  S2-  S138  1  0.22652199  0.45736891  0.15587241  1
  S2-  S139  1  0.25148838  0.36361388  0.65338436  1
  S2-  S140  1  0.22526971  0.72049269  0.14979013  1
  S2-  S141  1  0.26605969  0.63704195  0.64096491  1
  S2-  S142  1  0.30371208  0.90432162  0.15635623  1
  S2-  S143  1  0.27851022  0.87235286  0.64693553  1
  S2-  S144  1  0.50110877  -0.00582324  0.14196816  1
  S2-  S145  1  0.60032089  0.15691539  0.65806558  1
  S2-  S146  1  0.44370424  0.34441859  0.15544565  1
  S2-  S147  1  0.49502644  0.35651024  0.66215241  1
  S2-  S148  1  0.39243437  0.57797367  0.15237978  1
  S2-  S149  1  0.49840663  0.74015615  0.64012168  1
  S2-  S150  1  0.49229634  0.75630343  0.15156760  1
  S2-  S151  1  0.50129604  0.98033409  0.65195229  1
  S2-  S152  1  0.63815178  0.13837059  0.13377385  1
  S2-  S153  1  0.77015459  0.12128716  0.72384323  1
  S2-  S154  1  0.73854586  0.36194262  0.14986464  1
  S2-  S155  1  0.75825220  0.31003939  0.65198181  1
  S2-  S156  1  0.82961949  0.62240829  0.14253825  1
  S2-  S157  1  0.74616791  0.74125625  0.63646606  1
  S2-  S158  1  0.72631074  0.87279931  0.15115296  1
  S2-  S159  1  0.78278025  0.95937245  0.65417753  1
  S2-  S160  1  0.11313089  -0.09129267  0.35218832  1
  S2-  S161  1  0.13546847  -0.02744266  0.84940723  1
  S2-  S162  1  0.12526523  0.15643277  0.35783292  1
  S2-  S163  1  0.15276000  0.28455303  0.85315840  1
  S2-  S164  1  0.13300175  0.42992347  0.32847247  1
  S2-  S165  1  0.14417835  0.52925142  0.85168241  1
  S2-  S166  1  0.08146639  0.63190111  0.34812028  1
  S2-  S167  1  0.03312387  0.74410044  0.85500161  1
  S2-  S168  1  0.38509462  -0.09035943  0.35199946  1
  S2-  S169  1  0.47245955  -0.01501133  0.85650667  1
  S2-  S170  1  0.36539777  0.35259298  0.34472093  1
  S2-  S171  1  0.49658429  0.21814836  0.85671361  1
  S2-  S172  1  0.34323872  0.55355562  0.30389526  1
  S2-  S173  1  0.36387271  0.37993858  0.86099845  1
  S2-  S174  1  0.25403069  0.74210732  0.33897596  1
  S2-  S175  1  0.37674359  0.62574889  0.86636558  1
  S2-  S176  1  0.62840955  -0.08969498  0.36345825  1
  S2-  S177  1  0.70777376  0.03095805  0.84855061  1
  S2-  S178  1  0.55279800  0.24597755  0.35777316  1
  S2-  S179  1  0.67420752  0.30563282  0.83151319  1
  S2-  S180  1  0.55698485  0.49821416  0.35635103  1
  S2-  S181  1  0.55627206  0.50627614  0.85759952  1
  S2-  S182  1  0.51126172  0.73565479  0.34978799  1
  S2-  S183  1  0.60369383  0.81249606  0.85858982  1
  S2-  S184  1  0.87105407  -0.11560899  0.35885742  1
  S2-  S185  1  0.92335927  0.06129242  0.81855412  1
  S2-  S186  1  0.87635113  0.13157718  0.35686478  1
  S2-  S187  1  0.91451734  0.28544266  0.84599432  1
  S2-  S188  1  0.88598328  0.38402727  0.35931089  1
  S2-  S189  1  0.86655479  0.58449453  0.85206419  1
  S2-  S190  1  0.85891920  0.63066851  0.35569375  1
  S2-  S191  1  0.84864679  0.84916752  0.84042843  1
  S2-  S192  1  0.00395415  0.13397987  0.45794198  1
  S2-  S193  1  0.00249201  0.11417684  0.94524978  1
  S2-  S194  1  0.00701396  0.38109908  0.45034308  1
  S2-  S195  1  0.00391531  0.36366964  0.95687648  1
  S2-  S196  1  0.00402513  0.63048695  0.45526534  1
  S2-  S197  1  0.00269474  0.60859233  0.95205806  1
  S2-  S198  1  0.00593817  0.88282150  0.45555829  1
  S2-  S199  1  -0.00450989  0.87348971  0.95043166  1
  S2-  S200  1  0.25883771  0.13191751  0.45245914  1
  S2-  S201  1  0.24896879  0.11399874  0.95631577  1
  S2-  S202  1  0.25869696  0.38407366  0.44934368  1
  S2-  S203  1  0.25146527  0.36085397  0.96645306  1
  S2-  S204  1  0.26323226  0.62107462  0.43821546  1
  S2-  S205  1  0.24914986  0.61338880  0.96768048  1
  S2-  S206  1  0.25119068  0.88593946  0.44796974  1
  S2-  S207  1  0.24713859  0.86003130  0.95753798  1
  S2-  S208  1  0.50426469  0.12784569  0.46212593  1
  S2-  S209  1  0.50059712  0.11044515  0.95801703  1
  S2-  S210  1  0.50214959  0.38260445  0.45914745  1
  S2-  S211  1  0.50730594  0.36382636  0.95687993  1
  S2-  S212  1  0.49791519  0.62684965  0.45479563  1
  S2-  S213  1  0.50651460  0.61597622  0.96803273  1
  S2-  S214  1  0.50122746  0.88190901  0.46114123  1
  S2-  S215  1  0.49370615  0.85741681  0.96379607  1
  S2-  S216  1  0.74655572  0.13514394  0.44697938  1
  S2-  S217  1  0.75870825  0.11815635  0.95127414  1
  S2-  S218  1  0.74549349  0.38199644  0.45252854  1
  S2-  S219  1  0.75314925  0.36617274  0.94722514  1
  S2-  S220  1  0.74384993  0.63209795  0.45400215  1
  S2-  S221  1  0.74593516  0.61555604  0.94998279  1
  S2-  S222  1  0.75317537  0.87796498  0.45895779  1
  S2-  S223  1  0.75030316  0.86313331  0.94932998  1
  S2-  S224  1  0.12551654  -0.01633867  0.05061798  1
  S2-  S225  1  0.13535524  0.00365557  0.53577768  1
  S2-  S226  1  0.12479848  0.23989739  0.04910608  1
  S2-  S227  1  0.12930024  0.25232212  0.54753461  1
  S2-  S228  1  0.12181522  0.49335859  0.05359851  1
  S2-  S229  1  0.12904085  0.50227835  0.53827913  1
  S2-  S230  1  0.11408769  0.73078109  0.04634968  1
  S2-  S231  1  0.13284934  0.75255174  0.53481455  1
  S2-  S232  1  0.36930411  -0.01453999  0.04412869  1
  S2-  S233  1  0.37638768  0.00219785  0.54274027  1
  S2-  S234  1  0.38374086  0.23284896  0.04129952  1
  S2-  S235  1  0.38116721  0.25181885  0.54413528  1
  S2-  S236  1  0.38112789  0.48147401  0.04478526  1
  S2-  S237  1  0.38013663  0.50152566  0.55494235  1
  S2-  S238  1  0.37267869  0.73336105  0.04872785  1
  S2-  S239  1  0.37444176  0.75414270  0.53313012  1
  S2-  S240  1  0.63041416  -0.01471485  0.03495112  1
  S2-  S241  1  0.63174735  0.00538337  0.55206267  1
  S2-  S242  1  0.63097367  0.24217042  0.03275354  1
  S2-  S243  1  0.62973482  0.25120660  0.54891841  1
  S2-  S244  1  0.62995267  0.49226333  0.05078569  1
  S2-  S245  1  0.62882529  0.50625098  0.55256305  1
  S2-  S246  1  0.63135783  0.73684343  0.05022633  1
  S2-  S247  1  0.62708096  0.75167935  0.53597116  1
  S2-  S248  1  0.87843364  -0.01195087  0.05163905  1
  S2-  S249  1  0.87318089  0.00787145  0.54240174  1
  S2-  S250  1  0.87873994  0.24016713  0.04468812  1
  S2-  S251  1  0.87710064  0.25448371  0.53678874  1
  S2-  S252  1  0.87786582  0.49083798  0.04072084  1
  S2-  S253  1  0.87679494  0.50705680  0.53916928  1
  S2-  S254  1  0.87623184  0.73789485  0.03335277  1
  S2-  S255  1  0.87753884  0.74951304  0.53513672  1
