# generated using pymatgen
data_La6Ce6Pr19Nd20Sm13(BiS2)64
_symmetry_space_group_name_H-M   'P 1'
_cell_length_a   16.03148298
_cell_length_b   16.08899501
_cell_length_c   27.36250699
_cell_angle_alpha   89.84417199
_cell_angle_beta   89.62505863
_cell_angle_gamma   90.05160722
_symmetry_Int_Tables_number   1
_chemical_formula_structural   La6Ce6Pr19Nd20Sm13(BiS2)64
_chemical_formula_sum   'La6 Ce6 Pr19 Nd20 Sm13 Bi64 S128'
_cell_volume   7057.44353707
_cell_formula_units_Z   1
loop_
 _symmetry_equiv_pos_site_id
 _symmetry_equiv_pos_as_xyz
  1  'x, y, z'
loop_
 _atom_type_symbol
 _atom_type_oxidation_number
  La3+  3.0
  Ce3+  3.0
  Pr3+  3.0
  Nd3+  3.0
  Sm3+  3.0
  Bi2+  2.0
  S2-  -2.0
loop_
 _atom_site_type_symbol
 _atom_site_label
 _atom_site_symmetry_multiplicity
 _atom_site_fract_x
 _atom_site_fract_y
 _atom_site_fract_z
 _atom_site_occupancy
  La3+  La0  1  0.25207485  0.11923591  0.60322768  1
  La3+  La1  1  0.76820201  0.87632630  0.11550302  1
  La3+  La2  1  0.87253923  0.74544623  0.42959972  1
  La3+  La3  1  0.38307016  0.49347609  0.42824146  1
  La3+  La4  1  0.51287914  0.12056261  0.60238512  1
  La3+  La5  1  0.62579431  0.00777840  0.40156407  1
  Ce3+  Ce6  1  0.13355958  0.24543051  0.44408386  1
  Ce3+  Ce7  1  0.12921590  0.75910768  0.92159575  1
  Ce3+  Ce8  1  0.13269712  0.49676514  0.43207576  1
  Ce3+  Ce9  1  0.24650360  0.14079913  0.05856846  1
  Ce3+  Ce10  1  0.62665526  0.74852783  0.43837768  1
  Ce3+  Ce11  1  0.86754567  0.01551209  0.94380635  1
  Pr3+  Pr12  1  0.48450054  0.63574176  0.06376782  1
  Pr3+  Pr13  1  0.38393263  0.24053897  0.44948889  1
  Pr3+  Pr14  1  0.88417803  0.49536329  0.42810048  1
  Pr3+  Pr15  1  0.61897116  0.76589924  0.93604789  1
  Pr3+  Pr16  1  0.13209587  -0.00522565  0.42968260  1
  Pr3+  Pr17  1  0.73391370  0.13930455  0.08422481  1
  Pr3+  Pr18  1  0.63225954  0.49885611  0.43233798  1
  Pr3+  Pr19  1  -0.00851858  0.13719383  0.05986709  1
  Pr3+  Pr20  1  0.50330231  0.37128407  0.56238736  1
  Pr3+  Pr21  1  0.38464881  -0.00165204  0.45245228  1
  Pr3+  Pr22  1  0.75847229  0.11904687  0.56538582  1
  Pr3+  Pr23  1  0.88264914  0.24350918  0.44465193  1
  Pr3+  Pr24  1  0.24765035  0.88778774  0.06079520  1
  Pr3+  Pr25  1  0.62089020  0.01477154  0.94764453  1
  Pr3+  Pr26  1  0.73832575  0.38497267  0.07299781  1
  Pr3+  Pr27  1  0.12055208  0.01526128  0.93819950  1
  Pr3+  Pr28  1  0.49846447  0.88723148  0.06744723  1
  Pr3+  Pr29  1  0.75913983  0.62261655  0.56698822  1
  Pr3+  Pr30  1  0.50829093  0.87330260  0.57206026  1
  Nd3+  Nd31  1  0.25625774  0.37183575  0.56593419  1
  Nd3+  Nd32  1  0.11709381  0.51606343  0.92785503  1
  Nd3+  Nd33  1  -0.00785955  0.38842411  0.05922496  1
  Nd3+  Nd34  1  0.86719010  0.51175015  0.94328145  1
  Nd3+  Nd35  1  0.75628901  0.37154883  0.55751890  1
  Nd3+  Nd36  1  0.00961784  0.37212498  0.56084992  1
  Nd3+  Nd37  1  -0.01097776  0.64265838  0.05217980  1
  Nd3+  Nd38  1  -0.00923477  0.88581284  0.04488616  1
  Nd3+  Nd39  1  0.24246998  0.63818070  0.05512524  1
  Nd3+  Nd40  1  0.36644188  0.26584875  0.92995791  1
  Nd3+  Nd41  1  0.00990521  0.11598852  0.56624855  1
  Nd3+  Nd42  1  0.25684941  0.86826912  0.56559398  1
  Nd3+  Nd43  1  0.37524051  0.76794331  0.92871581  1
  Nd3+  Nd44  1  0.38557046  0.74783642  0.44006150  1
  Nd3+  Nd45  1  0.61804557  0.26394349  0.94565449  1
  Nd3+  Nd46  1  0.37252752  0.51127320  0.92431026  1
  Nd3+  Nd47  1  0.10977212  0.26902427  0.90105973  1
  Nd3+  Nd48  1  0.25796379  0.62240945  0.56449810  1
  Nd3+  Nd49  1  0.75484235  0.87599875  0.55390486  1
  Nd3+  Nd50  1  0.51231512  0.62391173  0.57193268  1
  Sm3+  Sm51  1  0.47873708  0.38741903  0.06229346  1
  Sm3+  Sm52  1  0.00201827  0.62109971  0.55827827  1
  Sm3+  Sm53  1  0.00750130  0.87446862  0.55193572  1
  Sm3+  Sm54  1  0.86117734  0.76460990  0.93277280  1
  Sm3+  Sm55  1  0.63192929  0.24206801  0.44566335  1
  Sm3+  Sm56  1  0.73069932  0.63823157  0.06579133  1
  Sm3+  Sm57  1  0.88471260  -0.00061649  0.43048984  1
  Sm3+  Sm58  1  0.48635151  0.13847663  0.06668109  1
  Sm3+  Sm59  1  0.23839104  0.38892624  0.04881998  1
  Sm3+  Sm60  1  0.13228145  0.74511809  0.44269450  1
  Sm3+  Sm61  1  0.37092035  0.01933496  0.93125992  1
  Sm3+  Sm62  1  0.86861507  0.26508835  0.94134742  1
  Sm3+  Sm63  1  0.61897375  0.51243980  0.94791619  1
  Bi2+  Bi64  1  0.02608985  0.14445318  0.29452398  1
  Bi2+  Bi65  1  -0.03805982  0.11867382  0.78105231  1
  Bi2+  Bi66  1  0.06091568  0.38622614  0.28384055  1
  Bi2+  Bi67  1  -0.02727972  0.39208756  0.79406951  1
  Bi2+  Bi68  1  -0.11821874  0.54950344  0.28509981  1
  Bi2+  Bi69  1  -0.02171238  0.63748114  0.78463076  1
  Bi2+  Bi70  1  0.06204162  0.86342522  0.29440933  1
  Bi2+  Bi71  1  -0.03840787  0.83639559  0.77909266  1
  Bi2+  Bi72  1  0.21496956  0.07373625  0.30161802  1
  Bi2+  Bi73  1  0.26548077  0.07469342  0.79765790  1
  Bi2+  Bi74  1  0.22280339  0.33509389  0.22520328  1
  Bi2+  Bi75  1  0.29547192  0.44054692  0.76221678  1
  Bi2+  Bi76  1  0.23035371  0.60812248  0.28541472  1
  Bi2+  Bi77  1  0.28245027  0.61491138  0.80806094  1
  Bi2+  Bi78  1  0.26569662  0.87908700  0.30183201  1
  Bi2+  Bi79  1  0.16133799  0.84077060  0.77882636  1
  Bi2+  Bi80  1  0.40130603  0.14114610  0.29082038  1
  Bi2+  Bi81  1  0.55057519  0.11640367  0.82630486  1
  Bi2+  Bi82  1  0.40143699  0.41357921  0.29163781  1
  Bi2+  Bi83  1  0.52400020  0.38004979  0.80176623  1
  Bi2+  Bi84  1  0.42933439  0.63526871  0.29732277  1
  Bi2+  Bi85  1  0.48491954  0.61677136  0.79487355  1
  Bi2+  Bi86  1  0.46706917  0.88280506  0.29742143  1
  Bi2+  Bi87  1  0.50503901  0.88170105  0.78491072  1
  Bi2+  Bi88  1  0.75730593  0.15201235  0.28719785  1
  Bi2+  Bi89  1  0.76734305  0.15797493  0.79228265  1
  Bi2+  Bi90  1  0.80600167  0.36186665  0.30000799  1
  Bi2+  Bi91  1  0.78396080  0.44297929  0.74740441  1
  Bi2+  Bi92  1  0.71880607  0.63836176  0.23965826  1
  Bi2+  Bi93  1  0.77599527  0.62333145  0.78542352  1
  Bi2+  Bi94  1  0.79701522  0.85471233  0.31814137  1
  Bi2+  Bi95  1  0.77184804  0.88337959  0.80110455  1
  Bi2+  Bi96  1  0.16061393  -0.04087678  0.20353193  1
  Bi2+  Bi97  1  0.08841298  -0.01605705  0.71069323  1
  Bi2+  Bi98  1  0.14167789  0.16045052  0.19984050  1
  Bi2+  Bi99  1  0.12915873  0.25722564  0.72084599  1
  Bi2+  Bi100  1  0.13307922  0.51041756  0.20207284  1
  Bi2+  Bi101  1  0.17124844  0.51772300  0.68120715  1
  Bi2+  Bi102  1  0.14682410  0.71308388  0.19745012  1
  Bi2+  Bi103  1  0.11138206  0.70182234  0.70222790  1
  Bi2+  Bi104  1  0.35867242  0.01076123  0.20682147  1
  Bi2+  Bi105  1  0.36850084  -0.06374901  0.71047848  1
  Bi2+  Bi106  1  0.46883300  0.23609200  0.20183040  1
  Bi2+  Bi107  1  0.38007893  0.26070317  0.72404556  1
  Bi2+  Bi108  1  0.41109169  0.49437226  0.19058516  1
  Bi2+  Bi109  1  0.37303784  0.50987875  0.65978160  1
  Bi2+  Bi110  1  0.33717993  0.75206278  0.20661746  1
  Bi2+  Bi111  1  0.36735842  0.70081684  0.71427296  1
  Bi2+  Bi112  1  0.61044742  0.00836688  0.21211561  1
  Bi2+  Bi113  1  0.71629288  0.00745507  0.72086870  1
  Bi2+  Bi114  1  0.61967332  0.29621548  0.27846367  1
  Bi2+  Bi115  1  0.63551335  0.26440345  0.71065247  1
  Bi2+  Bi116  1  0.61281436  0.47666267  0.22913902  1
  Bi2+  Bi117  1  0.55014886  0.49777031  0.71144620  1
  Bi2+  Bi118  1  0.54509900  0.73127706  0.21972725  1
  Bi2+  Bi119  1  0.63296501  0.73194418  0.70727677  1
  Bi2+  Bi120  1  0.90814351  0.00179242  0.21237610  1
  Bi2+  Bi121  1  0.88874115  0.05878010  0.67687717  1
  Bi2+  Bi122  1  0.90018356  0.29140306  0.20169836  1
  Bi2+  Bi123  1  0.87278625  0.25121802  0.70863215  1
  Bi2+  Bi124  1  0.80047979  0.46872590  0.19114013  1
  Bi2+  Bi125  1  0.97380630  0.50560362  0.69216604  1
  Bi2+  Bi126  1  0.92623747  0.74721647  0.20705819  1
  Bi2+  Bi127  1  0.83356313  0.75354106  0.70309985  1
  S2-  S128  1  -0.03072046  0.13800521  0.16000239  1
  S2-  S129  1  0.09676303  0.13030551  0.65341620  1
  S2-  S130  1  0.02454042  0.39295433  0.15647313  1
  S2-  S131  1  0.00599165  0.33424660  0.65912321  1
  S2-  S132  1  0.00935152  0.63289750  0.15058751  1
  S2-  S133  1  -0.10890078  0.62382274  0.63628015  1
  S2-  S134  1  -0.04844985  0.88006313  0.14181398  1
  S2-  S135  1  -0.01952727  0.91146905  0.64648535  1
  S2-  S136  1  0.35485240  0.14472173  0.13685403  1
  S2-  S137  1  0.33110098  0.10972484  0.69764793  1
  S2-  S138  1  0.31480999  0.38317678  0.13718574  1
  S2-  S139  1  0.24765409  0.28660671  0.65494832  1
  S2-  S140  1  0.34928002  0.62410566  0.13449162  1
  S2-  S141  1  0.25305510  0.73895166  0.64062356  1
  S2-  S142  1  0.36489525  0.88354525  0.13713228  1
  S2-  S143  1  0.22736895  0.95398314  0.65095077  1
  S2-  S144  1  0.58235054  0.13572768  0.15198579  1
  S2-  S145  1  0.51368505  0.15137684  0.73888959  1
  S2-  S146  1  0.54328056  0.37673597  0.15311443  1
  S2-  S147  1  0.49943259  0.28406633  0.65004725  1
  S2-  S148  1  0.58879689  0.63163816  0.14627636  1
  S2-  S149  1  0.49653189  0.74740014  0.64724047  1
  S2-  S150  1  0.60024855  0.87911570  0.15375636  1
  S2-  S151  1  0.50133175  0.97030188  0.65978961  1
  S2-  S152  1  0.76820058  0.03582938  0.16514693  1
  S2-  S153  1  0.66993108  0.13350898  0.65318278  1
  S2-  S154  1  0.76013323  0.27446376  0.15085164  1
  S2-  S155  1  0.74765313  0.36987587  0.65643466  1
  S2-  S156  1  0.79281674  0.70471149  0.14818877  1
  S2-  S157  1  0.64338577  0.59905222  0.64456878  1
  S2-  S158  1  0.80007468  0.86504990  0.22232035  1
  S2-  S159  1  0.72169014  0.86197451  0.65293041  1
  S2-  S160  1  0.00969646  -0.00113882  0.35504009  1
  S2-  S161  1  0.13917145  -0.00887553  0.83929083  1
  S2-  S162  1  0.11949608  0.26538586  0.34654021  1
  S2-  S163  1  0.18316208  0.21432751  0.81224467  1
  S2-  S164  1  0.01329196  0.50374652  0.35449509  1
  S2-  S165  1  0.11011618  0.41492901  0.84514829  1
  S2-  S166  1  0.17520439  0.74598608  0.34746666  1
  S2-  S167  1  0.10991095  0.63316425  0.85121456  1
  S2-  S168  1  0.45536779  0.01419970  0.35929681  1
  S2-  S169  1  0.38426029  -0.05257254  0.83650606  1
  S2-  S170  1  0.38153691  0.28671824  0.35152337  1
  S2-  S171  1  0.38525212  0.14689593  0.85791236  1
  S2-  S172  1  0.25169255  0.49180194  0.35771398  1
  S2-  S173  1  0.37547554  0.38484947  0.85277610  1
  S2-  S174  1  0.50143609  0.75067682  0.36399808  1
  S2-  S175  1  0.25990671  0.77484837  0.85315700  1
  S2-  S176  1  0.62757296  -0.07624052  0.30672879  1
  S2-  S177  1  0.62310509  -0.03732355  0.84918841  1
  S2-  S178  1  0.62608754  0.17326929  0.35431947  1
  S2-  S179  1  0.64606418  0.26422259  0.84602009  1
  S2-  S180  1  0.50991351  0.50879079  0.35580190  1
  S2-  S181  1  0.59179991  0.50993230  0.85101394  1
  S2-  S182  1  0.73073223  0.72539775  0.36033114  1
  S2-  S183  1  0.50470086  0.76066313  0.85711804  1
  S2-  S184  1  0.78823263  0.02608539  0.34910480  1
  S2-  S185  1  0.86329781  0.02169914  0.84590531  1
  S2-  S186  1  0.88837175  0.21855773  0.34516305  1
  S2-  S187  1  0.95256180  0.25347459  0.85409772  1
  S2-  S188  1  0.75766021  0.49953088  0.35657090  1
  S2-  S189  1  0.83903461  0.47040709  0.84895409  1
  S2-  S190  1  0.94610819  0.76323047  0.33400351  1
  S2-  S191  1  0.74271702  0.74419628  0.85913273  1
  S2-  S192  1  0.00862439  0.12019532  0.45861508  1
  S2-  S193  1  -0.00411651  0.14187728  0.95369966  1
  S2-  S194  1  0.00754819  0.36957042  0.45525113  1
  S2-  S195  1  -0.00657091  0.38778629  0.95419886  1
  S2-  S196  1  0.00674453  0.62530526  0.45468325  1
  S2-  S197  1  -0.01367993  0.64164108  0.94759648  1
  S2-  S198  1  0.00687324  0.86747775  0.45023763  1
  S2-  S199  1  -0.00631298  0.88335244  0.93959716  1
  S2-  S200  1  0.25591962  0.11948433  0.44317607  1
  S2-  S201  1  0.23473547  0.14744790  0.95081708  1
  S2-  S202  1  0.25679830  0.36866952  0.46051989  1
  S2-  S203  1  0.23660991  0.38700035  0.94677866  1
  S2-  S204  1  0.25850492  0.62639261  0.45768082  1
  S2-  S205  1  0.24912620  0.63409359  0.95108124  1
  S2-  S206  1  0.25656887  0.86980552  0.45598183  1
  S2-  S207  1  0.24707946  0.89432490  0.95403035  1
  S2-  S208  1  0.51216541  0.12060324  0.46080946  1
  S2-  S209  1  0.49409846  0.14080824  0.96065018  1
  S2-  S210  1  0.51047668  0.36689062  0.45597598  1
  S2-  S211  1  0.49527088  0.38890735  0.95669835  1
  S2-  S212  1  0.50561887  0.62080828  0.46390116  1
  S2-  S213  1  0.49363555  0.63186619  0.95522580  1
  S2-  S214  1  0.51001190  0.87736043  0.46256321  1
  S2-  S215  1  0.49107068  0.89518568  0.95847927  1
  S2-  S216  1  0.75619185  0.12020181  0.45907165  1
  S2-  S217  1  0.74643351  0.14279027  0.95485765  1
  S2-  S218  1  0.75571942  0.36642149  0.45277509  1
  S2-  S219  1  0.74335184  0.38710472  0.96130090  1
  S2-  S220  1  0.75664980  0.61795645  0.46185379  1
  S2-  S221  1  0.74257232  0.63325680  0.96037698  1
  S2-  S222  1  0.75152797  0.88302882  0.44881178  1
  S2-  S223  1  0.74685201  0.89055359  0.95258002  1
  S2-  S224  1  0.11861289  0.01143086  0.04667829  1
  S2-  S225  1  0.13263357  -0.00414533  0.53984865  1
  S2-  S226  1  0.11838079  0.26431682  0.05480261  1
  S2-  S227  1  0.13265586  0.24423855  0.54854907  1
  S2-  S228  1  0.11640007  0.51529255  0.03994059  1
  S2-  S229  1  0.12997776  0.49949401  0.54396905  1
  S2-  S230  1  0.11988079  0.76371885  0.03807604  1
  S2-  S231  1  0.12412375  0.74581795  0.54623006  1
  S2-  S232  1  0.36716333  0.01573527  0.03695651  1
  S2-  S233  1  0.37701552  0.00188643  0.55728467  1
  S2-  S234  1  0.36469179  0.26599461  0.03536691  1
  S2-  S235  1  0.37678465  0.23963695  0.55459946  1
  S2-  S236  1  0.36379004  0.50891086  0.03070572  1
  S2-  S237  1  0.38012157  0.49693803  0.54131767  1
  S2-  S238  1  0.36690594  0.76263840  0.03527308  1
  S2-  S239  1  0.38385994  0.74559153  0.54373980  1
  S2-  S240  1  0.61509604  0.01912605  0.05102943  1
  S2-  S241  1  0.63167786  -0.00062939  0.55580710  1
  S2-  S242  1  0.61059873  0.26554645  0.04892146  1
  S2-  S243  1  0.63159808  0.24660269  0.54849010  1
  S2-  S244  1  0.61377229  0.50634026  0.05016884  1
  S2-  S245  1  0.63083202  0.49180954  0.54204162  1
  S2-  S246  1  0.61513434  0.75869885  0.04286089  1
  S2-  S247  1  0.63533520  0.74785869  0.54463205  1
  S2-  S248  1  0.86484006  0.01159095  0.04891433  1
  S2-  S249  1  0.88349116  -0.00298746  0.53715448  1
  S2-  S250  1  0.86795536  0.26339048  0.04499643  1
  S2-  S251  1  0.88473446  0.24651603  0.55129021  1
  S2-  S252  1  0.86431388  0.51462226  0.05028721  1
  S2-  S253  1  0.88333118  0.49227380  0.53953782  1
  S2-  S254  1  0.86339506  0.76382248  0.03733278  1
  S2-  S255  1  0.88323053  0.75257190  0.53964059  1
