# generated using pymatgen
data_La6Ce6Pr19Nd20Sm13(BiS2)64
_symmetry_space_group_name_H-M   'P 1'
_cell_length_a   16.09808014
_cell_length_b   16.16134077
_cell_length_c   27.23404397
_cell_angle_alpha   90.11785301
_cell_angle_beta   89.97876922
_cell_angle_gamma   90.03280126
_symmetry_Int_Tables_number   1
_chemical_formula_structural   La6Ce6Pr19Nd20Sm13(BiS2)64
_chemical_formula_sum   'La6 Ce6 Pr19 Nd20 Sm13 Bi64 S128'
_cell_volume   7085.37087307
_cell_formula_units_Z   1
loop_
 _symmetry_equiv_pos_site_id
 _symmetry_equiv_pos_as_xyz
  1  'x, y, z'
loop_
 _atom_type_symbol
 _atom_type_oxidation_number
  La3+  3.0
  Ce3+  3.0
  Pr3+  3.0
  Nd3+  3.0
  Sm3+  3.0
  Bi2+  2.0
  S2-  -2.0
loop_
 _atom_site_type_symbol
 _atom_site_label
 _atom_site_symmetry_multiplicity
 _atom_site_fract_x
 _atom_site_fract_y
 _atom_site_fract_z
 _atom_site_occupancy
  La3+  La0  1  0.37835878  0.74037785  0.91540753  1
  La3+  La1  1  0.75820076  0.10546190  0.08549518  1
  La3+  La2  1  0.25044326  0.63904460  0.60651992  1
  La3+  La3  1  0.73863216  0.36571509  0.11310938  1
  La3+  La4  1  0.24552532  0.87242624  0.07831008  1
  La3+  La5  1  0.26551810  0.14199898  0.59413606  1
  Ce3+  Ce6  1  0.01615007  0.88019793  0.56527133  1
  Ce3+  Ce7  1  0.12583162  0.24348731  0.93338327  1
  Ce3+  Ce8  1  0.49655122  0.86851591  0.06054324  1
  Ce3+  Ce9  1  0.88677089  0.75994222  0.44737595  1
  Ce3+  Ce10  1  0.27015291  0.88152511  0.57029807  1
  Ce3+  Ce11  1  0.49273189  0.61853704  0.06541156  1
  Pr3+  Pr12  1  0.76351807  0.13539951  0.56333269  1
  Pr3+  Pr13  1  0.37744023  0.24153525  0.94409126  1
  Pr3+  Pr14  1  0.50986234  0.13579410  0.55939603  1
  Pr3+  Pr15  1  0.25140423  0.62175178  0.05958592  1
  Pr3+  Pr16  1  0.11752663  0.74450834  0.92251927  1
  Pr3+  Pr17  1  0.51035909  0.63348354  0.56122232  1
  Pr3+  Pr18  1  0.50637716  0.11176678  0.08225262  1
  Pr3+  Pr19  1  0.49186768  0.36747597  0.07235526  1
  Pr3+  Pr20  1  0.38727291  0.25957143  0.43255550  1
  Pr3+  Pr21  1  0.51252850  0.88462932  0.56239584  1
  Pr3+  Pr22  1  -0.00320966  0.36787537  0.06233866  1
  Pr3+  Pr23  1  0.26184812  0.38618712  0.56321987  1
  Pr3+  Pr24  1  0.13977463  0.51051605  0.43882616  1
  Pr3+  Pr25  1  0.38916417  0.50916085  0.43865242  1
  Pr3+  Pr26  1  0.64831056  0.51151172  0.41624320  1
  Pr3+  Pr27  1  0.01519090  0.38506199  0.55755861  1
  Pr3+  Pr28  1  0.87626503  -0.00795605  0.93651117  1
  Pr3+  Pr29  1  0.38730504  0.00885615  0.43566482  1
  Pr3+  Pr30  1  0.38815919  0.75705183  0.43558154  1
  Nd3+  Nd31  1  0.76075104  0.38721471  0.55643165  1
  Nd3+  Nd32  1  0.64040838  0.75822558  0.43206517  1
  Nd3+  Nd33  1  0.62501026  0.73953374  0.93991821  1
  Nd3+  Nd34  1  0.88768446  0.51044986  0.44032451  1
  Nd3+  Nd35  1  0.62670893  0.24051572  0.95715548  1
  Nd3+  Nd36  1  0.14123833  0.76023403  0.44230738  1
  Nd3+  Nd37  1  0.00470636  0.62202528  0.06306266  1
  Nd3+  Nd38  1  0.24841143  0.36911340  0.05834800  1
  Nd3+  Nd39  1  0.74139302  0.61698030  0.07670406  1
  Nd3+  Nd40  1  0.14086292  0.00910712  0.45305017  1
  Nd3+  Nd41  1  0.87172992  0.24298896  0.94297784  1
  Nd3+  Nd42  1  0.13780856  0.25696356  0.44042199  1
  Nd3+  Nd43  1  0.24746129  0.11899240  0.06154761  1
  Nd3+  Nd44  1  0.87301519  0.49233753  0.94644024  1
  Nd3+  Nd45  1  0.63944660  0.01027819  0.43821555  1
  Nd3+  Nd46  1  0.88776935  0.25732751  0.44012189  1
  Nd3+  Nd47  1  0.38377064  0.49293767  0.92882161  1
  Nd3+  Nd48  1  0.51059695  0.38686448  0.55257866  1
  Nd3+  Nd49  1  0.88807480  0.00840600  0.44750025  1
  Nd3+  Nd50  1  0.01423188  0.13282729  0.56515711  1
  Sm3+  Sm51  1  0.00135159  0.86527192  0.06083299  1
  Sm3+  Sm52  1  0.75722864  0.88258585  0.56231657  1
  Sm3+  Sm53  1  0.87245492  0.73896294  0.94005616  1
  Sm3+  Sm54  1  0.12721476  -0.00786327  0.94090802  1
  Sm3+  Sm55  1  0.75696079  0.63316298  0.56383787  1
  Sm3+  Sm56  1  0.63902422  0.25927585  0.44018445  1
  Sm3+  Sm57  1  0.12491300  0.49452580  0.93713862  1
  Sm3+  Sm58  1  0.75158602  0.86499095  0.05470218  1
  Sm3+  Sm59  1  0.01190144  0.63500156  0.55797748  1
  Sm3+  Sm60  1  0.37497347  -0.00815913  0.93886456  1
  Sm3+  Sm61  1  -0.00275953  0.11984423  0.05977158  1
  Sm3+  Sm62  1  0.62434892  0.49121678  0.94949851  1
  Sm3+  Sm63  1  0.62507188  -0.00636154  0.94281328  1
  Bi2+  Bi64  1  0.00878119  0.07654196  0.29176891  1
  Bi2+  Bi65  1  -0.06486869  0.12802707  0.76899608  1
  Bi2+  Bi66  1  0.03370548  0.36629211  0.27872739  1
  Bi2+  Bi67  1  -0.05858959  0.36476538  0.77991438  1
  Bi2+  Bi68  1  0.02604614  0.63992133  0.22627912  1
  Bi2+  Bi69  1  -0.07573953  0.64095604  0.78983854  1
  Bi2+  Bi70  1  0.01189313  0.83939364  0.23857747  1
  Bi2+  Bi71  1  -0.08889829  0.87641472  0.78153605  1
  Bi2+  Bi72  1  0.20781412  0.14872320  0.27423308  1
  Bi2+  Bi73  1  0.23756564  0.13992640  0.80450309  1
  Bi2+  Bi74  1  0.22616917  0.40354413  0.30187951  1
  Bi2+  Bi75  1  0.22082359  0.38609930  0.78314504  1
  Bi2+  Bi76  1  0.24739518  0.65243910  0.30922414  1
  Bi2+  Bi77  1  0.24819539  0.60829047  0.77902286  1
  Bi2+  Bi78  1  0.23080874  0.89353618  0.30751044  1
  Bi2+  Bi79  1  0.22218712  0.89874091  0.80486078  1
  Bi2+  Bi80  1  0.48973751  0.08759296  0.29180230  1
  Bi2+  Bi81  1  0.49664663  0.18039678  0.78968722  1
  Bi2+  Bi82  1  0.42769270  0.39464581  0.29967687  1
  Bi2+  Bi83  1  0.41971696  0.41439962  0.79868394  1
  Bi2+  Bi84  1  0.52480604  0.62421409  0.28528116  1
  Bi2+  Bi85  1  0.54518596  0.61777637  0.79161406  1
  Bi2+  Bi86  1  0.56227847  0.82554034  0.27880967  1
  Bi2+  Bi87  1  0.52854211  0.89991656  0.76063609  1
  Bi2+  Bi88  1  0.76683362  0.11595780  0.30702307  1
  Bi2+  Bi89  1  0.69411451  0.08520609  0.80908492  1
  Bi2+  Bi90  1  0.75300580  0.35924772  0.30533734  1
  Bi2+  Bi91  1  0.76782677  0.47687137  0.79591778  1
  Bi2+  Bi92  1  0.79379106  0.64724802  0.28942535  1
  Bi2+  Bi93  1  0.72965203  0.66599036  0.82667174  1
  Bi2+  Bi94  1  0.76895381  0.84382321  0.29182045  1
  Bi2+  Bi95  1  0.71729292  0.85658619  0.79486722  1
  Bi2+  Bi96  1  0.12698436  0.00943257  0.20813540  1
  Bi2+  Bi97  1  0.07701904  -0.00406472  0.73864291  1
  Bi2+  Bi98  1  0.14039112  0.21121971  0.16558844  1
  Bi2+  Bi99  1  0.10212886  0.22991810  0.69976615  1
  Bi2+  Bi100  1  0.12620904  0.40762324  0.17497989  1
  Bi2+  Bi101  1  0.02203818  0.50952105  0.71893015  1
  Bi2+  Bi102  1  0.19342630  0.74321986  0.20149263  1
  Bi2+  Bi103  1  0.09651231  0.76376203  0.71675632  1
  Bi2+  Bi104  1  0.38073560  0.00489960  0.21388115  1
  Bi2+  Bi105  1  0.39754704  0.02406772  0.71967200  1
  Bi2+  Bi106  1  0.32847265  0.26486384  0.21623541  1
  Bi2+  Bi107  1  0.37951611  0.28392802  0.71224995  1
  Bi2+  Bi108  1  0.29403915  0.49830664  0.20826292  1
  Bi2+  Bi109  1  0.41474138  0.50394994  0.69789763  1
  Bi2+  Bi110  1  0.43080715  0.72849642  0.21110110  1
  Bi2+  Bi111  1  0.37645922  0.78126330  0.71599218  1
  Bi2+  Bi112  1  0.62533845  -0.01088502  0.21438662  1
  Bi2+  Bi113  1  0.59475357  0.07557273  0.70848824  1
  Bi2+  Bi114  1  0.58338355  0.24832063  0.22518040  1
  Bi2+  Bi115  1  0.62230181  0.33203067  0.77112448  1
  Bi2+  Bi116  1  0.63191263  0.51264739  0.21883655  1
  Bi2+  Bi117  1  0.64736080  0.47599145  0.69524816  1
  Bi2+  Bi118  1  0.69116599  0.75522329  0.19756278  1
  Bi2+  Bi119  1  0.62085276  0.74013709  0.70945733  1
  Bi2+  Bi120  1  0.87134195  -0.03918998  0.21140264  1
  Bi2+  Bi121  1  0.77323234  -0.05897239  0.69200595  1
  Bi2+  Bi122  1  0.95832686  0.21510520  0.21607672  1
  Bi2+  Bi123  1  0.80121768  0.25355538  0.72674570  1
  Bi2+  Bi124  1  0.92797345  0.47861283  0.20925614  1
  Bi2+  Bi125  1  0.83525144  0.54580425  0.68638183  1
  Bi2+  Bi126  1  0.88319242  0.74216339  0.16794609  1
  Bi2+  Bi127  1  0.82617667  0.74096119  0.70186009  1
  S2-  S128  1  -0.09117515  0.09828200  0.14573264  1
  S2-  S129  1  -0.02381400  0.14807730  0.66254134  1
  S2-  S130  1  -0.09273316  0.34323237  0.14864648  1
  S2-  S131  1  0.03137566  0.37580581  0.65711602  1
  S2-  S132  1  0.12829771  0.63378173  0.13519346  1
  S2-  S133  1  0.07481492  0.63942664  0.64946818  1
  S2-  S134  1  0.10034159  0.86686907  0.14255830  1
  S2-  S135  1  0.01786531  0.88213314  0.66333125  1
  S2-  S136  1  0.26744859  0.02284916  0.14533086  1
  S2-  S137  1  0.19020546  0.08903877  0.68445938  1
  S2-  S138  1  0.35320192  0.38295225  0.13901688  1
  S2-  S139  1  0.24992984  0.29438298  0.64876777  1
  S2-  S140  1  0.36885076  0.61062759  0.14024059  1
  S2-  S141  1  0.25164567  0.52162064  0.68264882  1
  S2-  S142  1  0.33642572  0.83161788  0.16402380  1
  S2-  S143  1  0.23179030  0.79298298  0.65954030  1
  S2-  S144  1  0.44610008  0.18709170  0.16917787  1
  S2-  S145  1  0.41911943  0.13985572  0.64615618  1
  S2-  S146  1  0.57443787  0.38990643  0.16263779  1
  S2-  S147  1  0.50446271  0.36669463  0.65109553  1
  S2-  S148  1  0.59843379  0.62909687  0.14456769  1
  S2-  S149  1  0.41273566  0.65507105  0.64840284  1
  S2-  S150  1  0.50158257  0.96630109  0.14356540  1
  S2-  S151  1  0.40074266  0.90496800  0.64204481  1
  S2-  S152  1  0.64577528  0.12872284  0.16388115  1
  S2-  S153  1  0.74679270  0.11414783  0.66231134  1
  S2-  S154  1  0.73460173  0.30082971  0.21441565  1
  S2-  S155  1  0.76381083  0.35600037  0.65425349  1
  S2-  S156  1  0.77241719  0.51827471  0.16041764  1
  S2-  S157  1  0.63470653  0.62074349  0.63461119  1
  S2-  S158  1  0.74657767  0.94694264  0.14197809  1
  S2-  S159  1  0.64072243  0.87451524  0.63603291  1
  S2-  S160  1  0.12766541  -0.00695491  0.35403318  1
  S2-  S161  1  0.10734719  0.02423365  0.84418826  1
  S2-  S162  1  0.13157614  0.25793857  0.34091505  1
  S2-  S163  1  0.12981841  0.26554581  0.83464066  1
  S2-  S164  1  0.12656379  0.53334510  0.33921510  1
  S2-  S165  1  0.15327485  0.50054024  0.83794381  1
  S2-  S166  1  0.13436989  0.76362338  0.34228331  1
  S2-  S167  1  0.15414150  0.73783921  0.81922452  1
  S2-  S168  1  0.36826532  -0.00132815  0.33462691  1
  S2-  S169  1  0.33481085  0.01766993  0.84283185  1
  S2-  S170  1  0.41854955  0.23798665  0.33399763  1
  S2-  S171  1  0.35077408  0.23395556  0.84419761  1
  S2-  S172  1  0.38780205  0.55543922  0.34157897  1
  S2-  S173  1  0.35087719  0.60094800  0.85123247  1
  S2-  S174  1  0.35054934  0.77754935  0.33708650  1
  S2-  S175  1  0.35218749  0.80941844  0.81603307  1
  S2-  S176  1  0.63873662  0.01883003  0.33885896  1
  S2-  S177  1  0.57343159  -0.00832484  0.84857780  1
  S2-  S178  1  0.65576902  0.22997066  0.34385062  1
  S2-  S179  1  0.63103901  0.23281641  0.85641845  1
  S2-  S180  1  0.60183585  0.43129222  0.32764040  1
  S2-  S181  1  0.53426526  0.48472092  0.86411612  1
  S2-  S182  1  0.65150324  0.65244301  0.35316524  1
  S2-  S183  1  0.53171831  0.73664083  0.85678061  1
  S2-  S184  1  0.87653312  0.00824078  0.34844788  1
  S2-  S185  1  0.85649731  0.02083228  0.83776947  1
  S2-  S186  1  0.87034592  0.24426766  0.34189023  1
  S2-  S187  1  0.88594214  0.24117443  0.84200018  1
  S2-  S188  1  0.81600930  0.50622939  0.35062848  1
  S2-  S189  1  0.92874652  0.49525025  0.85142851  1
  S2-  S190  1  0.88371601  0.75044651  0.34902260  1
  S2-  S191  1  0.96136127  0.77003741  0.85842545  1
  S2-  S192  1  0.01278071  0.13295345  0.45701079  1
  S2-  S193  1  0.00003308  0.11828104  0.95271290  1
  S2-  S194  1  0.01218945  0.38371877  0.44954906  1
  S2-  S195  1  0.00001804  0.36778210  0.95321959  1
  S2-  S196  1  0.01261541  0.63470303  0.45266852  1
  S2-  S197  1  -0.00076430  0.61802880  0.95512890  1
  S2-  S198  1  0.01319090  0.88435466  0.45755742  1
  S2-  S199  1  0.00076211  0.87101930  0.95641852  1
  S2-  S200  1  0.26196592  0.13463611  0.44232415  1
  S2-  S201  1  0.24868228  0.11659476  0.95473317  1
  S2-  S202  1  0.26180207  0.38280124  0.45217239  1
  S2-  S203  1  0.25056882  0.37075740  0.94919658  1
  S2-  S204  1  0.26283386  0.63419077  0.44833826  1
  S2-  S205  1  0.24218393  0.62000812  0.95132782  1
  S2-  S206  1  0.26446455  0.88412547  0.45813735  1
  S2-  S207  1  0.24910477  0.86899646  0.94174381  1
  S2-  S208  1  0.51488929  0.13560431  0.45094491  1
  S2-  S209  1  0.50059936  0.11482968  0.95816696  1
  S2-  S210  1  0.51597252  0.38260593  0.44651923  1
  S2-  S211  1  0.50211140  0.36381487  0.96290426  1
  S2-  S212  1  0.51500090  0.63334264  0.45114578  1
  S2-  S213  1  0.50191070  0.61770893  0.96073447  1
  S2-  S214  1  0.51615744  0.88382633  0.44788312  1
  S2-  S215  1  0.49883928  0.87131085  0.95380548  1
  S2-  S216  1  0.76261669  0.13476179  0.45630179  1
  S2-  S217  1  0.75068538  0.11445027  0.95799111  1
  S2-  S218  1  0.76310112  0.38119516  0.45123794  1
  S2-  S219  1  0.74796593  0.36891175  0.94813259  1
  S2-  S220  1  0.76578459  0.63452298  0.45942768  1
  S2-  S221  1  0.74867045  0.61634084  0.96185563  1
  S2-  S222  1  0.76115200  0.88447586  0.45583139  1
  S2-  S223  1  0.75073290  0.86647106  0.94913851  1
  S2-  S224  1  0.11874454  -0.00378168  0.04452579  1
  S2-  S225  1  0.14174456  0.01021211  0.55919337  1
  S2-  S226  1  0.12217745  0.24253778  0.03995222  1
  S2-  S227  1  0.13815685  0.25462148  0.54585486  1
  S2-  S228  1  0.12354783  0.49183409  0.04083060  1
  S2-  S229  1  0.13900011  0.51274891  0.54780475  1
  S2-  S230  1  0.12468422  0.75042066  0.03381447  1
  S2-  S231  1  0.13878594  0.75570616  0.54756640  1
  S2-  S232  1  0.37243188  -0.00740687  0.04193287  1
  S2-  S233  1  0.38410876  0.01553003  0.54129241  1
  S2-  S234  1  0.37362610  0.23651435  0.04886783  1
  S2-  S235  1  0.38494957  0.26056671  0.54019547  1
  S2-  S236  1  0.37212026  0.49193529  0.03530579  1
  S2-  S237  1  0.38336990  0.50927059  0.54616732  1
  S2-  S238  1  0.37181937  0.75002137  0.04058130  1
  S2-  S239  1  0.38785540  0.75919065  0.54236658  1
  S2-  S240  1  0.62832972  -0.00953797  0.04443121  1
  S2-  S241  1  0.63729363  0.01261110  0.54409767  1
  S2-  S242  1  0.62790254  0.24249251  0.06124093  1
  S2-  S243  1  0.63691067  0.26061030  0.54686123  1
  S2-  S244  1  0.62774086  0.48499919  0.05147527  1
  S2-  S245  1  0.63800071  0.50590184  0.53351563  1
  S2-  S246  1  0.62593945  0.74725967  0.04555478  1
  S2-  S247  1  0.63817387  0.75773901  0.53674873  1
  S2-  S248  1  0.87951632  -0.01425915  0.04212258  1
  S2-  S249  1  0.88716911  0.00586144  0.55419170  1
  S2-  S250  1  0.86966019  0.23913107  0.04691056  1
  S2-  S251  1  0.88888458  0.26015184  0.54791798  1
  S2-  S252  1  0.87842762  0.50022725  0.05101550  1
  S2-  S253  1  0.88707007  0.51148908  0.54750943  1
  S2-  S254  1  0.87512185  0.74207585  0.04418307  1
  S2-  S255  1  0.88324297  0.75703974  0.55497907  1
