# generated using pymatgen
data_La6Ce6Pr19Nd20Sm13(BiS2)64
_symmetry_space_group_name_H-M   'P 1'
_cell_length_a   16.16499689
_cell_length_b   16.17261108
_cell_length_c   27.13307411
_cell_angle_alpha   89.92705384
_cell_angle_beta   90.00637347
_cell_angle_gamma   90.03968649
_symmetry_Int_Tables_number   1
_chemical_formula_structural   La6Ce6Pr19Nd20Sm13(BiS2)64
_chemical_formula_sum   'La6 Ce6 Pr19 Nd20 Sm13 Bi64 S128'
_cell_volume   7093.39771084
_cell_formula_units_Z   1
loop_
 _symmetry_equiv_pos_site_id
 _symmetry_equiv_pos_as_xyz
  1  'x, y, z'
loop_
 _atom_type_symbol
 _atom_type_oxidation_number
  La3+  3.0
  Ce3+  3.0
  Pr3+  3.0
  Nd3+  3.0
  Sm3+  3.0
  Bi2+  2.0
  S2-  -2.0
loop_
 _atom_site_type_symbol
 _atom_site_label
 _atom_site_symmetry_multiplicity
 _atom_site_fract_x
 _atom_site_fract_y
 _atom_site_fract_z
 _atom_site_occupancy
  La3+  La0  1  0.63971771  0.24944083  0.93108887  1
  La3+  La1  1  0.75515577  0.87800439  0.56789812  1
  La3+  La2  1  0.76365908  0.62981122  0.10982032  1
  La3+  La3  1  0.37501191  0.01134764  0.89846588  1
  La3+  La4  1  0.13031428  0.75865334  0.41120388  1
  La3+  La5  1  0.62413479  0.50254989  0.92555486  1
  Ce3+  Ce6  1  0.25402070  0.63447226  0.07696786  1
  Ce3+  Ce7  1  0.50468383  0.37974127  0.56216857  1
  Ce3+  Ce8  1  0.88009585  0.74720533  0.94913343  1
  Ce3+  Ce9  1  0.87596282  0.51136938  0.42444777  1
  Ce3+  Ce10  1  0.75597147  0.38189965  0.05964339  1
  Ce3+  Ce11  1  0.50724716  0.87865527  0.05292644  1
  Pr3+  Pr12  1  0.13373789  0.75195881  0.94178745  1
  Pr3+  Pr13  1  0.75703571  0.12714260  0.06634133  1
  Pr3+  Pr14  1  0.00483870  0.37854282  0.06404170  1
  Pr3+  Pr15  1  0.49996051  0.88846649  0.60985342  1
  Pr3+  Pr16  1  0.00771050  0.62038420  0.09493724  1
  Pr3+  Pr17  1  0.25213717  0.12470430  0.56144292  1
  Pr3+  Pr18  1  0.12706291  0.25008624  0.42976562  1
  Pr3+  Pr19  1  0.87587074  0.00549146  0.42780347  1
  Pr3+  Pr20  1  0.51131135  0.62534756  0.06226985  1
  Pr3+  Pr21  1  0.25598752  0.87553392  0.06340463  1
  Pr3+  Pr22  1  0.62719318  0.50790170  0.43749301  1
  Pr3+  Pr23  1  0.00346025  0.37777214  0.55523737  1
  Pr3+  Pr24  1  0.24994826  0.62968208  0.55142213  1
  Pr3+  Pr25  1  0.12687672  0.49545562  0.42118146  1
  Pr3+  Pr26  1  0.37775321  0.25203690  0.44675026  1
  Pr3+  Pr27  1  0.88097832  -0.00075524  0.93093609  1
  Pr3+  Pr28  1  0.25575556  0.37729627  0.05860434  1
  Pr3+  Pr29  1  0.76445571  0.61952149  0.57277745  1
  Pr3+  Pr30  1  0.00185757  0.12632283  0.55952836  1
  Nd3+  Nd31  1  0.87416686  0.76061595  0.42841899  1
  Nd3+  Nd32  1  0.62574622  0.25430611  0.44522773  1
  Nd3+  Nd33  1  0.50602137  0.12672678  0.05363601  1
  Nd3+  Nd34  1  0.37831541  0.75284797  0.93924502  1
  Nd3+  Nd35  1  0.25550178  0.12750406  0.05943539  1
  Nd3+  Nd36  1  0.75599182  0.88003951  0.06514926  1
  Nd3+  Nd37  1  0.75215281  0.37959761  0.55482199  1
  Nd3+  Nd38  1  0.25171004  0.37776251  0.55559657  1
  Nd3+  Nd39  1  -0.00002653  0.87520123  0.55580528  1
  Nd3+  Nd40  1  0.50550953  0.62921421  0.57104630  1
  Nd3+  Nd41  1  0.63583364  0.00196749  0.93100746  1
  Nd3+  Nd42  1  0.50769468  0.37619812  0.05805550  1
  Nd3+  Nd43  1  0.00392549  0.62792611  0.54399074  1
  Nd3+  Nd44  1  0.88106931  0.50568950  0.94205591  1
  Nd3+  Nd45  1  0.24948699  0.87450156  0.56507954  1
  Nd3+  Nd46  1  0.62648741  0.75217188  0.44726051  1
  Nd3+  Nd47  1  0.12984220  0.25335985  0.93320632  1
  Nd3+  Nd48  1  0.62377824  0.00026450  0.44105454  1
  Nd3+  Nd49  1  0.63122454  0.75330760  0.93843589  1
  Nd3+  Nd50  1  0.37873875  0.75353195  0.44648753  1
  Sm3+  Sm51  1  0.50236522  0.12320410  0.56018240  1
  Sm3+  Sm52  1  0.13306543  0.00208841  0.94547174  1
  Sm3+  Sm53  1  0.00501252  0.12779546  0.05474585  1
  Sm3+  Sm54  1  0.87477911  0.25301913  0.44233022  1
  Sm3+  Sm55  1  0.38221916  0.25165224  0.93539147  1
  Sm3+  Sm56  1  0.75102907  0.12309903  0.55504626  1
  Sm3+  Sm57  1  0.88817919  0.25476252  0.93682852  1
  Sm3+  Sm58  1  0.38060884  0.50371280  0.94257112  1
  Sm3+  Sm59  1  0.00446801  0.87417493  0.05755302  1
  Sm3+  Sm60  1  0.13265359  0.50486027  0.94560484  1
  Sm3+  Sm61  1  0.37695517  0.50485155  0.44605965  1
  Sm3+  Sm62  1  0.37843593  0.00010529  0.44501707  1
  Sm3+  Sm63  1  0.12709766  0.00267020  0.43848294  1
  Bi2+  Bi64  1  0.04671687  0.11571629  0.33324413  1
  Bi2+  Bi65  1  -0.01334570  0.10553627  0.79531231  1
  Bi2+  Bi66  1  -0.00595321  0.29052372  0.28510412  1
  Bi2+  Bi67  1  0.07980233  0.34787943  0.78502027  1
  Bi2+  Bi68  1  -0.01698964  0.60745682  0.28013409  1
  Bi2+  Bi69  1  0.02887960  0.67164379  0.73747881  1
  Bi2+  Bi70  1  -0.00163535  0.94450032  0.29257994  1
  Bi2+  Bi71  1  -0.01470354  0.91448513  0.80000581  1
  Bi2+  Bi72  1  0.23098229  0.14423668  0.29795334  1
  Bi2+  Bi73  1  0.20573165  0.17407361  0.80577436  1
  Bi2+  Bi74  1  0.25213792  0.34183812  0.28223073  1
  Bi2+  Bi75  1  0.27827645  0.36610110  0.80977005  1
  Bi2+  Bi76  1  0.25151723  0.65687423  0.29173133  1
  Bi2+  Bi77  1  0.25098576  0.58328503  0.80350415  1
  Bi2+  Bi78  1  0.26590058  0.93186186  0.28420044  1
  Bi2+  Bi79  1  0.18794517  0.87399960  0.79294068  1
  Bi2+  Bi80  1  0.43835721  0.12525039  0.27801344  1
  Bi2+  Bi81  1  0.49949887  0.14691347  0.77958190  1
  Bi2+  Bi82  1  0.49976040  0.31269267  0.27987954  1
  Bi2+  Bi83  1  0.48060422  0.39200076  0.78155348  1
  Bi2+  Bi84  1  0.49706517  0.62566946  0.31590251  1
  Bi2+  Bi85  1  0.44379518  0.60825878  0.77504137  1
  Bi2+  Bi86  1  0.53736492  0.92093181  0.28765190  1
  Bi2+  Bi87  1  0.51503498  0.85507912  0.81620088  1
  Bi2+  Bi88  1  0.74075504  0.14681337  0.28655838  1
  Bi2+  Bi89  1  0.78523240  0.13260138  0.78568295  1
  Bi2+  Bi90  1  0.70629563  0.34300659  0.27438811  1
  Bi2+  Bi91  1  0.79492335  0.37945471  0.78695472  1
  Bi2+  Bi92  1  0.74244148  0.58281973  0.30875270  1
  Bi2+  Bi93  1  0.78303013  0.61690204  0.81398976  1
  Bi2+  Bi94  1  0.73379881  0.88395789  0.28323059  1
  Bi2+  Bi95  1  0.79537601  0.86916467  0.79208719  1
  Bi2+  Bi96  1  0.13605704  0.02456924  0.21758405  1
  Bi2+  Bi97  1  0.10113129  -0.01932951  0.70826556  1
  Bi2+  Bi98  1  0.11272719  0.22317507  0.20155676  1
  Bi2+  Bi99  1  0.17563555  0.23483859  0.69861294  1
  Bi2+  Bi100  1  0.13795910  0.47694079  0.21523486  1
  Bi2+  Bi101  1  0.13250643  0.52431625  0.70194278  1
  Bi2+  Bi102  1  0.13041053  0.76875681  0.20964447  1
  Bi2+  Bi103  1  0.10706776  0.80422138  0.66234236  1
  Bi2+  Bi104  1  0.40655683  -0.02939988  0.20301721  1
  Bi2+  Bi105  1  0.36044084  0.00491709  0.71631689  1
  Bi2+  Bi106  1  0.38251944  0.26199063  0.19160523  1
  Bi2+  Bi107  1  0.36592594  0.26438394  0.71896019  1
  Bi2+  Bi108  1  0.35047918  0.50662884  0.24895525  1
  Bi2+  Bi109  1  0.33172200  0.47190119  0.71087697  1
  Bi2+  Bi110  1  0.36985118  0.78272081  0.23676007  1
  Bi2+  Bi111  1  0.26809410  0.74787765  0.71655606  1
  Bi2+  Bi112  1  0.61589109  0.04091327  0.19499701  1
  Bi2+  Bi113  1  0.62868836  -0.00187385  0.71346202  1
  Bi2+  Bi114  1  0.69994181  0.23063775  0.17966222  1
  Bi2+  Bi115  1  0.64877361  0.25775616  0.74722379  1
  Bi2+  Bi116  1  0.58950122  0.49809647  0.20134668  1
  Bi2+  Bi117  1  0.63402301  0.51166999  0.69811769  1
  Bi2+  Bi118  1  0.60701759  0.75732356  0.21065965  1
  Bi2+  Bi119  1  0.62290309  0.74481171  0.72508156  1
  Bi2+  Bi120  1  0.85172199  0.01493185  0.22872859  1
  Bi2+  Bi121  1  0.87803715  0.01140455  0.69949335  1
  Bi2+  Bi122  1  0.89610026  0.20763892  0.18300251  1
  Bi2+  Bi123  1  0.92590491  0.26059543  0.72621409  1
  Bi2+  Bi124  1  0.86555626  0.39473765  0.21226087  1
  Bi2+  Bi125  1  0.89918818  0.50678237  0.70384453  1
  Bi2+  Bi126  1  0.87784141  0.79476254  0.21663170  1
  Bi2+  Bi127  1  0.86585996  0.75132100  0.70721332  1
  S2-  S128  1  0.01959627  0.08964794  0.15040930  1
  S2-  S129  1  -0.02281981  0.13949313  0.65832756  1
  S2-  S130  1  0.00173951  0.45528453  0.15449980  1
  S2-  S131  1  -0.02973027  0.38577159  0.65441458  1
  S2-  S132  1  -0.09270471  0.64614122  0.17804608  1
  S2-  S133  1  -0.08081555  0.62027459  0.63170513  1
  S2-  S134  1  0.01466627  0.84232689  0.15507371  1
  S2-  S135  1  -0.10988866  0.87416679  0.63647667  1
  S2-  S136  1  0.25998208  0.16095344  0.15716281  1
  S2-  S137  1  0.23321114  0.07495056  0.65776556  1
  S2-  S138  1  0.24483577  0.40308814  0.15804559  1
  S2-  S139  1  0.19431093  0.38494305  0.64868446  1
  S2-  S140  1  0.14701098  0.62055587  0.15770209  1
  S2-  S141  1  0.25738187  0.61756303  0.65202511  1
  S2-  S142  1  0.26980825  0.77788436  0.14718376  1
  S2-  S143  1  0.33814861  0.87479018  0.65158400  1
  S2-  S144  1  0.51559702  0.16250115  0.15171651  1
  S2-  S145  1  0.49704516  0.05563318  0.65130751  1
  S2-  S146  1  0.48709513  0.39930584  0.15647269  1
  S2-  S147  1  0.54127868  0.40151554  0.65653473  1
  S2-  S148  1  0.51027453  0.63488245  0.16394063  1
  S2-  S149  1  0.50977713  0.64304274  0.67222362  1
  S2-  S150  1  0.53909784  0.88818148  0.14918063  1
  S2-  S151  1  0.50333720  0.87221073  0.71848783  1
  S2-  S152  1  0.75602958  0.00403537  0.13931806  1
  S2-  S153  1  0.74100323  0.07795434  0.64981476  1
  S2-  S154  1  0.74149835  0.46227846  0.14696173  1
  S2-  S155  1  0.75954313  0.45646841  0.64447847  1
  S2-  S156  1  0.70799070  0.62734993  0.21537687  1
  S2-  S157  1  0.72252184  0.65899673  0.67075704  1
  S2-  S158  1  0.74682957  0.78933279  0.15138175  1
  S2-  S159  1  0.65994734  0.87178397  0.65432253  1
  S2-  S160  1  0.14852344  -0.09081979  0.35669886  1
  S2-  S161  1  0.19588176  0.01938606  0.85530022  1
  S2-  S162  1  0.12563326  0.35679351  0.35049810  1
  S2-  S163  1  0.00701556  0.25823416  0.86109670  1
  S2-  S164  1  0.13049448  0.55116583  0.32365351  1
  S2-  S165  1  0.13175588  0.48531024  0.84698280  1
  S2-  S166  1  0.07356685  0.73558217  0.30957964  1
  S2-  S167  1  0.17471419  0.72951176  0.84498658  1
  S2-  S168  1  0.40619072  0.00049482  0.34755685  1
  S2-  S169  1  0.36507679  -0.06436722  0.80448160  1
  S2-  S170  1  0.37176000  0.25975024  0.34710583  1
  S2-  S171  1  0.36660434  0.16578915  0.84968087  1
  S2-  S172  1  0.37548775  0.50789468  0.34792992  1
  S2-  S173  1  0.47681669  0.50942669  0.85971458  1
  S2-  S174  1  0.37696931  0.74904524  0.34614649  1
  S2-  S175  1  0.40720644  0.72766360  0.84108963  1
  S2-  S176  1  0.65747653  0.01191725  0.34335812  1
  S2-  S177  1  0.54325219  0.01595281  0.84528816  1
  S2-  S178  1  0.61247104  0.24828760  0.34653461  1
  S2-  S179  1  0.55845487  0.27606314  0.84175236  1
  S2-  S180  1  0.59644175  0.49568356  0.33780775  1
  S2-  S181  1  0.68281182  0.49402796  0.82660442  1
  S2-  S182  1  0.63166322  0.70684596  0.34911343  1
  S2-  S183  1  0.64187421  0.73507099  0.83657502  1
  S2-  S184  1  0.86780475  -0.11241350  0.35390714  1
  S2-  S185  1  0.76037133  -0.00199809  0.85660818  1
  S2-  S186  1  0.86653946  0.22214311  0.34572695  1
  S2-  S187  1  0.77751793  0.25136129  0.86141036  1
  S2-  S188  1  0.88676835  0.47858189  0.32737584  1
  S2-  S189  1  0.89094653  0.49753434  0.83964156  1
  S2-  S190  1  0.86707181  0.67320830  0.34170840  1
  S2-  S191  1  0.88485784  0.75106306  0.85083708  1
  S2-  S192  1  -0.00010969  0.12870831  0.45336229  1
  S2-  S193  1  0.00848699  0.12213021  0.95184111  1
  S2-  S194  1  -0.00371308  0.37483639  0.44748571  1
  S2-  S195  1  0.00879925  0.38287306  0.95761091  1
  S2-  S196  1  0.00774099  0.63055667  0.43861293  1
  S2-  S197  1  0.01062988  0.62586792  0.94874248  1
  S2-  S198  1  0.00356012  0.88091122  0.45070949  1
  S2-  S199  1  0.00868137  0.87776636  0.95179168  1
  S2-  S200  1  0.25298983  0.12409793  0.45245544  1
  S2-  S201  1  0.25450285  0.12973073  0.95523146  1
  S2-  S202  1  0.25567322  0.37859434  0.45027445  1
  S2-  S203  1  0.25687957  0.37746145  0.95117001  1
  S2-  S204  1  0.25083735  0.62751958  0.44440027  1
  S2-  S205  1  0.25813203  0.62506753  0.96111185  1
  S2-  S206  1  0.25633635  0.87889774  0.45714820  1
  S2-  S207  1  0.25907854  0.88166920  0.95473934  1
  S2-  S208  1  0.50170000  0.12672136  0.45447736  1
  S2-  S209  1  0.50319386  0.12710884  0.94891728  1
  S2-  S210  1  0.50105447  0.38035356  0.45416448  1
  S2-  S211  1  0.50129166  0.37408404  0.95302246  1
  S2-  S212  1  0.49967974  0.62719256  0.46172374  1
  S2-  S213  1  0.50428645  0.63166707  0.95555871  1
  S2-  S214  1  0.50158113  0.87678271  0.44969370  1
  S2-  S215  1  0.50210308  0.87970557  0.94667643  1
  S2-  S216  1  0.74951078  0.12834500  0.45064431  1
  S2-  S217  1  0.76353998  0.12540226  0.95985155  1
  S2-  S218  1  0.75167169  0.37756755  0.44717141  1
  S2-  S219  1  0.75895615  0.38224230  0.95381177  1
  S2-  S220  1  0.75273802  0.62978290  0.45706222  1
  S2-  S221  1  0.75219859  0.62637183  0.94643477  1
  S2-  S222  1  0.74743010  0.87936003  0.45677536  1
  S2-  S223  1  0.75775782  0.87335190  0.95782136  1
  S2-  S224  1  0.12958346  0.00084458  0.05036254  1
  S2-  S225  1  0.12611179  0.00027524  0.54419130  1
  S2-  S226  1  0.12879228  0.25182287  0.04373785  1
  S2-  S227  1  0.12845152  0.25096207  0.54063466  1
  S2-  S228  1  0.13111711  0.50454313  0.04951417  1
  S2-  S229  1  0.12743810  0.50177463  0.53488465  1
  S2-  S230  1  0.12618943  0.75096188  0.04819997  1
  S2-  S231  1  0.12619620  0.75344734  0.53017286  1
  S2-  S232  1  0.37911969  0.00304659  0.05503460  1
  S2-  S233  1  0.37854877  0.00043678  0.54843026  1
  S2-  S234  1  0.38029185  0.25222785  0.04219453  1
  S2-  S235  1  0.37876813  0.25079294  0.55493544  1
  S2-  S236  1  0.37933376  0.50422243  0.04832672  1
  S2-  S237  1  0.37719267  0.50327722  0.55188395  1
  S2-  S238  1  0.38457424  0.75113661  0.04599670  1
  S2-  S239  1  0.38033276  0.75152914  0.55286759  1
  S2-  S240  1  0.62955514  0.00382908  0.03841058  1
  S2-  S241  1  0.62282606  0.00192292  0.54691156  1
  S2-  S242  1  0.63154490  0.25265445  0.04166026  1
  S2-  S243  1  0.62785530  0.24878738  0.55285832  1
  S2-  S244  1  0.62895313  0.50080622  0.04029595  1
  S2-  S245  1  0.62768005  0.50567836  0.54501083  1
  S2-  S246  1  0.63278827  0.75102852  0.04619052  1
  S2-  S247  1  0.62612319  0.75043952  0.55319920  1
  S2-  S248  1  0.88811742  0.00112118  0.04097924  1
  S2-  S249  1  0.87686102  0.00668758  0.53650880  1
  S2-  S250  1  0.88262862  0.25302048  0.04435339  1
  S2-  S251  1  0.87297799  0.25106154  0.54827857  1
  S2-  S252  1  0.88150102  0.50972625  0.04963008  1
  S2-  S253  1  0.87964542  0.49805394  0.53256459  1
  S2-  S254  1  0.88450782  0.74687967  0.05422210  1
  S2-  S255  1  0.87801041  0.75045406  0.53510624  1
