# generated using pymatgen
data_La6Ce6Pr19Nd20Sm13(BiS2)64
_symmetry_space_group_name_H-M   'P 1'
_cell_length_a   16.10827212
_cell_length_b   15.98220528
_cell_length_c   27.36882159
_cell_angle_alpha   90.40911013
_cell_angle_beta   89.89259689
_cell_angle_gamma   90.10366570
_symmetry_Int_Tables_number   1
_chemical_formula_structural   La6Ce6Pr19Nd20Sm13(BiS2)64
_chemical_formula_sum   'La6 Ce6 Pr19 Nd20 Sm13 Bi64 S128'
_cell_volume   7045.78239749
_cell_formula_units_Z   1
loop_
 _symmetry_equiv_pos_site_id
 _symmetry_equiv_pos_as_xyz
  1  'x, y, z'
loop_
 _atom_type_symbol
 _atom_type_oxidation_number
  La3+  3.0
  Ce3+  3.0
  Pr3+  3.0
  Nd3+  3.0
  Sm3+  3.0
  Bi2+  2.0
  S2-  -2.0
loop_
 _atom_site_type_symbol
 _atom_site_label
 _atom_site_symmetry_multiplicity
 _atom_site_fract_x
 _atom_site_fract_y
 _atom_site_fract_z
 _atom_site_occupancy
  La3+  La0  1  0.49474468  0.10780002  0.57548717  1
  La3+  La1  1  0.12474604  0.48500337  0.92860854  1
  La3+  La2  1  0.48383088  0.61192827  0.57743628  1
  La3+  La3  1  -0.01118813  0.36470870  0.57325399  1
  La3+  La4  1  0.87457178  0.73891719  0.92950329  1
  La3+  La5  1  0.24125272  0.10383365  0.58048199  1
  Ce3+  Ce6  1  0.73829390  0.11123629  0.55653317  1
  Ce3+  Ce7  1  0.24245265  0.60787936  0.56428048  1
  Ce3+  Ce8  1  -0.00030716  0.61905280  0.06303723  1
  Ce3+  Ce9  1  0.00250470  0.86673616  0.06417560  1
  Ce3+  Ce10  1  0.73797462  0.36035217  0.54957984  1
  Ce3+  Ce11  1  0.11159478  0.23437387  0.44594447  1
  Pr3+  Pr12  1  0.48797940  0.85992244  0.56461649  1
  Pr3+  Pr13  1  0.49609759  0.11330373  0.06797294  1
  Pr3+  Pr14  1  -0.01167523  0.11454743  0.57430478  1
  Pr3+  Pr15  1  0.24669936  0.85634881  0.06490576  1
  Pr3+  Pr16  1  0.24692835  0.60734921  0.06225250  1
  Pr3+  Pr17  1  0.00314392  0.11823236  0.07168548  1
  Pr3+  Pr18  1  0.61292339  0.73087415  0.43601503  1
  Pr3+  Pr19  1  0.38391313  0.24323683  0.93291820  1
  Pr3+  Pr20  1  0.49872117  0.86625419  0.06467860  1
  Pr3+  Pr21  1  0.11263359  -0.01177608  0.44148520  1
  Pr3+  Pr22  1  -0.01492293  0.61168197  0.57815051  1
  Pr3+  Pr23  1  0.50418463  0.36400332  0.07940198  1
  Pr3+  Pr24  1  0.12134910  0.73307129  0.92427334  1
  Pr3+  Pr25  1  0.86377668  0.23442097  0.42969136  1
  Pr3+  Pr26  1  0.86567752  0.73089082  0.43447224  1
  Pr3+  Pr27  1  0.60832099  0.22742320  0.42149089  1
  Pr3+  Pr28  1  0.73513163  0.61486870  0.57439471  1
  Pr3+  Pr29  1  0.37273248  -0.01386429  0.93374584  1
  Pr3+  Pr30  1  0.37575013  0.73899620  0.93324030  1
  Nd3+  Nd31  1  0.74840288  0.11425087  0.06285919  1
  Nd3+  Nd32  1  0.62353480  0.72702730  0.89572590  1
  Nd3+  Nd33  1  0.87778114  -0.00909859  0.94099943  1
  Nd3+  Nd34  1  0.87276618  0.48758783  0.94120266  1
  Nd3+  Nd35  1  0.36398838  0.49046948  0.43000312  1
  Nd3+  Nd36  1  0.11805849  -0.00736728  0.92665174  1
  Nd3+  Nd37  1  0.35845840  0.73769325  0.43015528  1
  Nd3+  Nd38  1  0.61908275  0.48759015  0.94124149  1
  Nd3+  Nd39  1  0.61227672  0.49116882  0.43898039  1
  Nd3+  Nd40  1  0.74902850  0.86430356  0.05425587  1
  Nd3+  Nd41  1  -0.01408136  0.85947206  0.56603056  1
  Nd3+  Nd42  1  -0.00027548  0.36880260  0.07133439  1
  Nd3+  Nd43  1  0.36452793  0.22488600  0.43372795  1
  Nd3+  Nd44  1  0.11832968  0.48321793  0.43936979  1
  Nd3+  Nd45  1  0.62043891  0.23361215  0.93503454  1
  Nd3+  Nd46  1  0.11401990  0.73112201  0.44189616  1
  Nd3+  Nd47  1  0.50067006  0.61953039  0.06874095  1
  Nd3+  Nd48  1  0.86469438  -0.01619834  0.43008875  1
  Nd3+  Nd49  1  0.87537782  0.23807419  0.94431372  1
  Nd3+  Nd50  1  0.36294945  -0.01514874  0.43793030  1
  Sm3+  Sm51  1  0.73998149  0.85963027  0.55903057  1
  Sm3+  Sm52  1  0.62210011  -0.01477529  0.93097430  1
  Sm3+  Sm53  1  0.25103690  0.36459618  0.05892702  1
  Sm3+  Sm54  1  0.74748197  0.61817669  0.05355821  1
  Sm3+  Sm55  1  0.25032577  0.11403009  0.05296926  1
  Sm3+  Sm56  1  0.12528571  0.23945393  0.93554648  1
  Sm3+  Sm57  1  0.86912816  0.48333336  0.43496067  1
  Sm3+  Sm58  1  0.61294754  -0.02299260  0.43511192  1
  Sm3+  Sm59  1  0.37945007  0.49054701  0.94614236  1
  Sm3+  Sm60  1  0.23843676  0.86056304  0.56089796  1
  Sm3+  Sm61  1  0.48912911  0.35860293  0.55245956  1
  Sm3+  Sm62  1  0.74699421  0.36522531  0.05374672  1
  Sm3+  Sm63  1  0.24398999  0.35610691  0.55510941  1
  Bi2+  Bi64  1  -0.04475996  0.22007366  0.29404434  1
  Bi2+  Bi65  1  -0.01178028  0.10290464  0.79246306  1
  Bi2+  Bi66  1  0.06524947  0.37499054  0.32375250  1
  Bi2+  Bi67  1  -0.01317954  0.36504866  0.79279299  1
  Bi2+  Bi68  1  0.02637079  0.58114266  0.33172751  1
  Bi2+  Bi69  1  -0.02804571  0.61820846  0.80327616  1
  Bi2+  Bi70  1  -0.02145699  0.93333260  0.28465667  1
  Bi2+  Bi71  1  0.07906288  0.87310048  0.78772894  1
  Bi2+  Bi72  1  0.24418663  0.22656596  0.24530842  1
  Bi2+  Bi73  1  0.21907399  0.12500321  0.77209159  1
  Bi2+  Bi74  1  0.34743923  0.36253766  0.30608280  1
  Bi2+  Bi75  1  0.24453401  0.34054044  0.78602036  1
  Bi2+  Bi76  1  0.26463026  0.60647818  0.29262017  1
  Bi2+  Bi77  1  0.25546140  0.74867728  0.81037093  1
  Bi2+  Bi78  1  0.27462342  0.97000564  0.29411094  1
  Bi2+  Bi79  1  0.26211484  0.94327736  0.81236683  1
  Bi2+  Bi80  1  0.46606810  0.12433843  0.29252326  1
  Bi2+  Bi81  1  0.48457748  0.14584746  0.80512012  1
  Bi2+  Bi82  1  0.54576374  0.46732972  0.30516563  1
  Bi2+  Bi83  1  0.52019789  0.36549220  0.76588146  1
  Bi2+  Bi84  1  0.51731943  0.66707795  0.28762465  1
  Bi2+  Bi85  1  0.47328748  0.57975884  0.79122244  1
  Bi2+  Bi86  1  0.47586493  0.86568593  0.27792455  1
  Bi2+  Bi87  1  0.51790707  0.86282092  0.78290454  1
  Bi2+  Bi88  1  0.73273103  0.13426208  0.28957602  1
  Bi2+  Bi89  1  0.75648867  0.07371761  0.79376131  1
  Bi2+  Bi90  1  0.77670454  0.42456897  0.25042794  1
  Bi2+  Bi91  1  0.78671030  0.33419010  0.78638863  1
  Bi2+  Bi92  1  0.77592079  0.68465302  0.28187295  1
  Bi2+  Bi93  1  0.72521608  0.61732888  0.77489884  1
  Bi2+  Bi94  1  0.73579110  0.87629653  0.29249985  1
  Bi2+  Bi95  1  0.79841578  0.89934348  0.75013288  1
  Bi2+  Bi96  1  0.10392781  -0.12942088  0.19302812  1
  Bi2+  Bi97  1  0.02207745  -0.01601655  0.69911524  1
  Bi2+  Bi98  1  0.14786340  0.39353889  0.21795826  1
  Bi2+  Bi99  1  0.11178430  0.25646626  0.70939878  1
  Bi2+  Bi100  1  0.14491425  0.58683293  0.19592246  1
  Bi2+  Bi101  1  0.11076556  0.54736162  0.73862978  1
  Bi2+  Bi102  1  0.09468506  0.74994763  0.28434115  1
  Bi2+  Bi103  1  0.14520650  0.73799214  0.71012997  1
  Bi2+  Bi104  1  0.36690761  0.06151421  0.19345347  1
  Bi2+  Bi105  1  0.36561411  -0.00489796  0.70907453  1
  Bi2+  Bi106  1  0.40200370  0.31546522  0.19751438  1
  Bi2+  Bi107  1  0.37574530  0.28685997  0.70179182  1
  Bi2+  Bi108  1  0.40245171  0.51352483  0.22583168  1
  Bi2+  Bi109  1  0.30639821  0.51708533  0.74317858  1
  Bi2+  Bi110  1  0.35333421  0.79303352  0.20119748  1
  Bi2+  Bi111  1  0.34062635  0.73181769  0.70731559  1
  Bi2+  Bi112  1  0.60169987  0.00750053  0.24531709  1
  Bi2+  Bi113  1  0.63761869  -0.00039711  0.70800577  1
  Bi2+  Bi114  1  0.61300542  0.31377451  0.24542546  1
  Bi2+  Bi115  1  0.64918900  0.22026255  0.72971485  1
  Bi2+  Bi116  1  0.64851667  0.56112550  0.20829994  1
  Bi2+  Bi117  1  0.65843119  0.46185316  0.70961448  1
  Bi2+  Bi118  1  0.65322337  0.77067423  0.19139101  1
  Bi2+  Bi119  1  0.60931535  0.73065454  0.71180409  1
  Bi2+  Bi120  1  0.86296801  0.00471592  0.20307000  1
  Bi2+  Bi121  1  0.84623737  -0.01011410  0.65004306  1
  Bi2+  Bi122  1  0.86760480  0.27029785  0.19560662  1
  Bi2+  Bi123  1  0.84721220  0.18309907  0.70814006  1
  Bi2+  Bi124  1  0.96067488  0.49641754  0.23569112  1
  Bi2+  Bi125  1  0.89029952  0.45419193  0.70309229  1
  Bi2+  Bi126  1  0.91870537  0.76705929  0.22597659  1
  Bi2+  Bi127  1  0.86880927  0.73182745  0.70929860  1
  S2-  S128  1  0.01025304  -0.01000742  0.14247740  1
  S2-  S129  1  0.11240826  0.10481585  0.65199347  1
  S2-  S130  1  0.00599818  0.24684526  0.14501120  1
  S2-  S131  1  -0.03590676  0.24661258  0.64916310  1
  S2-  S132  1  -0.00397588  0.50486369  0.13857932  1
  S2-  S133  1  0.02823878  0.48556153  0.64971502  1
  S2-  S134  1  0.00408410  0.74692356  0.13694917  1
  S2-  S135  1  -0.00014405  0.75351347  0.64646660  1
  S2-  S136  1  0.24648851  0.15942164  0.14933622  1
  S2-  S137  1  0.37060294  0.13615898  0.65025635  1
  S2-  S138  1  0.23779065  0.47079167  0.13906225  1
  S2-  S139  1  0.22734931  0.34128087  0.65349409  1
  S2-  S140  1  0.24697588  0.71542388  0.14366855  1
  S2-  S141  1  0.33962751  0.58638847  0.64592596  1
  S2-  S142  1  0.25898154  0.93024231  0.15963142  1
  S2-  S143  1  0.25709041  0.93352647  0.65020024  1
  S2-  S144  1  0.51982631  0.23124966  0.14580856  1
  S2-  S145  1  0.50257517  -0.03106385  0.64788924  1
  S2-  S146  1  0.51065644  0.50425482  0.14674031  1
  S2-  S147  1  0.49139598  0.37028415  0.65227773  1
  S2-  S148  1  0.48985518  0.74819060  0.14356855  1
  S2-  S149  1  0.61006409  0.58565838  0.64934185  1
  S2-  S150  1  0.49607174  0.99148600  0.14212462  1
  S2-  S151  1  0.47637951  0.75363547  0.64776213  1
  S2-  S152  1  0.77350036  0.12584741  0.16206702  1
  S2-  S153  1  0.63938278  0.13559795  0.63852785  1
  S2-  S154  1  0.73281044  0.36617962  0.15141662  1
  S2-  S155  1  0.76244660  0.37213787  0.64618203  1
  S2-  S156  1  0.75955458  0.64472785  0.15143751  1
  S2-  S157  1  0.85284521  0.59047950  0.65021764  1
  S2-  S158  1  0.75154591  0.89187593  0.15376955  1
  S2-  S159  1  0.73229161  0.77050655  0.64443038  1
  S2-  S160  1  0.12967373  -0.03734960  0.34108046  1
  S2-  S161  1  0.12006067  0.12787833  0.85741222  1
  S2-  S162  1  0.10040887  0.20199379  0.34930761  1
  S2-  S163  1  0.11805584  0.35389557  0.85751823  1
  S2-  S164  1  0.23385825  0.47524847  0.35844633  1
  S2-  S165  1  0.12223925  0.59686820  0.85052603  1
  S2-  S166  1  0.21388357  0.72947550  0.35925336  1
  S2-  S167  1  -0.00738881  0.76058921  0.85237941  1
  S2-  S168  1  0.33306342  0.09448077  0.35823306  1
  S2-  S169  1  0.44115218  -0.00457130  0.83961061  1
  S2-  S170  1  0.46996321  0.25637274  0.35298760  1
  S2-  S171  1  0.32920458  0.20843369  0.83662768  1
  S2-  S172  1  0.39791242  0.61904601  0.35750277  1
  S2-  S173  1  0.36003607  0.49900212  0.84725119  1
  S2-  S174  1  0.36817813  0.87167602  0.35655767  1
  S2-  S175  1  0.46943104  0.73037552  0.84613392  1
  S2-  S176  1  0.60550374  0.07996026  0.35399183  1
  S2-  S177  1  0.62943117  0.11203449  0.85898531  1
  S2-  S178  1  0.69128821  0.27656293  0.33180467  1
  S2-  S179  1  0.51595803  0.29496713  0.86152511  1
  S2-  S180  1  0.62304334  0.60365156  0.36061432  1
  S2-  S181  1  0.61469461  0.55845238  0.84996134  1
  S2-  S182  1  0.61331151  0.85294813  0.35966671  1
  S2-  S183  1  0.63288426  0.88257720  0.84842038  1
  S2-  S184  1  0.86822324  0.10667706  0.35454277  1
  S2-  S185  1  0.97730281  -0.01869584  0.85887768  1
  S2-  S186  1  0.89905491  0.36028693  0.35917750  1
  S2-  S187  1  0.89754863  0.23459012  0.84567330  1
  S2-  S188  1  0.85972657  0.60363589  0.36018234  1
  S2-  S189  1  0.87376807  0.48051101  0.84133305  1
  S2-  S190  1  0.87588614  0.85658273  0.35831567  1
  S2-  S191  1  0.77513663  0.72084862  0.84359595  1
  S2-  S192  1  -0.01303588  0.11008782  0.46073730  1
  S2-  S193  1  0.00032237  0.11857187  0.96292823  1
  S2-  S194  1  -0.00681913  0.36165543  0.46373641  1
  S2-  S195  1  -0.00440650  0.36245278  0.95993627  1
  S2-  S196  1  -0.00664367  0.60610687  0.46407052  1
  S2-  S197  1  -0.00427742  0.61006986  0.95529995  1
  S2-  S198  1  -0.00752091  0.85757788  0.45902363  1
  S2-  S199  1  0.00250379  0.86564238  0.95949840  1
  S2-  S200  1  0.23499462  0.11039105  0.46582730  1
  S2-  S201  1  0.25301393  0.11703660  0.95073652  1
  S2-  S202  1  0.24288070  0.35283208  0.45247449  1
  S2-  S203  1  0.25659560  0.36410297  0.95474740  1
  S2-  S204  1  0.23933457  0.60931977  0.46065285  1
  S2-  S205  1  0.25409894  0.61093878  0.95366561  1
  S2-  S206  1  0.23355411  0.86181521  0.45863206  1
  S2-  S207  1  0.24449794  0.86219049  0.94851140  1
  S2-  S208  1  0.49029560  0.10383658  0.45959840  1
  S2-  S209  1  0.49656685  0.11000711  0.95922726  1
  S2-  S210  1  0.48756764  0.36524837  0.44962464  1
  S2-  S211  1  0.49996909  0.36778502  0.96966070  1
  S2-  S212  1  0.48591604  0.61106129  0.46462891  1
  S2-  S213  1  0.50058821  0.61510107  0.95803213  1
  S2-  S214  1  0.48677242  0.85818636  0.45847501  1
  S2-  S215  1  0.50068942  0.86362818  0.95422573  1
  S2-  S216  1  0.73713277  0.10678592  0.45274944  1
  S2-  S217  1  0.75194048  0.11192898  0.95603530  1
  S2-  S218  1  0.73616411  0.36467708  0.44531957  1
  S2-  S219  1  0.74586998  0.36172864  0.94773564  1
  S2-  S220  1  0.74222188  0.60759743  0.46378718  1
  S2-  S221  1  0.74536084  0.61179213  0.95052133  1
  S2-  S222  1  0.74187828  0.85861940  0.45682934  1
  S2-  S223  1  0.75173225  0.86807400  0.94941375  1
  S2-  S224  1  0.13069791  -0.00845290  0.03935418  1
  S2-  S225  1  0.10997898  -0.01846856  0.54832337  1
  S2-  S226  1  0.12939358  0.24295385  0.04105531  1
  S2-  S227  1  0.11666451  0.23670587  0.55040626  1
  S2-  S228  1  0.12296852  0.48515189  0.03692157  1
  S2-  S229  1  0.12303819  0.48305423  0.54423123  1
  S2-  S230  1  0.12604337  0.73595569  0.03435074  1
  S2-  S231  1  0.11781959  0.73337565  0.54767883  1
  S2-  S232  1  0.36728601  -0.01372005  0.04071274  1
  S2-  S233  1  0.36277042  -0.01605197  0.54372525  1
  S2-  S234  1  0.37256392  0.24141864  0.04479541  1
  S2-  S235  1  0.36731781  0.23514634  0.54193117  1
  S2-  S236  1  0.37830636  0.48802310  0.04825563  1
  S2-  S237  1  0.36444076  0.47963571  0.53996126  1
  S2-  S238  1  0.37337450  0.73759110  0.03898921  1
  S2-  S239  1  0.35687604  0.73764255  0.54287142  1
  S2-  S240  1  0.62653168  -0.00875255  0.04014756  1
  S2-  S241  1  0.61985641  -0.01848594  0.54057211  1
  S2-  S242  1  0.62783951  0.23822956  0.04151113  1
  S2-  S243  1  0.61232904  0.23842295  0.53365906  1
  S2-  S244  1  0.62812326  0.49152423  0.04587412  1
  S2-  S245  1  0.61138901  0.48282090  0.54312735  1
  S2-  S246  1  0.62658656  0.74039742  0.04647947  1
  S2-  S247  1  0.61432962  0.73758311  0.54242015  1
  S2-  S248  1  0.87347992  -0.00700877  0.04526759  1
  S2-  S249  1  0.86539927  -0.01544995  0.53768498  1
  S2-  S250  1  0.87061457  0.24200373  0.04827448  1
  S2-  S251  1  0.86113922  0.23426011  0.53999414  1
  S2-  S252  1  0.86730175  0.48964045  0.04553669  1
  S2-  S253  1  0.86394776  0.48466472  0.54126695  1
  S2-  S254  1  0.87129117  0.74037214  0.03919725  1
  S2-  S255  1  0.86452427  0.73680306  0.54238635  1
