# generated using pymatgen
data_La6Ce6Pr19Nd20Sm13(BiS2)64
_symmetry_space_group_name_H-M   'P 1'
_cell_length_a   16.06334431
_cell_length_b   16.09460643
_cell_length_c   27.38864742
_cell_angle_alpha   90.00830939
_cell_angle_beta   90.07073528
_cell_angle_gamma   89.83157142
_symmetry_Int_Tables_number   1
_chemical_formula_structural   La6Ce6Pr19Nd20Sm13(BiS2)64
_chemical_formula_sum   'La6 Ce6 Pr19 Nd20 Sm13 Bi64 S128'
_cell_volume   7080.83872681
_cell_formula_units_Z   1
loop_
 _symmetry_equiv_pos_site_id
 _symmetry_equiv_pos_as_xyz
  1  'x, y, z'
loop_
 _atom_type_symbol
 _atom_type_oxidation_number
  La3+  3.0
  Ce3+  3.0
  Pr3+  3.0
  Nd3+  3.0
  Sm3+  3.0
  Bi2+  2.0
  S2-  -2.0
loop_
 _atom_site_type_symbol
 _atom_site_label
 _atom_site_symmetry_multiplicity
 _atom_site_fract_x
 _atom_site_fract_y
 _atom_site_fract_z
 _atom_site_occupancy
  La3+  La0  1  0.61927146  0.76608495  0.39344514  1
  La3+  La1  1  0.88675301  0.75620576  0.93706986  1
  La3+  La2  1  0.01464214  0.89311412  0.07204442  1
  La3+  La3  1  0.26303913  0.37841531  0.08622197  1
  La3+  La4  1  0.24380416  0.35539170  0.61718833  1
  La3+  La5  1  0.40003218  0.76568766  0.91362189  1
  Ce3+  Ce6  1  0.76633160  0.63029815  0.07301181  1
  Ce3+  Ce7  1  0.51246098  0.38203029  0.07390177  1
  Ce3+  Ce8  1  0.24015641  0.13311917  0.55580890  1
  Ce3+  Ce9  1  0.01706621  0.38349501  0.05645313  1
  Ce3+  Ce10  1  0.76821757  0.13067060  0.06203654  1
  Ce3+  Ce11  1  0.63615423  0.75852241  0.95290157  1
  Pr3+  Pr12  1  0.86203942  0.26235081  0.43304437  1
  Pr3+  Pr13  1  0.01646774  0.63430033  0.06031548  1
  Pr3+  Pr14  1  0.13761396  0.26127059  0.93303469  1
  Pr3+  Pr15  1  -0.00574864  0.13837519  0.55471646  1
  Pr3+  Pr16  1  -0.02037325  0.63671467  0.57051752  1
  Pr3+  Pr17  1  -0.01204493  0.38816104  0.56237226  1
  Pr3+  Pr18  1  0.50938306  0.63571496  0.07264153  1
  Pr3+  Pr19  1  0.61502463  0.00421919  0.43794731  1
  Pr3+  Pr20  1  0.87559322  0.25383780  0.91954390  1
  Pr3+  Pr21  1  0.85689411  0.51468742  0.42871100  1
  Pr3+  Pr22  1  0.11704078  0.26658481  0.43658273  1
  Pr3+  Pr23  1  0.73986748  0.13628442  0.55745450  1
  Pr3+  Pr24  1  0.24030209  0.62869388  0.56700844  1
  Pr3+  Pr25  1  0.51224920  0.88190121  0.07875461  1
  Pr3+  Pr26  1  -0.00839711  0.88660458  0.57302787  1
  Pr3+  Pr27  1  0.14114462  0.00827900  0.93245201  1
  Pr3+  Pr28  1  0.48988967  0.39186054  0.56568002  1
  Pr3+  Pr29  1  0.11254849  0.51333801  0.44212596  1
  Pr3+  Pr30  1  0.36356171  0.76119837  0.43490903  1
  Nd3+  Nd31  1  0.63817790  0.00295493  0.94871374  1
  Nd3+  Nd32  1  0.39192303  0.50770391  0.94009771  1
  Nd3+  Nd33  1  0.38937045  0.25992130  0.94053432  1
  Nd3+  Nd34  1  0.14077625  0.51163511  0.93395265  1
  Nd3+  Nd35  1  0.74018109  0.39032431  0.56504229  1
  Nd3+  Nd36  1  0.61247999  0.26131417  0.44465412  1
  Nd3+  Nd37  1  0.86525814  0.00571115  0.43865599  1
  Nd3+  Nd38  1  0.13881277  0.76211456  0.93431737  1
  Nd3+  Nd39  1  0.48847849  0.88425936  0.56409859  1
  Nd3+  Nd40  1  0.77468236  0.38247286  0.07166546  1
  Nd3+  Nd41  1  0.11614108  0.00617196  0.44204432  1
  Nd3+  Nd42  1  0.88531939  0.00242450  0.93125702  1
  Nd3+  Nd43  1  0.76415585  0.88002153  0.10098828  1
  Nd3+  Nd44  1  0.26607878  0.63528728  0.05100066  1
  Nd3+  Nd45  1  0.36464140  0.00521218  0.44481574  1
  Nd3+  Nd46  1  0.61179933  0.51164895  0.43203056  1
  Nd3+  Nd47  1  0.74416018  0.89451458  0.57382517  1
  Nd3+  Nd48  1  0.36440329  0.26300450  0.44268905  1
  Nd3+  Nd49  1  0.63869364  0.26099054  0.94647186  1
  Nd3+  Nd50  1  0.63744239  0.50903707  0.95127376  1
  Sm3+  Sm51  1  0.39052525  0.00601829  0.94540930  1
  Sm3+  Sm52  1  0.73957167  0.64166103  0.55211112  1
  Sm3+  Sm53  1  0.48757962  0.13565289  0.55652317  1
  Sm3+  Sm54  1  0.24253998  0.87475179  0.58673047  1
  Sm3+  Sm55  1  0.36900531  0.51444026  0.43633326  1
  Sm3+  Sm56  1  0.51510533  0.13412911  0.05390978  1
  Sm3+  Sm57  1  0.26208023  0.88395260  0.06061825  1
  Sm3+  Sm58  1  0.11243039  0.76007126  0.44639878  1
  Sm3+  Sm59  1  0.88632952  0.50845006  0.93513127  1
  Sm3+  Sm60  1  0.01229860  0.13456779  0.04567657  1
  Sm3+  Sm61  1  0.26376546  0.13561260  0.05565655  1
  Sm3+  Sm62  1  0.86934499  0.76271732  0.43698135  1
  Sm3+  Sm63  1  0.49092217  0.64049428  0.55419551  1
  Bi2+  Bi64  1  -0.01399464  0.15371141  0.22354508  1
  Bi2+  Bi65  1  -0.01239961  0.08237982  0.77504767  1
  Bi2+  Bi66  1  -0.00966020  0.32575814  0.29313553  1
  Bi2+  Bi67  1  -0.03680556  0.28332311  0.78691939  1
  Bi2+  Bi68  1  0.07313340  0.63151185  0.30805751  1
  Bi2+  Bi69  1  -0.01475390  0.58702039  0.80120792  1
  Bi2+  Bi70  1  -0.00048127  0.89634430  0.30364105  1
  Bi2+  Bi71  1  -0.00429315  0.83946077  0.79069066  1
  Bi2+  Bi72  1  0.28462080  0.09192034  0.26661676  1
  Bi2+  Bi73  1  0.28268896  0.11666267  0.79249304  1
  Bi2+  Bi74  1  0.23825446  0.35723595  0.30158574  1
  Bi2+  Bi75  1  0.26963589  0.36213843  0.82202148  1
  Bi2+  Bi76  1  0.27192126  0.66169396  0.32435041  1
  Bi2+  Bi77  1  0.23442530  0.60736300  0.80614718  1
  Bi2+  Bi78  1  0.21334153  0.85349684  0.33297607  1
  Bi2+  Bi79  1  0.25233977  0.92355555  0.79295142  1
  Bi2+  Bi80  1  0.47087063  0.14168928  0.29308211  1
  Bi2+  Bi81  1  0.55256349  0.08253011  0.79481764  1
  Bi2+  Bi82  1  0.52176480  0.35922654  0.29237069  1
  Bi2+  Bi83  1  0.55036524  0.37870229  0.78702962  1
  Bi2+  Bi84  1  0.45844829  0.61461064  0.28937967  1
  Bi2+  Bi85  1  0.55010290  0.61091474  0.73540375  1
  Bi2+  Bi86  1  0.40653254  0.87663260  0.27709409  1
  Bi2+  Bi87  1  0.52936347  0.86689196  0.80043684  1
  Bi2+  Bi88  1  0.68386842  0.12125715  0.23622495  1
  Bi2+  Bi89  1  0.73377052  0.16016628  0.78304002  1
  Bi2+  Bi90  1  0.77594602  0.34875241  0.30204622  1
  Bi2+  Bi91  1  0.73900692  0.42866132  0.80781863  1
  Bi2+  Bi92  1  0.79064203  0.61435144  0.29403213  1
  Bi2+  Bi93  1  0.74776070  0.59868547  0.72752385  1
  Bi2+  Bi94  1  0.73738057  0.88597311  0.28460326  1
  Bi2+  Bi95  1  0.74729580  0.86195699  0.78721590  1
  Bi2+  Bi96  1  0.14009819  0.00939020  0.20557355  1
  Bi2+  Bi97  1  0.20251103  0.02803756  0.69963832  1
  Bi2+  Bi98  1  0.13183375  0.28361919  0.21329174  1
  Bi2+  Bi99  1  0.07677424  0.21081031  0.70315163  1
  Bi2+  Bi100  1  0.12466285  0.54565510  0.20623599  1
  Bi2+  Bi101  1  0.11717412  0.49072321  0.71451431  1
  Bi2+  Bi102  1  0.13012037  0.79646105  0.23368769  1
  Bi2+  Bi103  1  0.12264403  0.76918724  0.71745759  1
  Bi2+  Bi104  1  0.33428655  -0.03380561  0.18063464  1
  Bi2+  Bi105  1  0.40428732  0.01057042  0.71457110  1
  Bi2+  Bi106  1  0.37960542  0.24634003  0.20488943  1
  Bi2+  Bi107  1  0.44583729  0.22432760  0.74226077  1
  Bi2+  Bi108  1  0.30585725  0.51372694  0.24680500  1
  Bi2+  Bi109  1  0.37236357  0.49475701  0.71362057  1
  Bi2+  Bi110  1  0.32159052  0.74920133  0.20417105  1
  Bi2+  Bi111  1  0.37155260  0.75076090  0.71482883  1
  Bi2+  Bi112  1  0.52902580  0.00644386  0.21219660  1
  Bi2+  Bi113  1  0.61554358  -0.02023600  0.69966758  1
  Bi2+  Bi114  1  0.60645606  0.29377473  0.19189346  1
  Bi2+  Bi115  1  0.63632082  0.26408414  0.69804184  1
  Bi2+  Bi116  1  0.65724692  0.47660596  0.21946593  1
  Bi2+  Bi117  1  0.63063598  0.45637777  0.67751991  1
  Bi2+  Bi118  1  0.60589372  0.72384428  0.20101792  1
  Bi2+  Bi119  1  0.63513426  0.78520155  0.70532677  1
  Bi2+  Bi120  1  0.86219911  -0.00460089  0.22867720  1
  Bi2+  Bi121  1  0.83934276  -0.01102975  0.72122546  1
  Bi2+  Bi122  1  0.80130539  0.24554315  0.18341823  1
  Bi2+  Bi123  1  0.83257088  0.25663831  0.69959528  1
  Bi2+  Bi124  1  0.88174452  0.43859618  0.21987609  1
  Bi2+  Bi125  1  0.89411701  0.45474785  0.73334681  1
  Bi2+  Bi126  1  0.90670510  0.74416733  0.21618834  1
  Bi2+  Bi127  1  0.91035669  0.73193068  0.70608529  1
  S2-  S128  1  0.02304064  0.06905793  0.13644606  1
  S2-  S129  1  -0.01911665  0.10850309  0.65308610  1
  S2-  S130  1  -0.08439237  0.34841216  0.13346586  1
  S2-  S131  1  0.07592733  0.37189758  0.65134390  1
  S2-  S132  1  -0.00296911  0.63184224  0.16107492  1
  S2-  S133  1  0.04637944  0.63317563  0.66657280  1
  S2-  S134  1  -0.08514441  0.87364376  0.15660670  1
  S2-  S135  1  0.10747424  0.89619206  0.65180818  1
  S2-  S136  1  0.24678195  0.21789519  0.14215025  1
  S2-  S137  1  0.23459718  0.18477492  0.64906205  1
  S2-  S138  1  0.11971810  0.41022259  0.14196171  1
  S2-  S139  1  0.24589237  0.37218707  0.72865573  1
  S2-  S140  1  0.26360449  0.61344671  0.15023379  1
  S2-  S141  1  0.24451642  0.52378744  0.64956381  1
  S2-  S142  1  0.15111204  0.87305910  0.13846529  1
  S2-  S143  1  0.24595998  0.73651804  0.65047579  1
  S2-  S144  1  0.50216505  0.15318531  0.15013710  1
  S2-  S145  1  0.48138478  0.13303240  0.65360862  1
  S2-  S146  1  0.40145899  0.38443297  0.15041941  1
  S2-  S147  1  0.41147686  0.37577499  0.65404958  1
  S2-  S148  1  0.54919034  0.56852085  0.16759593  1
  S2-  S149  1  0.44909306  0.63280032  0.65072788  1
  S2-  S150  1  0.46893309  0.75399710  0.14906563  1
  S2-  S151  1  0.38948294  0.87675323  0.64718012  1
  S2-  S152  1  0.76876743  0.04527558  0.14783158  1
  S2-  S153  1  0.73803084  0.04173077  0.64168664  1
  S2-  S154  1  0.77660343  0.50819716  0.14628893  1
  S2-  S155  1  0.86056920  0.39162693  0.63709883  1
  S2-  S156  1  0.76535196  0.72662625  0.15810484  1
  S2-  S157  1  0.83217310  0.63271705  0.63542257  1
  S2-  S158  1  0.62252387  0.88610573  0.16208354  1
  S2-  S159  1  0.86792043  0.87179621  0.64624974  1
  S2-  S160  1  0.11411783  -0.00001254  0.34300272  1
  S2-  S161  1  0.10320482  -0.04172571  0.83879061  1
  S2-  S162  1  0.13133980  0.24027875  0.33801529  1
  S2-  S163  1  0.16833423  0.21997261  0.83658580  1
  S2-  S164  1  0.13192647  0.47775910  0.34323248  1
  S2-  S165  1  0.12711304  0.47077531  0.83651024  1
  S2-  S166  1  0.00396131  0.76246095  0.36789135  1
  S2-  S167  1  0.09958216  0.71235801  0.84072361  1
  S2-  S168  1  0.38221137  0.01680165  0.34632867  1
  S2-  S169  1  0.39545450  -0.07439682  0.85927135  1
  S2-  S170  1  0.38840751  0.27985112  0.34432970  1
  S2-  S171  1  0.42686994  0.28433224  0.84439304  1
  S2-  S172  1  0.48366060  0.49772893  0.35989791  1
  S2-  S173  1  0.35935016  0.50953302  0.84100959  1
  S2-  S174  1  0.45619266  0.76897315  0.34922696  1
  S2-  S175  1  0.34022033  0.72623086  0.81600737  1
  S2-  S176  1  0.62059342  -0.07404887  0.34795131  1
  S2-  S177  1  0.65386217  -0.02676678  0.85045323  1
  S2-  S178  1  0.63294809  0.27194878  0.34680464  1
  S2-  S179  1  0.71653384  0.27179335  0.85862649  1
  S2-  S180  1  0.72655788  0.49823902  0.35597934  1
  S2-  S181  1  0.60132462  0.49866665  0.85323326  1
  S2-  S182  1  0.61929813  0.67275186  0.30080454  1
  S2-  S183  1  0.55827567  0.74594783  0.86478084  1
  S2-  S184  1  0.85401285  -0.01564511  0.34033199  1
  S2-  S185  1  0.88007402  -0.12618414  0.85888598  1
  S2-  S186  1  0.87265351  0.22018361  0.33598134  1
  S2-  S187  1  0.88039928  0.11168224  0.85079399  1
  S2-  S188  1  0.92499839  0.55361720  0.33611200  1
  S2-  S189  1  0.89470549  0.39308304  0.85851135  1
  S2-  S190  1  0.78471441  0.76425897  0.34950606  1
  S2-  S191  1  0.86947898  0.62952023  0.86073099  1
  S2-  S192  1  -0.00876679  0.13510177  0.44727552  1
  S2-  S193  1  0.01527424  0.13291545  0.94313063  1
  S2-  S194  1  -0.01400979  0.38719990  0.44951946  1
  S2-  S195  1  0.01790640  0.38747215  0.95146820  1
  S2-  S196  1  -0.01374895  0.63578060  0.46158882  1
  S2-  S197  1  0.01797834  0.63252553  0.95412100  1
  S2-  S198  1  -0.00877050  0.88777441  0.46316901  1
  S2-  S199  1  0.01773967  0.88480986  0.95800826  1
  S2-  S200  1  0.24146157  0.13406149  0.44851604  1
  S2-  S201  1  0.26766575  0.13211002  0.95077337  1
  S2-  S202  1  0.24618816  0.39132391  0.44583791  1
  S2-  S203  1  0.26511372  0.38369002  0.95055730  1
  S2-  S204  1  0.23981489  0.63554357  0.45591787  1
  S2-  S205  1  0.26877206  0.63902769  0.94529117  1
  S2-  S206  1  0.23848269  0.88300510  0.46108029  1
  S2-  S207  1  0.26515686  0.88265952  0.95491085  1
  S2-  S208  1  0.48907757  0.13339553  0.45191700  1
  S2-  S209  1  0.51352988  0.13242256  0.94923673  1
  S2-  S210  1  0.48969948  0.38489922  0.45933848  1
  S2-  S211  1  0.51320519  0.38226511  0.96218737  1
  S2-  S212  1  0.49591570  0.64257094  0.45147270  1
  S2-  S213  1  0.50902592  0.63208872  0.96400407  1
  S2-  S214  1  0.49144155  0.88253544  0.45850567  1
  S2-  S215  1  0.51183619  0.88493696  0.96687062  1
  S2-  S216  1  0.73828645  0.13335098  0.44966615  1
  S2-  S217  1  0.75793665  0.12955108  0.95650764  1
  S2-  S218  1  0.73604479  0.38360106  0.45922207  1
  S2-  S219  1  0.76192007  0.38703174  0.96382006  1
  S2-  S220  1  0.73300808  0.64520006  0.45025764  1
  S2-  S221  1  0.75919999  0.63168483  0.96445385  1
  S2-  S222  1  0.74123352  0.88500045  0.46021979  1
  S2-  S223  1  0.75947975  0.88070173  0.95940795  1
  S2-  S224  1  0.14475643  0.01384575  0.03854717  1
  S2-  S225  1  0.11882526  0.00927333  0.54756262  1
  S2-  S226  1  0.13855908  0.25574380  0.03891124  1
  S2-  S227  1  0.11932042  0.26419335  0.54305116  1
  S2-  S228  1  0.14449544  0.50970016  0.03933642  1
  S2-  S229  1  0.10718211  0.51482359  0.54702488  1
  S2-  S230  1  0.14075945  0.75870342  0.04038669  1
  S2-  S231  1  0.11342305  0.75902701  0.54892606  1
  S2-  S232  1  0.38846171  0.01108717  0.04890708  1
  S2-  S233  1  0.36467361  0.01004702  0.54986280  1
  S2-  S234  1  0.38944878  0.25631187  0.04454702  1
  S2-  S235  1  0.36535581  0.26121228  0.54800959  1
  S2-  S236  1  0.38642141  0.50649017  0.04727492  1
  S2-  S237  1  0.37265223  0.51678280  0.53926202  1
  S2-  S238  1  0.38317118  0.76405672  0.04282482  1
  S2-  S239  1  0.36507847  0.75977223  0.54232381  1
  S2-  S240  1  0.63621403  0.00879830  0.05272235  1
  S2-  S241  1  0.61023202  0.01113225  0.54457487  1
  S2-  S242  1  0.64088120  0.25776089  0.05148469  1
  S2-  S243  1  0.61307097  0.26082237  0.55057961  1
  S2-  S244  1  0.63599394  0.50379743  0.05452004  1
  S2-  S245  1  0.61645160  0.51647395  0.54249224  1
  S2-  S246  1  0.63963832  0.75844514  0.05597335  1
  S2-  S247  1  0.61765074  0.76359377  0.56162519  1
  S2-  S248  1  0.88919593  0.00979313  0.03858241  1
  S2-  S249  1  0.86828740  0.01383431  0.54316049  1
  S2-  S250  1  0.88907285  0.25225374  0.03006812  1
  S2-  S251  1  0.86346095  0.25896613  0.54027351  1
  S2-  S252  1  0.89391902  0.50968334  0.04054046  1
  S2-  S253  1  0.85855221  0.51202817  0.53547537  1
  S2-  S254  1  0.89033655  0.75893748  0.04818032  1
  S2-  S255  1  0.86156172  0.76612832  0.54077700  1
