# generated using pymatgen
data_La6Ce6Pr19Nd20Sm13(BiS2)64
_symmetry_space_group_name_H-M   'P 1'
_cell_length_a   16.16688611
_cell_length_b   16.19126240
_cell_length_c   27.19879697
_cell_angle_alpha   89.94975885
_cell_angle_beta   89.97949195
_cell_angle_gamma   89.93640176
_symmetry_Int_Tables_number   1
_chemical_formula_structural   La6Ce6Pr19Nd20Sm13(BiS2)64
_chemical_formula_sum   'La6 Ce6 Pr19 Nd20 Sm13 Bi64 S128'
_cell_volume   7119.61194309
_cell_formula_units_Z   1
loop_
 _symmetry_equiv_pos_site_id
 _symmetry_equiv_pos_as_xyz
  1  'x, y, z'
loop_
 _atom_type_symbol
 _atom_type_oxidation_number
  La3+  3.0
  Ce3+  3.0
  Pr3+  3.0
  Nd3+  3.0
  Sm3+  3.0
  Bi2+  2.0
  S2-  -2.0
loop_
 _atom_site_type_symbol
 _atom_site_label
 _atom_site_symmetry_multiplicity
 _atom_site_fract_x
 _atom_site_fract_y
 _atom_site_fract_z
 _atom_site_occupancy
  La3+  La0  1  0.64172630  0.76184795  0.90704342  1
  La3+  La1  1  0.64363036  0.50269975  0.91986786  1
  La3+  La2  1  0.88170754  0.00581306  0.41926522  1
  La3+  La3  1  0.76246815  0.64024299  0.08222903  1
  La3+  La4  1  -0.00505565  0.88226988  0.57176595  1
  La3+  La5  1  0.61343831  0.76319391  0.38602939  1
  Ce3+  Ce6  1  0.38039299  -0.00529489  0.44576380  1
  Ce3+  Ce7  1  0.12578182  0.75841587  0.94187671  1
  Ce3+  Ce8  1  0.62448368  0.24787528  0.44245991  1
  Ce3+  Ce9  1  0.62452505  0.51259390  0.44497249  1
  Ce3+  Ce10  1  0.75441277  0.88650265  0.06618579  1
  Ce3+  Ce11  1  0.13168022  0.00746450  0.94302409  1
  Pr3+  Pr12  1  0.51231617  0.63156652  0.04666082  1
  Pr3+  Pr13  1  0.50519258  0.86898461  0.56302933  1
  Pr3+  Pr14  1  0.75286339  0.13171592  0.07098557  1
  Pr3+  Pr15  1  0.87216633  0.74590843  0.43222837  1
  Pr3+  Pr16  1  0.12528602  0.24928706  0.44860332  1
  Pr3+  Pr17  1  0.25702771  0.88058065  0.06224261  1
  Pr3+  Pr18  1  0.49831621  0.61783284  0.58273138  1
  Pr3+  Pr19  1  -0.01013273  0.12476353  0.57881253  1
  Pr3+  Pr20  1  0.50512670  0.13368965  0.05558261  1
  Pr3+  Pr21  1  0.00241922  0.88182437  0.06367168  1
  Pr3+  Pr22  1  0.24931501  0.37222525  0.56474898  1
  Pr3+  Pr23  1  0.13014386  0.50610323  0.93903885  1
  Pr3+  Pr24  1  0.25231165  0.87245304  0.56019425  1
  Pr3+  Pr25  1  0.75045913  0.37503135  0.55521624  1
  Pr3+  Pr26  1  0.88587206  0.76534649  0.92490544  1
  Pr3+  Pr27  1  0.75508888  0.38049510  0.06042651  1
  Pr3+  Pr28  1  0.38439318  0.00416057  0.93785764  1
  Pr3+  Pr29  1  0.50071935  0.87692133  0.06689833  1
  Pr3+  Pr30  1  0.00372533  0.38120564  0.05760764  1
  Nd3+  Nd31  1  0.88292886  0.25192975  0.93025376  1
  Nd3+  Nd32  1  0.87672856  0.51174860  0.94200158  1
  Nd3+  Nd33  1  0.50126991  0.37404787  0.56645606  1
  Nd3+  Nd34  1  0.25793848  0.38490044  0.05810200  1
  Nd3+  Nd35  1  0.25754229  0.13367329  0.05484232  1
  Nd3+  Nd36  1  0.25330479  0.12306253  0.55934891  1
  Nd3+  Nd37  1  0.00438866  0.13282520  0.06304844  1
  Nd3+  Nd38  1  0.12053899  0.75010869  0.43833842  1
  Nd3+  Nd39  1  0.74335522  0.11794005  0.56480097  1
  Nd3+  Nd40  1  0.13273150  0.25962355  0.94447625  1
  Nd3+  Nd41  1  0.38202225  0.25771090  0.93557858  1
  Nd3+  Nd42  1  0.74914098  0.87063387  0.54832407  1
  Nd3+  Nd43  1  0.38395600  0.75936128  0.92948286  1
  Nd3+  Nd44  1  0.37735663  0.24856260  0.44364875  1
  Nd3+  Nd45  1  0.00575862  0.63254032  0.06213128  1
  Nd3+  Nd46  1  0.38340027  0.51027888  0.93015441  1
  Nd3+  Nd47  1  0.37541145  0.74437560  0.44331447  1
  Nd3+  Nd48  1  0.24823778  0.62536502  0.56739958  1
  Nd3+  Nd49  1  0.87863712  0.24992252  0.44290043  1
  Nd3+  Nd50  1  -0.00131305  0.37208593  0.57472133  1
  Sm3+  Sm51  1  0.12337331  -0.00079444  0.44697810  1
  Sm3+  Sm52  1  0.50286160  0.12266208  0.56754171  1
  Sm3+  Sm53  1  0.63437340  0.25524341  0.93714667  1
  Sm3+  Sm54  1  0.37531915  0.50246531  0.44902899  1
  Sm3+  Sm55  1  0.25795066  0.63022476  0.05101706  1
  Sm3+  Sm56  1  0.75384103  0.62549742  0.57080913  1
  Sm3+  Sm57  1  -0.00066218  0.62839454  0.56293005  1
  Sm3+  Sm58  1  0.62559688  0.00798538  0.43118313  1
  Sm3+  Sm59  1  0.12487659  0.49847864  0.45124984  1
  Sm3+  Sm60  1  0.87729399  0.50181145  0.44553656  1
  Sm3+  Sm61  1  0.50874875  0.38615377  0.04991330  1
  Sm3+  Sm62  1  0.88109733  0.00885650  0.93795700  1
  Sm3+  Sm63  1  0.63389923  0.00627605  0.94194213  1
  Bi2+  Bi64  1  -0.00440202  0.13491056  0.29340714  1
  Bi2+  Bi65  1  -0.01223335  0.15227885  0.78665752  1
  Bi2+  Bi66  1  0.00275210  0.35715055  0.29770949  1
  Bi2+  Bi67  1  -0.02485984  0.34973844  0.80432630  1
  Bi2+  Bi68  1  0.00367461  0.62193342  0.29808549  1
  Bi2+  Bi69  1  0.00521249  0.60051383  0.75610917  1
  Bi2+  Bi70  1  0.03623732  0.88163594  0.29324860  1
  Bi2+  Bi71  1  0.01858278  0.88177706  0.79697297  1
  Bi2+  Bi72  1  0.23786541  0.16958773  0.29282847  1
  Bi2+  Bi73  1  0.31083286  0.13531493  0.79171626  1
  Bi2+  Bi74  1  0.20532288  0.44392644  0.28697230  1
  Bi2+  Bi75  1  0.19438505  0.38236278  0.79917277  1
  Bi2+  Bi76  1  0.23066782  0.70491730  0.31861657  1
  Bi2+  Bi77  1  0.21010131  0.59250575  0.74526259  1
  Bi2+  Bi78  1  0.23822764  0.89657345  0.30417109  1
  Bi2+  Bi79  1  0.24294831  0.90587560  0.76753417  1
  Bi2+  Bi80  1  0.47304170  0.17106602  0.29770929  1
  Bi2+  Bi81  1  0.52237988  0.10098226  0.80151013  1
  Bi2+  Bi82  1  0.47942649  0.35881535  0.25413742  1
  Bi2+  Bi83  1  0.50000331  0.30092459  0.79334789  1
  Bi2+  Bi84  1  0.46467475  0.61838157  0.29508629  1
  Bi2+  Bi85  1  0.46935199  0.62302737  0.78236294  1
  Bi2+  Bi86  1  0.46076695  0.90944860  0.29186086  1
  Bi2+  Bi87  1  0.47767626  0.87451798  0.80364671  1
  Bi2+  Bi88  1  0.74110681  0.17230418  0.28376676  1
  Bi2+  Bi89  1  0.71653441  0.15538835  0.81363140  1
  Bi2+  Bi90  1  0.77193267  0.35937574  0.26261780  1
  Bi2+  Bi91  1  0.77996192  0.34563851  0.80595410  1
  Bi2+  Bi92  1  0.75039943  0.61531988  0.28995826  1
  Bi2+  Bi93  1  0.74204904  0.60191687  0.77829997  1
  Bi2+  Bi94  1  0.73196558  0.87140853  0.27429043  1
  Bi2+  Bi95  1  0.75635027  0.87382705  0.78743999  1
  Bi2+  Bi96  1  0.15550411  0.02723911  0.23026201  1
  Bi2+  Bi97  1  0.14603307  0.06985178  0.73386369  1
  Bi2+  Bi98  1  0.13249034  0.30361107  0.21749631  1
  Bi2+  Bi99  1  0.14354164  0.27052404  0.71100259  1
  Bi2+  Bi100  1  0.12983355  0.55478574  0.20028004  1
  Bi2+  Bi101  1  0.10061267  0.45980720  0.69067835  1
  Bi2+  Bi102  1  0.12536792  0.75155133  0.21843619  1
  Bi2+  Bi103  1  0.13152503  0.76547137  0.72398264  1
  Bi2+  Bi104  1  0.34513388  -0.01602491  0.21247543  1
  Bi2+  Bi105  1  0.41028119  0.06303799  0.70478688  1
  Bi2+  Bi106  1  0.35577525  0.22473615  0.20759555  1
  Bi2+  Bi107  1  0.43259891  0.25066453  0.68102552  1
  Bi2+  Bi108  1  0.34317853  0.48907855  0.21408051  1
  Bi2+  Bi109  1  0.39713081  0.42997362  0.73000304  1
  Bi2+  Bi110  1  0.32464954  0.74675541  0.22085885  1
  Bi2+  Bi111  1  0.37438159  0.77257185  0.69127661  1
  Bi2+  Bi112  1  0.62915454  0.02901181  0.21329943  1
  Bi2+  Bi113  1  0.67248829  0.02586388  0.73378011  1
  Bi2+  Bi114  1  0.65278544  0.24933060  0.18778601  1
  Bi2+  Bi115  1  0.62834397  0.23348258  0.70313591  1
  Bi2+  Bi116  1  0.59444394  0.49522257  0.19614872  1
  Bi2+  Bi117  1  0.62511063  0.42207985  0.71741711  1
  Bi2+  Bi118  1  0.60482250  0.74199426  0.17886161  1
  Bi2+  Bi119  1  0.63275592  0.78542919  0.69389247  1
  Bi2+  Bi120  1  0.88145208  0.00722446  0.21482987  1
  Bi2+  Bi121  1  0.88579424  -0.01654807  0.70150987  1
  Bi2+  Bi122  1  0.85466948  0.22581805  0.19035657  1
  Bi2+  Bi123  1  0.86458591  0.24549995  0.71291502  1
  Bi2+  Bi124  1  0.94613354  0.48892912  0.21927734  1
  Bi2+  Bi125  1  0.90290031  0.45089392  0.70880425  1
  Bi2+  Bi126  1  0.90835934  0.75407321  0.20685225  1
  Bi2+  Bi127  1  0.87303043  0.73235761  0.71257287  1
  S2-  S128  1  -0.01651667  0.11801955  0.16144671  1
  S2-  S129  1  0.02220774  0.00398111  0.65195205  1
  S2-  S130  1  -0.00181425  0.35894310  0.15677082  1
  S2-  S131  1  0.00687063  0.25534900  0.64986356  1
  S2-  S132  1  -0.08478115  0.62470390  0.14664623  1
  S2-  S133  1  -0.06113413  0.60402499  0.65398631  1
  S2-  S134  1  -0.02441517  0.89219319  0.16318304  1
  S2-  S135  1  -0.00761650  0.80203086  0.66260416  1
  S2-  S136  1  0.25947303  0.10755451  0.15244044  1
  S2-  S137  1  0.25784056  0.10407437  0.65757940  1
  S2-  S138  1  0.26733215  0.35940331  0.15607277  1
  S2-  S139  1  0.28808578  0.35672736  0.66260682  1
  S2-  S140  1  0.27458708  0.61482056  0.14820238  1
  S2-  S141  1  0.31174906  0.62705359  0.65975934  1
  S2-  S142  1  0.36140977  0.85726661  0.14110136  1
  S2-  S143  1  0.24066176  0.86737361  0.66042312  1
  S2-  S144  1  0.53986440  0.13048876  0.15441172  1
  S2-  S145  1  0.62076279  0.09731002  0.63921933  1
  S2-  S146  1  0.50673629  0.36845699  0.14678171  1
  S2-  S147  1  0.50767394  0.47232238  0.64921103  1
  S2-  S148  1  0.50403219  0.61408789  0.14796913  1
  S2-  S149  1  0.51711778  0.67508482  0.68067944  1
  S2-  S150  1  0.56896563  0.90779533  0.15985293  1
  S2-  S151  1  0.50085590  0.88370311  0.66482783  1
  S2-  S152  1  0.76305633  0.00935833  0.14434044  1
  S2-  S153  1  0.84381609  0.11382580  0.64681792  1
  S2-  S154  1  0.73627840  0.40407987  0.15961094  1
  S2-  S155  1  0.75926879  0.39223840  0.65538497  1
  S2-  S156  1  0.71306576  0.60362380  0.18440128  1
  S2-  S157  1  0.72978143  0.64380329  0.67078608  1
  S2-  S158  1  0.76789496  0.78642278  0.14646617  1
  S2-  S159  1  0.76465703  0.88244892  0.64919201  1
  S2-  S160  1  0.03669717  0.00781513  0.36212746  1
  S2-  S161  1  0.09408406  0.00448145  0.84822494  1
  S2-  S162  1  0.10079706  0.23761747  0.34966414  1
  S2-  S163  1  0.10227448  0.24984345  0.84760347  1
  S2-  S164  1  0.08267453  0.49044659  0.35642414  1
  S2-  S165  1  0.15011715  0.52510027  0.84005169  1
  S2-  S166  1  0.00493961  0.75643048  0.36197945  1
  S2-  S167  1  0.03390142  0.75272419  0.85945404  1
  S2-  S168  1  0.40687900  0.02961338  0.35072562  1
  S2-  S169  1  0.33851209  -0.03210186  0.84288349  1
  S2-  S170  1  0.35323560  0.26680402  0.34645208  1
  S2-  S171  1  0.33007371  0.28094623  0.84139661  1
  S2-  S172  1  0.37164584  0.53229166  0.35177404  1
  S2-  S173  1  0.38727731  0.50500498  0.83033212  1
  S2-  S174  1  0.44343646  0.76038377  0.35252209  1
  S2-  S175  1  0.37013415  0.74334018  0.82996337  1
  S2-  S176  1  0.61066033  -0.07214817  0.34386055  1
  S2-  S177  1  0.62443065  -0.07841853  0.85647012  1
  S2-  S178  1  0.61480835  0.15325695  0.36029198  1
  S2-  S179  1  0.62849689  0.35427487  0.85694911  1
  S2-  S180  1  0.61513585  0.58619124  0.35523993  1
  S2-  S181  1  0.60440141  0.56081119  0.82507029  1
  S2-  S182  1  0.60243186  0.74610410  0.27479590  1
  S2-  S183  1  0.57836038  0.75105641  0.80572173  1
  S2-  S184  1  0.84155994  -0.03911803  0.31684196  1
  S2-  S185  1  0.87780242  -0.08832305  0.85424619  1
  S2-  S186  1  0.87638707  0.16073266  0.35730537  1
  S2-  S187  1  0.87381050  0.12583359  0.86118962  1
  S2-  S188  1  0.85980058  0.55832291  0.35220105  1
  S2-  S189  1  0.80178711  0.50702890  0.85159433  1
  S2-  S190  1  0.77749053  0.74984331  0.34464823  1
  S2-  S191  1  0.78013251  0.73044743  0.84398263  1
  S2-  S192  1  0.00247763  0.12644923  0.46616854  1
  S2-  S193  1  0.01006581  0.13451503  0.95716886  1
  S2-  S194  1  0.00024042  0.37610836  0.46334118  1
  S2-  S195  1  0.00241702  0.38203092  0.95043010  1
  S2-  S196  1  0.00230975  0.62050417  0.45999703  1
  S2-  S197  1  0.00499244  0.62858947  0.95621077  1
  S2-  S198  1  0.00161694  0.87553978  0.46209427  1
  S2-  S199  1  0.00813330  0.88792642  0.95854421  1
  S2-  S200  1  0.25171057  0.12136312  0.45255941  1
  S2-  S201  1  0.25777284  0.13267751  0.94807402  1
  S2-  S202  1  0.25136009  0.37641633  0.45653776  1
  S2-  S203  1  0.25853241  0.38435678  0.95127236  1
  S2-  S204  1  0.24620466  0.62297249  0.45977590  1
  S2-  S205  1  0.25540194  0.63411557  0.94553623  1
  S2-  S206  1  0.24861219  0.87373273  0.45260025  1
  S2-  S207  1  0.25513062  0.87911595  0.95425916  1
  S2-  S208  1  0.49900434  0.12490066  0.46263513  1
  S2-  S209  1  0.50838121  0.13265614  0.94719353  1
  S2-  S210  1  0.49988925  0.37812306  0.45545419  1
  S2-  S211  1  0.50363610  0.38314413  0.94678127  1
  S2-  S212  1  0.49456962  0.62308311  0.46582332  1
  S2-  S213  1  0.51017759  0.63494172  0.93948926  1
  S2-  S214  1  0.50483800  0.87028867  0.45565908  1
  S2-  S215  1  0.50690536  0.87849303  0.95574652  1
  S2-  S216  1  0.75019773  0.12604036  0.45746414  1
  S2-  S217  1  0.75183342  0.13198148  0.96162222  1
  S2-  S218  1  0.75177030  0.37723765  0.44675801  1
  S2-  S219  1  0.76214143  0.37389851  0.95480897  1
  S2-  S220  1  0.75629497  0.62135687  0.46425932  1
  S2-  S221  1  0.75566971  0.63569921  0.95480519  1
  S2-  S222  1  0.74847717  0.87972655  0.44386788  1
  S2-  S223  1  0.75661283  0.88610333  0.95731344  1
  S2-  S224  1  0.13176861  0.00791484  0.05215317  1
  S2-  S225  1  0.13113297  0.00035630  0.54907411  1
  S2-  S226  1  0.13285468  0.25799801  0.05101571  1
  S2-  S227  1  0.12797049  0.24753039  0.55312050  1
  S2-  S228  1  0.13102188  0.50732937  0.04727480  1
  S2-  S229  1  0.12242659  0.50013626  0.55570514  1
  S2-  S230  1  0.13247284  0.75444664  0.05149421  1
  S2-  S231  1  0.12386579  0.74868243  0.54909464  1
  S2-  S232  1  0.38060735  0.00824412  0.04504932  1
  S2-  S233  1  0.38010797  -0.00159106  0.55272213  1
  S2-  S234  1  0.38210490  0.26106827  0.04337831  1
  S2-  S235  1  0.37956012  0.24739967  0.54947062  1
  S2-  S236  1  0.38182395  0.50720098  0.03871644  1
  S2-  S237  1  0.37106819  0.49754480  0.55287590  1
  S2-  S238  1  0.37855892  0.75023416  0.03705888  1
  S2-  S239  1  0.37602274  0.74592250  0.55078197  1
  S2-  S240  1  0.62579751  0.00832142  0.04424772  1
  S2-  S241  1  0.62258407  -0.00560640  0.53743387  1
  S2-  S242  1  0.62897377  0.25847524  0.04189355  1
  S2-  S243  1  0.62314845  0.25147157  0.54799468  1
  S2-  S244  1  0.63470430  0.50559540  0.03959227  1
  S2-  S245  1  0.62890500  0.50253756  0.55043364  1
  S2-  S246  1  0.63118764  0.75831677  0.04912489  1
  S2-  S247  1  0.62753317  0.74191949  0.56034152  1
  S2-  S248  1  0.88337333  0.01089883  0.04341020  1
  S2-  S249  1  0.86901701  -0.00141208  0.53935634  1
  S2-  S250  1  0.87975662  0.25410903  0.04321041  1
  S2-  S251  1  0.87303535  0.25225894  0.54709268  1
  S2-  S252  1  0.87927514  0.50580917  0.04740298  1
  S2-  S253  1  0.87842298  0.49848630  0.55006509  1
  S2-  S254  1  0.88559947  0.75798439  0.04015784  1
  S2-  S255  1  0.87448505  0.74580565  0.54598706  1
