# generated using pymatgen
data_La6Ce6Pr19Nd20Sm13(BiS2)64
_symmetry_space_group_name_H-M   'P 1'
_cell_length_a   16.10518240
_cell_length_b   16.10186167
_cell_length_c   27.50690644
_cell_angle_alpha   89.94729877
_cell_angle_beta   89.98693916
_cell_angle_gamma   89.99523010
_symmetry_Int_Tables_number   1
_chemical_formula_structural   La6Ce6Pr19Nd20Sm13(BiS2)64
_chemical_formula_sum   'La6 Ce6 Pr19 Nd20 Sm13 Bi64 S128'
_cell_volume   7133.18180098
_cell_formula_units_Z   1
loop_
 _symmetry_equiv_pos_site_id
 _symmetry_equiv_pos_as_xyz
  1  'x, y, z'
loop_
 _atom_type_symbol
 _atom_type_oxidation_number
  La3+  3.0
  Ce3+  3.0
  Pr3+  3.0
  Nd3+  3.0
  Sm3+  3.0
  Bi2+  2.0
  S2-  -2.0
loop_
 _atom_site_type_symbol
 _atom_site_label
 _atom_site_symmetry_multiplicity
 _atom_site_fract_x
 _atom_site_fract_y
 _atom_site_fract_z
 _atom_site_occupancy
  La3+  La0  1  0.22944109  0.64152008  0.11814069  1
  La3+  La1  1  0.13889743  -0.00530295  0.42768842  1
  La3+  La2  1  0.75953882  0.14266729  0.11452278  1
  La3+  La3  1  0.87857724  0.25788099  0.42424759  1
  La3+  La4  1  0.63025431  0.50592565  0.92460269  1
  La3+  La5  1  0.10699921  0.24693541  0.88423244  1
  Ce3+  Ce6  1  0.26074492  0.37671181  0.55859872  1
  Ce3+  Ce7  1  0.01394461  0.12290150  0.56395806  1
  Ce3+  Ce8  1  0.88225389  0.74884068  0.94580624  1
  Ce3+  Ce9  1  0.37965576  -0.00043915  0.94278674  1
  Ce3+  Ce10  1  0.13492699  -0.00257965  0.92734576  1
  Ce3+  Ce11  1  0.38305466  0.74884855  0.44564849  1
  Pr3+  Pr12  1  0.25917198  0.37606653  0.06609079  1
  Pr3+  Pr13  1  0.25733296  0.62566430  0.56284245  1
  Pr3+  Pr14  1  0.38509749  0.50011414  0.44013086  1
  Pr3+  Pr15  1  0.88649917  0.50392754  0.44512582  1
  Pr3+  Pr16  1  0.51107388  0.37081774  0.05482818  1
  Pr3+  Pr17  1  0.51134842  0.12456982  0.56553776  1
  Pr3+  Pr18  1  0.63504507  0.75044134  0.43785077  1
  Pr3+  Pr19  1  0.13486005  0.74260059  0.43285011  1
  Pr3+  Pr20  1  0.75907697  0.87855522  0.06661870  1
  Pr3+  Pr21  1  0.25734055  0.87785365  0.56294784  1
  Pr3+  Pr22  1  0.13314215  0.74900395  0.92653304  1
  Pr3+  Pr23  1  0.88445571  0.00170105  0.93977902  1
  Pr3+  Pr24  1  0.63331111  0.00015624  0.94027771  1
  Pr3+  Pr25  1  0.75904999  0.88068491  0.55803296  1
  Pr3+  Pr26  1  0.50332853  0.62323389  0.07407799  1
  Pr3+  Pr27  1  0.50913557  0.12484686  0.06386182  1
  Pr3+  Pr28  1  0.88438908  0.49518178  0.93961732  1
  Pr3+  Pr29  1  0.88973515  0.00714913  0.42454979  1
  Pr3+  Pr30  1  0.62527943  0.24898558  0.42479008  1
  Nd3+  Nd31  1  0.01423396  0.11989297  0.06036843  1
  Nd3+  Nd32  1  0.26403927  0.12728916  0.56615025  1
  Nd3+  Nd33  1  0.00724229  0.88530950  0.56437249  1
  Nd3+  Nd34  1  0.88959633  0.75043575  0.44858315  1
  Nd3+  Nd35  1  0.64281041  -0.00295120  0.42707764  1
  Nd3+  Nd36  1  0.37316534  0.25039154  0.93223811  1
  Nd3+  Nd37  1  0.01073885  0.62878105  0.56865378  1
  Nd3+  Nd38  1  0.38533810  0.00166298  0.43428602  1
  Nd3+  Nd39  1  0.00757217  0.62093033  0.05099354  1
  Nd3+  Nd40  1  0.13249948  0.24906081  0.43962998  1
  Nd3+  Nd41  1  0.00846489  0.36933154  0.05713120  1
  Nd3+  Nd42  1  0.50732736  0.87405213  0.05554398  1
  Nd3+  Nd43  1  0.38353766  0.24930728  0.43606816  1
  Nd3+  Nd44  1  0.00873419  0.37506291  0.56447555  1
  Nd3+  Nd45  1  0.01440665  0.86958875  0.05866282  1
  Nd3+  Nd46  1  0.13446123  0.49320853  0.43025789  1
  Nd3+  Nd47  1  0.51157430  0.62649463  0.55801106  1
  Nd3+  Nd48  1  0.25604021  0.87132481  0.05595357  1
  Nd3+  Nd49  1  0.13654179  0.49441585  0.93823645  1
  Nd3+  Nd50  1  0.62565639  0.25142841  0.92730614  1
  Sm3+  Sm51  1  0.51051667  0.87798561  0.54997156  1
  Sm3+  Sm52  1  0.76009119  0.37439090  0.55240444  1
  Sm3+  Sm53  1  0.75660986  0.37105973  0.05422766  1
  Sm3+  Sm54  1  0.75625893  0.12827540  0.55300790  1
  Sm3+  Sm55  1  0.75688516  0.62139304  0.06025671  1
  Sm3+  Sm56  1  0.63301002  0.50218319  0.44517894  1
  Sm3+  Sm57  1  0.88041579  0.24685545  0.94379628  1
  Sm3+  Sm58  1  0.38211219  0.74443479  0.94605326  1
  Sm3+  Sm59  1  0.51245395  0.37419705  0.55903097  1
  Sm3+  Sm60  1  0.75900587  0.62697076  0.55660992  1
  Sm3+  Sm61  1  0.38005325  0.50070640  0.94907173  1
  Sm3+  Sm62  1  0.63300260  0.74877095  0.94816844  1
  Sm3+  Sm63  1  0.25366208  0.12400869  0.05814743  1
  Bi2+  Bi64  1  0.05074555  0.15300740  0.29424714  1
  Bi2+  Bi65  1  -0.02437580  0.11068418  0.78509892  1
  Bi2+  Bi66  1  0.00780920  0.37886584  0.28490090  1
  Bi2+  Bi67  1  -0.01923925  0.38011249  0.78547148  1
  Bi2+  Bi68  1  -0.02226061  0.60257965  0.30366599  1
  Bi2+  Bi69  1  -0.02375627  0.64364938  0.77497291  1
  Bi2+  Bi70  1  -0.01518042  0.87401186  0.30481379  1
  Bi2+  Bi71  1  -0.01801442  0.85976215  0.78969164  1
  Bi2+  Bi72  1  0.23362683  0.20872834  0.32586431  1
  Bi2+  Bi73  1  0.27338323  0.09638849  0.78598678  1
  Bi2+  Bi74  1  0.28341187  0.36209867  0.26136867  1
  Bi2+  Bi75  1  0.25163497  0.37823645  0.78876292  1
  Bi2+  Bi76  1  0.27901009  0.61848969  0.30537946  1
  Bi2+  Bi77  1  0.16324787  0.65827627  0.80279473  1
  Bi2+  Bi78  1  0.26467196  0.89243870  0.28895689  1
  Bi2+  Bi79  1  0.26010436  0.84208017  0.79615718  1
  Bi2+  Bi80  1  0.41185943  0.15714591  0.28268434  1
  Bi2+  Bi81  1  0.50570099  0.14287227  0.76817052  1
  Bi2+  Bi82  1  0.46969860  0.40589469  0.29758995  1
  Bi2+  Bi83  1  0.49505641  0.36663304  0.80050612  1
  Bi2+  Bi84  1  0.52031573  0.66859414  0.28969947  1
  Bi2+  Bi85  1  0.54812249  0.55582344  0.80097941  1
  Bi2+  Bi86  1  0.46793087  0.94548685  0.29164796  1
  Bi2+  Bi87  1  0.52120296  0.89337567  0.78671752  1
  Bi2+  Bi88  1  0.73566165  0.13063768  0.31358938  1
  Bi2+  Bi89  1  0.70791711  0.10962560  0.78711036  1
  Bi2+  Bi90  1  0.69121402  0.40061771  0.23348852  1
  Bi2+  Bi91  1  0.74085458  0.31077468  0.77862570  1
  Bi2+  Bi92  1  0.70301154  0.58786343  0.29358858  1
  Bi2+  Bi93  1  0.77815630  0.59166117  0.79253263  1
  Bi2+  Bi94  1  0.71531184  0.87546026  0.27111734  1
  Bi2+  Bi95  1  0.69552918  0.79738337  0.79917671  1
  Bi2+  Bi96  1  0.17002647  0.02469646  0.22582933  1
  Bi2+  Bi97  1  0.10621733  -0.02972431  0.69186488  1
  Bi2+  Bi98  1  0.15837068  0.22681101  0.20714680  1
  Bi2+  Bi99  1  0.12147791  0.26965673  0.68168891  1
  Bi2+  Bi100  1  0.10436714  0.49623605  0.20784680  1
  Bi2+  Bi101  1  0.14073305  0.52226626  0.71467419  1
  Bi2+  Bi102  1  0.08406897  0.77829681  0.20249383  1
  Bi2+  Bi103  1  0.14961453  0.73496044  0.69403501  1
  Bi2+  Bi104  1  0.36329113  0.02804311  0.19865308  1
  Bi2+  Bi105  1  0.40110402  -0.00074387  0.71666935  1
  Bi2+  Bi106  1  0.34765208  0.22431336  0.17424824  1
  Bi2+  Bi107  1  0.37582065  0.26020701  0.70335290  1
  Bi2+  Bi108  1  0.40936839  0.49900629  0.20258241  1
  Bi2+  Bi109  1  0.37383713  0.51903190  0.75162555  1
  Bi2+  Bi110  1  0.43025536  0.78690703  0.22257167  1
  Bi2+  Bi111  1  0.41642897  0.71330501  0.75198201  1
  Bi2+  Bi112  1  0.59694239  -0.00731438  0.20982684  1
  Bi2+  Bi113  1  0.62749718  0.00315849  0.69948366  1
  Bi2+  Bi114  1  0.55133146  0.26138024  0.22584353  1
  Bi2+  Bi115  1  0.61008664  0.26835727  0.69557755  1
  Bi2+  Bi116  1  0.59797056  0.56226376  0.18994500  1
  Bi2+  Bi117  1  0.64103810  0.54651649  0.70305478  1
  Bi2+  Bi118  1  0.70318345  0.73008865  0.18767259  1
  Bi2+  Bi119  1  0.58799205  0.76479619  0.70396789  1
  Bi2+  Bi120  1  0.88845966  0.00788218  0.21037781  1
  Bi2+  Bi121  1  0.84010217  -0.00506044  0.71430725  1
  Bi2+  Bi122  1  0.89546276  0.27260682  0.20777189  1
  Bi2+  Bi123  1  0.84320299  0.18752633  0.71197782  1
  Bi2+  Bi124  1  0.85570886  0.50827164  0.23151974  1
  Bi2+  Bi125  1  0.81987767  0.46258965  0.71000533  1
  Bi2+  Bi126  1  0.87288993  0.76650238  0.24030862  1
  Bi2+  Bi127  1  0.82985548  0.74657928  0.72072013  1
  S2-  S128  1  -0.06841201  0.13812509  0.14851901  1
  S2-  S129  1  -0.03059690  0.01180209  0.63670741  1
  S2-  S130  1  0.00364863  0.38667651  0.15596855  1
  S2-  S131  1  -0.00783444  0.36235383  0.66322840  1
  S2-  S132  1  0.05351813  0.63265318  0.14520569  1
  S2-  S133  1  0.02006286  0.59832804  0.66602285  1
  S2-  S134  1  -0.00941111  0.89412451  0.15647650  1
  S2-  S135  1  0.02603070  0.82307743  0.65975750  1
  S2-  S136  1  0.14417585  0.09400036  0.13526451  1
  S2-  S137  1  0.14780411  0.11050373  0.64144448  1
  S2-  S138  1  0.24038555  0.47080095  0.15124572  1
  S2-  S139  1  0.26286487  0.36151791  0.65552549  1
  S2-  S140  1  0.20308924  0.64704368  0.22570820  1
  S2-  S141  1  0.26253301  0.60414659  0.66115430  1
  S2-  S142  1  0.20882199  0.81555196  0.14531115  1
  S2-  S143  1  0.24097047  0.87821814  0.66305657  1
  S2-  S144  1  0.59259219  0.13417369  0.15213522  1
  S2-  S145  1  0.38691931  0.12642002  0.64028187  1
  S2-  S146  1  0.48123049  0.35772909  0.15366020  1
  S2-  S147  1  0.49205539  0.36744159  0.65642107  1
  S2-  S148  1  0.39644680  0.65067561  0.15431017  1
  S2-  S149  1  0.50901972  0.63379830  0.65546996  1
  S2-  S150  1  0.52677058  0.86331702  0.15347900  1
  S2-  S151  1  0.50412623  0.90936238  0.64521683  1
  S2-  S152  1  0.78369785  0.14747351  0.22199495  1
  S2-  S153  1  0.64777257  0.12772492  0.63136473  1
  S2-  S154  1  0.75724380  0.31751505  0.14699865  1
  S2-  S155  1  0.73953731  0.35911778  0.64755426  1
  S2-  S156  1  0.81425158  0.60682901  0.15155177  1
  S2-  S157  1  0.77795974  0.62310300  0.65255287  1
  S2-  S158  1  0.76451014  0.97329582  0.15082953  1
  S2-  S159  1  0.76531085  0.87713730  0.65755896  1
  S2-  S160  1  0.02089729  0.00874780  0.35341585  1
  S2-  S161  1  0.12344826  0.08456133  0.84255256  1
  S2-  S162  1  0.11473447  0.36035732  0.36078085  1
  S2-  S163  1  0.09584609  0.25234757  0.77382509  1
  S2-  S164  1  0.12857645  0.61256099  0.35777480  1
  S2-  S165  1  0.11386952  0.41998789  0.84855477  1
  S2-  S166  1  0.13381781  0.83917892  0.34904216  1
  S2-  S167  1  0.12849442  0.87140347  0.85211608  1
  S2-  S168  1  0.27341533  0.01098552  0.35784270  1
  S2-  S169  1  0.34063033  -0.00654596  0.84747290  1
  S2-  S170  1  0.48923977  0.26270210  0.35693494  1
  S2-  S171  1  0.27484332  0.24581424  0.84800790  1
  S2-  S172  1  0.32276631  0.46741347  0.34909317  1
  S2-  S173  1  0.36335631  0.46984169  0.85196982  1
  S2-  S174  1  0.36989300  0.73998248  0.34960764  1
  S2-  S175  1  0.37565512  0.75271297  0.84742106  1
  S2-  S176  1  0.57741045  0.05486686  0.34136857  1
  S2-  S177  1  0.65542348  -0.04779892  0.84457365  1
  S2-  S178  1  0.74092114  0.27840832  0.35169680  1
  S2-  S179  1  0.49444599  0.23030729  0.85876027  1
  S2-  S180  1  0.59983532  0.49189119  0.35023400  1
  S2-  S181  1  0.64724080  0.37920078  0.85320504  1
  S2-  S182  1  0.63666116  0.76157935  0.33831702  1
  S2-  S183  1  0.62349337  0.66207251  0.86519521  1
  S2-  S184  1  0.77216485  -0.03225840  0.35158675  1
  S2-  S185  1  0.90378430  -0.01112284  0.83935531  1
  S2-  S186  1  0.90249250  0.16256762  0.34181915  1
  S2-  S187  1  0.93368325  0.25055877  0.85034805  1
  S2-  S188  1  0.89841713  0.46213704  0.34892320  1
  S2-  S189  1  0.87679835  0.47288620  0.84111736  1
  S2-  S190  1  0.89767015  0.73076696  0.35072493  1
  S2-  S191  1  0.90948338  0.75864811  0.85011561  1
  S2-  S192  1  0.00928533  0.13198496  0.45723423  1
  S2-  S193  1  0.00876076  0.12767534  0.95258770  1
  S2-  S194  1  0.00450788  0.37442878  0.46029857  1
  S2-  S195  1  0.00783748  0.36792241  0.95285835  1
  S2-  S196  1  0.01157761  0.62284739  0.46223979  1
  S2-  S197  1  0.00913144  0.62175784  0.94515209  1
  S2-  S198  1  0.00994999  0.87353767  0.45862251  1
  S2-  S199  1  0.00662781  0.87252794  0.95344403  1
  S2-  S200  1  0.26103066  0.12868554  0.46033504  1
  S2-  S201  1  0.25649879  0.12165452  0.95572169  1
  S2-  S202  1  0.26138341  0.37356955  0.45609073  1
  S2-  S203  1  0.26005223  0.37779053  0.95968819  1
  S2-  S204  1  0.25932570  0.62103670  0.45787656  1
  S2-  S205  1  0.25825824  0.62300723  0.94298634  1
  S2-  S206  1  0.26232976  0.87074481  0.45700752  1
  S2-  S207  1  0.26095721  0.86933078  0.95234386  1
  S2-  S208  1  0.50618841  0.12244453  0.45727209  1
  S2-  S209  1  0.50568336  0.12073783  0.95737999  1
  S2-  S210  1  0.50994343  0.37947187  0.45640446  1
  S2-  S211  1  0.50501790  0.37907248  0.95184781  1
  S2-  S212  1  0.50990318  0.62558324  0.45274410  1
  S2-  S213  1  0.50514717  0.62452735  0.96413238  1
  S2-  S214  1  0.50920913  0.87614738  0.44538102  1
  S2-  S215  1  0.50741913  0.87020075  0.94997248  1
  S2-  S216  1  0.75604588  0.12834754  0.45087776  1
  S2-  S217  1  0.75554756  0.12755486  0.93690701  1
  S2-  S218  1  0.75513493  0.38384518  0.45201876  1
  S2-  S219  1  0.75789584  0.37239853  0.95219873  1
  S2-  S220  1  0.75911747  0.62599962  0.45236415  1
  S2-  S221  1  0.75992763  0.62292555  0.95645645  1
  S2-  S222  1  0.76314157  0.86969664  0.45353362  1
  S2-  S223  1  0.75705331  0.87264621  0.95775254  1
  S2-  S224  1  0.13469300  -0.00713600  0.03477954  1
  S2-  S225  1  0.13712919  0.00016403  0.53820542  1
  S2-  S226  1  0.13515296  0.25105346  0.05233827  1
  S2-  S227  1  0.13571734  0.25427506  0.54498055  1
  S2-  S228  1  0.12993619  0.49772898  0.04285865  1
  S2-  S229  1  0.13187944  0.49993742  0.54769618  1
  S2-  S230  1  0.13440918  0.74209573  0.03639414  1
  S2-  S231  1  0.13262118  0.75165069  0.54640019  1
  S2-  S232  1  0.38047424  -0.00148098  0.05009576  1
  S2-  S233  1  0.38526486  -0.00283362  0.53999964  1
  S2-  S234  1  0.38080271  0.24614671  0.04131496  1
  S2-  S235  1  0.38841501  0.25523008  0.54164191  1
  S2-  S236  1  0.38712369  0.49747508  0.05047384  1
  S2-  S237  1  0.38850944  0.50100079  0.54896175  1
  S2-  S238  1  0.38175307  0.75013414  0.04791122  1
  S2-  S239  1  0.38649561  0.75192289  0.55268768  1
  S2-  S240  1  0.63165786  -0.00177485  0.04563835  1
  S2-  S241  1  0.63367247  -0.00130324  0.53465583  1
  S2-  S242  1  0.63675311  0.24628181  0.03948858  1
  S2-  S243  1  0.63452320  0.25559534  0.53475452  1
  S2-  S244  1  0.63511928  0.49868244  0.04472371  1
  S2-  S245  1  0.63636176  0.50086143  0.54929915  1
  S2-  S246  1  0.63310867  0.74708731  0.05086441  1
  S2-  S247  1  0.63519388  0.75181302  0.54571409  1
  S2-  S248  1  0.88888040  -0.00488138  0.04419476  1
  S2-  S249  1  0.87701216  0.00649054  0.53359214  1
  S2-  S250  1  0.87922662  0.24608534  0.04553515  1
  S2-  S251  1  0.88123669  0.24966995  0.54576786  1
  S2-  S252  1  0.88053987  0.49534881  0.04555577  1
  S2-  S253  1  0.88286247  0.50213543  0.55197418  1
  S2-  S254  1  0.88158803  0.74784417  0.05159626  1
  S2-  S255  1  0.88387269  0.75140953  0.55361476  1
