# generated using pymatgen
data_La6Ce6Pr19Nd20Sm13(BiS2)64
_symmetry_space_group_name_H-M   'P 1'
_cell_length_a   16.16098481
_cell_length_b   16.18146508
_cell_length_c   27.15996227
_cell_angle_alpha   90.02060186
_cell_angle_beta   89.99285057
_cell_angle_gamma   90.09154109
_symmetry_Int_Tables_number   1
_chemical_formula_structural   La6Ce6Pr19Nd20Sm13(BiS2)64
_chemical_formula_sum   'La6 Ce6 Pr19 Nd20 Sm13 Bi64 S128'
_cell_volume   7102.54900748
_cell_formula_units_Z   1
loop_
 _symmetry_equiv_pos_site_id
 _symmetry_equiv_pos_as_xyz
  1  'x, y, z'
loop_
 _atom_type_symbol
 _atom_type_oxidation_number
  La3+  3.0
  Ce3+  3.0
  Pr3+  3.0
  Nd3+  3.0
  Sm3+  3.0
  Bi2+  2.0
  S2-  -2.0
loop_
 _atom_site_type_symbol
 _atom_site_label
 _atom_site_symmetry_multiplicity
 _atom_site_fract_x
 _atom_site_fract_y
 _atom_site_fract_z
 _atom_site_occupancy
  La3+  La0  1  0.00806208  0.87135647  0.60857279  1
  La3+  La1  1  0.24063207  0.88014451  0.08582287  1
  La3+  La2  1  0.51423719  0.62423182  0.08142482  1
  La3+  La3  1  0.87032013  0.25856884  0.91937841  1
  La3+  La4  1  0.37412826  0.75261616  0.39552246  1
  La3+  La5  1  0.13568932  -0.00160694  0.91644028  1
  Ce3+  Ce6  1  0.00434675  0.62566189  0.05750984  1
  Ce3+  Ce7  1  -0.00018329  0.37424675  0.55678022  1
  Ce3+  Ce8  1  -0.00066213  0.12224078  0.56349054  1
  Ce3+  Ce9  1  0.62135673  0.75148773  0.43942846  1
  Ce3+  Ce10  1  0.13065122  0.25120427  0.94100550  1
  Ce3+  Ce11  1  0.12534407  0.24710568  0.44460665  1
  Pr3+  Pr12  1  0.87570996  0.49891469  0.44446094  1
  Pr3+  Pr13  1  0.62491741  0.50051756  0.43773332  1
  Pr3+  Pr14  1  0.62010724  0.50279747  0.93898844  1
  Pr3+  Pr15  1  0.74359320  0.12312119  0.57655322  1
  Pr3+  Pr16  1  0.25098013  0.62715414  0.55561321  1
  Pr3+  Pr17  1  0.37587311  -0.00271788  0.43440741  1
  Pr3+  Pr18  1  0.62295054  0.74779770  0.93473122  1
  Pr3+  Pr19  1  0.50964965  0.87776667  0.07319577  1
  Pr3+  Pr20  1  0.87953842  0.75208237  0.93367389  1
  Pr3+  Pr21  1  0.62568628  -0.00214627  0.43753101  1
  Pr3+  Pr22  1  0.37653282  -0.00408620  0.93983202  1
  Pr3+  Pr23  1  0.62413319  0.24884709  0.44490747  1
  Pr3+  Pr24  1  0.24899399  0.11980487  0.56267547  1
  Pr3+  Pr25  1  0.13672788  0.74767770  0.93446510  1
  Pr3+  Pr26  1  0.62618416  -0.00977902  0.92540380  1
  Pr3+  Pr27  1  0.50942618  0.37344353  0.06631263  1
  Pr3+  Pr28  1  0.49795619  0.37791156  0.56093834  1
  Pr3+  Pr29  1  0.25738197  0.87082473  0.56420416  1
  Pr3+  Pr30  1  0.25060759  0.12328715  0.06278458  1
  Nd3+  Nd31  1  0.12489093  -0.00354532  0.44347695  1
  Nd3+  Nd32  1  0.00218901  0.87868272  0.04985978  1
  Nd3+  Nd33  1  0.49948894  0.87310012  0.56477713  1
  Nd3+  Nd34  1  0.50099149  0.12373185  0.56349827  1
  Nd3+  Nd35  1  0.75216100  0.37701938  0.56208567  1
  Nd3+  Nd36  1  0.00218895  0.37527935  0.05117672  1
  Nd3+  Nd37  1  0.50063707  0.62508331  0.55380351  1
  Nd3+  Nd38  1  0.12100507  0.75407914  0.43259633  1
  Nd3+  Nd39  1  0.12664271  0.50015927  0.43950834  1
  Nd3+  Nd40  1  0.87566994  0.50261865  0.93308646  1
  Nd3+  Nd41  1  0.75449419  0.87191962  0.56161154  1
  Nd3+  Nd42  1  0.75639405  0.12226588  0.04767724  1
  Nd3+  Nd43  1  0.88230530  0.01025024  0.90525389  1
  Nd3+  Nd44  1  0.23999419  0.62134253  0.08246099  1
  Nd3+  Nd45  1  0.37478372  0.50052850  0.43303699  1
  Nd3+  Nd46  1  0.37893713  0.50200871  0.95617931  1
  Nd3+  Nd47  1  0.25220931  0.37506078  0.06360786  1
  Nd3+  Nd48  1  0.75971396  0.37334434  0.05993296  1
  Nd3+  Nd49  1  0.13386574  0.50290184  0.93345861  1
  Nd3+  Nd50  1  0.50641808  0.12135169  0.05630733  1
  Sm3+  Sm51  1  0.88000411  0.75327625  0.43560799  1
  Sm3+  Sm52  1  0.37887367  0.24996990  0.95020949  1
  Sm3+  Sm53  1  0.87450584  0.24734762  0.44753935  1
  Sm3+  Sm54  1  0.62665670  0.24736278  0.93840083  1
  Sm3+  Sm55  1  0.24951725  0.37536843  0.55322645  1
  Sm3+  Sm56  1  0.75426037  0.62615996  0.05399003  1
  Sm3+  Sm57  1  0.37416513  0.75093590  0.96318857  1
  Sm3+  Sm58  1  0.87510906  -0.00036056  0.44755854  1
  Sm3+  Sm59  1  0.75419588  0.87709136  0.05310746  1
  Sm3+  Sm60  1  0.37560221  0.24822432  0.44755881  1
  Sm3+  Sm61  1  0.75234330  0.62790382  0.55170561  1
  Sm3+  Sm62  1  0.00272090  0.63004789  0.55715965  1
  Sm3+  Sm63  1  0.00067504  0.12388477  0.04730262  1
  Bi2+  Bi64  1  -0.01508972  0.18315816  0.27385128  1
  Bi2+  Bi65  1  0.01206256  0.15071336  0.78439903  1
  Bi2+  Bi66  1  0.01095772  0.37700027  0.28867117  1
  Bi2+  Bi67  1  0.00955653  0.39191323  0.79632984  1
  Bi2+  Bi68  1  -0.03228608  0.63376553  0.28883196  1
  Bi2+  Bi69  1  0.01477823  0.60681624  0.78110679  1
  Bi2+  Bi70  1  -0.01717719  0.90007964  0.29246420  1
  Bi2+  Bi71  1  -0.02029019  0.84243012  0.80966015  1
  Bi2+  Bi72  1  0.22868780  0.08786429  0.29177131  1
  Bi2+  Bi73  1  0.27971885  0.16300487  0.78913902  1
  Bi2+  Bi74  1  0.20261863  0.35209032  0.29003485  1
  Bi2+  Bi75  1  0.20221410  0.41367263  0.81228986  1
  Bi2+  Bi76  1  0.23954251  0.60876657  0.28573903  1
  Bi2+  Bi77  1  0.27592418  0.59956626  0.80217491  1
  Bi2+  Bi78  1  0.23669054  0.87421107  0.28010788  1
  Bi2+  Bi79  1  0.27702724  0.86965166  0.79489017  1
  Bi2+  Bi80  1  0.49509558  0.13977092  0.29535720  1
  Bi2+  Bi81  1  0.47077810  0.12236999  0.80079942  1
  Bi2+  Bi82  1  0.51372541  0.35227870  0.29643613  1
  Bi2+  Bi83  1  0.47226334  0.41527604  0.78781669  1
  Bi2+  Bi84  1  0.51008649  0.60393732  0.29521765  1
  Bi2+  Bi85  1  0.56398673  0.63171693  0.81759638  1
  Bi2+  Bi86  1  0.51073548  0.89008457  0.28906325  1
  Bi2+  Bi87  1  0.48608287  0.92540844  0.80103480  1
  Bi2+  Bi88  1  0.79942042  0.11833401  0.28281902  1
  Bi2+  Bi89  1  0.72863387  0.14966829  0.77669962  1
  Bi2+  Bi90  1  0.81426073  0.39990056  0.27810726  1
  Bi2+  Bi91  1  0.74489579  0.37771195  0.77932053  1
  Bi2+  Bi92  1  0.77078912  0.65982439  0.28711708  1
  Bi2+  Bi93  1  0.74602530  0.60916895  0.77500806  1
  Bi2+  Bi94  1  0.78186117  0.85909189  0.28408592  1
  Bi2+  Bi95  1  0.71361910  0.84251220  0.76703971  1
  Bi2+  Bi96  1  0.09403586  0.01769615  0.20126780  1
  Bi2+  Bi97  1  0.15044331  0.00875486  0.70768126  1
  Bi2+  Bi98  1  0.15441160  0.21541035  0.20848535  1
  Bi2+  Bi99  1  0.14530206  0.27368801  0.73454762  1
  Bi2+  Bi100  1  0.04449363  0.48311825  0.19373238  1
  Bi2+  Bi101  1  0.11774474  0.48091097  0.71131604  1
  Bi2+  Bi102  1  0.03918742  0.76259368  0.21315066  1
  Bi2+  Bi103  1  0.13123684  0.72856755  0.71313698  1
  Bi2+  Bi104  1  0.37490998  0.04623553  0.21409422  1
  Bi2+  Bi105  1  0.41190406  -0.00298377  0.70005980  1
  Bi2+  Bi106  1  0.34700959  0.23916460  0.23337283  1
  Bi2+  Bi107  1  0.37804200  0.30826862  0.71166994  1
  Bi2+  Bi108  1  0.35683940  0.46781984  0.20257297  1
  Bi2+  Bi109  1  0.33921551  0.53400082  0.70222559  1
  Bi2+  Bi110  1  0.40091353  0.74490703  0.19402689  1
  Bi2+  Bi111  1  0.42403256  0.74299823  0.76903862  1
  Bi2+  Bi112  1  0.61692475  0.01577391  0.19481660  1
  Bi2+  Bi113  1  0.59695399  -0.07087283  0.68758891  1
  Bi2+  Bi114  1  0.65309293  0.23735535  0.24477559  1
  Bi2+  Bi115  1  0.55277991  0.22497762  0.71627235  1
  Bi2+  Bi116  1  0.62055748  0.48180609  0.19747168  1
  Bi2+  Bi117  1  0.57345616  0.52207436  0.71679953  1
  Bi2+  Bi118  1  0.66286350  0.75795429  0.21118963  1
  Bi2+  Bi119  1  0.59171221  0.73637814  0.69891740  1
  Bi2+  Bi120  1  0.86369759  -0.00664725  0.19621173  1
  Bi2+  Bi121  1  0.88094997  0.00671944  0.71242084  1
  Bi2+  Bi122  1  0.84607307  0.26345008  0.19911569  1
  Bi2+  Bi123  1  0.88156241  0.29588811  0.70426568  1
  Bi2+  Bi124  1  0.85963949  0.54786699  0.20370275  1
  Bi2+  Bi125  1  0.88271612  0.49817276  0.71579842  1
  Bi2+  Bi126  1  0.85742175  0.80160223  0.17728711  1
  Bi2+  Bi127  1  0.85023849  0.72628484  0.70465294  1
  S2-  S128  1  -0.01814821  0.09272570  0.14453571  1
  S2-  S129  1  0.01670552  0.07474498  0.65779230  1
  S2-  S130  1  -0.03815214  0.35092640  0.14662633  1
  S2-  S131  1  0.01813173  0.35812753  0.65273167  1
  S2-  S132  1  0.08875296  0.63139077  0.14270906  1
  S2-  S133  1  0.00180240  0.70281868  0.64656161  1
  S2-  S134  1  0.08002478  0.88077104  0.13920247  1
  S2-  S135  1  0.01475379  0.89456736  0.71965963  1
  S2-  S136  1  0.24883935  0.02716634  0.14556010  1
  S2-  S137  1  0.27196449  0.09210257  0.66148196  1
  S2-  S138  1  0.22118996  0.42332871  0.15686196  1
  S2-  S139  1  0.27286620  0.39729328  0.64905181  1
  S2-  S140  1  0.28404163  0.61931819  0.18201584  1
  S2-  S141  1  0.23958372  0.65792126  0.65622026  1
  S2-  S142  1  0.25889560  0.82821246  0.18941487  1
  S2-  S143  1  0.16914760  0.86764427  0.65251595  1
  S2-  S144  1  0.51584911  0.12378495  0.15574532  1
  S2-  S145  1  0.60138709  0.11893210  0.64397384  1
  S2-  S146  1  0.48921196  0.37733471  0.16648907  1
  S2-  S147  1  0.52712767  0.37601219  0.65896067  1
  S2-  S148  1  0.48314582  0.58846791  0.18263362  1
  S2-  S149  1  0.47407174  0.61712499  0.65234283  1
  S2-  S150  1  0.46037728  0.90209546  0.17330864  1
  S2-  S151  1  0.38591177  0.87051676  0.64089056  1
  S2-  S152  1  0.73928260  0.08745515  0.14627083  1
  S2-  S153  1  0.80582655  0.13542902  0.67408047  1
  S2-  S154  1  0.69947750  0.36446106  0.15290020  1
  S2-  S155  1  0.75914347  0.38735940  0.66161800  1
  S2-  S156  1  0.66933309  0.62290248  0.13988278  1
  S2-  S157  1  0.74174499  0.65287543  0.64846063  1
  S2-  S158  1  0.65541662  0.87801629  0.13512273  1
  S2-  S159  1  0.84206452  0.87805147  0.64850367  1
  S2-  S160  1  0.12699878  -0.03232789  0.34414782  1
  S2-  S161  1  0.02000153  0.00534638  0.83950881  1
  S2-  S162  1  0.15326489  0.22061627  0.35002902  1
  S2-  S163  1  0.14064055  0.18022721  0.85286858  1
  S2-  S164  1  0.14079759  0.50403247  0.34007902  1
  S2-  S165  1  0.13919151  0.62231635  0.86064049  1
  S2-  S166  1  0.21348678  0.74293117  0.34745001  1
  S2-  S167  1  0.13936554  0.84414895  0.84849873  1
  S2-  S168  1  0.37654717  -0.08763615  0.34514250  1
  S2-  S169  1  0.28057309  0.00499825  0.85472061  1
  S2-  S170  1  0.39921136  0.25869059  0.35088033  1
  S2-  S171  1  0.38521639  0.25291791  0.85208365  1
  S2-  S172  1  0.37309458  0.52531134  0.33357535  1
  S2-  S173  1  0.40282498  0.51224170  0.85769612  1
  S2-  S174  1  0.37801527  0.71602370  0.28970531  1
  S2-  S175  1  0.34325736  0.75216714  0.86638654  1
  S2-  S176  1  0.58984153  0.00612297  0.33797440  1
  S2-  S177  1  0.63482924  0.06821094  0.83388863  1
  S2-  S178  1  0.63008358  0.25584734  0.34506856  1
  S2-  S179  1  0.68559716  0.27179853  0.84591054  1
  S2-  S180  1  0.60487585  0.48992265  0.33738141  1
  S2-  S181  1  0.67945349  0.49700674  0.84458411  1
  S2-  S182  1  0.54933018  0.75303663  0.34995560  1
  S2-  S183  1  0.61544197  0.85275941  0.85542914  1
  S2-  S184  1  0.86072475  -0.01085639  0.34912126  1
  S2-  S185  1  0.82908944  -0.07213450  0.81851107  1
  S2-  S186  1  0.87160196  0.23925867  0.35005044  1
  S2-  S187  1  0.86999436  0.15087738  0.83764479  1
  S2-  S188  1  0.85938378  0.51855977  0.34559338  1
  S2-  S189  1  0.86965167  0.39685465  0.85331892  1
  S2-  S190  1  0.99121555  0.75973814  0.35908023  1
  S2-  S191  1  0.89982222  0.68766600  0.84050339  1
  S2-  S192  1  -0.00156808  0.12311402  0.45491174  1
  S2-  S193  1  0.00008962  0.13291265  0.94553051  1
  S2-  S194  1  0.00003185  0.37239007  0.44937571  1
  S2-  S195  1  0.00782053  0.38013358  0.94611547  1
  S2-  S196  1  0.00052019  0.62240672  0.45302768  1
  S2-  S197  1  0.00129681  0.62255871  0.95318800  1
  S2-  S198  1  -0.00420140  0.88056634  0.45570761  1
  S2-  S199  1  0.00085176  0.87740808  0.94509124  1
  S2-  S200  1  0.25267068  0.12331604  0.45469275  1
  S2-  S201  1  0.25804555  0.12910308  0.95774166  1
  S2-  S202  1  0.25201244  0.37291756  0.44825802  1
  S2-  S203  1  0.25669581  0.37547476  0.95607543  1
  S2-  S204  1  0.25160013  0.62400327  0.44853436  1
  S2-  S205  1  0.25668091  0.62259840  0.97095424  1
  S2-  S206  1  0.25146268  0.87431506  0.45389656  1
  S2-  S207  1  0.25485544  0.87416061  0.96743733  1
  S2-  S208  1  0.49926957  0.12392940  0.45624098  1
  S2-  S209  1  0.50244764  0.12521319  0.94988772  1
  S2-  S210  1  0.49809620  0.37506315  0.45348153  1
  S2-  S211  1  0.50373609  0.37184484  0.95725437  1
  S2-  S212  1  0.49786054  0.62419778  0.44750533  1
  S2-  S213  1  0.50033755  0.62823897  0.96776704  1
  S2-  S214  1  0.49969373  0.87507403  0.45603366  1
  S2-  S215  1  0.49846348  0.87153930  0.96248185  1
  S2-  S216  1  0.75006958  0.12416898  0.45809679  1
  S2-  S217  1  0.75059887  0.12307301  0.94336313  1
  S2-  S218  1  0.75082622  0.37342532  0.45381467  1
  S2-  S219  1  0.74551747  0.37833832  0.95513046  1
  S2-  S220  1  0.75154554  0.62885462  0.44685521  1
  S2-  S221  1  0.75170958  0.62618143  0.94891385  1
  S2-  S222  1  0.75277712  0.87278344  0.45267437  1
  S2-  S223  1  0.75624751  0.87457714  0.94884418  1
  S2-  S224  1  0.12345167  0.00558294  0.03510683  1
  S2-  S225  1  0.12293952  -0.00403741  0.54979575  1
  S2-  S226  1  0.12584741  0.24955177  0.04923611  1
  S2-  S227  1  0.12769569  0.24926134  0.55205467  1
  S2-  S228  1  0.12738041  0.49692767  0.04095058  1
  S2-  S229  1  0.12455706  0.49996926  0.54710196  1
  S2-  S230  1  0.12700160  0.75064186  0.04259976  1
  S2-  S231  1  0.12357756  0.75093339  0.54110088  1
  S2-  S232  1  0.38126723  -0.00081462  0.04831711  1
  S2-  S233  1  0.37907225  0.00271019  0.54196802  1
  S2-  S234  1  0.37935308  0.24912506  0.05627898  1
  S2-  S235  1  0.37437387  0.24923171  0.55293286  1
  S2-  S236  1  0.37962988  0.50007837  0.06147602  1
  S2-  S237  1  0.37366050  0.49931404  0.54125020  1
  S2-  S238  1  0.37714988  0.74806652  0.06861255  1
  S2-  S239  1  0.37913232  0.74516449  0.54306462  1
  S2-  S240  1  0.63017393  0.00083711  0.03476478  1
  S2-  S241  1  0.62695525  -0.00548162  0.54432711  1
  S2-  S242  1  0.63104791  0.24713527  0.04414630  1
  S2-  S243  1  0.62568928  0.25426658  0.55028405  1
  S2-  S244  1  0.63276867  0.49719830  0.04486095  1
  S2-  S245  1  0.62887261  0.50161068  0.54634595  1
  S2-  S246  1  0.63279766  0.75016974  0.04083859  1
  S2-  S247  1  0.62636047  0.75014911  0.54617351  1
  S2-  S248  1  0.87734319  -0.00095778  0.03630782  1
  S2-  S249  1  0.87147749  0.00384433  0.55155663  1
  S2-  S250  1  0.87797461  0.24944532  0.03376159  1
  S2-  S251  1  0.87242163  0.24849564  0.55300707  1
  S2-  S252  1  0.87699528  0.50159462  0.04222292  1
  S2-  S253  1  0.87686737  0.50465256  0.55207684  1
  S2-  S254  1  0.87661633  0.75047158  0.04178622  1
  S2-  S255  1  0.87625191  0.74786066  0.54026307  1
