# generated using pymatgen
data_La6Ce6Pr19Nd20Sm13(BiS2)64
_symmetry_space_group_name_H-M   'P 1'
_cell_length_a   16.13573650
_cell_length_b   16.14424065
_cell_length_c   27.22523932
_cell_angle_alpha   89.91634798
_cell_angle_beta   89.97504311
_cell_angle_gamma   90.01939766
_symmetry_Int_Tables_number   1
_chemical_formula_structural   La6Ce6Pr19Nd20Sm13(BiS2)64
_chemical_formula_sum   'La6 Ce6 Pr19 Nd20 Sm13 Bi64 S128'
_cell_volume   7092.14477748
_cell_formula_units_Z   1
loop_
 _symmetry_equiv_pos_site_id
 _symmetry_equiv_pos_as_xyz
  1  'x, y, z'
loop_
 _atom_type_symbol
 _atom_type_oxidation_number
  La3+  3.0
  Ce3+  3.0
  Pr3+  3.0
  Nd3+  3.0
  Sm3+  3.0
  Bi2+  2.0
  S2-  -2.0
loop_
 _atom_site_type_symbol
 _atom_site_label
 _atom_site_symmetry_multiplicity
 _atom_site_fract_x
 _atom_site_fract_y
 _atom_site_fract_z
 _atom_site_occupancy
  La3+  La0  1  0.24799076  0.36347996  0.61137277  1
  La3+  La1  1  0.25415267  0.61803377  0.57165086  1
  La3+  La2  1  0.49776861  0.86260637  0.57271083  1
  La3+  La3  1  0.38541321  0.73041288  0.41397998  1
  La3+  La4  1  0.63288512  0.00271065  0.88072124  1
  La3+  La5  1  0.50913590  0.35766608  0.57326488  1
  Ce3+  Ce6  1  0.24518782  0.87430992  0.06140012  1
  Ce3+  Ce7  1  0.88304762  -0.01062212  0.43995209  1
  Ce3+  Ce8  1  0.86778022  -0.00122058  0.94129724  1
  Ce3+  Ce9  1  0.38169023  0.49267900  0.45054290  1
  Ce3+  Ce10  1  0.61449879  0.24366332  0.94086686  1
  Ce3+  Ce11  1  0.25962488  0.86556867  0.54991060  1
  Pr3+  Pr12  1  0.37094937  -0.00045461  0.93442047  1
  Pr3+  Pr13  1  0.61506577  0.49954944  0.92959679  1
  Pr3+  Pr14  1  0.75918520  0.61742464  0.56629576  1
  Pr3+  Pr15  1  0.01000064  0.86845477  0.56615862  1
  Pr3+  Pr16  1  0.12169923  -0.00020702  0.92997627  1
  Pr3+  Pr17  1  0.36720729  0.74716906  0.93529372  1
  Pr3+  Pr18  1  0.00802374  0.12091915  0.55422722  1
  Pr3+  Pr19  1  0.63737185  0.24492925  0.43591035  1
  Pr3+  Pr20  1  0.63293165  0.49598795  0.44831974  1
  Pr3+  Pr21  1  0.88170951  0.50487864  0.43146676  1
  Pr3+  Pr22  1  0.39144857  0.24440109  0.43393089  1
  Pr3+  Pr23  1  0.74056846  0.87448528  0.05950815  1
  Pr3+  Pr24  1  0.13897194  0.24235172  0.43508507  1
  Pr3+  Pr25  1  0.62124661  0.74973824  0.92433405  1
  Pr3+  Pr26  1  0.49830072  0.61751089  0.57415982  1
  Pr3+  Pr27  1  0.75818113  0.11419573  0.56024968  1
  Pr3+  Pr28  1  0.11162221  0.51314282  0.92671661  1
  Pr3+  Pr29  1  0.23694771  0.12884453  0.06974943  1
  Pr3+  Pr30  1  0.13317474  0.73992065  0.43641613  1
  Nd3+  Nd31  1  0.88181966  0.24676229  0.43269802  1
  Nd3+  Nd32  1  0.36489508  0.24833222  0.93709838  1
  Nd3+  Nd33  1  0.88376337  0.75123759  0.43833120  1
  Nd3+  Nd34  1  0.74185904  0.37478027  0.05654624  1
  Nd3+  Nd35  1  0.49313671  0.37283275  0.05585289  1
  Nd3+  Nd36  1  0.25959288  0.12229385  0.55914651  1
  Nd3+  Nd37  1  0.11729679  0.25076903  0.93513875  1
  Nd3+  Nd38  1  0.48440538  0.12246554  0.06774320  1
  Nd3+  Nd39  1  0.86811372  0.49877318  0.93959473  1
  Nd3+  Nd40  1  0.50460071  0.10877355  0.56533495  1
  Nd3+  Nd41  1  -0.00417076  0.62573966  0.07065147  1
  Nd3+  Nd42  1  0.13350432  0.49236176  0.44592920  1
  Nd3+  Nd43  1  -0.00640171  0.37737011  0.05647074  1
  Nd3+  Nd44  1  -0.00650095  0.87420627  0.05919381  1
  Nd3+  Nd45  1  0.86751357  0.24784938  0.94247410  1
  Nd3+  Nd46  1  0.00916660  0.61494842  0.57050196  1
  Nd3+  Nd47  1  0.86716487  0.75054821  0.93917133  1
  Nd3+  Nd48  1  0.39159410  -0.00748732  0.43129177  1
  Nd3+  Nd49  1  0.75583759  0.85942158  0.57007254  1
  Nd3+  Nd50  1  0.25329890  0.62896737  0.07307243  1
  Sm3+  Sm51  1  0.00706803  0.36715949  0.55778137  1
  Sm3+  Sm52  1  0.23975285  0.37751627  0.05462933  1
  Sm3+  Sm53  1  0.75611788  0.36561072  0.56552059  1
  Sm3+  Sm54  1  0.62638242  0.74429664  0.44237981  1
  Sm3+  Sm55  1  -0.00474308  0.12468012  0.05902994  1
  Sm3+  Sm56  1  0.13777191  -0.00801606  0.44059899  1
  Sm3+  Sm57  1  0.74018059  0.12288885  0.05651154  1
  Sm3+  Sm58  1  0.63063098  -0.01015142  0.44420346  1
  Sm3+  Sm59  1  0.11759132  0.75017591  0.94752833  1
  Sm3+  Sm60  1  0.49563937  0.87485229  0.05353956  1
  Sm3+  Sm61  1  0.49336586  0.62539538  0.06065661  1
  Sm3+  Sm62  1  0.74156762  0.62479280  0.05343134  1
  Sm3+  Sm63  1  0.36364329  0.50031063  0.94347268  1
  Bi2+  Bi64  1  -0.07314216  0.13013028  0.30323834  1
  Bi2+  Bi65  1  0.03768085  0.08105591  0.80893322  1
  Bi2+  Bi66  1  -0.01942862  0.31794577  0.28379435  1
  Bi2+  Bi67  1  -0.03051068  0.39549923  0.78823315  1
  Bi2+  Bi68  1  0.01378439  0.62762572  0.30022694  1
  Bi2+  Bi69  1  0.00975665  0.67406147  0.79449234  1
  Bi2+  Bi70  1  -0.04871350  0.86728916  0.27020797  1
  Bi2+  Bi71  1  0.05582805  0.88182061  0.81907983  1
  Bi2+  Bi72  1  0.20240808  0.13494248  0.28895131  1
  Bi2+  Bi73  1  0.22946821  0.10710593  0.77892814  1
  Bi2+  Bi74  1  0.24990781  0.40313110  0.24442421  1
  Bi2+  Bi75  1  0.26419426  0.35960023  0.79802480  1
  Bi2+  Bi76  1  0.26947470  0.59031570  0.29320480  1
  Bi2+  Bi77  1  0.25756944  0.60765577  0.80290226  1
  Bi2+  Bi78  1  0.20459118  0.87642287  0.29602742  1
  Bi2+  Bi79  1  0.24793053  0.86091023  0.78816863  1
  Bi2+  Bi80  1  0.46546752  0.13211249  0.30093371  1
  Bi2+  Bi81  1  0.49239840  0.14321218  0.79062470  1
  Bi2+  Bi82  1  0.51352270  0.36050122  0.27072179  1
  Bi2+  Bi83  1  0.56695605  0.42432790  0.80208487  1
  Bi2+  Bi84  1  0.55987388  0.62570199  0.27327112  1
  Bi2+  Bi85  1  0.55247848  0.62141199  0.76261397  1
  Bi2+  Bi86  1  0.54844759  0.88016331  0.28919059  1
  Bi2+  Bi87  1  0.50531022  0.89603237  0.77011393  1
  Bi2+  Bi88  1  0.72765531  0.10787999  0.30257847  1
  Bi2+  Bi89  1  0.85598059  0.13481360  0.78239021  1
  Bi2+  Bi90  1  0.70289513  0.39006494  0.30245394  1
  Bi2+  Bi91  1  0.76426650  0.41160756  0.80471822  1
  Bi2+  Bi92  1  0.74210332  0.70514116  0.29491340  1
  Bi2+  Bi93  1  0.79840116  0.60209239  0.79041741  1
  Bi2+  Bi94  1  0.74280208  0.91266385  0.30448323  1
  Bi2+  Bi95  1  0.86822133  0.86767070  0.78957852  1
  Bi2+  Bi96  1  0.06228640  0.02372765  0.23314671  1
  Bi2+  Bi97  1  0.12016370  -0.01986203  0.70325435  1
  Bi2+  Bi98  1  0.12133508  0.24797131  0.20158117  1
  Bi2+  Bi99  1  0.04130986  0.24803278  0.72214207  1
  Bi2+  Bi100  1  0.07827230  0.48343145  0.21460790  1
  Bi2+  Bi101  1  0.03529496  0.52632620  0.71092303  1
  Bi2+  Bi102  1  0.10793298  0.71788785  0.19791080  1
  Bi2+  Bi103  1  0.11917823  0.77477306  0.71095877  1
  Bi2+  Bi104  1  0.33954156  0.02280087  0.23970229  1
  Bi2+  Bi105  1  0.31929238  -0.01590913  0.70489584  1
  Bi2+  Bi106  1  0.39789536  0.24221560  0.19314410  1
  Bi2+  Bi107  1  0.38092386  0.22151614  0.71000448  1
  Bi2+  Bi108  1  0.41134704  0.50825523  0.21995316  1
  Bi2+  Bi109  1  0.41514745  0.48710808  0.72458634  1
  Bi2+  Bi110  1  0.37002546  0.76736691  0.20660874  1
  Bi2+  Bi111  1  0.39622354  0.73735626  0.70968128  1
  Bi2+  Bi112  1  0.59511435  0.04018088  0.22809743  1
  Bi2+  Bi113  1  0.63056852  0.06581561  0.68165149  1
  Bi2+  Bi114  1  0.65841645  0.25578481  0.21675463  1
  Bi2+  Bi115  1  0.65579009  0.29828819  0.73224164  1
  Bi2+  Bi116  1  0.66087578  0.50784593  0.20009594  1
  Bi2+  Bi117  1  0.67973779  0.51583336  0.70469361  1
  Bi2+  Bi118  1  0.60577254  0.76957766  0.19886934  1
  Bi2+  Bi119  1  0.65998310  0.80849080  0.71079953  1
  Bi2+  Bi120  1  0.87160763  0.01791133  0.21087264  1
  Bi2+  Bi121  1  0.91843804  -0.00087646  0.70862194  1
  Bi2+  Bi122  1  0.85933355  0.24970240  0.20525480  1
  Bi2+  Bi123  1  0.85901075  0.29817203  0.69725935  1
  Bi2+  Bi124  1  0.82412649  0.52903524  0.26507095  1
  Bi2+  Bi125  1  0.86821287  0.48610431  0.65284958  1
  Bi2+  Bi126  1  0.84259741  0.75506741  0.19944259  1
  Bi2+  Bi127  1  0.89605916  0.67603872  0.69833013  1
  S2-  S128  1  0.09974965  0.11624460  0.13826749  1
  S2-  S129  1  0.01612777  0.11152545  0.65455905  1
  S2-  S130  1  0.00078466  0.35848602  0.15489122  1
  S2-  S131  1  0.07867207  0.35331516  0.64780266  1
  S2-  S132  1  -0.01900198  0.60379659  0.16976325  1
  S2-  S133  1  0.12591932  0.62867175  0.64796834  1
  S2-  S134  1  -0.00954731  0.82747408  0.15432541  1
  S2-  S135  1  -0.02730363  0.82685505  0.66180855  1
  S2-  S136  1  0.35245355  0.10262140  0.14397991  1
  S2-  S137  1  0.25321415  0.19876503  0.64952298  1
  S2-  S138  1  0.25241040  0.31870594  0.14729349  1
  S2-  S139  1  0.25325335  0.43205614  0.71238503  1
  S2-  S140  1  0.18352219  0.58914892  0.16208838  1
  S2-  S141  1  0.36943366  0.60953407  0.65043029  1
  S2-  S142  1  0.23614293  0.82052688  0.15643339  1
  S2-  S143  1  0.31776438  0.84459042  0.64105676  1
  S2-  S144  1  0.54764208  0.16411609  0.15975508  1
  S2-  S145  1  0.51725921  0.19426840  0.65292252  1
  S2-  S146  1  0.48419144  0.38596112  0.15434389  1
  S2-  S147  1  0.41069690  0.36880011  0.65689740  1
  S2-  S148  1  0.39479982  0.63445697  0.14218546  1
  S2-  S149  1  0.52850568  0.74423764  0.64959852  1
  S2-  S150  1  0.47062166  0.85904434  0.15289716  1
  S2-  S151  1  0.49728170  0.98756884  0.64551285  1
  S2-  S152  1  0.78386171  0.12644659  0.15164044  1
  S2-  S153  1  0.76700585  0.17424868  0.65484166  1
  S2-  S154  1  0.75399600  0.37493993  0.15510247  1
  S2-  S155  1  0.64492085  0.37281946  0.64481190  1
  S2-  S156  1  0.75293545  0.62553925  0.15082923  1
  S2-  S157  1  0.75177349  0.73069170  0.64524825  1
  S2-  S158  1  0.73254930  0.86801469  0.16046602  1
  S2-  S159  1  0.73950446  0.93291036  0.66188352  1
  S2-  S160  1  0.10997306  -0.00390167  0.34358852  1
  S2-  S161  1  0.24839546  0.00367723  0.85830507  1
  S2-  S162  1  0.11544477  0.26333439  0.33621975  1
  S2-  S163  1  0.15881673  0.23853171  0.83939952  1
  S2-  S164  1  0.12590296  0.53056439  0.34724336  1
  S2-  S165  1  0.16448613  0.46722823  0.83279788  1
  S2-  S166  1  0.08899951  0.75741049  0.33865726  1
  S2-  S167  1  0.13779184  0.66262258  0.86481498  1
  S2-  S168  1  0.32223073  -0.03665309  0.33624663  1
  S2-  S169  1  0.46236934  0.00460414  0.84715704  1
  S2-  S170  1  0.32460584  0.20368501  0.34118412  1
  S2-  S171  1  0.39521032  0.25345441  0.83811175  1
  S2-  S172  1  0.38479122  0.56586415  0.36141678  1
  S2-  S173  1  0.36872147  0.51444392  0.84509976  1
  S2-  S174  1  0.31820164  0.75068652  0.31275620  1
  S2-  S175  1  0.35480704  0.74549407  0.83358872  1
  S2-  S176  1  0.52904310  0.00021900  0.36449052  1
  S2-  S177  1  0.62968467  0.01895680  0.77219584  1
  S2-  S178  1  0.52254128  0.26109774  0.35884775  1
  S2-  S179  1  0.62474787  0.17897534  0.85190797  1
  S2-  S180  1  0.63241537  0.52547437  0.34859753  1
  S2-  S181  1  0.59964934  0.61850221  0.85647142  1
  S2-  S182  1  0.53299281  0.75048992  0.35847404  1
  S2-  S183  1  0.60616255  0.84222311  0.83762418  1
  S2-  S184  1  0.88719586  -0.12084611  0.36372740  1
  S2-  S185  1  0.80550398  -0.00063920  0.84953465  1
  S2-  S186  1  0.76010018  0.25014076  0.36117200  1
  S2-  S187  1  0.88871582  0.26365028  0.84447193  1
  S2-  S188  1  0.89364238  0.42991702  0.33988291  1
  S2-  S189  1  0.96040002  0.52802417  0.85766942  1
  S2-  S190  1  0.87518444  0.64171784  0.36134856  1
  S2-  S191  1  0.80048741  0.74359972  0.84693804  1
  S2-  S192  1  0.00802053  0.11801669  0.44752079  1
  S2-  S193  1  -0.00578027  0.12476831  0.95368073  1
  S2-  S194  1  0.00739251  0.36719819  0.45119064  1
  S2-  S195  1  -0.00650023  0.37480130  0.95075148  1
  S2-  S196  1  0.00992669  0.61900596  0.46230064  1
  S2-  S197  1  -0.01015712  0.63052722  0.96374588  1
  S2-  S198  1  0.01518422  0.87109162  0.45891471  1
  S2-  S199  1  -0.00596370  0.87328409  0.95257033  1
  S2-  S200  1  0.25964422  0.11357580  0.45141649  1
  S2-  S201  1  0.24052765  0.12852803  0.95931047  1
  S2-  S202  1  0.25964979  0.36941232  0.43942103  1
  S2-  S203  1  0.24011703  0.37787454  0.95033942  1
  S2-  S204  1  0.25494595  0.61762999  0.45878890  1
  S2-  S205  1  0.24545532  0.62394801  0.96442899  1
  S2-  S206  1  0.25975756  0.86531211  0.44484782  1
  S2-  S207  1  0.24154823  0.86945580  0.95461680  1
  S2-  S208  1  0.51312657  0.11884591  0.46046666  1
  S2-  S209  1  0.48728397  0.12825610  0.95970859  1
  S2-  S210  1  0.51056720  0.37262334  0.46227795  1
  S2-  S211  1  0.48995788  0.37588131  0.94910011  1
  S2-  S212  1  0.50795417  0.61798026  0.46423508  1
  S2-  S213  1  0.48880153  0.62143413  0.95747672  1
  S2-  S214  1  0.50643732  0.86677738  0.46171354  1
  S2-  S215  1  0.49365597  0.86980512  0.95059993  1
  S2-  S216  1  0.75943870  0.11058896  0.45363924  1
  S2-  S217  1  0.74341276  0.12287675  0.95335274  1
  S2-  S218  1  0.76195949  0.37457050  0.46048536  1
  S2-  S219  1  0.74217358  0.37349666  0.94991790  1
  S2-  S220  1  0.75393400  0.62586751  0.45975869  1
  S2-  S221  1  0.74480362  0.62188874  0.95081463  1
  S2-  S222  1  0.75122420  0.86634560  0.46087415  1
  S2-  S223  1  0.74174496  0.87658258  0.95314000  1
  S2-  S224  1  0.11774798  -0.00410585  0.04007769  1
  S2-  S225  1  0.13475679  -0.00521318  0.54697580  1
  S2-  S226  1  0.11513693  0.25394165  0.04171053  1
  S2-  S227  1  0.13317881  0.24553838  0.54150592  1
  S2-  S228  1  0.11793224  0.50116230  0.04568581  1
  S2-  S229  1  0.13353083  0.48547025  0.55099156  1
  S2-  S230  1  0.11930718  0.74803100  0.05052037  1
  S2-  S231  1  0.13061172  0.74503029  0.54456714  1
  S2-  S232  1  0.36827197  -0.00617383  0.04209280  1
  S2-  S233  1  0.37699407  -0.00598654  0.53948673  1
  S2-  S234  1  0.36482532  0.25408810  0.04342846  1
  S2-  S235  1  0.38307357  0.23913084  0.54231780  1
  S2-  S236  1  0.36815204  0.49584377  0.04833489  1
  S2-  S237  1  0.37310792  0.48292107  0.55319419  1
  S2-  S238  1  0.37254083  0.75250114  0.04225750  1
  S2-  S239  1  0.37818770  0.73821842  0.53775215  1
  S2-  S240  1  0.61562162  0.00176535  0.05962853  1
  S2-  S241  1  0.63415329  -0.01214675  0.54713096  1
  S2-  S242  1  0.61959329  0.24860546  0.04747753  1
  S2-  S243  1  0.63855367  0.24025681  0.54223506  1
  S2-  S244  1  0.61692113  0.50128603  0.04226292  1
  S2-  S245  1  0.63098604  0.49785604  0.55338825  1
  S2-  S246  1  0.61641294  0.74621015  0.04304679  1
  S2-  S247  1  0.62913490  0.73965116  0.54489520  1
  S2-  S248  1  0.87024873  0.00117497  0.04908993  1
  S2-  S249  1  0.88412948  -0.00981943  0.54833022  1
  S2-  S250  1  0.86938304  0.24805040  0.04826301  1
  S2-  S251  1  0.88179155  0.24605799  0.54200037  1
  S2-  S252  1  0.86693326  0.50171161  0.04738488  1
  S2-  S253  1  0.88414467  0.49240616  0.53993991  1
  S2-  S254  1  0.86721964  0.74788138  0.04691611  1
  S2-  S255  1  0.88818147  0.74160481  0.54523450  1
