# generated using pymatgen
data_La6Ce6Pr19Nd20Sm13(BiS2)64
_symmetry_space_group_name_H-M   'P 1'
_cell_length_a   16.16925521
_cell_length_b   16.17945495
_cell_length_c   27.11034271
_cell_angle_alpha   89.95483410
_cell_angle_beta   89.96495427
_cell_angle_gamma   89.99183156
_symmetry_Int_Tables_number   1
_chemical_formula_structural   La6Ce6Pr19Nd20Sm13(BiS2)64
_chemical_formula_sum   'La6 Ce6 Pr19 Nd20 Sm13 Bi64 S128'
_cell_volume   7092.32600306
_cell_formula_units_Z   1
loop_
 _symmetry_equiv_pos_site_id
 _symmetry_equiv_pos_as_xyz
  1  'x, y, z'
loop_
 _atom_type_symbol
 _atom_type_oxidation_number
  La3+  3.0
  Ce3+  3.0
  Pr3+  3.0
  Nd3+  3.0
  Sm3+  3.0
  Bi2+  2.0
  S2-  -2.0
loop_
 _atom_site_type_symbol
 _atom_site_label
 _atom_site_symmetry_multiplicity
 _atom_site_fract_x
 _atom_site_fract_y
 _atom_site_fract_z
 _atom_site_occupancy
  La3+  La0  1  0.74377808  0.62821250  0.60379764  1
  La3+  La1  1  0.63052952  0.74402992  0.42927837  1
  La3+  La2  1  0.73985129  0.36859332  0.06924041  1
  La3+  La3  1  0.23612694  0.61976612  0.09788112  1
  La3+  La4  1  0.49781380  0.88351931  0.07625218  1
  La3+  La5  1  0.36771211  0.51104616  0.40081366  1
  Ce3+  Ce6  1  0.36524940  0.25058735  0.94367093  1
  Ce3+  Ce7  1  0.61571276  -0.00226781  0.93637762  1
  Ce3+  Ce8  1  0.00143322  0.87057292  0.55377536  1
  Ce3+  Ce9  1  0.11740090  0.74798143  0.94162300  1
  Ce3+  Ce10  1  0.49290991  0.12237928  0.05758664  1
  Ce3+  Ce11  1  0.75477518  0.12403178  0.55747880  1
  Pr3+  Pr12  1  0.37869648  0.25386562  0.44134794  1
  Pr3+  Pr13  1  0.61483314  0.25294260  0.93698052  1
  Pr3+  Pr14  1  0.13032284  0.50052926  0.44537982  1
  Pr3+  Pr15  1  0.87445163  0.74703178  0.43299776  1
  Pr3+  Pr16  1  0.74869485  0.36904598  0.57569452  1
  Pr3+  Pr17  1  -0.00740044  0.37665287  0.04837243  1
  Pr3+  Pr18  1  0.50552705  0.38137138  0.55864548  1
  Pr3+  Pr19  1  0.36528305  0.75304720  0.95089081  1
  Pr3+  Pr20  1  0.36182440  0.00069007  0.93908135  1
  Pr3+  Pr21  1  0.49380784  0.62683677  0.07100730  1
  Pr3+  Pr22  1  -0.00270613  0.87402105  0.05868984  1
  Pr3+  Pr23  1  0.85507538  0.50207675  0.92450028  1
  Pr3+  Pr24  1  0.36737509  0.50349721  0.93949721  1
  Pr3+  Pr25  1  0.74850576  0.87407810  0.06348478  1
  Pr3+  Pr26  1  0.86284873  0.25308064  0.92796470  1
  Pr3+  Pr27  1  0.25608518  0.13098375  0.57712535  1
  Pr3+  Pr28  1  -0.00554071  0.62101266  0.05759251  1
  Pr3+  Pr29  1  0.64016730  0.48902519  0.41516591  1
  Pr3+  Pr30  1  0.13075178  0.24944470  0.44259911  1
  Nd3+  Nd31  1  0.25416240  0.37683992  0.56824761  1
  Nd3+  Nd32  1  0.11657294  0.00290619  0.93870114  1
  Nd3+  Nd33  1  0.87724945  0.25126965  0.44275565  1
  Nd3+  Nd34  1  0.87900871  -0.00082218  0.44461198  1
  Nd3+  Nd35  1  -0.00596984  0.12932431  0.04704077  1
  Nd3+  Nd36  1  0.61303459  0.75949227  0.93566276  1
  Nd3+  Nd37  1  0.50304222  0.12265518  0.56179087  1
  Nd3+  Nd38  1  0.50438410  0.86950417  0.56048837  1
  Nd3+  Nd39  1  0.37757685  0.00155080  0.44062531  1
  Nd3+  Nd40  1  0.86605941  0.75064851  0.94073226  1
  Nd3+  Nd41  1  0.23944832  0.37171491  0.06691242  1
  Nd3+  Nd42  1  0.74063740  0.62286149  0.06029197  1
  Nd3+  Nd43  1  0.60766130  0.50955710  0.93468950  1
  Nd3+  Nd44  1  0.13285523  0.74756987  0.44125362  1
  Nd3+  Nd45  1  0.11945663  0.25957995  0.92078493  1
  Nd3+  Nd46  1  0.24268281  0.87652454  0.06351734  1
  Nd3+  Nd47  1  0.11870112  0.50221416  0.93237034  1
  Nd3+  Nd48  1  0.25332345  0.87437898  0.56608072  1
  Nd3+  Nd49  1  0.23926820  0.12988324  0.06343172  1
  Nd3+  Nd50  1  0.86738733  0.00155160  0.94154050  1
  Sm3+  Sm51  1  0.62923312  -0.00009741  0.44753225  1
  Sm3+  Sm52  1  0.49977159  0.62291571  0.55495726  1
  Sm3+  Sm53  1  0.87445051  0.49864328  0.44940014  1
  Sm3+  Sm54  1  0.13112184  -0.00069471  0.44982773  1
  Sm3+  Sm55  1  0.38745576  0.76023283  0.42945821  1
  Sm3+  Sm56  1  0.25713676  0.62379501  0.56190422  1
  Sm3+  Sm57  1  -0.00283627  0.62422616  0.55838204  1
  Sm3+  Sm58  1  0.62874750  0.25172031  0.44239088  1
  Sm3+  Sm59  1  0.74431373  0.12770363  0.05284406  1
  Sm3+  Sm60  1  0.75307597  0.86941487  0.56085199  1
  Sm3+  Sm61  1  0.00193387  0.37449826  0.55839486  1
  Sm3+  Sm62  1  0.00383521  0.12382826  0.55885509  1
  Sm3+  Sm63  1  0.48975965  0.37824296  0.05839546  1
  Bi2+  Bi64  1  0.04660154  0.08520659  0.27544788  1
  Bi2+  Bi65  1  -0.03795093  0.11829398  0.78527623  1
  Bi2+  Bi66  1  -0.02424068  0.35353728  0.28152388  1
  Bi2+  Bi67  1  0.07885018  0.40381300  0.75573989  1
  Bi2+  Bi68  1  -0.04192596  0.62459027  0.29101075  1
  Bi2+  Bi69  1  0.03988452  0.62136860  0.76341686  1
  Bi2+  Bi70  1  -0.02610354  0.90023917  0.28232013  1
  Bi2+  Bi71  1  0.03551486  0.84638701  0.76302671  1
  Bi2+  Bi72  1  0.28382752  0.13347332  0.30136800  1
  Bi2+  Bi73  1  0.26742502  0.11431486  0.80122159  1
  Bi2+  Bi74  1  0.24845539  0.36235403  0.29130808  1
  Bi2+  Bi75  1  0.27834588  0.44710215  0.80065388  1
  Bi2+  Bi76  1  0.22478799  0.63199210  0.28778051  1
  Bi2+  Bi77  1  0.21638505  0.62786174  0.80978050  1
  Bi2+  Bi78  1  0.22310520  0.88875551  0.29877638  1
  Bi2+  Bi79  1  0.26788498  0.86966261  0.80821214  1
  Bi2+  Bi80  1  0.48071943  0.12567831  0.30150404  1
  Bi2+  Bi81  1  0.54473818  0.09279610  0.75306238  1
  Bi2+  Bi82  1  0.50427336  0.31594536  0.28230396  1
  Bi2+  Bi83  1  0.51327199  0.37122288  0.79088705  1
  Bi2+  Bi84  1  0.47784437  0.66402389  0.28252252  1
  Bi2+  Bi85  1  0.48148663  0.63236562  0.79174658  1
  Bi2+  Bi86  1  0.50428641  0.92148875  0.29499659  1
  Bi2+  Bi87  1  0.49672278  0.88230653  0.78996915  1
  Bi2+  Bi88  1  0.76006073  0.14496086  0.28095888  1
  Bi2+  Bi89  1  0.73614593  0.09793187  0.78640369  1
  Bi2+  Bi90  1  0.76799386  0.35109989  0.29445668  1
  Bi2+  Bi91  1  0.78002583  0.37045978  0.80135518  1
  Bi2+  Bi92  1  0.75683110  0.60764625  0.29353709  1
  Bi2+  Bi93  1  0.75737866  0.62646232  0.80331443  1
  Bi2+  Bi94  1  0.75454453  0.88294967  0.29314434  1
  Bi2+  Bi95  1  0.76376858  0.88620685  0.79475691  1
  Bi2+  Bi96  1  0.18243420  0.01306592  0.20355340  1
  Bi2+  Bi97  1  0.08229028  0.01674827  0.71485403  1
  Bi2+  Bi98  1  0.08827395  0.25110843  0.20631132  1
  Bi2+  Bi99  1  0.14511674  0.23815167  0.72186725  1
  Bi2+  Bi100  1  0.09707374  0.49760135  0.21610828  1
  Bi2+  Bi101  1  0.17512341  0.53465135  0.68728114  1
  Bi2+  Bi102  1  0.05943841  0.76300864  0.21357432  1
  Bi2+  Bi103  1  0.14715826  0.73614044  0.69173198  1
  Bi2+  Bi104  1  0.37090099  0.05242724  0.20412426  1
  Bi2+  Bi105  1  0.37745314  -0.01943602  0.69361508  1
  Bi2+  Bi106  1  0.34991736  0.25151598  0.21373444  1
  Bi2+  Bi107  1  0.35461971  0.29294915  0.74107059  1
  Bi2+  Bi108  1  0.38893482  0.48506028  0.19873003  1
  Bi2+  Bi109  1  0.36210732  0.47001154  0.68887023  1
  Bi2+  Bi110  1  0.32629370  0.82377737  0.21427478  1
  Bi2+  Bi111  1  0.33749177  0.69640439  0.72285964  1
  Bi2+  Bi112  1  0.64577474  0.01961280  0.21434640  1
  Bi2+  Bi113  1  0.67953858  -0.02157159  0.70106306  1
  Bi2+  Bi114  1  0.61406829  0.20952151  0.21176589  1
  Bi2+  Bi115  1  0.63160789  0.24963747  0.71371345  1
  Bi2+  Bi116  1  0.63479226  0.50489649  0.20385560  1
  Bi2+  Bi117  1  0.55439590  0.50875958  0.71319470  1
  Bi2+  Bi118  1  0.62168634  0.75655750  0.20587401  1
  Bi2+  Bi119  1  0.59956154  0.76663390  0.71515332  1
  Bi2+  Bi120  1  0.88789988  0.04204918  0.21187975  1
  Bi2+  Bi121  1  0.87681125  -0.00427090  0.70866558  1
  Bi2+  Bi122  1  0.87471980  0.24019168  0.19965763  1
  Bi2+  Bi123  1  0.89032531  0.25839388  0.69600097  1
  Bi2+  Bi124  1  0.90235884  0.49548174  0.21094711  1
  Bi2+  Bi125  1  0.89188130  0.50527408  0.71308154  1
  Bi2+  Bi126  1  0.86525015  0.75511870  0.22109231  1
  Bi2+  Bi127  1  0.87839737  0.76783416  0.71157799  1
  S2-  S128  1  -0.00463386  0.13469624  0.14615718  1
  S2-  S129  1  0.01906695  0.15598388  0.65545249  1
  S2-  S130  1  0.02466581  0.38809333  0.14680774  1
  S2-  S131  1  -0.00227062  0.38037708  0.65710426  1
  S2-  S132  1  0.07898736  0.62644495  0.14643728  1
  S2-  S133  1  -0.08483551  0.63371504  0.64473522  1
  S2-  S134  1  -0.05761324  0.85950552  0.15301398  1
  S2-  S135  1  -0.02673751  0.87385913  0.64956135  1
  S2-  S136  1  0.21963764  0.24308317  0.13919404  1
  S2-  S137  1  0.23707446  0.04429126  0.66515632  1
  S2-  S138  1  0.24323078  0.46708376  0.15137560  1
  S2-  S139  1  0.24958220  0.26752924  0.64727653  1
  S2-  S140  1  0.29650800  0.66530410  0.19223910  1
  S2-  S141  1  0.37508603  0.62679385  0.63367822  1
  S2-  S142  1  0.17920992  0.85353999  0.15532421  1
  S2-  S143  1  0.28218344  0.84029530  0.66249955  1
  S2-  S144  1  0.50998678  0.03020946  0.14003749  1
  S2-  S145  1  0.45514617  0.11731525  0.65736543  1
  S2-  S146  1  0.52429527  0.39529095  0.15430967  1
  S2-  S147  1  0.56556819  0.35632433  0.65412707  1
  S2-  S148  1  0.50546366  0.60899917  0.17231825  1
  S2-  S149  1  0.57854108  0.64231224  0.64502101  1
  S2-  S150  1  0.48322491  0.81491458  0.16934502  1
  S2-  S151  1  0.50238265  0.86270171  0.66128278  1
  S2-  S152  1  0.74128394  0.22094397  0.13539784  1
  S2-  S153  1  0.75815758  0.18746598  0.64765645  1
  S2-  S154  1  0.75925229  0.43377507  0.16290178  1
  S2-  S155  1  0.78913694  0.38328380  0.67560245  1
  S2-  S156  1  0.71879280  0.63988128  0.15884854  1
  S2-  S157  1  0.74042870  0.57437391  0.70891337  1
  S2-  S158  1  0.69526046  0.88519581  0.15891305  1
  S2-  S159  1  0.74584745  0.78777439  0.64820202  1
  S2-  S160  1  0.14840705  0.01069277  0.35279908  1
  S2-  S161  1  0.17696465  -0.01302366  0.84558819  1
  S2-  S162  1  0.17260096  0.24914411  0.34436952  1
  S2-  S163  1  0.12872081  0.18652378  0.82793475  1
  S2-  S164  1  0.20371270  0.49904732  0.35446368  1
  S2-  S165  1  0.12973648  0.39647367  0.85334488  1
  S2-  S166  1  0.13653007  0.74713985  0.34129746  1
  S2-  S167  1  0.13385883  0.77983368  0.84555368  1
  S2-  S168  1  0.36720920  -0.09237635  0.35660440  1
  S2-  S169  1  0.39180028  -0.00024636  0.83875304  1
  S2-  S170  1  0.38021027  0.34732792  0.35648121  1
  S2-  S171  1  0.35681911  0.23997663  0.84605336  1
  S2-  S172  1  0.40037256  0.51660257  0.29328103  1
  S2-  S173  1  0.47949976  0.50444746  0.86082958  1
  S2-  S174  1  0.34291120  0.67600041  0.34807401  1
  S2-  S175  1  0.39494154  0.77303313  0.85152302  1
  S2-  S176  1  0.63523917  -0.02570985  0.35019758  1
  S2-  S177  1  0.61256800  -0.11171004  0.86006125  1
  S2-  S178  1  0.63382286  0.33745649  0.35590285  1
  S2-  S179  1  0.63715958  0.28223272  0.83785194  1
  S2-  S180  1  0.60643196  0.57021194  0.32439390  1
  S2-  S181  1  0.71452905  0.48417273  0.85857521  1
  S2-  S182  1  0.52590422  0.77503018  0.34867227  1
  S2-  S183  1  0.61934678  0.66921966  0.84929263  1
  S2-  S184  1  0.86688728  -0.01873601  0.34646138  1
  S2-  S185  1  0.87641197  -0.00326113  0.84257366  1
  S2-  S186  1  0.88456812  0.23976618  0.34389094  1
  S2-  S187  1  0.90322770  0.26483300  0.82941054  1
  S2-  S188  1  0.80073171  0.47939823  0.35998337  1
  S2-  S189  1  0.89731652  0.49796350  0.82204693  1
  S2-  S190  1  0.76064688  0.75575275  0.35552897  1
  S2-  S191  1  0.85434432  0.75567366  0.84147863  1
  S2-  S192  1  0.00482501  0.12331835  0.45242828  1
  S2-  S193  1  -0.00733128  0.12919757  0.94093464  1
  S2-  S194  1  0.00267559  0.37561961  0.45143517  1
  S2-  S195  1  -0.01432500  0.38063512  0.94256959  1
  S2-  S196  1  0.00077215  0.62324398  0.45207029  1
  S2-  S197  1  -0.01061431  0.62214313  0.94726954  1
  S2-  S198  1  0.00597611  0.87386504  0.44680306  1
  S2-  S199  1  -0.00780144  0.87644735  0.95016536  1
  S2-  S200  1  0.25450527  0.12442679  0.46218033  1
  S2-  S201  1  0.23849564  0.12838679  0.95533565  1
  S2-  S202  1  0.25189333  0.37454026  0.46156679  1
  S2-  S203  1  0.24558086  0.37716230  0.95686129  1
  S2-  S204  1  0.25475371  0.62605542  0.45834194  1
  S2-  S205  1  0.24220650  0.62532003  0.94908655  1
  S2-  S206  1  0.25119827  0.87428018  0.45822083  1
  S2-  S207  1  0.23824567  0.87658323  0.95711408  1
  S2-  S208  1  0.50518442  0.12545584  0.45323161  1
  S2-  S209  1  0.49177846  0.12386187  0.94928646  1
  S2-  S210  1  0.50948075  0.37750063  0.45370690  1
  S2-  S211  1  0.49019513  0.37385970  0.95413330  1
  S2-  S212  1  0.49926490  0.61940287  0.44708876  1
  S2-  S213  1  0.49063604  0.63336726  0.96293021  1
  S2-  S214  1  0.50653853  0.88143082  0.45641765  1
  S2-  S215  1  0.48822670  0.88063592  0.96492754  1
  S2-  S216  1  0.75245288  0.12562668  0.44974805  1
  S2-  S217  1  0.74119397  0.12544199  0.94727019  1
  S2-  S218  1  0.75422252  0.37034310  0.46530165  1
  S2-  S219  1  0.73941076  0.37298118  0.95899172  1
  S2-  S220  1  0.75458198  0.61758084  0.45244289  1
  S2-  S221  1  0.73876060  0.63148078  0.95475456  1
  S2-  S222  1  0.75319353  0.87840153  0.45722683  1
  S2-  S223  1  0.74627651  0.87685316  0.95613513  1
  S2-  S224  1  0.11812265  0.00312419  0.04682545  1
  S2-  S225  1  0.12631023  -0.00098528  0.55412319  1
  S2-  S226  1  0.11547431  0.25301129  0.03155560  1
  S2-  S227  1  0.12450879  0.25061153  0.54867038  1
  S2-  S228  1  0.12108690  0.50034193  0.03898146  1
  S2-  S229  1  0.12514917  0.50143240  0.55239586  1
  S2-  S230  1  0.12100620  0.74726559  0.04625757  1
  S2-  S231  1  0.12731591  0.74414866  0.54866835  1
  S2-  S232  1  0.36109060  0.00426287  0.04791573  1
  S2-  S233  1  0.37797189  -0.00248614  0.54786949  1
  S2-  S234  1  0.37071187  0.25045680  0.05004576  1
  S2-  S235  1  0.38279623  0.25130430  0.54847639  1
  S2-  S236  1  0.36767677  0.50350065  0.04820187  1
  S2-  S237  1  0.37534362  0.49663384  0.54225097  1
  S2-  S238  1  0.36270923  0.74847609  0.05873014  1
  S2-  S239  1  0.37774620  0.75320222  0.53793085  1
  S2-  S240  1  0.62701084  0.00268064  0.04157758  1
  S2-  S241  1  0.62980314  -0.00262585  0.55317154  1
  S2-  S242  1  0.60975448  0.24922793  0.04354226  1
  S2-  S243  1  0.62656623  0.24587542  0.54625290  1
  S2-  S244  1  0.61518568  0.50026060  0.04530213  1
  S2-  S245  1  0.63348015  0.50287151  0.55498941  1
  S2-  S246  1  0.61857513  0.75278451  0.04856335  1
  S2-  S247  1  0.62837060  0.74998418  0.53991012  1
  S2-  S248  1  0.86903634  0.00423899  0.04830113  1
  S2-  S249  1  0.87838780  -0.00108212  0.55108963  1
  S2-  S250  1  0.86952544  0.24969295  0.03636329  1
  S2-  S251  1  0.88275599  0.24938226  0.54851313  1
  S2-  S252  1  0.86544533  0.50111326  0.04227421  1
  S2-  S253  1  0.87658087  0.49548312  0.55222717  1
  S2-  S254  1  0.86957034  0.74615630  0.04805741  1
  S2-  S255  1  0.87606008  0.74883434  0.53973018  1
