# generated using pymatgen
data_La6Ce6Pr19Nd20Sm13(BiS2)64
_symmetry_space_group_name_H-M   'P 1'
_cell_length_a   16.08434727
_cell_length_b   16.08282346
_cell_length_c   27.26047411
_cell_angle_alpha   89.84728705
_cell_angle_beta   89.80994838
_cell_angle_gamma   90.11246568
_symmetry_Int_Tables_number   1
_chemical_formula_structural   La6Ce6Pr19Nd20Sm13(BiS2)64
_chemical_formula_sum   'La6 Ce6 Pr19 Nd20 Sm13 Bi64 S128'
_cell_volume   7051.70871531
_cell_formula_units_Z   1
loop_
 _symmetry_equiv_pos_site_id
 _symmetry_equiv_pos_as_xyz
  1  'x, y, z'
loop_
 _atom_type_symbol
 _atom_type_oxidation_number
  La3+  3.0
  Ce3+  3.0
  Pr3+  3.0
  Nd3+  3.0
  Sm3+  3.0
  Bi2+  2.0
  S2-  -2.0
loop_
 _atom_site_type_symbol
 _atom_site_label
 _atom_site_symmetry_multiplicity
 _atom_site_fract_x
 _atom_site_fract_y
 _atom_site_fract_z
 _atom_site_occupancy
  La3+  La0  1  0.26273493  0.37098647  0.11076384  1
  La3+  La1  1  0.12989370  0.75802743  0.39313186  1
  La3+  La2  1  0.38076783  0.50198835  0.42473619  1
  La3+  La3  1  0.49922001  0.87556233  0.57371580  1
  La3+  La4  1  0.49170859  0.61865657  0.57863101  1
  La3+  La5  1  0.11488320  0.00744567  0.88175013  1
  Ce3+  Ce6  1  0.13635886  0.50025286  0.93854111  1
  Ce3+  Ce7  1  0.50574662  0.12813833  0.05298379  1
  Ce3+  Ce8  1  0.62334813  0.74700482  0.44297937  1
  Ce3+  Ce9  1  0.49940008  0.37681937  0.56004031  1
  Ce3+  Ce10  1  0.51062151  0.62605881  0.07085979  1
  Ce3+  Ce11  1  0.24879623  0.62677773  0.54947733  1
  Pr3+  Pr12  1  0.74637567  0.12214174  0.56979511  1
  Pr3+  Pr13  1  0.00949219  0.37599783  0.06711338  1
  Pr3+  Pr14  1  0.88005670  -0.00000575  0.93564721  1
  Pr3+  Pr15  1  0.74466827  0.62211562  0.57989098  1
  Pr3+  Pr16  1  0.51231821  0.37304664  0.06751068  1
  Pr3+  Pr17  1  0.24688182  0.37588524  0.55509974  1
  Pr3+  Pr18  1  0.50072428  0.12491176  0.56607539  1
  Pr3+  Pr19  1  0.00246030  0.62734036  0.55855339  1
  Pr3+  Pr20  1  0.88425760  0.50073308  0.94023266  1
  Pr3+  Pr21  1  0.13801933  0.25867057  0.92506130  1
  Pr3+  Pr22  1  0.38309183  0.50460504  0.94989815  1
  Pr3+  Pr23  1  0.63316354  0.50375310  0.93676512  1
  Pr3+  Pr24  1  0.88621730  0.75625174  0.93801559  1
  Pr3+  Pr25  1  0.75497981  0.86529398  0.56515307  1
  Pr3+  Pr26  1  -0.00650951  0.11461897  0.59237334  1
  Pr3+  Pr27  1  0.11475817  0.50511166  0.41294003  1
  Pr3+  Pr28  1  0.01101968  0.12603399  0.05123975  1
  Pr3+  Pr29  1  0.38157569  0.74899627  0.43369932  1
  Pr3+  Pr30  1  0.12384112  0.24746271  0.44820454  1
  Nd3+  Nd31  1  0.13402293  0.00627703  0.42768584  1
  Nd3+  Nd32  1  0.25210918  0.87216690  0.06692977  1
  Nd3+  Nd33  1  0.00022535  0.87724015  0.06586789  1
  Nd3+  Nd34  1  0.62697732  0.25307633  0.92448858  1
  Nd3+  Nd35  1  0.62347844  -0.00137093  0.43631774  1
  Nd3+  Nd36  1  0.25615351  0.12999555  0.05537243  1
  Nd3+  Nd37  1  0.62790116  0.50170933  0.43875677  1
  Nd3+  Nd38  1  0.25710493  0.12050730  0.57534599  1
  Nd3+  Nd39  1  0.13829378  0.75756748  0.93664787  1
  Nd3+  Nd40  1  0.00622901  0.87547566  0.55760188  1
  Nd3+  Nd41  1  0.74795912  0.88195363  0.06759535  1
  Nd3+  Nd42  1  0.75795502  0.62895971  0.06009855  1
  Nd3+  Nd43  1  0.37797236  0.00041046  0.93180299  1
  Nd3+  Nd44  1  0.00188949  0.37520034  0.56181837  1
  Nd3+  Nd45  1  0.37545949  0.24785544  0.44159720  1
  Nd3+  Nd46  1  0.87394313  0.50355511  0.44102721  1
  Nd3+  Nd47  1  0.62546328  -0.00023986  0.92862043  1
  Nd3+  Nd48  1  0.37964562  0.25531303  0.93345025  1
  Nd3+  Nd49  1  0.87713956  -0.00099389  0.44588799  1
  Nd3+  Nd50  1  0.75410015  0.37466240  0.05976671  1
  Sm3+  Sm51  1  0.88445323  0.25165132  0.93935743  1
  Sm3+  Sm52  1  0.38493642  0.75206853  0.94921446  1
  Sm3+  Sm53  1  0.50394007  0.87861704  0.06226305  1
  Sm3+  Sm54  1  0.25384605  0.62617158  0.07153817  1
  Sm3+  Sm55  1  0.75115879  0.37790169  0.56364630  1
  Sm3+  Sm56  1  0.62834255  0.25056148  0.44660740  1
  Sm3+  Sm57  1  0.38156709  -0.00159921  0.43428313  1
  Sm3+  Sm58  1  0.87743057  0.75063140  0.43504932  1
  Sm3+  Sm59  1  0.87736903  0.24731243  0.45036011  1
  Sm3+  Sm60  1  0.75518669  0.12602541  0.04593052  1
  Sm3+  Sm61  1  0.63478946  0.75319213  0.93991702  1
  Sm3+  Sm62  1  0.00979503  0.62542929  0.05218516  1
  Sm3+  Sm63  1  0.24900880  0.87681646  0.54845733  1
  Bi2+  Bi64  1  -0.02145045  0.13287597  0.29771439  1
  Bi2+  Bi65  1  -0.01631300  0.12920953  0.77881323  1
  Bi2+  Bi66  1  -0.07647481  0.39229759  0.29204457  1
  Bi2+  Bi67  1  -0.04525130  0.39417809  0.79794292  1
  Bi2+  Bi68  1  -0.07591873  0.55310376  0.22046054  1
  Bi2+  Bi69  1  -0.01608511  0.62181934  0.79418262  1
  Bi2+  Bi70  1  -0.02451065  0.89156632  0.28263103  1
  Bi2+  Bi71  1  -0.04715313  0.81966060  0.80580303  1
  Bi2+  Bi72  1  0.20798973  0.12186830  0.27623761  1
  Bi2+  Bi73  1  0.24897759  0.14556331  0.78035300  1
  Bi2+  Bi74  1  0.26207092  0.35147312  0.32132183  1
  Bi2+  Bi75  1  0.24489852  0.41831378  0.80230075  1
  Bi2+  Bi76  1  0.29958052  0.66904062  0.27309381  1
  Bi2+  Bi77  1  0.18245572  0.61383113  0.81233180  1
  Bi2+  Bi78  1  0.24930381  0.91686822  0.28103090  1
  Bi2+  Bi79  1  0.28076020  0.86181232  0.79607815  1
  Bi2+  Bi80  1  0.45627846  0.05983639  0.23639604  1
  Bi2+  Bi81  1  0.50087743  0.11773584  0.78697297  1
  Bi2+  Bi82  1  0.53073329  0.34480391  0.30341814  1
  Bi2+  Bi83  1  0.48917237  0.36605122  0.77531942  1
  Bi2+  Bi84  1  0.58083229  0.62025921  0.29404578  1
  Bi2+  Bi85  1  0.48384193  0.62539749  0.81448374  1
  Bi2+  Bi86  1  0.51230286  0.87595137  0.29497264  1
  Bi2+  Bi87  1  0.54918539  0.87428873  0.77503258  1
  Bi2+  Bi88  1  0.71834938  0.01435434  0.30858404  1
  Bi2+  Bi89  1  0.69499438  0.14350853  0.80431182  1
  Bi2+  Bi90  1  0.72452549  0.40153469  0.31095504  1
  Bi2+  Bi91  1  0.68241173  0.34416665  0.78423939  1
  Bi2+  Bi92  1  0.74969540  0.59704194  0.34240965  1
  Bi2+  Bi93  1  0.77863043  0.62738225  0.78336111  1
  Bi2+  Bi94  1  0.70273004  0.81727379  0.31817448  1
  Bi2+  Bi95  1  0.71901087  0.94767092  0.81573183  1
  Bi2+  Bi96  1  0.08755115  0.01517662  0.21152414  1
  Bi2+  Bi97  1  0.15021904  0.00249920  0.68002723  1
  Bi2+  Bi98  1  0.08184298  0.24163357  0.22126583  1
  Bi2+  Bi99  1  0.12954220  0.30628758  0.70328172  1
  Bi2+  Bi100  1  0.11883465  0.50353520  0.22086881  1
  Bi2+  Bi101  1  0.11645481  0.52625656  0.71653972  1
  Bi2+  Bi102  1  0.12577547  0.74180235  0.20977056  1
  Bi2+  Bi103  1  0.16871696  0.75999573  0.71814716  1
  Bi2+  Bi104  1  0.34169370  -0.06250607  0.17926174  1
  Bi2+  Bi105  1  0.38285336  -0.04918173  0.71168099  1
  Bi2+  Bi106  1  0.38812358  0.23820896  0.20722722  1
  Bi2+  Bi107  1  0.46693872  0.23113455  0.69121199  1
  Bi2+  Bi108  1  0.38380155  0.50405147  0.22287717  1
  Bi2+  Bi109  1  0.35998519  0.49267273  0.70817460  1
  Bi2+  Bi110  1  0.46991808  0.79435244  0.19501719  1
  Bi2+  Bi111  1  0.34762207  0.68159359  0.73354715  1
  Bi2+  Bi112  1  0.63862478  0.02454538  0.20431279  1
  Bi2+  Bi113  1  0.61262984  0.09036979  0.68983734  1
  Bi2+  Bi114  1  0.68261705  0.21674487  0.25663342  1
  Bi2+  Bi115  1  0.65852287  0.28163634  0.67028113  1
  Bi2+  Bi116  1  0.67671534  0.47359507  0.20855955  1
  Bi2+  Bi117  1  0.61804822  0.51029036  0.71155508  1
  Bi2+  Bi118  1  0.70194665  0.77253901  0.20356222  1
  Bi2+  Bi119  1  0.70494432  0.76409403  0.71312294  1
  Bi2+  Bi120  1  0.84035616  -0.01519763  0.21151273  1
  Bi2+  Bi121  1  0.79878315  -0.00748959  0.71933206  1
  Bi2+  Bi122  1  0.86031220  0.20445735  0.21128778  1
  Bi2+  Bi123  1  0.82478735  0.24671034  0.72743909  1
  Bi2+  Bi124  1  0.85792825  0.38960128  0.17386365  1
  Bi2+  Bi125  1  0.88063236  0.50656053  0.71397012  1
  Bi2+  Bi126  1  0.85765003  0.71871045  0.26880242  1
  Bi2+  Bi127  1  0.97457247  0.77126381  0.69846196  1
  S2-  S128  1  0.01373627  0.14305695  0.15233702  1
  S2-  S129  1  0.02132710  0.19130915  0.68331335  1
  S2-  S130  1  0.09653144  0.37704339  0.15498879  1
  S2-  S131  1  0.00983700  0.41468732  0.65854478  1
  S2-  S132  1  0.03313167  0.62395634  0.15012527  1
  S2-  S133  1  0.08345957  0.64915853  0.64822860  1
  S2-  S134  1  0.06436433  0.86713903  0.15984632  1
  S2-  S135  1  0.00138569  0.95651778  0.64792443  1
  S2-  S136  1  0.26138047  0.20090485  0.14744120  1
  S2-  S137  1  0.22185565  0.16802067  0.67400765  1
  S2-  S138  1  0.27360393  0.36733724  0.22630876  1
  S2-  S139  1  0.26120786  0.39050851  0.65526239  1
  S2-  S140  1  0.25129023  0.53414049  0.15769766  1
  S2-  S141  1  0.33627385  0.62597855  0.63572722  1
  S2-  S142  1  0.24560877  0.75115658  0.14453815  1
  S2-  S143  1  0.25791863  0.87514917  0.64801401  1
  S2-  S144  1  0.51063142  0.15586100  0.14964274  1
  S2-  S145  1  0.39587317  0.08115595  0.64251471  1
  S2-  S146  1  0.42743490  0.38309281  0.15615327  1
  S2-  S147  1  0.49727611  0.46904247  0.64265882  1
  S2-  S148  1  0.47201745  0.62770253  0.16784197  1
  S2-  S149  1  0.61360560  0.64564137  0.65614745  1
  S2-  S150  1  0.61269288  0.88739451  0.13891112  1
  S2-  S151  1  0.48742367  0.84077413  0.67390094  1
  S2-  S152  1  0.76243188  0.10540878  0.14293664  1
  S2-  S153  1  0.84105719  0.11849383  0.65462218  1
  S2-  S154  1  0.64695868  0.36152662  0.13916376  1
  S2-  S155  1  0.75482974  0.48031149  0.64575354  1
  S2-  S156  1  0.71155072  0.62763141  0.15585115  1
  S2-  S157  1  0.82462777  0.73620250  0.64640960  1
  S2-  S158  1  0.84717892  0.85732137  0.14822339  1
  S2-  S159  1  0.69138005  0.91106930  0.65568279  1
  S2-  S160  1  0.10744584  -0.08799101  0.34281959  1
  S2-  S161  1  0.11364005  0.01416397  0.77121483  1
  S2-  S162  1  0.14619073  0.22181815  0.34922889  1
  S2-  S163  1  0.10641509  0.17156008  0.83808017  1
  S2-  S164  1  0.12674409  0.43520481  0.31721297  1
  S2-  S165  1  0.10215485  0.40128677  0.85866869  1
  S2-  S166  1  0.14275465  0.65848760  0.30636467  1
  S2-  S167  1  0.12543064  0.83792244  0.84875792  1
  S2-  S168  1  0.27429382  0.02999181  0.35828762  1
  S2-  S169  1  0.28395149  0.01607262  0.84659983  1
  S2-  S170  1  0.40895229  0.24970729  0.34293393  1
  S2-  S171  1  0.28271275  0.26036271  0.84489097  1
  S2-  S172  1  0.32647064  0.51765125  0.32647071  1
  S2-  S173  1  0.38259002  0.49209450  0.84842890  1
  S2-  S174  1  0.30213517  0.78203199  0.34260208  1
  S2-  S175  1  0.36055023  0.74535417  0.85157829  1
  S2-  S176  1  0.50707226  -0.00006644  0.36086581  1
  S2-  S177  1  0.50177340  -0.01355156  0.85517576  1
  S2-  S178  1  0.62459303  0.22139476  0.35024417  1
  S2-  S179  1  0.49849951  0.26027565  0.85500804  1
  S2-  S180  1  0.52431288  0.49805098  0.35686968  1
  S2-  S181  1  0.60785934  0.53125036  0.83762325  1
  S2-  S182  1  0.51665442  0.73330216  0.36246354  1
  S2-  S183  1  0.57762800  0.75735837  0.84690991  1
  S2-  S184  1  0.88380980  0.00311867  0.34569834  1
  S2-  S185  1  0.94573964  -0.00642147  0.84270868  1
  S2-  S186  1  0.89242124  0.24571723  0.35194733  1
  S2-  S187  1  0.89804571  0.24749027  0.84070095  1
  S2-  S188  1  0.96028646  0.51174082  0.35554600  1
  S2-  S189  1  0.83568545  0.48590562  0.84469725  1
  S2-  S190  1  0.96306909  0.75846089  0.34901098  1
  S2-  S191  1  0.80496175  0.75689601  0.84841193  1
  S2-  S192  1  0.00011470  0.12246678  0.45601966  1
  S2-  S193  1  0.00640219  0.12658815  0.94644302  1
  S2-  S194  1  -0.00063141  0.37422688  0.45481525  1
  S2-  S195  1  0.00271198  0.37431791  0.95989207  1
  S2-  S196  1  0.00316760  0.63125397  0.45196374  1
  S2-  S197  1  0.01004582  0.62859143  0.94668909  1
  S2-  S198  1  0.00340123  0.87823620  0.45279140  1
  S2-  S199  1  0.01021405  0.88159939  0.95668760  1
  S2-  S200  1  0.25370528  0.12640403  0.46492121  1
  S2-  S201  1  0.25647317  0.12810147  0.95123504  1
  S2-  S202  1  0.24726224  0.37775849  0.44666894  1
  S2-  S203  1  0.25989046  0.38099414  0.95294899  1
  S2-  S204  1  0.24424272  0.62645045  0.44082768  1
  S2-  S205  1  0.25746367  0.63045161  0.96146312  1
  S2-  S206  1  0.25158952  0.87593714  0.44719570  1
  S2-  S207  1  0.26283650  0.87381205  0.95989891  1
  S2-  S208  1  0.50239528  0.12855990  0.45917263  1
  S2-  S209  1  0.50612276  0.12659856  0.94971161  1
  S2-  S210  1  0.50351119  0.37016480  0.45509544  1
  S2-  S211  1  0.51043121  0.37988813  0.95725901  1
  S2-  S212  1  0.50227385  0.62146506  0.46503894  1
  S2-  S213  1  0.51125551  0.63045746  0.96036887  1
  S2-  S214  1  0.50220131  0.87554032  0.46217800  1
  S2-  S215  1  0.50830973  0.87339038  0.95898767  1
  S2-  S216  1  0.75029540  0.12502257  0.45867158  1
  S2-  S217  1  0.75483810  0.12880603  0.94135862  1
  S2-  S218  1  0.75334119  0.37328651  0.45798777  1
  S2-  S219  1  0.75629010  0.37287404  0.95046874  1
  S2-  S220  1  0.75225736  0.62896150  0.46418582  1
  S2-  S221  1  0.75838297  0.62888372  0.95249671  1
  S2-  S222  1  0.75060464  0.87437592  0.45569412  1
  S2-  S223  1  0.75410590  0.87737826  0.95801462  1
  S2-  S224  1  0.13432634  0.00040744  0.05713750  1
  S2-  S225  1  0.12757963  0.00501684  0.54434529  1
  S2-  S226  1  0.13273949  0.25348987  0.04204014  1
  S2-  S227  1  0.12165608  0.24419616  0.55531796  1
  S2-  S228  1  0.13205982  0.50447315  0.04528835  1
  S2-  S229  1  0.12353098  0.49993606  0.53942928  1
  S2-  S230  1  0.12612835  0.75212960  0.04265739  1
  S2-  S231  1  0.12884801  0.75413090  0.54341409  1
  S2-  S232  1  0.38165698  0.00019977  0.04368829  1
  S2-  S233  1  0.37581766  -0.00318448  0.53875254  1
  S2-  S234  1  0.38331692  0.25478234  0.04218755  1
  S2-  S235  1  0.37337565  0.25075231  0.54897597  1
  S2-  S236  1  0.38185044  0.50439402  0.05501199  1
  S2-  S237  1  0.37113845  0.49622813  0.53465629  1
  S2-  S238  1  0.38607207  0.75074733  0.05248879  1
  S2-  S239  1  0.37371864  0.75520213  0.54149244  1
  S2-  S240  1  0.62915147  0.00547225  0.03561652  1
  S2-  S241  1  0.62448366  -0.00136677  0.54452779  1
  S2-  S242  1  0.63429470  0.24832929  0.03244238  1
  S2-  S243  1  0.62641058  0.25182377  0.54998287  1
  S2-  S244  1  0.63444520  0.50420321  0.04421464  1
  S2-  S245  1  0.62779273  0.49662817  0.54370311  1
  S2-  S246  1  0.63110508  0.75123559  0.04528261  1
  S2-  S247  1  0.62225502  0.74947641  0.55072052  1
  S2-  S248  1  0.87955362  0.00318545  0.04333855  1
  S2-  S249  1  0.87282074  -0.00223256  0.54993148  1
  S2-  S250  1  0.88002858  0.24942246  0.04494571  1
  S2-  S251  1  0.87562284  0.25064467  0.55513452  1
  S2-  S252  1  0.88159710  0.50342420  0.04774762  1
  S2-  S253  1  0.87773738  0.50048490  0.54750003  1
  S2-  S254  1  0.88339108  0.74891384  0.04441716  1
  S2-  S255  1  0.88314701  0.75180665  0.53764297  1
