# generated using pymatgen
data_La6Ce6Pr19Nd20Sm13(BiS2)64
_symmetry_space_group_name_H-M   'P 1'
_cell_length_a   16.07612465
_cell_length_b   16.10216281
_cell_length_c   27.31289735
_cell_angle_alpha   90.22856715
_cell_angle_beta   89.56847964
_cell_angle_gamma   89.96664126
_symmetry_Int_Tables_number   1
_chemical_formula_structural   La6Ce6Pr19Nd20Sm13(BiS2)64
_chemical_formula_sum   'La6 Ce6 Pr19 Nd20 Sm13 Bi64 S128'
_cell_volume   7069.96878909
_cell_formula_units_Z   1
loop_
 _symmetry_equiv_pos_site_id
 _symmetry_equiv_pos_as_xyz
  1  'x, y, z'
loop_
 _atom_type_symbol
 _atom_type_oxidation_number
  La3+  3.0
  Ce3+  3.0
  Pr3+  3.0
  Nd3+  3.0
  Sm3+  3.0
  Bi2+  2.0
  S2-  -2.0
loop_
 _atom_site_type_symbol
 _atom_site_label
 _atom_site_symmetry_multiplicity
 _atom_site_fract_x
 _atom_site_fract_y
 _atom_site_fract_z
 _atom_site_occupancy
  La3+  La0  1  0.63351278  0.26974475  0.88292391  1
  La3+  La1  1  0.73923504  0.88730988  0.08825397  1
  La3+  La2  1  -0.00803650  0.62768937  0.09787758  1
  La3+  La3  1  0.10136787  0.73813284  0.88745561  1
  La3+  La4  1  0.62518244  0.00606129  0.93221815  1
  La3+  La5  1  0.84479889  0.73586168  0.42124859  1
  Ce3+  Ce6  1  0.72425255  0.11356715  0.55468191  1
  Ce3+  Ce7  1  -0.02935379  0.36568469  0.57256394  1
  Ce3+  Ce8  1  0.49520764  0.13133605  0.05418300  1
  Ce3+  Ce9  1  0.11930040  0.25490581  0.93520557  1
  Ce3+  Ce10  1  0.87445435  -0.00018283  0.94781551  1
  Ce3+  Ce11  1  0.72740090  0.86889246  0.56234483  1
  Pr3+  Pr12  1  -0.00215872  0.88785034  0.08243353  1
  Pr3+  Pr13  1  0.12078066  -0.00371550  0.94506905  1
  Pr3+  Pr14  1  -0.03177368  0.61899328  0.56125589  1
  Pr3+  Pr15  1  0.49492892  0.87828151  0.06554589  1
  Pr3+  Pr16  1  0.09614299  0.74266486  0.43005675  1
  Pr3+  Pr17  1  0.35747663  0.24599531  0.43014932  1
  Pr3+  Pr18  1  0.74448203  0.38356962  0.05691109  1
  Pr3+  Pr19  1  -0.00438295  0.13460949  0.06852841  1
  Pr3+  Pr20  1  0.48743342  0.62578986  0.07986986  1
  Pr3+  Pr21  1  0.37423210  0.25553816  0.93136591  1
  Pr3+  Pr22  1  0.62535110  0.75847654  0.93785455  1
  Pr3+  Pr23  1  0.37548956  0.50940404  0.93919101  1
  Pr3+  Pr24  1  0.62304411  0.51021091  0.93668722  1
  Pr3+  Pr25  1  0.47236568  0.36287377  0.58393888  1
  Pr3+  Pr26  1  -0.00503602  0.38116398  0.06848248  1
  Pr3+  Pr27  1  0.37058960  0.76000924  0.92915214  1
  Pr3+  Pr28  1  0.35458999  0.73785967  0.42308260  1
  Pr3+  Pr29  1  0.12363116  0.50676053  0.94124517  1
  Pr3+  Pr30  1  0.21904849  0.86687511  0.55741912  1
  Nd3+  Nd31  1  0.34992509  0.49029445  0.43695970  1
  Nd3+  Nd32  1  0.74364473  0.13207075  0.05847852  1
  Nd3+  Nd33  1  0.46576932  0.86804543  0.57016966  1
  Nd3+  Nd34  1  0.24402148  0.38193361  0.06040986  1
  Nd3+  Nd35  1  0.84720801  0.24278013  0.43485392  1
  Nd3+  Nd36  1  0.09784676  0.48996005  0.44154934  1
  Nd3+  Nd37  1  0.72216392  0.62114368  0.56300680  1
  Nd3+  Nd38  1  0.59427672  -0.01065205  0.43511569  1
  Nd3+  Nd39  1  0.87780732  0.25436683  0.93434601  1
  Nd3+  Nd40  1  0.84070352  -0.00593035  0.42080678  1
  Nd3+  Nd41  1  0.87592629  0.50965439  0.94458084  1
  Nd3+  Nd42  1  0.22168022  0.36802956  0.56929135  1
  Nd3+  Nd43  1  0.46902602  0.61892348  0.55913044  1
  Nd3+  Nd44  1  -0.02929736  0.86743411  0.55852262  1
  Nd3+  Nd45  1  -0.02811175  0.11609073  0.55001819  1
  Nd3+  Nd46  1  0.24658777  0.13298573  0.05594992  1
  Nd3+  Nd47  1  0.22188168  0.11869405  0.55103908  1
  Nd3+  Nd48  1  0.49648429  0.38240254  0.05951527  1
  Nd3+  Nd49  1  0.10007958  0.24360509  0.43848357  1
  Nd3+  Nd50  1  0.84511443  0.48941828  0.43674362  1
  Sm3+  Sm51  1  0.36917925  -0.00132448  0.94520328  1
  Sm3+  Sm52  1  0.24417303  0.87652030  0.06425972  1
  Sm3+  Sm53  1  0.22106047  0.61909693  0.55429794  1
  Sm3+  Sm54  1  0.87795492  0.75582463  0.95879265  1
  Sm3+  Sm55  1  0.60049008  0.74244099  0.43998176  1
  Sm3+  Sm56  1  0.47082521  0.11572988  0.56629925  1
  Sm3+  Sm57  1  0.24235110  0.63484251  0.05750057  1
  Sm3+  Sm58  1  0.74079949  0.63385457  0.07037112  1
  Sm3+  Sm59  1  0.59592435  0.24462693  0.44825237  1
  Sm3+  Sm60  1  0.35134233  -0.00962038  0.43842591  1
  Sm3+  Sm61  1  0.09742316  -0.00941440  0.42814678  1
  Sm3+  Sm62  1  0.72289250  0.36889314  0.56800125  1
  Sm3+  Sm63  1  0.59705352  0.48871057  0.44930805  1
  Bi2+  Bi64  1  0.03415928  0.15393705  0.25148396  1
  Bi2+  Bi65  1  0.02032168  0.13093740  0.76090281  1
  Bi2+  Bi66  1  -0.02176749  0.33911521  0.29880187  1
  Bi2+  Bi67  1  0.06668992  0.38351265  0.81788295  1
  Bi2+  Bi68  1  0.02864608  0.60734735  0.29840570  1
  Bi2+  Bi69  1  -0.10739746  0.61761819  0.78788089  1
  Bi2+  Bi70  1  0.03891502  0.87188382  0.29392396  1
  Bi2+  Bi71  1  -0.01806515  0.87702914  0.79578333  1
  Bi2+  Bi72  1  0.34501616  0.09796571  0.30680755  1
  Bi2+  Bi73  1  0.26677240  0.09214466  0.79592025  1
  Bi2+  Bi74  1  0.25860548  0.26844536  0.29063496  1
  Bi2+  Bi75  1  0.23757773  0.28084622  0.82024016  1
  Bi2+  Bi76  1  0.31522957  0.60898563  0.25775665  1
  Bi2+  Bi77  1  0.33092715  0.61804607  0.77314302  1
  Bi2+  Bi78  1  0.34046362  0.81100830  0.28851306  1
  Bi2+  Bi79  1  0.24643666  0.86354269  0.79385098  1
  Bi2+  Bi80  1  0.53109681  0.16848597  0.27374893  1
  Bi2+  Bi81  1  0.46206355  0.12529581  0.79380014  1
  Bi2+  Bi82  1  0.48664919  0.39936016  0.31407159  1
  Bi2+  Bi83  1  0.47812326  0.46651161  0.81922385  1
  Bi2+  Bi84  1  0.49762432  0.62680681  0.29369577  1
  Bi2+  Bi85  1  0.51224419  0.66123615  0.83291486  1
  Bi2+  Bi86  1  0.52625021  0.89741560  0.28958148  1
  Bi2+  Bi87  1  0.50097098  0.85177989  0.79215872  1
  Bi2+  Bi88  1  0.77913609  0.17478631  0.24332754  1
  Bi2+  Bi89  1  0.75082740  0.13126659  0.78465497  1
  Bi2+  Bi90  1  0.77946297  0.33494941  0.31289223  1
  Bi2+  Bi91  1  0.77096965  0.39518959  0.78138452  1
  Bi2+  Bi92  1  0.72768554  0.59870668  0.29668670  1
  Bi2+  Bi93  1  0.71030270  0.66491004  0.81890840  1
  Bi2+  Bi94  1  0.77668052  0.87244261  0.30017808  1
  Bi2+  Bi95  1  0.73459587  0.85333636  0.77669100  1
  Bi2+  Bi96  1  0.19501532  0.03434974  0.23877443  1
  Bi2+  Bi97  1  0.12379259  0.01159428  0.69456224  1
  Bi2+  Bi98  1  0.12613969  0.27407909  0.17725739  1
  Bi2+  Bi99  1  0.17203637  0.23664925  0.71087113  1
  Bi2+  Bi100  1  0.10961103  0.44337792  0.23616039  1
  Bi2+  Bi101  1  0.15676401  0.51972288  0.75757999  1
  Bi2+  Bi102  1  0.20242668  0.74518193  0.20766521  1
  Bi2+  Bi103  1  0.16256008  0.73769639  0.68024268  1
  Bi2+  Bi104  1  0.37554586  -0.04641059  0.21031205  1
  Bi2+  Bi105  1  0.38822722  -0.01371165  0.72680190  1
  Bi2+  Bi106  1  0.38630914  0.21377350  0.19816563  1
  Bi2+  Bi107  1  0.36821934  0.26899335  0.72880426  1
  Bi2+  Bi108  1  0.37167344  0.40307839  0.22275747  1
  Bi2+  Bi109  1  0.42296628  0.46900511  0.71468807  1
  Bi2+  Bi110  1  0.41885742  0.76626746  0.18025875  1
  Bi2+  Bi111  1  0.42629112  0.75759127  0.70026598  1
  Bi2+  Bi112  1  0.61668086  0.02122023  0.21331819  1
  Bi2+  Bi113  1  0.61129208  -0.00294012  0.70938792  1
  Bi2+  Bi114  1  0.63989207  0.30875710  0.22273851  1
  Bi2+  Bi115  1  0.63073806  0.23209742  0.67855196  1
  Bi2+  Bi116  1  0.60620811  0.50623758  0.20977390  1
  Bi2+  Bi117  1  0.64480504  0.62021365  0.71521228  1
  Bi2+  Bi118  1  0.60089377  0.75235444  0.22271727  1
  Bi2+  Bi119  1  0.62519952  0.80943952  0.68164296  1
  Bi2+  Bi120  1  0.88399171  -0.01855989  0.20440989  1
  Bi2+  Bi121  1  0.86621569  -0.00596750  0.74213359  1
  Bi2+  Bi122  1  0.92376489  0.25646053  0.17596875  1
  Bi2+  Bi123  1  0.91259045  0.25586917  0.70295825  1
  Bi2+  Bi124  1  0.87204811  0.44070279  0.22156252  1
  Bi2+  Bi125  1  0.99303567  0.43931696  0.71575327  1
  Bi2+  Bi126  1  0.89332545  0.72186473  0.22116389  1
  Bi2+  Bi127  1  0.87226889  0.73216266  0.69671594  1
  S2-  S128  1  0.00476187  0.03841618  0.15199040  1
  S2-  S129  1  -0.00968981  0.11475439  0.64920157  1
  S2-  S130  1  -0.00302060  0.47249564  0.15508683  1
  S2-  S131  1  0.09618329  0.36206716  0.64408642  1
  S2-  S132  1  0.07053192  0.65628724  0.19384302  1
  S2-  S133  1  0.01485378  0.66650725  0.65484326  1
  S2-  S134  1  -0.00881142  0.85200699  0.18531523  1
  S2-  S135  1  0.09230253  0.88287457  0.63374448  1
  S2-  S136  1  0.23935621  0.14150980  0.15535512  1
  S2-  S137  1  0.23984824  0.10890945  0.65017853  1
  S2-  S138  1  0.23121444  0.41826770  0.15793928  1
  S2-  S139  1  0.33099493  0.38159804  0.64765101  1
  S2-  S140  1  0.32988509  0.63405594  0.14351518  1
  S2-  S141  1  0.23348905  0.60373406  0.65256579  1
  S2-  S142  1  0.22263885  0.90671811  0.16185605  1
  S2-  S143  1  0.32700172  0.83711507  0.63720244  1
  S2-  S144  1  0.50478266  0.11007483  0.15061781  1
  S2-  S145  1  0.47068239  0.21675695  0.64801296  1
  S2-  S146  1  0.48260060  0.46849981  0.14713595  1
  S2-  S147  1  0.61442267  0.38277833  0.64769169  1
  S2-  S148  1  0.62228696  0.64013840  0.14573394  1
  S2-  S149  1  0.49323214  0.60361476  0.65791781  1
  S2-  S150  1  0.59159274  0.88572262  0.14912239  1
  S2-  S151  1  0.48251210  0.99793341  0.64079329  1
  S2-  S152  1  0.74672328  0.04684738  0.14687724  1
  S2-  S153  1  0.72813779  0.08645848  0.65154123  1
  S2-  S154  1  0.73474957  0.41429741  0.15653762  1
  S2-  S155  1  0.84005490  0.36143875  0.64256422  1
  S2-  S156  1  0.84064534  0.62587143  0.15279296  1
  S2-  S157  1  0.78490197  0.60040232  0.65524000  1
  S2-  S158  1  0.78338556  0.83663521  0.18944146  1
  S2-  S159  1  0.84939626  0.86556049  0.63252519  1
  S2-  S160  1  0.15438043  -0.02653311  0.33546749  1
  S2-  S161  1  0.11526518  -0.08662945  0.85654509  1
  S2-  S162  1  0.10042061  0.22915003  0.33906907  1
  S2-  S163  1  0.00920277  0.23862481  0.86153153  1
  S2-  S164  1  0.11690084  0.49246170  0.34123197  1
  S2-  S165  1  0.09779604  0.57071480  0.84764861  1
  S2-  S166  1  0.12821576  0.72783871  0.33081840  1
  S2-  S167  1  0.10385969  0.76586009  0.77509663  1
  S2-  S168  1  0.46530507  0.00062558  0.36415848  1
  S2-  S169  1  0.37524064  -0.09236759  0.86085377  1
  S2-  S170  1  0.33284152  0.37437056  0.36036816  1
  S2-  S171  1  0.46755068  0.27527623  0.84624129  1
  S2-  S172  1  0.34749673  0.59818899  0.35588998  1
  S2-  S173  1  0.31393014  0.49083157  0.84510618  1
  S2-  S174  1  0.49527120  0.75957422  0.36004939  1
  S2-  S175  1  0.26796348  0.73027323  0.84679800  1
  S2-  S176  1  0.70426806  -0.01697107  0.35418269  1
  S2-  S177  1  0.62290931  0.10249947  0.84546724  1
  S2-  S178  1  0.50735533  0.25092705  0.36472716  1
  S2-  S179  1  0.64834540  0.27514794  0.76947703  1
  S2-  S180  1  0.62983076  0.48587193  0.35200185  1
  S2-  S181  1  0.65373229  0.43784741  0.84436357  1
  S2-  S182  1  0.70673400  0.73910712  0.35575887  1
  S2-  S183  1  0.63561275  0.87773210  0.85976275  1
  S2-  S184  1  0.92047015  -0.02908264  0.32716502  1
  S2-  S185  1  0.87873276  -0.00016452  0.84962432  1
  S2-  S186  1  0.83311243  0.17772891  0.34295454  1
  S2-  S187  1  0.80053819  0.26046110  0.84411155  1
  S2-  S188  1  0.86353462  0.56939004  0.34841606  1
  S2-  S189  1  0.87848925  0.47964382  0.84439561  1
  S2-  S190  1  0.91628043  0.76819470  0.32678740  1
  S2-  S191  1  0.92679131  0.74999652  0.86082681  1
  S2-  S192  1  -0.02481446  0.11607700  0.44282951  1
  S2-  S193  1  -0.00140647  0.12475194  0.96184941  1
  S2-  S194  1  -0.02796986  0.36609529  0.45301477  1
  S2-  S195  1  -0.00214629  0.38280150  0.96055641  1
  S2-  S196  1  -0.02572170  0.61488488  0.45255639  1
  S2-  S197  1  -0.00029335  0.63261356  0.95991171  1
  S2-  S198  1  -0.02672367  0.87041684  0.44658805  1
  S2-  S199  1  -0.00235633  0.87711719  0.96928317  1
  S2-  S200  1  0.22624247  0.11684429  0.44409638  1
  S2-  S201  1  0.24694352  0.12670498  0.94942400  1
  S2-  S202  1  0.22087009  0.36629079  0.46076991  1
  S2-  S203  1  0.24773399  0.37948173  0.95439933  1
  S2-  S204  1  0.21964291  0.61658467  0.45017399  1
  S2-  S205  1  0.24588436  0.63292209  0.95512087  1
  S2-  S206  1  0.22663992  0.86758755  0.44563761  1
  S2-  S207  1  0.24548551  0.87621804  0.96181870  1
  S2-  S208  1  0.47383634  0.11869217  0.46283712  1
  S2-  S209  1  0.48906077  0.12440842  0.95005036  1
  S2-  S210  1  0.47532813  0.36975108  0.46889556  1
  S2-  S211  1  0.50106679  0.38087777  0.95397191  1
  S2-  S212  1  0.47945931  0.61400496  0.45495209  1
  S2-  S213  1  0.49704989  0.63431827  0.96080397  1
  S2-  S214  1  0.47128469  0.86635221  0.46316285  1
  S2-  S215  1  0.49636746  0.88005614  0.95999052  1
  S2-  S216  1  0.71819060  0.12179075  0.45008030  1
  S2-  S217  1  0.75228522  0.13171216  0.95347721  1
  S2-  S218  1  0.72185328  0.36502085  0.45910197  1
  S2-  S219  1  0.74835080  0.38009126  0.95179947  1
  S2-  S220  1  0.71969224  0.61213175  0.45730996  1
  S2-  S221  1  0.75045780  0.63297580  0.96025912  1
  S2-  S222  1  0.72328494  0.86650417  0.45670345  1
  S2-  S223  1  0.75243853  0.87786267  0.96419300  1
  S2-  S224  1  0.12633475  0.00588766  0.05092024  1
  S2-  S225  1  0.09736979  -0.00488380  0.53237961  1
  S2-  S226  1  0.12107171  0.25657060  0.04331453  1
  S2-  S227  1  0.09610088  0.24086030  0.54312743  1
  S2-  S228  1  0.12185684  0.50968666  0.04996011  1
  S2-  S229  1  0.09633432  0.49546381  0.54703256  1
  S2-  S230  1  0.12016696  0.75444605  0.06909773  1
  S2-  S231  1  0.09593254  0.74039459  0.53657347  1
  S2-  S232  1  0.36710737  0.00353440  0.05029731  1
  S2-  S233  1  0.34484928  -0.00582971  0.54111777  1
  S2-  S234  1  0.37072613  0.25856961  0.04343534  1
  S2-  S235  1  0.34616416  0.24039315  0.54245862  1
  S2-  S236  1  0.36647680  0.50499831  0.04420882  1
  S2-  S237  1  0.34488168  0.49718514  0.54409583  1
  S2-  S238  1  0.36928589  0.75673004  0.04330322  1
  S2-  S239  1  0.34505271  0.73725576  0.53320505  1
  S2-  S240  1  0.61954330  0.00771403  0.04179821  1
  S2-  S241  1  0.60007519  -0.00999470  0.54216490  1
  S2-  S242  1  0.61965075  0.25685016  0.05869333  1
  S2-  S243  1  0.60138734  0.23978670  0.54912693  1
  S2-  S244  1  0.61992390  0.50829167  0.04351506  1
  S2-  S245  1  0.59879376  0.49705585  0.55127706  1
  S2-  S246  1  0.62132004  0.75667252  0.04578479  1
  S2-  S247  1  0.59595621  0.74379967  0.54725829  1
  S2-  S248  1  0.87114251  0.00600684  0.05166956  1
  S2-  S249  1  0.84961477  -0.00587355  0.53182486  1
  S2-  S250  1  0.86949742  0.25662841  0.04419189  1
  S2-  S251  1  0.84722811  0.23985431  0.54151149  1
  S2-  S252  1  0.87072158  0.50791280  0.04902638  1
  S2-  S253  1  0.84591787  0.49269473  0.54250737  1
  S2-  S254  1  0.87035720  0.76133215  0.06143891  1
  S2-  S255  1  0.84675106  0.74016656  0.53439666  1
