# generated using pymatgen
data_La6Ce6Pr19Nd20Sm13(BiS2)64
_symmetry_space_group_name_H-M   'P 1'
_cell_length_a   16.11969856
_cell_length_b   16.10497601
_cell_length_c   27.28891247
_cell_angle_alpha   89.98852439
_cell_angle_beta   90.19040826
_cell_angle_gamma   89.93060305
_symmetry_Int_Tables_number   1
_chemical_formula_structural   La6Ce6Pr19Nd20Sm13(BiS2)64
_chemical_formula_sum   'La6 Ce6 Pr19 Nd20 Sm13 Bi64 S128'
_cell_volume   7084.35801896
_cell_formula_units_Z   1
loop_
 _symmetry_equiv_pos_site_id
 _symmetry_equiv_pos_as_xyz
  1  'x, y, z'
loop_
 _atom_type_symbol
 _atom_type_oxidation_number
  La3+  3.0
  Ce3+  3.0
  Pr3+  3.0
  Nd3+  3.0
  Sm3+  3.0
  Bi2+  2.0
  S2-  -2.0
loop_
 _atom_site_type_symbol
 _atom_site_label
 _atom_site_symmetry_multiplicity
 _atom_site_fract_x
 _atom_site_fract_y
 _atom_site_fract_z
 _atom_site_occupancy
  La3+  La0  1  0.12773519  0.02084210  0.40191339  1
  La3+  La1  1  0.61552376  0.50420044  0.38210883  1
  La3+  La2  1  0.11746646  0.47070569  0.92184657  1
  La3+  La3  1  0.36803905  0.73361081  0.92478174  1
  La3+  La4  1  0.01768846  0.14214197  0.57758727  1
  La3+  La5  1  0.63829964  0.76620988  0.43404908  1
  Ce3+  Ce6  1  0.88805432  0.77222924  0.44592480  1
  Ce3+  Ce7  1  0.25898840  0.14221304  0.56663870  1
  Ce3+  Ce8  1  0.50882869  0.89237494  0.56067955  1
  Ce3+  Ce9  1  0.62372883  0.22467224  0.94524806  1
  Ce3+  Ce10  1  0.01553681  0.64305702  0.55647013  1
  Ce3+  Ce11  1  0.63753143  0.01383680  0.43394957  1
  Pr3+  Pr12  1  0.76794555  0.14641004  0.58219349  1
  Pr3+  Pr13  1  0.12096274  0.22495008  0.93564864  1
  Pr3+  Pr14  1  0.87180835  0.73141612  0.93311569  1
  Pr3+  Pr15  1  0.38644954  0.51707709  0.44165174  1
  Pr3+  Pr16  1  0.51335496  0.39497978  0.56155013  1
  Pr3+  Pr17  1  0.26917309  0.88991105  0.57774479  1
  Pr3+  Pr18  1  0.26935193  0.64350200  0.59865445  1
  Pr3+  Pr19  1  0.24943252  0.60181550  0.05827135  1
  Pr3+  Pr20  1  0.13846129  0.76992719  0.44136282  1
  Pr3+  Pr21  1  0.00001449  0.59864866  0.05943892  1
  Pr3+  Pr22  1  0.49514780  0.60550760  0.04854329  1
  Pr3+  Pr23  1  0.87619292  0.51686672  0.43765440  1
  Pr3+  Pr24  1  0.76245332  0.64445761  0.56915403  1
  Pr3+  Pr25  1  0.13739140  0.51748565  0.44463837  1
  Pr3+  Pr26  1  -0.00542741  0.09899631  0.05471489  1
  Pr3+  Pr27  1  0.87122626  -0.01493771  0.89573427  1
  Pr3+  Pr28  1  0.75861611  0.89794031  0.56870179  1
  Pr3+  Pr29  1  0.76213474  0.39693398  0.57229645  1
  Pr3+  Pr30  1  0.01898391  0.89004354  0.56320603  1
  Nd3+  Nd31  1  0.38196554  0.01801383  0.44214358  1
  Nd3+  Nd32  1  0.13486709  0.26505427  0.43950484  1
  Nd3+  Nd33  1  0.12275306  -0.02363122  0.94157151  1
  Nd3+  Nd34  1  0.88585398  0.26403571  0.45138405  1
  Nd3+  Nd35  1  0.62014172  -0.02528200  0.92245639  1
  Nd3+  Nd36  1  -0.00395337  0.84704037  0.06338233  1
  Nd3+  Nd37  1  0.38620574  0.26563470  0.44856402  1
  Nd3+  Nd38  1  0.24390135  0.85600315  0.07708529  1
  Nd3+  Nd39  1  0.24587320  0.35550001  0.06687215  1
  Nd3+  Nd40  1  0.62482332  0.73085420  0.93068002  1
  Nd3+  Nd41  1  0.74599399  0.09763942  0.05689954  1
  Nd3+  Nd42  1  0.26272678  0.39339427  0.56481990  1
  Nd3+  Nd43  1  0.51533503  0.14098398  0.55874797  1
  Nd3+  Nd44  1  0.74641686  0.35453915  0.05850734  1
  Nd3+  Nd45  1  0.37327528  0.46991987  0.92428123  1
  Nd3+  Nd46  1  0.62326286  0.47831468  0.93137730  1
  Nd3+  Nd47  1  0.38393909  0.76784133  0.44244599  1
  Nd3+  Nd48  1  0.86941187  0.47915189  0.93700382  1
  Nd3+  Nd49  1  0.49759533  0.10235564  0.05775965  1
  Nd3+  Nd50  1  0.12164453  0.72821927  0.93717193  1
  Sm3+  Sm51  1  0.74491408  0.60386834  0.05842881  1
  Sm3+  Sm52  1  0.74511925  0.85336426  0.05125680  1
  Sm3+  Sm53  1  0.49879220  0.85215978  0.05778221  1
  Sm3+  Sm54  1  0.51069398  0.64223194  0.55951775  1
  Sm3+  Sm55  1  0.36938275  -0.02107199  0.95089104  1
  Sm3+  Sm56  1  0.37234007  0.22971947  0.94296041  1
  Sm3+  Sm57  1  -0.00314101  0.35253984  0.05570466  1
  Sm3+  Sm58  1  0.88790629  0.02033991  0.44988859  1
  Sm3+  Sm59  1  0.24563968  0.10500899  0.07070521  1
  Sm3+  Sm60  1  0.01464481  0.39740724  0.55702458  1
  Sm3+  Sm61  1  0.86926659  0.22584542  0.94447979  1
  Sm3+  Sm62  1  0.49631382  0.35598563  0.05748011  1
  Sm3+  Sm63  1  0.64009236  0.26661380  0.44387726  1
  Bi2+  Bi64  1  -0.02209153  0.15169537  0.29291527  1
  Bi2+  Bi65  1  0.04470462  0.12182998  0.72810673  1
  Bi2+  Bi66  1  0.02939159  0.40774525  0.28361235  1
  Bi2+  Bi67  1  -0.01623568  0.31916738  0.79616229  1
  Bi2+  Bi68  1  -0.03883315  0.61527476  0.24859188  1
  Bi2+  Bi69  1  -0.05373424  0.60454576  0.79559911  1
  Bi2+  Bi70  1  -0.00780304  0.86410927  0.30862135  1
  Bi2+  Bi71  1  0.02364115  0.88488989  0.79643991  1
  Bi2+  Bi72  1  0.26146558  0.15123289  0.29196654  1
  Bi2+  Bi73  1  0.20085940  0.14691518  0.79702878  1
  Bi2+  Bi74  1  0.23364974  0.38544160  0.30714170  1
  Bi2+  Bi75  1  0.25079173  0.41195533  0.79842147  1
  Bi2+  Bi76  1  0.24578483  0.57632381  0.27538512  1
  Bi2+  Bi77  1  0.25033203  0.65077784  0.78501352  1
  Bi2+  Bi78  1  0.25905898  0.86043771  0.30559219  1
  Bi2+  Bi79  1  0.25844927  0.88654437  0.79558081  1
  Bi2+  Bi80  1  0.51362721  0.07487319  0.32354193  1
  Bi2+  Bi81  1  0.46281287  0.12993174  0.80057486  1
  Bi2+  Bi82  1  0.50183275  0.26481034  0.28952927  1
  Bi2+  Bi83  1  0.50199926  0.33554902  0.79529999  1
  Bi2+  Bi84  1  0.48888406  0.63672700  0.28737847  1
  Bi2+  Bi85  1  0.57271050  0.63706682  0.77929406  1
  Bi2+  Bi86  1  0.51094599  0.89122971  0.28668090  1
  Bi2+  Bi87  1  0.50732164  0.93902788  0.78791843  1
  Bi2+  Bi88  1  0.70800059  0.12140310  0.32915191  1
  Bi2+  Bi89  1  0.65413309  0.11293251  0.77107198  1
  Bi2+  Bi90  1  0.78141914  0.35233852  0.29634690  1
  Bi2+  Bi91  1  0.73853399  0.43354764  0.81404488  1
  Bi2+  Bi92  1  0.74418879  0.62483168  0.27877363  1
  Bi2+  Bi93  1  0.75264350  0.63154372  0.83519312  1
  Bi2+  Bi94  1  0.75601471  0.94891743  0.28370697  1
  Bi2+  Bi95  1  0.73423783  0.85584442  0.79240842  1
  Bi2+  Bi96  1  0.12956130  0.01676326  0.20115090  1
  Bi2+  Bi97  1  0.16511579  -0.05754353  0.69563580  1
  Bi2+  Bi98  1  0.14238202  0.27683235  0.22864546  1
  Bi2+  Bi99  1  0.13567217  0.29602945  0.70989271  1
  Bi2+  Bi100  1  0.11199174  0.53014504  0.18898176  1
  Bi2+  Bi101  1  0.07236734  0.52309962  0.71747603  1
  Bi2+  Bi102  1  0.11626085  0.74488655  0.20545875  1
  Bi2+  Bi103  1  0.07853962  0.76505530  0.70845532  1
  Bi2+  Bi104  1  0.39957841  0.02329168  0.23005619  1
  Bi2+  Bi105  1  0.32358918  0.04829599  0.72153013  1
  Bi2+  Bi106  1  0.36559212  0.23436042  0.20783760  1
  Bi2+  Bi107  1  0.34280071  0.24212426  0.73141270  1
  Bi2+  Bi108  1  0.35349038  0.43798688  0.21798102  1
  Bi2+  Bi109  1  0.38997991  0.49624297  0.70379374  1
  Bi2+  Bi110  1  0.32772473  0.73331997  0.22841604  1
  Bi2+  Bi111  1  0.44606407  0.76315582  0.72331350  1
  Bi2+  Bi112  1  0.62109401  -0.00037616  0.20041843  1
  Bi2+  Bi113  1  0.57075961  -0.03056552  0.68437024  1
  Bi2+  Bi114  1  0.66150987  0.20921527  0.23009097  1
  Bi2+  Bi115  1  0.60556213  0.26242387  0.70054718  1
  Bi2+  Bi116  1  0.60715247  0.50544205  0.17385011  1
  Bi2+  Bi117  1  0.65201642  0.49852269  0.71636857  1
  Bi2+  Bi118  1  0.60048711  0.75124918  0.18129570  1
  Bi2+  Bi119  1  0.64028742  0.76183681  0.69870742  1
  Bi2+  Bi120  1  0.89111549  0.03633448  0.21486781  1
  Bi2+  Bi121  1  0.85454816  -0.02216758  0.70596824  1
  Bi2+  Bi122  1  0.85752595  0.22914649  0.21369133  1
  Bi2+  Bi123  1  0.80303382  0.27014856  0.75596355  1
  Bi2+  Bi124  1  0.87398491  0.44872049  0.20930494  1
  Bi2+  Bi125  1  0.86751225  0.44997534  0.72150343  1
  Bi2+  Bi126  1  0.84898117  0.78288500  0.24448169  1
  Bi2+  Bi127  1  0.82904898  0.70856640  0.73237747  1
  S2-  S128  1  0.01706095  0.11286745  0.15402264  1
  S2-  S129  1  -0.08678083  0.12575033  0.66032033  1
  S2-  S130  1  0.01336135  0.40170519  0.14828322  1
  S2-  S131  1  0.01388755  0.38832686  0.65512328  1
  S2-  S132  1  -0.01219582  0.67903043  0.14807464  1
  S2-  S133  1  0.00160001  0.64367329  0.65405813  1
  S2-  S134  1  0.07336083  0.87517150  0.15207026  1
  S2-  S135  1  -0.00301000  0.90911644  0.66307530  1
  S2-  S136  1  0.23353157  0.23308649  0.14024589  1
  S2-  S137  1  0.15290861  0.16177246  0.64559251  1
  S2-  S138  1  0.25750744  0.48259597  0.13649199  1
  S2-  S139  1  0.29382151  0.37060993  0.66178268  1
  S2-  S140  1  0.25406055  0.71864213  0.13802351  1
  S2-  S141  1  0.22466602  0.56578628  0.68809114  1
  S2-  S142  1  0.25791751  0.98983935  0.14683457  1
  S2-  S143  1  0.22890546  0.78196202  0.65744546  1
  S2-  S144  1  0.49511328  0.09731759  0.15708849  1
  S2-  S145  1  0.51839849  0.13266074  0.65789930  1
  S2-  S146  1  0.48762464  0.38080707  0.15399541  1
  S2-  S147  1  0.51482693  0.41812327  0.66238501  1
  S2-  S148  1  0.49174972  0.61859396  0.14959016  1
  S2-  S149  1  0.42755003  0.63688043  0.64875943  1
  S2-  S150  1  0.47749209  0.84662452  0.15494435  1
  S2-  S151  1  0.42259992  0.88493611  0.64567957  1
  S2-  S152  1  0.74643981  0.10638294  0.15583848  1
  S2-  S153  1  0.72980274  0.01855859  0.64781808  1
  S2-  S154  1  0.73741077  0.38806035  0.15495331  1
  S2-  S155  1  0.75040092  0.28022149  0.65059483  1
  S2-  S156  1  0.72847069  0.63026850  0.15438086  1
  S2-  S157  1  0.77363688  0.52588501  0.64660048  1
  S2-  S158  1  0.70150067  0.86617761  0.14610384  1
  S2-  S159  1  0.80091464  0.82169149  0.65837423  1
  S2-  S160  1  0.12502753  -0.03782944  0.29896280  1
  S2-  S161  1  0.14082603  -0.00188515  0.84344469  1
  S2-  S162  1  0.12291165  0.17700195  0.35416117  1
  S2-  S163  1  0.12997468  0.32678102  0.85538208  1
  S2-  S164  1  0.11508682  0.51499629  0.34458429  1
  S2-  S165  1  0.15207115  0.54542599  0.83040843  1
  S2-  S166  1  0.12768593  0.76643021  0.34043274  1
  S2-  S167  1  0.14795272  0.76405004  0.84036245  1
  S2-  S168  1  0.29128991  0.01099102  0.35718219  1
  S2-  S169  1  0.36871748  -0.05333923  0.85492494  1
  S2-  S170  1  0.35702997  0.26935573  0.35082371  1
  S2-  S171  1  0.36402798  0.32629153  0.86147951  1
  S2-  S172  1  0.44594628  0.51712410  0.34702422  1
  S2-  S173  1  0.34860246  0.53294049  0.82836394  1
  S2-  S174  1  0.41000286  0.77673632  0.34283075  1
  S2-  S175  1  0.38249036  0.73928056  0.82380084  1
  S2-  S176  1  0.63968111  -0.10670770  0.35927044  1
  S2-  S177  1  0.72448425  0.01078778  0.84246326  1
  S2-  S178  1  0.62900295  0.33478184  0.35313833  1
  S2-  S179  1  0.61768392  0.23032736  0.84851845  1
  S2-  S180  1  0.61082919  0.51404005  0.27087695  1
  S2-  S181  1  0.54993768  0.46879254  0.84121246  1
  S2-  S182  1  0.62788287  0.67219911  0.34650511  1
  S2-  S183  1  0.60207423  0.83795801  0.85312979  1
  S2-  S184  1  0.95485936  0.01561502  0.35897540  1
  S2-  S185  1  0.93326663  0.02037154  0.79915815  1
  S2-  S186  1  0.89751018  0.27349595  0.35173782  1
  S2-  S187  1  0.88146718  0.21631073  0.84757323  1
  S2-  S188  1  0.78760352  0.50994104  0.35083603  1
  S2-  S189  1  0.96322844  0.46632708  0.85455164  1
  S2-  S190  1  0.85915093  0.76167198  0.35078361  1
  S2-  S191  1  0.89019251  0.82932264  0.84877517  1
  S2-  S192  1  0.01373597  0.14094872  0.46459946  1
  S2-  S193  1  -0.00878243  0.09815601  0.94689185  1
  S2-  S194  1  0.00954960  0.39295041  0.45176753  1
  S2-  S195  1  -0.00965555  0.34695794  0.95439729  1
  S2-  S196  1  0.00958668  0.64120094  0.44910999  1
  S2-  S197  1  -0.00411562  0.60607937  0.95162357  1
  S2-  S198  1  0.01642523  0.89739489  0.45686408  1
  S2-  S199  1  -0.00291616  0.85691432  0.95551396  1
  S2-  S200  1  0.25838048  0.14306377  0.46049536  1
  S2-  S201  1  0.24937206  0.10533230  0.95796925  1
  S2-  S202  1  0.26069231  0.39008249  0.45718443  1
  S2-  S203  1  0.24660431  0.34903316  0.96136532  1
  S2-  S204  1  0.26168694  0.64132706  0.44140120  1
  S2-  S205  1  0.24762135  0.60301683  0.94852556  1
  S2-  S206  1  0.26085313  0.89300712  0.46083569  1
  S2-  S207  1  0.24569459  0.85551785  0.95899146  1
  S2-  S208  1  0.51261836  0.14372810  0.45287385  1
  S2-  S209  1  0.49494763  0.10191125  0.95093752  1
  S2-  S210  1  0.51301598  0.39009957  0.45510904  1
  S2-  S211  1  0.50176260  0.35043636  0.95384440  1
  S2-  S212  1  0.50974795  0.64196047  0.45584643  1
  S2-  S213  1  0.49799053  0.60683651  0.94079029  1
  S2-  S214  1  0.50617356  0.89315358  0.45574563  1
  S2-  S215  1  0.49434752  0.85577308  0.95341154  1
  S2-  S216  1  0.76220537  0.14107869  0.46560134  1
  S2-  S217  1  0.75055271  0.09873290  0.95166364  1
  S2-  S218  1  0.76159995  0.38740759  0.46269234  1
  S2-  S219  1  0.74768870  0.35201782  0.95168605  1
  S2-  S220  1  0.76537287  0.64843955  0.46205869  1
  S2-  S221  1  0.74615477  0.60402697  0.95408756  1
  S2-  S222  1  0.76625438  0.89649565  0.46036969  1
  S2-  S223  1  0.75076716  0.85993089  0.94836294  1
  S2-  S224  1  0.12361264  -0.02006647  0.04572991  1
  S2-  S225  1  0.14317316  0.01229821  0.55734192  1
  S2-  S226  1  0.11612266  0.22702608  0.04140580  1
  S2-  S227  1  0.13692358  0.27468618  0.54534166  1
  S2-  S228  1  0.11975368  0.47415370  0.03566056  1
  S2-  S229  1  0.14289609  0.52066216  0.55223574  1
  S2-  S230  1  0.12120082  0.72797381  0.04219940  1
  S2-  S231  1  0.14354476  0.76157304  0.54804922  1
  S2-  S232  1  0.37447068  -0.02204900  0.05161637  1
  S2-  S233  1  0.38574716  0.02122290  0.54891492  1
  S2-  S234  1  0.37587478  0.22871150  0.04632314  1
  S2-  S235  1  0.38763051  0.26623573  0.55474875  1
  S2-  S236  1  0.37640608  0.47582291  0.03364774  1
  S2-  S237  1  0.38347796  0.51940648  0.54821908  1
  S2-  S238  1  0.37399776  0.73387367  0.03659522  1
  S2-  S239  1  0.38209334  0.76019319  0.54648460  1
  S2-  S240  1  0.62008677  -0.02292955  0.03775748  1
  S2-  S241  1  0.63231261  0.01643478  0.54099286  1
  S2-  S242  1  0.62153177  0.22889820  0.05259578  1
  S2-  S243  1  0.63614230  0.26725306  0.54829580  1
  S2-  S244  1  0.62204309  0.47935104  0.03964043  1
  S2-  S245  1  0.63272888  0.52231999  0.55433281  1
  S2-  S246  1  0.62307844  0.72925931  0.03729366  1
  S2-  S247  1  0.63378758  0.76711752  0.54916261  1
  S2-  S248  1  0.87002331  -0.02729873  0.05717169  1
  S2-  S249  1  0.89079230  0.01528784  0.55225019  1
  S2-  S250  1  0.87044479  0.22825708  0.05053700  1
  S2-  S251  1  0.89368815  0.27270360  0.55539266  1
  S2-  S252  1  0.87020393  0.47949214  0.04436084  1
  S2-  S253  1  0.89093921  0.51864882  0.54472660  1
  S2-  S254  1  0.86739453  0.72755261  0.04228422  1
  S2-  S255  1  0.88975014  0.76771848  0.55078967  1
