# generated using pymatgen
data_La6Ce6Pr19Nd20Sm13(BiS2)64
_symmetry_space_group_name_H-M   'P 1'
_cell_length_a   16.09288761
_cell_length_b   16.11300089
_cell_length_c   27.31812932
_cell_angle_alpha   89.95050702
_cell_angle_beta   89.97872285
_cell_angle_gamma   89.96391219
_symmetry_Int_Tables_number   1
_chemical_formula_structural   La6Ce6Pr19Nd20Sm13(BiS2)64
_chemical_formula_sum   'La6 Ce6 Pr19 Nd20 Sm13 Bi64 S128'
_cell_volume   7083.71513231
_cell_formula_units_Z   1
loop_
 _symmetry_equiv_pos_site_id
 _symmetry_equiv_pos_as_xyz
  1  'x, y, z'
loop_
 _atom_type_symbol
 _atom_type_oxidation_number
  La3+  3.0
  Ce3+  3.0
  Pr3+  3.0
  Nd3+  3.0
  Sm3+  3.0
  Bi2+  2.0
  S2-  -2.0
loop_
 _atom_site_type_symbol
 _atom_site_label
 _atom_site_symmetry_multiplicity
 _atom_site_fract_x
 _atom_site_fract_y
 _atom_site_fract_z
 _atom_site_occupancy
  La3+  La0  1  0.62005866  0.76137472  0.91052095  1
  La3+  La1  1  0.37964447  0.01033889  0.42797794  1
  La3+  La2  1  0.35296361  0.75896208  0.90828029  1
  La3+  La3  1  0.25012236  0.37555561  0.60599857  1
  La3+  La4  1  0.49927770  0.10246260  0.11521695  1
  La3+  La5  1  0.12843597  0.74796732  0.39176898  1
  Ce3+  Ce6  1  0.62913235  0.75273657  0.44588396  1
  Ce3+  Ce7  1  -0.01353081  0.88243159  0.06553617  1
  Ce3+  Ce8  1  -0.00993331  0.13166795  0.06385034  1
  Ce3+  Ce9  1  0.37657931  0.75259867  0.43531435  1
  Ce3+  Ce10  1  0.25060841  0.87896549  0.54906966  1
  Ce3+  Ce11  1  0.87410749  0.00065757  0.44267844  1
  Pr3+  Pr12  1  0.23063207  0.63356426  0.05945803  1
  Pr3+  Pr13  1  0.72818178  0.88611890  0.06111809  1
  Pr3+  Pr14  1  0.10581808  0.76389252  0.93263504  1
  Pr3+  Pr15  1  0.86245443  0.25728178  0.93074192  1
  Pr3+  Pr16  1  0.23932407  0.87621159  0.06158883  1
  Pr3+  Pr17  1  0.74752041  0.62089682  0.57742597  1
  Pr3+  Pr18  1  0.12563608  0.00438114  0.43582661  1
  Pr3+  Pr19  1  0.49092702  0.63556507  0.57950099  1
  Pr3+  Pr20  1  0.73283836  0.38312771  0.06042741  1
  Pr3+  Pr21  1  0.23727820  0.12928736  0.06495006  1
  Pr3+  Pr22  1  0.00310018  0.13137721  0.55583813  1
  Pr3+  Pr23  1  0.75771513  0.87015890  0.58207633  1
  Pr3+  Pr24  1  -0.01508057  0.38104155  0.06054863  1
  Pr3+  Pr25  1  0.75090854  0.13044737  0.56457716  1
  Pr3+  Pr26  1  0.62624097  0.50753227  0.44439286  1
  Pr3+  Pr27  1  0.47107305  0.37762001  0.07798467  1
  Pr3+  Pr28  1  0.37530838  0.50462923  0.43844887  1
  Pr3+  Pr29  1  0.37521453  0.26129834  0.43104179  1
  Pr3+  Pr30  1  0.00079500  0.87768695  0.56106087  1
  Nd3+  Nd31  1  0.22409869  0.38551451  0.06207270  1
  Nd3+  Nd32  1  0.73331644  0.63681590  0.06817096  1
  Nd3+  Nd33  1  0.62905892  0.00334458  0.44573128  1
  Nd3+  Nd34  1  0.35299751  0.25709479  0.93691187  1
  Nd3+  Nd35  1  0.73404423  0.13347155  0.05873835  1
  Nd3+  Nd36  1  0.74981670  0.38095016  0.56801592  1
  Nd3+  Nd37  1  0.00801010  0.62924987  0.56550161  1
  Nd3+  Nd38  1  0.00704699  0.37863976  0.55623660  1
  Nd3+  Nd39  1  0.10733054  0.00707981  0.93680284  1
  Nd3+  Nd40  1  0.36253792  0.49989683  0.93546168  1
  Nd3+  Nd41  1  0.24725458  0.63316121  0.56279299  1
  Nd3+  Nd42  1  0.12588470  0.25605437  0.43559015  1
  Nd3+  Nd43  1  0.49414757  0.38092962  0.56318920  1
  Nd3+  Nd44  1  0.60689576  0.00996668  0.93250134  1
  Nd3+  Nd45  1  0.10900473  0.51129625  0.93206050  1
  Nd3+  Nd46  1  -0.01783391  0.63934291  0.08608580  1
  Nd3+  Nd47  1  0.50728690  0.88106646  0.56441210  1
  Nd3+  Nd48  1  0.12553152  0.50881874  0.43953902  1
  Nd3+  Nd49  1  0.87169147  0.75283550  0.43844819  1
  Nd3+  Nd50  1  0.85835097  0.75794812  0.94473533  1
  Sm3+  Sm51  1  0.62794701  0.25670535  0.44831278  1
  Sm3+  Sm52  1  0.35977513  0.00499343  0.94172272  1
  Sm3+  Sm53  1  0.60984447  0.50693658  0.94822515  1
  Sm3+  Sm54  1  0.48565235  0.86867604  0.04943677  1
  Sm3+  Sm55  1  0.85818355  0.51041584  0.94262327  1
  Sm3+  Sm56  1  0.60282516  0.25773897  0.95237040  1
  Sm3+  Sm57  1  0.87353893  0.25677426  0.44509333  1
  Sm3+  Sm58  1  0.48289010  0.63542498  0.04346783  1
  Sm3+  Sm59  1  0.87597614  0.50816349  0.44910067  1
  Sm3+  Sm60  1  0.49715849  0.13321417  0.55840964  1
  Sm3+  Sm61  1  0.10772263  0.25698356  0.93148750  1
  Sm3+  Sm62  1  0.25294436  0.13182295  0.55919781  1
  Sm3+  Sm63  1  0.85650420  0.00892034  0.94665642  1
  Bi2+  Bi64  1  -0.02898956  0.14810086  0.28271703  1
  Bi2+  Bi65  1  0.03887300  0.10832145  0.80360544  1
  Bi2+  Bi66  1  0.06469159  0.41333087  0.27892886  1
  Bi2+  Bi67  1  -0.05239660  0.35199823  0.74925663  1
  Bi2+  Bi68  1  -0.00344305  0.61378443  0.28663812  1
  Bi2+  Bi69  1  -0.01671859  0.64048947  0.78757319  1
  Bi2+  Bi70  1  -0.04012568  0.86424656  0.27881940  1
  Bi2+  Bi71  1  -0.03822249  0.83658307  0.78895193  1
  Bi2+  Bi72  1  0.26044215  0.09129820  0.30564817  1
  Bi2+  Bi73  1  0.23908650  0.09866955  0.80737459  1
  Bi2+  Bi74  1  0.25231507  0.36258919  0.30153957  1
  Bi2+  Bi75  1  0.26087820  0.39251231  0.80414513  1
  Bi2+  Bi76  1  0.34643824  0.53930658  0.30223195  1
  Bi2+  Bi77  1  0.24581304  0.63419527  0.77886413  1
  Bi2+  Bi78  1  0.27950253  0.85645795  0.28019579  1
  Bi2+  Bi79  1  0.21272834  0.89298087  0.79572618  1
  Bi2+  Bi80  1  0.55380664  0.13567646  0.30592164  1
  Bi2+  Bi81  1  0.46812600  0.13982264  0.81388418  1
  Bi2+  Bi82  1  0.50485167  0.35090569  0.24304995  1
  Bi2+  Bi83  1  0.50143130  0.33250779  0.78303004  1
  Bi2+  Bi84  1  0.50800903  0.62672747  0.34009849  1
  Bi2+  Bi85  1  0.50193125  0.58641276  0.79830792  1
  Bi2+  Bi86  1  0.53562957  0.78362991  0.27597954  1
  Bi2+  Bi87  1  0.47843833  0.95420479  0.78320509  1
  Bi2+  Bi88  1  0.78406340  0.07853183  0.28393124  1
  Bi2+  Bi89  1  0.67600070  0.14499880  0.79774054  1
  Bi2+  Bi90  1  0.76109858  0.33716699  0.29740818  1
  Bi2+  Bi91  1  0.78585741  0.31070804  0.80725298  1
  Bi2+  Bi92  1  0.74409959  0.61017834  0.29741728  1
  Bi2+  Bi93  1  0.75477798  0.60062357  0.79955750  1
  Bi2+  Bi94  1  0.71379035  0.87352021  0.30055818  1
  Bi2+  Bi95  1  0.76888819  0.89485874  0.79816873  1
  Bi2+  Bi96  1  0.09916453  0.01583165  0.23053780  1
  Bi2+  Bi97  1  0.13263096  0.01517130  0.70922493  1
  Bi2+  Bi98  1  0.11415283  0.25787096  0.20845947  1
  Bi2+  Bi99  1  0.09427037  0.23054042  0.71524941  1
  Bi2+  Bi100  1  0.19712573  0.49217013  0.20340507  1
  Bi2+  Bi101  1  0.09186068  0.50277538  0.71172247  1
  Bi2+  Bi102  1  0.13781418  0.76661343  0.18704881  1
  Bi2+  Bi103  1  0.11682187  0.75975740  0.70874682  1
  Bi2+  Bi104  1  0.35002184  -0.02075676  0.20287815  1
  Bi2+  Bi105  1  0.33210610  -0.00887839  0.70822283  1
  Bi2+  Bi106  1  0.33630418  0.27069153  0.21144586  1
  Bi2+  Bi107  1  0.35133570  0.18722217  0.72504751  1
  Bi2+  Bi108  1  0.43808584  0.52326609  0.19789473  1
  Bi2+  Bi109  1  0.42206364  0.50549646  0.70277618  1
  Bi2+  Bi110  1  0.39026931  0.71257747  0.20776465  1
  Bi2+  Bi111  1  0.35526167  0.76850070  0.70651555  1
  Bi2+  Bi112  1  0.61700322  -0.05281103  0.20725144  1
  Bi2+  Bi113  1  0.61813283  0.03444499  0.71038869  1
  Bi2+  Bi114  1  0.73372395  0.22048383  0.20676265  1
  Bi2+  Bi115  1  0.60346082  0.25588324  0.69377432  1
  Bi2+  Bi116  1  0.63387058  0.48864984  0.21037268  1
  Bi2+  Bi117  1  0.67250905  0.42084395  0.73364581  1
  Bi2+  Bi118  1  0.63752922  0.68274849  0.19313786  1
  Bi2+  Bi119  1  0.61503519  0.74865798  0.70507201  1
  Bi2+  Bi120  1  0.90755675  0.01072942  0.20034979  1
  Bi2+  Bi121  1  0.93766865  0.00238777  0.72382147  1
  Bi2+  Bi122  1  0.92174452  0.21663263  0.17721484  1
  Bi2+  Bi123  1  0.80214300  0.25146170  0.69432460  1
  Bi2+  Bi124  1  0.88345027  0.46620706  0.24990779  1
  Bi2+  Bi125  1  0.89216766  0.52998938  0.70622232  1
  Bi2+  Bi126  1  0.84768736  0.73658322  0.21323350  1
  Bi2+  Bi127  1  0.92982670  0.72939956  0.68453078  1
  S2-  S128  1  0.10736066  0.13748755  0.13707555  1
  S2-  S129  1  0.00107446  0.13071091  0.65617258  1
  S2-  S130  1  0.10219325  0.38545669  0.13768411  1
  S2-  S131  1  0.08072831  0.36921616  0.64547858  1
  S2-  S132  1  0.12042255  0.60793186  0.14782382  1
  S2-  S133  1  0.12497883  0.62302805  0.64181832  1
  S2-  S134  1  -0.01686637  0.78599010  0.14766389  1
  S2-  S135  1  -0.09732945  0.89556454  0.64547448  1
  S2-  S136  1  0.33319935  0.12191376  0.15105935  1
  S2-  S137  1  0.24294162  0.21192897  0.64692742  1
  S2-  S138  1  0.32590277  0.40230665  0.14472201  1
  S2-  S139  1  0.25277151  0.44660366  0.70562117  1
  S2-  S140  1  0.28217835  0.74930687  0.13190796  1
  S2-  S141  1  0.34911794  0.62666580  0.64578773  1
  S2-  S142  1  0.18736146  0.93000258  0.15952392  1
  S2-  S143  1  0.22854528  0.83855247  0.64347948  1
  S2-  S144  1  0.49995720  0.07106220  0.22507286  1
  S2-  S145  1  0.49331886  0.13148581  0.65628680  1
  S2-  S146  1  0.50064140  0.26780331  0.15737219  1
  S2-  S147  1  0.41533717  0.36754098  0.65040962  1
  S2-  S148  1  0.50446234  0.71917890  0.12808592  1
  S2-  S149  1  0.56616075  0.59468720  0.67131035  1
  S2-  S150  1  0.48189526  0.92920851  0.14304460  1
  S2-  S151  1  0.47837849  0.78393898  0.64549630  1
  S2-  S152  1  0.67326151  0.07933545  0.14645405  1
  S2-  S153  1  0.76169217  0.08925214  0.66158097  1
  S2-  S154  1  0.73940442  0.37938639  0.16025191  1
  S2-  S155  1  0.75365793  0.48292507  0.64857264  1
  S2-  S156  1  0.84245036  0.61414603  0.14762652  1
  S2-  S157  1  0.75435217  0.73275911  0.65399897  1
  S2-  S158  1  0.72537174  0.82934968  0.15613715  1
  S2-  S159  1  0.63288996  0.90006838  0.65274635  1
  S2-  S160  1  0.13302168  -0.01529911  0.33573000  1
  S2-  S161  1  0.07790175  -0.10148535  0.85909062  1
  S2-  S162  1  0.17307841  0.21354126  0.34252074  1
  S2-  S163  1  0.22749688  0.25164880  0.85878451  1
  S2-  S164  1  0.11897983  0.58504944  0.34938940  1
  S2-  S165  1  0.13006637  0.47424779  0.83454563  1
  S2-  S166  1  0.11682261  0.78247165  0.28405778  1
  S2-  S167  1  0.20283378  0.73255739  0.85010936  1
  S2-  S168  1  0.37557123  -0.05059298  0.33209127  1
  S2-  S169  1  0.35435258  -0.08146821  0.85489629  1
  S2-  S170  1  0.39849087  0.15079407  0.35378726  1
  S2-  S171  1  0.40508457  0.36726937  0.86414400  1
  S2-  S172  1  0.39559731  0.39134496  0.35853058  1
  S2-  S173  1  0.33650564  0.54204295  0.83791689  1
  S2-  S174  1  0.29352955  0.73766028  0.35004286  1
  S2-  S175  1  0.39490723  0.72365208  0.80341794  1
  S2-  S176  1  0.60362432  -0.00651432  0.34757357  1
  S2-  S177  1  0.62011930  -0.08366244  0.84779583  1
  S2-  S178  1  0.63093403  0.27604873  0.35137181  1
  S2-  S179  1  0.62552761  0.28005571  0.85536291  1
  S2-  S180  1  0.63444056  0.50716287  0.34343863  1
  S2-  S181  1  0.62926718  0.51200741  0.85062891  1
  S2-  S182  1  0.73750187  0.74658826  0.36748906  1
  S2-  S183  1  0.60058079  0.71230321  0.80923673  1
  S2-  S184  1  0.85815118  -0.04014590  0.34798693  1
  S2-  S185  1  0.84313662  0.01358610  0.84839257  1
  S2-  S186  1  0.88681929  0.26281442  0.34777578  1
  S2-  S187  1  0.98802311  0.24613322  0.85826112  1
  S2-  S188  1  0.87294368  0.52941033  0.35125184  1
  S2-  S189  1  0.87506412  0.52186983  0.84407115  1
  S2-  S190  1  0.96120845  0.74683040  0.35204925  1
  S2-  S191  1  0.78061271  0.74795105  0.85634206  1
  S2-  S192  1  -0.00202295  0.13150743  0.44820899  1
  S2-  S193  1  -0.01770155  0.12835143  0.95768070  1
  S2-  S194  1  -0.00130744  0.38080262  0.44955597  1
  S2-  S195  1  -0.01803749  0.38705324  0.95260239  1
  S2-  S196  1  -0.00095894  0.62805269  0.45956075  1
  S2-  S197  1  -0.01846515  0.63442041  0.94395246  1
  S2-  S198  1  0.00234329  0.87901383  0.45290290  1
  S2-  S199  1  -0.02415346  0.88563088  0.96030930  1
  S2-  S200  1  0.25015987  0.13010512  0.45496009  1
  S2-  S201  1  0.23262339  0.12494432  0.95687717  1
  S2-  S202  1  0.24472484  0.38116689  0.44580809  1
  S2-  S203  1  0.22730056  0.38562274  0.95583261  1
  S2-  S204  1  0.25047878  0.62987707  0.45489342  1
  S2-  S205  1  0.23525617  0.62760750  0.95209207  1
  S2-  S206  1  0.24876521  0.87908684  0.44438222  1
  S2-  S207  1  0.23262221  0.88510170  0.95498619  1
  S2-  S208  1  0.50768684  0.13292599  0.45560918  1
  S2-  S209  1  0.48104907  0.13404003  0.94414964  1
  S2-  S210  1  0.50590089  0.37891983  0.45865952  1
  S2-  S211  1  0.49004787  0.38378765  0.96980619  1
  S2-  S212  1  0.49969584  0.62979835  0.46348475  1
  S2-  S213  1  0.48765296  0.63191975  0.93901165  1
  S2-  S214  1  0.50282789  0.87953945  0.45424763  1
  S2-  S215  1  0.48746903  0.88105500  0.94597611  1
  S2-  S216  1  0.75197585  0.13216466  0.45494757  1
  S2-  S217  1  0.73253754  0.13576191  0.95246422  1
  S2-  S218  1  0.75324359  0.38129953  0.46042672  1
  S2-  S219  1  0.73489036  0.38273648  0.95445559  1
  S2-  S220  1  0.75215390  0.62479449  0.46790428  1
  S2-  S221  1  0.73421585  0.62870114  0.95918465  1
  S2-  S222  1  0.75069997  0.87999914  0.46742410  1
  S2-  S223  1  0.73565003  0.88728577  0.95506694  1
  S2-  S224  1  0.10981186  0.00148364  0.04156360  1
  S2-  S225  1  0.12718835  0.00695364  0.54532597  1
  S2-  S226  1  0.10611623  0.25628765  0.03541851  1
  S2-  S227  1  0.12993180  0.25420739  0.54101611  1
  S2-  S228  1  0.09804455  0.51506582  0.03815340  1
  S2-  S229  1  0.13193051  0.49792792  0.54431253  1
  S2-  S230  1  0.10334775  0.75666995  0.04019109  1
  S2-  S231  1  0.12408293  0.75701569  0.54285808  1
  S2-  S232  1  0.36466988  0.00097201  0.04381359  1
  S2-  S233  1  0.37719819  0.00693089  0.54469682  1
  S2-  S234  1  0.34795682  0.26205740  0.04278006  1
  S2-  S235  1  0.37336457  0.25366469  0.54133638  1
  S2-  S236  1  0.35931087  0.51323073  0.04280500  1
  S2-  S237  1  0.36731441  0.49790529  0.54598005  1
  S2-  S238  1  0.36327657  0.75458362  0.02279797  1
  S2-  S239  1  0.37488685  0.75925624  0.53975894  1
  S2-  S240  1  0.60291968  0.00743375  0.03827176  1
  S2-  S241  1  0.62328904  0.01177778  0.54993356  1
  S2-  S242  1  0.60925873  0.25502507  0.05377867  1
  S2-  S243  1  0.62432644  0.25669471  0.55322270  1
  S2-  S244  1  0.60652741  0.50989113  0.05458572  1
  S2-  S245  1  0.61997814  0.50174665  0.55090781  1
  S2-  S246  1  0.61501193  0.75586480  0.02971668  1
  S2-  S247  1  0.62573652  0.75064322  0.54969213  1
  S2-  S248  1  0.85853857  0.00778930  0.05248545  1
  S2-  S249  1  0.87587210  0.00812964  0.54654923  1
  S2-  S250  1  0.85881573  0.25735645  0.04114921  1
  S2-  S251  1  0.87643917  0.25798885  0.55037579  1
  S2-  S252  1  0.86104867  0.50818065  0.04662334  1
  S2-  S253  1  0.88257312  0.50229538  0.55231532  1
  S2-  S254  1  0.85677799  0.75917605  0.04780818  1
  S2-  S255  1  0.87986373  0.74748578  0.54608134  1
