# generated using pymatgen
data_La6Ce6Pr19Nd20Sm13(BiS2)64
_symmetry_space_group_name_H-M   'P 1'
_cell_length_a   16.08626562
_cell_length_b   16.09276471
_cell_length_c   27.31688487
_cell_angle_alpha   90.09602846
_cell_angle_beta   90.06017044
_cell_angle_gamma   90.04751294
_symmetry_Int_Tables_number   1
_chemical_formula_structural   La6Ce6Pr19Nd20Sm13(BiS2)64
_chemical_formula_sum   'La6 Ce6 Pr19 Nd20 Sm13 Bi64 S128'
_cell_volume   7071.57367186
_cell_formula_units_Z   1
loop_
 _symmetry_equiv_pos_site_id
 _symmetry_equiv_pos_as_xyz
  1  'x, y, z'
loop_
 _atom_type_symbol
 _atom_type_oxidation_number
  La3+  3.0
  Ce3+  3.0
  Pr3+  3.0
  Nd3+  3.0
  Sm3+  3.0
  Bi2+  2.0
  S2-  -2.0
loop_
 _atom_site_type_symbol
 _atom_site_label
 _atom_site_symmetry_multiplicity
 _atom_site_fract_x
 _atom_site_fract_y
 _atom_site_fract_z
 _atom_site_occupancy
  La3+  La0  1  0.86208547  0.51637210  0.43083951  1
  La3+  La1  1  0.26975529  0.37426260  0.10041715  1
  La3+  La2  1  0.37774815  0.76977114  0.42678100  1
  La3+  La3  1  0.38857286  0.00311227  0.88714644  1
  La3+  La4  1  0.87311126  0.25415745  0.38322788  1
  La3+  La5  1  0.00795113  0.37699898  0.07575398  1
  Ce3+  Ce6  1  0.88694644  -0.00496198  0.92536080  1
  Ce3+  Ce7  1  0.38128905  0.74644102  0.92838210  1
  Ce3+  Ce8  1  0.23695169  0.15334313  0.57842276  1
  Ce3+  Ce9  1  0.48981373  0.63740757  0.57007129  1
  Ce3+  Ce10  1  0.11781980  0.52498458  0.43089037  1
  Ce3+  Ce11  1  0.13541022  0.49026243  0.93952126  1
  Pr3+  Pr12  1  0.13360508  0.74160400  0.92659252  1
  Pr3+  Pr13  1  0.12098530  0.01650899  0.44184505  1
  Pr3+  Pr14  1  0.37815647  0.49170110  0.92964481  1
  Pr3+  Pr15  1  0.74636781  0.89811940  0.57663697  1
  Pr3+  Pr16  1  -0.00286990  0.14043060  0.55440231  1
  Pr3+  Pr17  1  0.50736648  0.86995431  0.05609713  1
  Pr3+  Pr18  1  0.00029932  0.62842700  0.57840889  1
  Pr3+  Pr19  1  0.00402197  0.10670359  0.07432497  1
  Pr3+  Pr20  1  0.88813894  0.48613887  0.92172248  1
  Pr3+  Pr21  1  0.48614010  0.88740478  0.57410313  1
  Pr3+  Pr22  1  0.37097758  0.27112386  0.42848943  1
  Pr3+  Pr23  1  0.86940091  0.00898998  0.43553856  1
  Pr3+  Pr24  1  0.75035106  0.65089273  0.57837742  1
  Pr3+  Pr25  1  0.63307539  0.49259176  0.93993333  1
  Pr3+  Pr26  1  -0.00087407  0.88596001  0.58782359  1
  Pr3+  Pr27  1  0.13350929  0.24213702  0.95140662  1
  Pr3+  Pr28  1  0.63226007  -0.00630193  0.93081552  1
  Pr3+  Pr29  1  0.50573774  0.36700344  0.05803680  1
  Pr3+  Pr30  1  0.13281564  -0.00534918  0.93595134  1
  Nd3+  Nd31  1  0.74919130  0.39020178  0.56348265  1
  Nd3+  Nd32  1  0.75906705  0.86885431  0.04987417  1
  Nd3+  Nd33  1  -0.00564171  0.38984134  0.55055184  1
  Nd3+  Nd34  1  0.12268782  0.26814907  0.42422034  1
  Nd3+  Nd35  1  0.76093525  0.36903010  0.05835799  1
  Nd3+  Nd36  1  0.24277577  0.88836674  0.56973584  1
  Nd3+  Nd37  1  0.62981175  0.74492846  0.93524230  1
  Nd3+  Nd38  1  0.87036795  0.76027346  0.44498632  1
  Nd3+  Nd39  1  0.01107514  0.61936142  0.05662019  1
  Nd3+  Nd40  1  0.49209816  0.14516859  0.57532742  1
  Nd3+  Nd41  1  0.25795227  0.62751172  0.06084685  1
  Nd3+  Nd42  1  0.50413993  0.61776120  0.05189360  1
  Nd3+  Nd43  1  0.36943641  0.01766051  0.44690391  1
  Nd3+  Nd44  1  0.61919409  0.01474211  0.44934727  1
  Nd3+  Nd45  1  0.75928661  0.11626249  0.05003267  1
  Nd3+  Nd46  1  0.88694573  0.24371548  0.94174810  1
  Nd3+  Nd47  1  0.24723558  0.63766644  0.56480432  1
  Nd3+  Nd48  1  0.37329077  0.52050804  0.43610942  1
  Nd3+  Nd49  1  0.76105008  0.61821713  0.05333752  1
  Nd3+  Nd50  1  0.25659464  0.11972244  0.06426484  1
  Sm3+  Sm51  1  0.61902661  0.76659376  0.45439602  1
  Sm3+  Sm52  1  0.62914437  0.24142562  0.94013901  1
  Sm3+  Sm53  1  0.62516458  0.26242587  0.44326429  1
  Sm3+  Sm54  1  0.88261404  0.74016107  0.93200912  1
  Sm3+  Sm55  1  0.24590579  0.38831274  0.54864334  1
  Sm3+  Sm56  1  0.49627511  0.38603574  0.55967593  1
  Sm3+  Sm57  1  0.25978068  0.86680115  0.05277032  1
  Sm3+  Sm58  1  0.00859605  0.86615176  0.05140776  1
  Sm3+  Sm59  1  0.50605551  0.11660116  0.05575918  1
  Sm3+  Sm60  1  0.74909562  0.13759449  0.55770482  1
  Sm3+  Sm61  1  0.11996471  0.76244351  0.44834531  1
  Sm3+  Sm62  1  0.37942316  0.23958468  0.94299529  1
  Sm3+  Sm63  1  0.62428113  0.51498537  0.45304990  1
  Bi2+  Bi64  1  0.01218223  0.08937194  0.28523501  1
  Bi2+  Bi65  1  -0.08124410  0.14551520  0.82313644  1
  Bi2+  Bi66  1  0.01155954  0.38078053  0.27967777  1
  Bi2+  Bi67  1  0.02266996  0.32920419  0.80409124  1
  Bi2+  Bi68  1  0.00275952  0.67228348  0.28442795  1
  Bi2+  Bi69  1  -0.01695006  0.59943552  0.79179784  1
  Bi2+  Bi70  1  -0.02754650  0.87111424  0.28485649  1
  Bi2+  Bi71  1  -0.03107939  0.88915274  0.78481593  1
  Bi2+  Bi72  1  0.29893782  0.04876944  0.30413442  1
  Bi2+  Bi73  1  0.24786723  0.13620463  0.78774133  1
  Bi2+  Bi74  1  0.26207917  0.37722192  0.29365731  1
  Bi2+  Bi75  1  0.24569182  0.36594693  0.78305128  1
  Bi2+  Bi76  1  0.23248869  0.64310641  0.28807193  1
  Bi2+  Bi77  1  0.22301118  0.63632448  0.81268031  1
  Bi2+  Bi78  1  0.26537527  0.84746888  0.27594477  1
  Bi2+  Bi79  1  0.26041009  0.87991467  0.77870562  1
  Bi2+  Bi80  1  0.44874925  0.17834277  0.31604202  1
  Bi2+  Bi81  1  0.51685503  0.13718736  0.78603172  1
  Bi2+  Bi82  1  0.52176033  0.37185220  0.29758167  1
  Bi2+  Bi83  1  0.46856066  0.42015974  0.78762374  1
  Bi2+  Bi84  1  0.49920617  0.65849614  0.29427617  1
  Bi2+  Bi85  1  0.41737336  0.60809470  0.81143966  1
  Bi2+  Bi86  1  0.53508308  0.89838466  0.28916509  1
  Bi2+  Bi87  1  0.54202445  0.83348134  0.78947484  1
  Bi2+  Bi88  1  0.72971659  0.01908698  0.29049709  1
  Bi2+  Bi89  1  0.74310698  0.16916340  0.77113044  1
  Bi2+  Bi90  1  0.74994644  0.39829787  0.28991660  1
  Bi2+  Bi91  1  0.75324270  0.37520537  0.78835967  1
  Bi2+  Bi92  1  0.73576398  0.65216340  0.30612724  1
  Bi2+  Bi93  1  0.68626897  0.59052330  0.78593090  1
  Bi2+  Bi94  1  0.79219846  0.84636101  0.33341458  1
  Bi2+  Bi95  1  0.78973623  0.98157246  0.80380476  1
  Bi2+  Bi96  1  0.11658243  -0.08753263  0.21027099  1
  Bi2+  Bi97  1  0.02612787  0.09477369  0.72920833  1
  Bi2+  Bi98  1  0.14381553  0.22398666  0.21454253  1
  Bi2+  Bi99  1  0.09568096  0.30161352  0.69723151  1
  Bi2+  Bi100  1  0.13955314  0.55353970  0.20577892  1
  Bi2+  Bi101  1  0.14667554  0.52373070  0.72879098  1
  Bi2+  Bi102  1  0.08690970  0.73478329  0.16722795  1
  Bi2+  Bi103  1  0.11118408  0.76485481  0.70725622  1
  Bi2+  Bi104  1  0.39115808  -0.02510241  0.21337222  1
  Bi2+  Bi105  1  0.41347501  -0.00494989  0.68615928  1
  Bi2+  Bi106  1  0.41153763  0.24667885  0.21272476  1
  Bi2+  Bi107  1  0.36136002  0.26714295  0.70592501  1
  Bi2+  Bi108  1  0.41132952  0.52566370  0.20898788  1
  Bi2+  Bi109  1  0.34124048  0.48535847  0.70439162  1
  Bi2+  Bi110  1  0.39403788  0.74813787  0.20087096  1
  Bi2+  Bi111  1  0.35480893  0.72932419  0.72342855  1
  Bi2+  Bi112  1  0.57967846  0.04268982  0.20976050  1
  Bi2+  Bi113  1  0.65631600  -0.02602115  0.71344360  1
  Bi2+  Bi114  1  0.62049386  0.21753390  0.26094397  1
  Bi2+  Bi115  1  0.62170724  0.32007610  0.70985298  1
  Bi2+  Bi116  1  0.60285083  0.52352243  0.23966508  1
  Bi2+  Bi117  1  0.54196174  0.49236093  0.68416396  1
  Bi2+  Bi118  1  0.68570120  0.79724085  0.23900666  1
  Bi2+  Bi119  1  0.55199322  0.67862992  0.71681852  1
  Bi2+  Bi120  1  0.84719397  -0.02662946  0.19560013  1
  Bi2+  Bi121  1  0.88869732  -0.03129761  0.69513067  1
  Bi2+  Bi122  1  0.87829206  0.23700084  0.18194312  1
  Bi2+  Bi123  1  0.90035603  0.24654169  0.70991527  1
  Bi2+  Bi124  1  0.86453133  0.52410698  0.20257302  1
  Bi2+  Bi125  1  0.88825204  0.46734497  0.71456582  1
  Bi2+  Bi126  1  0.89450752  0.73881680  0.19805807  1
  Bi2+  Bi127  1  0.84450264  0.72374161  0.72141380  1
  S2-  S128  1  0.02385085  0.13310530  0.17667810  1
  S2-  S129  1  0.09002245  0.15190458  0.64038993  1
  S2-  S130  1  0.01187669  0.32769760  0.17609067  1
  S2-  S131  1  -0.00917625  0.47505816  0.63935960  1
  S2-  S132  1  -0.00494728  0.52499213  0.14084180  1
  S2-  S133  1  -0.03002717  0.74672708  0.65605135  1
  S2-  S134  1  -0.01084921  0.95098788  0.13546157  1
  S2-  S135  1  0.13546283  0.89732319  0.65449537  1
  S2-  S136  1  0.27232553  0.20028196  0.15264905  1
  S2-  S137  1  0.29629912  0.11199032  0.67031901  1
  S2-  S138  1  0.19534753  0.38700128  0.19518977  1
  S2-  S139  1  0.23602580  0.31195791  0.63640407  1
  S2-  S140  1  0.28197031  0.54039355  0.14528778  1
  S2-  S141  1  0.14356052  0.63083773  0.64745255  1
  S2-  S142  1  0.26049779  0.76225745  0.13147592  1
  S2-  S143  1  0.35060249  0.85281986  0.64606332  1
  S2-  S144  1  0.52744176  0.16998614  0.14822249  1
  S2-  S145  1  0.54912159  0.09499746  0.67165367  1
  S2-  S146  1  0.43001731  0.38093406  0.14805937  1
  S2-  S147  1  0.48426304  0.28530650  0.63956027  1
  S2-  S148  1  0.50490211  0.63565134  0.15029083  1
  S2-  S149  1  0.36696810  0.62805362  0.64009160  1
  S2-  S150  1  0.49154017  0.86455909  0.15607845  1
  S2-  S151  1  0.55211945  0.87307891  0.67162267  1
  S2-  S152  1  0.77265508  0.10098409  0.14800899  1
  S2-  S153  1  0.76192717  0.04498728  0.64041555  1
  S2-  S154  1  0.79028041  0.38314869  0.15515822  1
  S2-  S155  1  0.76816094  0.34919178  0.66105690  1
  S2-  S156  1  0.77526519  0.63112165  0.15213769  1
  S2-  S157  1  0.79424325  0.58407600  0.67027571  1
  S2-  S158  1  0.73889128  0.87262277  0.14855037  1
  S2-  S159  1  0.75278666  0.78547049  0.65554399  1
  S2-  S160  1  0.13035039  0.03059338  0.34046033  1
  S2-  S161  1  0.22167650  0.00613227  0.84780086  1
  S2-  S162  1  0.03524324  0.24237953  0.33601959  1
  S2-  S163  1  0.14261212  0.22708886  0.84960189  1
  S2-  S164  1  0.12543298  0.45283431  0.33792802  1
  S2-  S165  1  0.03192775  0.48498765  0.85774680  1
  S2-  S166  1  0.12074610  0.67079599  0.36332029  1
  S2-  S167  1  0.14390521  0.78983613  0.82901116  1
  S2-  S168  1  0.35645195  -0.08254769  0.36350026  1
  S2-  S169  1  0.37363638  0.01461562  0.77864431  1
  S2-  S170  1  0.25084828  0.25087817  0.35195716  1
  S2-  S171  1  0.38256095  0.17837289  0.85009517  1
  S2-  S172  1  0.38764396  0.41390906  0.35562528  1
  S2-  S173  1  0.24760773  0.47489302  0.86057139  1
  S2-  S174  1  0.36061392  0.63772711  0.35717749  1
  S2-  S175  1  0.38899869  0.83649725  0.84471094  1
  S2-  S176  1  0.58954601  0.02388720  0.35095938  1
  S2-  S177  1  0.55337728  -0.00352807  0.84081723  1
  S2-  S178  1  0.69799348  0.26530388  0.35357410  1
  S2-  S179  1  0.61689251  0.21825980  0.84334748  1
  S2-  S180  1  0.69761462  0.51833319  0.36454925  1
  S2-  S181  1  0.62064814  0.46006513  0.84190556  1
  S2-  S182  1  0.53748801  0.77418332  0.36605633  1
  S2-  S183  1  0.65398931  0.74785079  0.83637018  1
  S2-  S184  1  0.87003379  0.08630911  0.34500412  1
  S2-  S185  1  1.01272622  0.00523957  0.85893382  1
  S2-  S186  1  0.85842174  0.26777133  0.27388446  1
  S2-  S187  1  0.86939983  0.34128117  0.85848121  1
  S2-  S188  1  0.88953252  0.42267847  0.34469879  1
  S2-  S189  1  0.82577057  0.56305693  0.83376413  1
  S2-  S190  1  0.88257108  0.65298276  0.36346007  1
  S2-  S191  1  0.90814702  0.75431686  0.83392722  1
  S2-  S192  1  -0.00745663  0.14123739  0.44876182  1
  S2-  S193  1  0.00692206  0.11887635  0.96510231  1
  S2-  S194  1  -0.00341774  0.39126854  0.44724643  1
  S2-  S195  1  0.00918304  0.36590696  0.96431393  1
  S2-  S196  1  -0.00451847  0.64032921  0.46738120  1
  S2-  S197  1  0.00590296  0.62147735  0.95066023  1
  S2-  S198  1  -0.00278449  0.88505210  0.44621319  1
  S2-  S199  1  0.00552149  0.86266107  0.94839500  1
  S2-  S200  1  0.24602327  0.14012257  0.45757463  1
  S2-  S201  1  0.26096502  0.11597262  0.95898492  1
  S2-  S202  1  0.24376077  0.39737674  0.44808127  1
  S2-  S203  1  0.26142848  0.36114646  0.95785791  1
  S2-  S204  1  0.24710299  0.64186269  0.46028390  1
  S2-  S205  1  0.25924762  0.62212586  0.95352658  1
  S2-  S206  1  0.24151918  0.88759283  0.46117611  1
  S2-  S207  1  0.25749556  0.86848954  0.95019709  1
  S2-  S208  1  0.49628607  0.14187576  0.45983390  1
  S2-  S209  1  0.50570742  0.11629570  0.95248892  1
  S2-  S210  1  0.50473152  0.38849597  0.45627971  1
  S2-  S211  1  0.50518600  0.36469708  0.94956332  1
  S2-  S212  1  0.50172345  0.63682133  0.46296831  1
  S2-  S213  1  0.50715300  0.61813859  0.94537552  1
  S2-  S214  1  0.49625953  0.89422466  0.46707779  1
  S2-  S215  1  0.50728554  0.87127848  0.94973655  1
  S2-  S216  1  0.74701441  0.13741342  0.45523051  1
  S2-  S217  1  0.75707686  0.12098850  0.94400049  1
  S2-  S218  1  0.74371132  0.38531812  0.45962086  1
  S2-  S219  1  0.75182172  0.36414899  0.95361978  1
  S2-  S220  1  0.73981532  0.64525470  0.46909411  1
  S2-  S221  1  0.75677468  0.62054407  0.94803571  1
  S2-  S222  1  0.74220387  0.88950165  0.46560346  1
  S2-  S223  1  0.75920760  0.86615198  0.94334676  1
  S2-  S224  1  0.13666672  -0.01079488  0.04611284  1
  S2-  S225  1  0.11775639  0.01013868  0.54699108  1
  S2-  S226  1  0.13029723  0.24364883  0.05828287  1
  S2-  S227  1  0.11862353  0.26902383  0.53240209  1
  S2-  S228  1  0.13980236  0.49497366  0.04760848  1
  S2-  S229  1  0.12514891  0.51002867  0.53964781  1
  S2-  S230  1  0.13056332  0.74705404  0.03326393  1
  S2-  S231  1  0.11807226  0.76435225  0.54966680  1
  S2-  S232  1  0.38083042  -0.00550826  0.05831712  1
  S2-  S233  1  0.36622198  0.02186190  0.55278616  1
  S2-  S234  1  0.38355852  0.24112859  0.04618324  1
  S2-  S235  1  0.37059228  0.26600645  0.53703944  1
  S2-  S236  1  0.38355549  0.49315356  0.03722774  1
  S2-  S237  1  0.37372164  0.50550806  0.54242028  1
  S2-  S238  1  0.38692626  0.74586726  0.03491661  1
  S2-  S239  1  0.37110294  0.76071360  0.53897554  1
  S2-  S240  1  0.63251312  -0.00515824  0.04046802  1
  S2-  S241  1  0.61537955  0.01802616  0.55301591  1
  S2-  S242  1  0.63364443  0.24253776  0.04460310  1
  S2-  S243  1  0.62619201  0.26041012  0.54844374  1
  S2-  S244  1  0.63315453  0.49354065  0.04818437  1
  S2-  S245  1  0.62186697  0.51386481  0.55696401  1
  S2-  S246  1  0.63322728  0.74236035  0.04253973  1
  S2-  S247  1  0.61559320  0.76506221  0.55737042  1
  S2-  S248  1  0.88080322  -0.00965071  0.03301679  1
  S2-  S249  1  0.87894276  0.01018982  0.54280917  1
  S2-  S250  1  0.88492057  0.24218440  0.04930893  1
  S2-  S251  1  0.87012677  0.26183442  0.55440363  1
  S2-  S252  1  0.88060690  0.49464311  0.03548710  1
  S2-  S253  1  0.86476811  0.51700274  0.54374323  1
  S2-  S254  1  0.88410145  0.74413569  0.03970607  1
  S2-  S255  1  0.87397201  0.77162094  0.54894276  1
