# generated using pymatgen
data_La6Ce6Pr19Nd20Sm13(BiS2)64
_symmetry_space_group_name_H-M   'P 1'
_cell_length_a   16.13181244
_cell_length_b   16.09632585
_cell_length_c   27.30427697
_cell_angle_alpha   90.17394488
_cell_angle_beta   90.04188903
_cell_angle_gamma   90.02829605
_symmetry_Int_Tables_number   1
_chemical_formula_structural   La6Ce6Pr19Nd20Sm13(BiS2)64
_chemical_formula_sum   'La6 Ce6 Pr19 Nd20 Sm13 Bi64 S128'
_cell_volume   7089.87256056
_cell_formula_units_Z   1
loop_
 _symmetry_equiv_pos_site_id
 _symmetry_equiv_pos_as_xyz
  1  'x, y, z'
loop_
 _atom_type_symbol
 _atom_type_oxidation_number
  La3+  3.0
  Ce3+  3.0
  Pr3+  3.0
  Nd3+  3.0
  Sm3+  3.0
  Bi2+  2.0
  S2-  -2.0
loop_
 _atom_site_type_symbol
 _atom_site_label
 _atom_site_symmetry_multiplicity
 _atom_site_fract_x
 _atom_site_fract_y
 _atom_site_fract_z
 _atom_site_occupancy
  La3+  La0  1  0.36353122  0.50248453  0.91973814  1
  La3+  La1  1  0.36209653  0.75199043  0.93029437  1
  La3+  La2  1  0.62276971  0.76143889  0.42038038  1
  La3+  La3  1  0.37855817  0.49409500  0.43130220  1
  La3+  La4  1  0.75083033  0.12621933  0.61073143  1
  La3+  La5  1  -0.00351985  0.63395350  0.09155594  1
  Ce3+  Ce6  1  0.86810692  0.24431473  0.92821507  1
  Ce3+  Ce7  1  0.63228362  -0.00351957  0.45689977  1
  Ce3+  Ce8  1  -0.00811229  0.12449639  0.06319825  1
  Ce3+  Ce9  1  0.25512850  0.11957713  0.57177663  1
  Ce3+  Ce10  1  0.60962896  0.74577865  0.93523831  1
  Ce3+  Ce11  1  0.61809857  0.25827771  0.93254994  1
  Pr3+  Pr12  1  0.86886193  0.75200957  0.93215626  1
  Pr3+  Pr13  1  0.48835571  0.62121838  0.06796116  1
  Pr3+  Pr14  1  0.74452601  0.37436304  0.06133303  1
  Pr3+  Pr15  1  0.38047205  0.24134697  0.42052504  1
  Pr3+  Pr16  1  0.11549629  0.75258854  0.93583184  1
  Pr3+  Pr17  1  0.37056497  0.25037908  0.93465933  1
  Pr3+  Pr18  1  0.49186209  0.12654291  0.06690539  1
  Pr3+  Pr19  1  0.62923075  0.24424069  0.43807889  1
  Pr3+  Pr20  1  0.13032375  0.24312070  0.44228914  1
  Pr3+  Pr21  1  0.49100298  0.37711259  0.06490353  1
  Pr3+  Pr22  1  0.00454427  0.11920801  0.56798739  1
  Pr3+  Pr23  1  -0.00743143  0.37819781  0.05403534  1
  Pr3+  Pr24  1  0.38349538  -0.00605106  0.44250751  1
  Pr3+  Pr25  1  0.75722609  0.86602299  0.57014158  1
  Pr3+  Pr26  1  0.50340589  0.61902031  0.56423829  1
  Pr3+  Pr27  1  0.73894017  0.87503068  0.05670470  1
  Pr3+  Pr28  1  0.24285733  0.87623505  0.05999174  1
  Pr3+  Pr29  1  0.13106241  -0.00454516  0.44296035  1
  Pr3+  Pr30  1  0.25361493  0.36993401  0.56686482  1
  Nd3+  Nd31  1  0.75325576  0.36879087  0.56350688  1
  Nd3+  Nd32  1  0.86856552  -0.00157217  0.93209257  1
  Nd3+  Nd33  1  0.24360568  0.12820543  0.05499207  1
  Nd3+  Nd34  1  0.61595782  -0.00517178  0.92209738  1
  Nd3+  Nd35  1  -0.01333106  0.88063284  0.07161867  1
  Nd3+  Nd36  1  0.88553200  0.75571776  0.42354272  1
  Nd3+  Nd37  1  0.51141383  0.87021580  0.57968626  1
  Nd3+  Nd38  1  0.49894404  0.12250708  0.56884688  1
  Nd3+  Nd39  1  0.12856103  0.74306463  0.43856525  1
  Nd3+  Nd40  1  0.74004897  0.12634901  0.04791330  1
  Nd3+  Nd41  1  0.38130276  0.73947648  0.44063473  1
  Nd3+  Nd42  1  0.12713636  0.49602072  0.44492123  1
  Nd3+  Nd43  1  0.24270227  0.37953561  0.05587024  1
  Nd3+  Nd44  1  0.87786699  0.24333380  0.44342016  1
  Nd3+  Nd45  1  0.63070228  0.49810246  0.44156771  1
  Nd3+  Nd46  1  0.00184597  0.86905723  0.56682567  1
  Nd3+  Nd47  1  0.74371135  0.63168731  0.06061611  1
  Nd3+  Nd48  1  -0.00197729  0.62007489  0.56231825  1
  Nd3+  Nd49  1  0.36723076  0.00403557  0.93286450  1
  Nd3+  Nd50  1  0.49965176  0.36903832  0.56116786  1
  Sm3+  Sm51  1  0.75440229  0.62365107  0.54728815  1
  Sm3+  Sm52  1  0.00084602  0.36994261  0.55205304  1
  Sm3+  Sm53  1  0.87788060  -0.00575006  0.44756975  1
  Sm3+  Sm54  1  0.11526261  0.00162584  0.94415002  1
  Sm3+  Sm55  1  0.11714662  0.50370298  0.93835604  1
  Sm3+  Sm56  1  0.11638392  0.25143360  0.93944922  1
  Sm3+  Sm57  1  0.24279281  0.62676369  0.06232204  1
  Sm3+  Sm58  1  0.86835552  0.50320662  0.94713649  1
  Sm3+  Sm59  1  0.25549947  0.86875143  0.55523809  1
  Sm3+  Sm60  1  0.87810210  0.49932419  0.43579251  1
  Sm3+  Sm61  1  0.49188333  0.88119208  0.05340241  1
  Sm3+  Sm62  1  0.24863826  0.62470957  0.56694141  1
  Sm3+  Sm63  1  0.61796687  0.50142488  0.94341136  1
  Bi2+  Bi64  1  0.01797193  0.15409721  0.29292319  1
  Bi2+  Bi65  1  0.02096064  0.09447367  0.78608078  1
  Bi2+  Bi66  1  0.05023493  0.35736966  0.27709424  1
  Bi2+  Bi67  1  -0.02174695  0.41357528  0.79292700  1
  Bi2+  Bi68  1  -0.00088996  0.61439013  0.30182691  1
  Bi2+  Bi69  1  -0.00706608  0.66125325  0.82495822  1
  Bi2+  Bi70  1  0.01941119  0.88617182  0.28760377  1
  Bi2+  Bi71  1  0.02901444  0.84913458  0.80653317  1
  Bi2+  Bi72  1  0.25251770  0.07311065  0.28910784  1
  Bi2+  Bi73  1  0.21754692  0.13312083  0.77398135  1
  Bi2+  Bi74  1  0.24172073  0.31642177  0.28027683  1
  Bi2+  Bi75  1  0.16981688  0.38107880  0.78172824  1
  Bi2+  Bi76  1  0.25267677  0.58456834  0.27968647  1
  Bi2+  Bi77  1  0.17656935  0.62715798  0.78716369  1
  Bi2+  Bi78  1  0.28059261  0.87102380  0.29442198  1
  Bi2+  Bi79  1  0.23089842  0.86987013  0.78437978  1
  Bi2+  Bi80  1  0.47064727  0.11130766  0.27111174  1
  Bi2+  Bi81  1  0.48076529  0.10241308  0.80637102  1
  Bi2+  Bi82  1  0.48617481  0.37496927  0.29208154  1
  Bi2+  Bi83  1  0.51358741  0.35424395  0.80835068  1
  Bi2+  Bi84  1  0.49560803  0.65676109  0.30040513  1
  Bi2+  Bi85  1  0.57011209  0.58510149  0.81161021  1
  Bi2+  Bi86  1  0.47091315  0.90443724  0.27796498  1
  Bi2+  Bi87  1  0.48617066  0.83264994  0.79320003  1
  Bi2+  Bi88  1  0.65429821  0.09146372  0.31687630  1
  Bi2+  Bi89  1  0.77761885  0.17851311  0.78907682  1
  Bi2+  Bi90  1  0.73844177  0.27057714  0.30318997  1
  Bi2+  Bi91  1  0.73810533  0.38585803  0.73552683  1
  Bi2+  Bi92  1  0.75361567  0.58443562  0.29828067  1
  Bi2+  Bi93  1  0.79254055  0.66152537  0.80663904  1
  Bi2+  Bi94  1  0.74086081  0.90836015  0.28820407  1
  Bi2+  Bi95  1  0.81484449  0.85091128  0.76566537  1
  Bi2+  Bi96  1  0.10396403  0.02672762  0.20881426  1
  Bi2+  Bi97  1  0.12885576  0.04842049  0.67769830  1
  Bi2+  Bi98  1  0.09011037  0.22173756  0.19280964  1
  Bi2+  Bi99  1  0.16905787  0.24643699  0.67913579  1
  Bi2+  Bi100  1  0.13849755  0.48459693  0.20294729  1
  Bi2+  Bi101  1  0.09085826  0.50715303  0.70735186  1
  Bi2+  Bi102  1  0.19718286  0.74679947  0.22357694  1
  Bi2+  Bi103  1  0.09634824  0.81335919  0.69937231  1
  Bi2+  Bi104  1  0.35009607  -0.01077310  0.18945939  1
  Bi2+  Bi105  1  0.31985541  -0.00780330  0.70268461  1
  Bi2+  Bi106  1  0.37402339  0.26622572  0.20523734  1
  Bi2+  Bi107  1  0.35834517  0.24640942  0.72013168  1
  Bi2+  Bi108  1  0.38688600  0.51450275  0.20470144  1
  Bi2+  Bi109  1  0.42450127  0.50360095  0.70362958  1
  Bi2+  Bi110  1  0.40054876  0.75301636  0.21541489  1
  Bi2+  Bi111  1  0.31276698  0.72290614  0.72516322  1
  Bi2+  Bi112  1  0.62046155  0.01582164  0.20914065  1
  Bi2+  Bi113  1  0.60352913  -0.01447319  0.71410367  1
  Bi2+  Bi114  1  0.65410474  0.26644722  0.19675510  1
  Bi2+  Bi115  1  0.58541524  0.26779811  0.71212311  1
  Bi2+  Bi116  1  0.64621592  0.44652618  0.24480487  1
  Bi2+  Bi117  1  0.66553265  0.56382197  0.71050295  1
  Bi2+  Bi118  1  0.65563654  0.81900664  0.19664220  1
  Bi2+  Bi119  1  0.64651295  0.75813916  0.74047315  1
  Bi2+  Bi120  1  0.88799227  0.01938650  0.25354784  1
  Bi2+  Bi121  1  0.92761311  -0.01081101  0.70514255  1
  Bi2+  Bi122  1  0.83952783  0.19932781  0.21237424  1
  Bi2+  Bi123  1  0.98248919  0.25414857  0.72068850  1
  Bi2+  Bi124  1  0.89195336  0.43471864  0.22160579  1
  Bi2+  Bi125  1  0.88206206  0.50728386  0.70164102  1
  Bi2+  Bi126  1  0.85310506  0.74066047  0.19906304  1
  Bi2+  Bi127  1  0.91291777  0.70741580  0.70889396  1
  S2-  S128  1  -0.01678981  0.01788926  0.13900859  1
  S2-  S129  1  -0.08470279  0.14211949  0.65284291  1
  S2-  S130  1  0.01686794  0.37165263  0.15313861  1
  S2-  S131  1  -0.02828384  0.38467826  0.64758921  1
  S2-  S132  1  -0.07823921  0.57671201  0.18287031  1
  S2-  S133  1  0.07551232  0.64738318  0.64996092  1
  S2-  S134  1  -0.01170553  0.77804324  0.15221107  1
  S2-  S135  1  -0.11347769  0.85914275  0.64207525  1
  S2-  S136  1  0.30020072  0.13640868  0.14847020  1
  S2-  S137  1  0.37353577  0.12989682  0.64427735  1
  S2-  S138  1  0.27429370  0.39995014  0.15343906  1
  S2-  S139  1  0.32557027  0.37707353  0.65948963  1
  S2-  S140  1  0.14515549  0.61952946  0.14739516  1
  S2-  S141  1  0.29981117  0.59603089  0.65908095  1
  S2-  S142  1  0.21424402  0.88408317  0.15914217  1
  S2-  S143  1  0.24518376  0.82566146  0.64969522  1
  S2-  S144  1  0.50223716  0.25342508  0.14056769  1
  S2-  S145  1  0.58760821  0.12512576  0.65634986  1
  S2-  S146  1  0.50679190  0.49367115  0.14178268  1
  S2-  S147  1  0.53410374  0.40246022  0.65748352  1
  S2-  S148  1  0.35919050  0.64537893  0.13720641  1
  S2-  S149  1  0.51309379  0.62693586  0.66532988  1
  S2-  S150  1  0.49760799  0.98736928  0.13208479  1
  S2-  S151  1  0.45348016  0.91106514  0.67444718  1
  S2-  S152  1  0.72703084  0.12042506  0.14729438  1
  S2-  S153  1  0.75729625  0.05513363  0.70928360  1
  S2-  S154  1  0.75432537  0.41203798  0.15973106  1
  S2-  S155  1  0.74457129  0.29024031  0.65243720  1
  S2-  S156  1  0.70964095  0.66664605  0.15671542  1
  S2-  S157  1  0.78979060  0.63163083  0.64287482  1
  S2-  S158  1  0.79846668  0.88080245  0.15134272  1
  S2-  S159  1  0.64736494  0.85673023  0.65044068  1
  S2-  S160  1  0.14310167  -0.03886505  0.34459431  1
  S2-  S161  1  0.12339617  -0.01322412  0.84641607  1
  S2-  S162  1  0.18569273  0.20407626  0.35011143  1
  S2-  S163  1  0.13052777  0.24741867  0.84176750  1
  S2-  S164  1  0.12713941  0.52950091  0.34778227  1
  S2-  S165  1  0.21567216  0.50225497  0.85724689  1
  S2-  S166  1  0.05542296  0.74729565  0.34816602  1
  S2-  S167  1  0.23137959  0.75082002  0.85769223  1
  S2-  S168  1  0.37673438  0.09404649  0.35961007  1
  S2-  S169  1  0.39039611  -0.03176267  0.83639233  1
  S2-  S170  1  0.35117330  0.37772203  0.35489031  1
  S2-  S171  1  0.37903200  0.24291565  0.83436386  1
  S2-  S172  1  0.36162552  0.61999298  0.36015521  1
  S2-  S173  1  0.42192931  0.48780664  0.82027626  1
  S2-  S174  1  0.47206944  0.79376821  0.36141770  1
  S2-  S175  1  0.45034840  0.70258312  0.84724021  1
  S2-  S176  1  0.63486463  -0.07092249  0.36640588  1
  S2-  S177  1  0.61413746  0.01573907  0.82066390  1
  S2-  S178  1  0.52505783  0.25348108  0.35675294  1
  S2-  S179  1  0.62274095  0.21851440  0.83658648  1
  S2-  S180  1  0.59359166  0.49271357  0.34458294  1
  S2-  S181  1  0.64085427  0.44257533  0.85170544  1
  S2-  S182  1  0.65099519  0.70434278  0.32332107  1
  S2-  S183  1  0.62614752  0.81959441  0.84851089  1
  S2-  S184  1  0.89689532  -0.07539711  0.35786022  1
  S2-  S185  1  0.87703609  0.10744642  0.85204113  1
  S2-  S186  1  0.89262608  0.23150474  0.34513046  1
  S2-  S187  1  0.84830136  0.30456116  0.83568178  1
  S2-  S188  1  0.88173363  0.48826292  0.33777061  1
  S2-  S189  1  0.87576398  0.52503819  0.85003091  1
  S2-  S190  1  0.86201134  0.70306449  0.32706170  1
  S2-  S191  1  0.87475424  0.87759591  0.85871414  1
  S2-  S192  1  0.00310247  0.11743582  0.45625381  1
  S2-  S193  1  -0.00349511  0.12637049  0.95548759  1
  S2-  S194  1  0.00186292  0.37100998  0.44681186  1
  S2-  S195  1  -0.00651086  0.37751366  0.94731224  1
  S2-  S196  1  0.00016472  0.62062063  0.45463015  1
  S2-  S197  1  -0.00654396  0.62488973  0.95421195  1
  S2-  S198  1  0.00664060  0.87113489  0.46086044  1
  S2-  S199  1  -0.00477283  0.87819156  0.96100003  1
  S2-  S200  1  0.25505244  0.11840614  0.46358357  1
  S2-  S201  1  0.23993001  0.12711993  0.94705134  1
  S2-  S202  1  0.24878387  0.37072538  0.45882579  1
  S2-  S203  1  0.24069681  0.37246477  0.95010971  1
  S2-  S204  1  0.24893963  0.62053884  0.46174587  1
  S2-  S205  1  0.23977006  0.62537979  0.95820246  1
  S2-  S206  1  0.25595520  0.86665097  0.45063625  1
  S2-  S207  1  0.24103988  0.88324802  0.95337143  1
  S2-  S208  1  0.50643346  0.11923453  0.46163599  1
  S2-  S209  1  0.49519054  0.12436346  0.94961688  1
  S2-  S210  1  0.50659521  0.37408025  0.45678687  1
  S2-  S211  1  0.49099151  0.37982478  0.95159797  1
  S2-  S212  1  0.51042843  0.62219722  0.45657175  1
  S2-  S213  1  0.49087560  0.61922438  0.95788187  1
  S2-  S214  1  0.50424203  0.87224737  0.47161126  1
  S2-  S215  1  0.48998204  0.87833622  0.94965813  1
  S2-  S216  1  0.75714373  0.11842775  0.44709360  1
  S2-  S217  1  0.73703953  0.12394978  0.94388384  1
  S2-  S218  1  0.75634701  0.37278355  0.45310903  1
  S2-  S219  1  0.74839261  0.37723804  0.95470534  1
  S2-  S220  1  0.75539147  0.62562159  0.44338848  1
  S2-  S221  1  0.74217610  0.62608518  0.95280732  1
  S2-  S222  1  0.75851697  0.86803992  0.46056667  1
  S2-  S223  1  0.73740773  0.87378065  0.95126528  1
  S2-  S224  1  0.12043092  0.00353650  0.04722111  1
  S2-  S225  1  0.12898293  -0.00992961  0.54970349  1
  S2-  S226  1  0.11836923  0.25176574  0.04455065  1
  S2-  S227  1  0.12534599  0.24650509  0.54840758  1
  S2-  S228  1  0.11716397  0.50272081  0.04270348  1
  S2-  S229  1  0.12604725  0.49525351  0.55115742  1
  S2-  S230  1  0.11876988  0.75316314  0.04415497  1
  S2-  S231  1  0.12684615  0.74722411  0.54408064  1
  S2-  S232  1  0.36597409  0.00345978  0.03792418  1
  S2-  S233  1  0.37868171  -0.01120899  0.54941176  1
  S2-  S234  1  0.36621606  0.25297229  0.04032118  1
  S2-  S235  1  0.37696357  0.24803756  0.54146763  1
  S2-  S236  1  0.36362572  0.50033560  0.03591263  1
  S2-  S237  1  0.37537024  0.49755230  0.54441132  1
  S2-  S238  1  0.37028467  0.75782028  0.03910281  1
  S2-  S239  1  0.37724389  0.74375545  0.55055627  1
  S2-  S240  1  0.61773856  0.00151087  0.03269420  1
  S2-  S241  1  0.63535497  0.00146434  0.55906754  1
  S2-  S242  1  0.61761351  0.25304112  0.03909721  1
  S2-  S243  1  0.62832213  0.24707582  0.54559592  1
  S2-  S244  1  0.62411271  0.50221208  0.04546396  1
  S2-  S245  1  0.63245767  0.49583519  0.54852456  1
  S2-  S246  1  0.61034860  0.75199191  0.04447997  1
  S2-  S247  1  0.62977689  0.74095871  0.54587362  1
  S2-  S248  1  0.86255839  0.00210949  0.03792396  1
  S2-  S249  1  0.87572335  0.00078139  0.55061172  1
  S2-  S250  1  0.86883655  0.24923702  0.04328991  1
  S2-  S251  1  0.87812987  0.24617420  0.54748296  1
  S2-  S252  1  0.86951283  0.50648504  0.05162695  1
  S2-  S253  1  0.87656827  0.49446739  0.54120168  1
  S2-  S254  1  0.86805065  0.75157221  0.04146916  1
  S2-  S255  1  0.88067933  0.74214407  0.53621935  1
