# generated using pymatgen
data_La6Ce6Pr19Nd20Sm13(BiS2)64
_symmetry_space_group_name_H-M   'P 1'
_cell_length_a   16.02539748
_cell_length_b   16.11887660
_cell_length_c   27.34099019
_cell_angle_alpha   89.71169608
_cell_angle_beta   89.68308125
_cell_angle_gamma   89.96217502
_symmetry_Int_Tables_number   1
_chemical_formula_structural   La6Ce6Pr19Nd20Sm13(BiS2)64
_chemical_formula_sum   'La6 Ce6 Pr19 Nd20 Sm13 Bi64 S128'
_cell_volume   7062.29071935
_cell_formula_units_Z   1
loop_
 _symmetry_equiv_pos_site_id
 _symmetry_equiv_pos_as_xyz
  1  'x, y, z'
loop_
 _atom_type_symbol
 _atom_type_oxidation_number
  La3+  3.0
  Ce3+  3.0
  Pr3+  3.0
  Nd3+  3.0
  Sm3+  3.0
  Bi2+  2.0
  S2-  -2.0
loop_
 _atom_site_type_symbol
 _atom_site_label
 _atom_site_symmetry_multiplicity
 _atom_site_fract_x
 _atom_site_fract_y
 _atom_site_fract_z
 _atom_site_occupancy
  La3+  La0  1  0.24822315  0.63444892  0.58403288  1
  La3+  La1  1  0.73640121  0.62699880  0.10853026  1
  La3+  La2  1  0.37549637  0.73610435  0.88394744  1
  La3+  La3  1  0.88981442  0.75481329  0.40609373  1
  La3+  La4  1  0.20463099  0.13739014  0.11681529  1
  La3+  La5  1  -0.00656579  0.35747614  0.08076877  1
  Ce3+  Ce6  1  0.76543665  0.62667279  0.54690861  1
  Ce3+  Ce7  1  0.63699059  -0.00084086  0.43633040  1
  Ce3+  Ce8  1  0.87084180  0.74580526  0.94167960  1
  Ce3+  Ce9  1  -0.00834854  0.87421582  0.05564490  1
  Ce3+  Ce10  1  0.48737916  0.62704541  0.06630116  1
  Ce3+  Ce11  1  0.61947258  0.24963282  0.93907778  1
  Pr3+  Pr12  1  0.89642662  0.49457633  0.41450985  1
  Pr3+  Pr13  1  0.73634611  0.37160938  0.07604559  1
  Pr3+  Pr14  1  0.13939451  0.00211136  0.44087256  1
  Pr3+  Pr15  1  0.63437524  0.25391799  0.43883901  1
  Pr3+  Pr16  1  0.86571127  0.49942849  0.95604773  1
  Pr3+  Pr17  1  0.36748048  -0.00445574  0.91456500  1
  Pr3+  Pr18  1  0.24193394  0.88188454  0.05010413  1
  Pr3+  Pr19  1  0.51094920  0.12969728  0.56287397  1
  Pr3+  Pr20  1  0.37693709  0.24970914  0.42430220  1
  Pr3+  Pr21  1  0.89510862  0.00562586  0.42963393  1
  Pr3+  Pr22  1  -0.00727757  0.62283229  0.07455660  1
  Pr3+  Pr23  1  0.26629677  0.88617276  0.58061245  1
  Pr3+  Pr24  1  0.11025461  0.25200023  0.92497150  1
  Pr3+  Pr25  1  0.36897281  0.24964942  0.92942027  1
  Pr3+  Pr26  1  0.89008726  0.25273337  0.43656147  1
  Pr3+  Pr27  1  0.49022262  0.37143733  0.06428930  1
  Pr3+  Pr28  1  0.73765194  0.87172129  0.06410137  1
  Pr3+  Pr29  1  0.73339761  0.11653020  0.06424808  1
  Pr3+  Pr30  1  0.11190445  0.49801995  0.93975896  1
  Nd3+  Nd31  1  0.01183243  0.87634741  0.55503054  1
  Nd3+  Nd32  1  0.63390138  0.50646887  0.43314917  1
  Nd3+  Nd33  1  0.26539526  0.12780020  0.56856748  1
  Nd3+  Nd34  1  0.61537135  -0.00354754  0.92965227  1
  Nd3+  Nd35  1  0.52269365  0.87953487  0.57844513  1
  Nd3+  Nd36  1  0.14103067  0.74984819  0.43840863  1
  Nd3+  Nd37  1  0.23731922  0.62333593  0.06177107  1
  Nd3+  Nd38  1  0.00545360  0.36983444  0.57525329  1
  Nd3+  Nd39  1  0.47678866  0.11717023  0.05717411  1
  Nd3+  Nd40  1  -0.01291310  0.12191137  0.05119373  1
  Nd3+  Nd41  1  0.61630210  0.74525623  0.93870594  1
  Nd3+  Nd42  1  0.86536278  -0.00272798  0.93199797  1
  Nd3+  Nd43  1  0.00164803  0.12390707  0.57305173  1
  Nd3+  Nd44  1  0.13482425  0.50516644  0.44899902  1
  Nd3+  Nd45  1  0.51262770  0.62454941  0.56439407  1
  Nd3+  Nd46  1  0.38315855  0.50473006  0.44727458  1
  Nd3+  Nd47  1  0.61586274  0.50444828  0.95065576  1
  Nd3+  Nd48  1  0.11442531  -0.00202802  0.92817914  1
  Nd3+  Nd49  1  0.63473718  0.75418621  0.43586302  1
  Nd3+  Nd50  1  0.00220171  0.61982427  0.56697675  1
  Sm3+  Sm51  1  0.76196396  0.87642544  0.55817801  1
  Sm3+  Sm52  1  0.13588410  0.25299760  0.45072014  1
  Sm3+  Sm53  1  0.86008878  0.25253663  0.94029575  1
  Sm3+  Sm54  1  0.38306337  0.00452354  0.43803813  1
  Sm3+  Sm55  1  0.11875595  0.74600165  0.93216811  1
  Sm3+  Sm56  1  0.76001382  0.37966982  0.55343323  1
  Sm3+  Sm57  1  0.50992088  0.37562007  0.55945626  1
  Sm3+  Sm58  1  0.23928679  0.36586051  0.04953586  1
  Sm3+  Sm59  1  0.48680846  0.87082534  0.04446031  1
  Sm3+  Sm60  1  0.26222966  0.37622575  0.56420102  1
  Sm3+  Sm61  1  0.75948545  0.12524889  0.55160784  1
  Sm3+  Sm62  1  0.36703624  0.50085178  0.94335392  1
  Sm3+  Sm63  1  0.38040188  0.75389027  0.45129954  1
  Bi2+  Bi64  1  -0.06131491  0.15653739  0.31005701  1
  Bi2+  Bi65  1  -0.01724804  0.13035186  0.78633411  1
  Bi2+  Bi66  1  0.03710342  0.33272583  0.31375577  1
  Bi2+  Bi67  1  0.01526123  0.39089414  0.80772959  1
  Bi2+  Bi68  1  0.01104574  0.61729649  0.29596264  1
  Bi2+  Bi69  1  -0.02029305  0.61428800  0.79201382  1
  Bi2+  Bi70  1  -0.02227251  0.93071212  0.28322805  1
  Bi2+  Bi71  1  -0.06018083  0.86439929  0.79585468  1
  Bi2+  Bi72  1  0.26359143  0.11529464  0.30312305  1
  Bi2+  Bi73  1  0.27787932  0.13156165  0.81809255  1
  Bi2+  Bi74  1  0.25009037  0.38677587  0.29340567  1
  Bi2+  Bi75  1  0.32964406  0.33634204  0.75091152  1
  Bi2+  Bi76  1  0.25941605  0.57891542  0.32464458  1
  Bi2+  Bi77  1  0.24889444  0.61048084  0.78205764  1
  Bi2+  Bi78  1  0.23954817  0.85615339  0.29272726  1
  Bi2+  Bi79  1  0.22879932  0.86840816  0.77226264  1
  Bi2+  Bi80  1  0.49736213  0.18066862  0.27557803  1
  Bi2+  Bi81  1  0.46803488  0.18718743  0.80835453  1
  Bi2+  Bi82  1  0.44183872  0.36167053  0.31362052  1
  Bi2+  Bi83  1  0.59698626  0.39151531  0.75357894  1
  Bi2+  Bi84  1  0.42182918  0.64905916  0.27186420  1
  Bi2+  Bi85  1  0.51945603  0.58910265  0.79639457  1
  Bi2+  Bi86  1  0.43997975  0.85294238  0.28068662  1
  Bi2+  Bi87  1  0.46922944  0.96108081  0.76032302  1
  Bi2+  Bi88  1  0.74674841  0.09198779  0.30154196  1
  Bi2+  Bi89  1  0.71893177  0.15029761  0.78471220  1
  Bi2+  Bi90  1  0.64844470  0.35164477  0.26901170  1
  Bi2+  Bi91  1  0.78157886  0.34788296  0.77972803  1
  Bi2+  Bi92  1  0.71031391  0.60165072  0.28073900  1
  Bi2+  Bi93  1  0.77829747  0.62584932  0.81314942  1
  Bi2+  Bi94  1  0.70437549  0.84999331  0.30261291  1
  Bi2+  Bi95  1  0.75185664  0.96895359  0.82134432  1
  Bi2+  Bi96  1  0.12138001  -0.04311924  0.20950186  1
  Bi2+  Bi97  1  0.08841009  0.04496081  0.70386716  1
  Bi2+  Bi98  1  0.09612852  0.28976194  0.21204084  1
  Bi2+  Bi99  1  0.15208713  0.21930857  0.74696038  1
  Bi2+  Bi100  1  0.17724391  0.52072031  0.21723615  1
  Bi2+  Bi101  1  0.14642024  0.50107808  0.70374435  1
  Bi2+  Bi102  1  0.13414510  0.72380699  0.22967705  1
  Bi2+  Bi103  1  0.09084638  0.76409791  0.71956531  1
  Bi2+  Bi104  1  0.42120099  0.01344883  0.21164597  1
  Bi2+  Bi105  1  0.35055393  0.08952415  0.71334400  1
  Bi2+  Bi106  1  0.36590639  0.27824843  0.20801225  1
  Bi2+  Bi107  1  0.39495003  0.25456101  0.65073891  1
  Bi2+  Bi108  1  0.35305324  0.56969215  0.17294860  1
  Bi2+  Bi109  1  0.44627202  0.46503041  0.69690274  1
  Bi2+  Bi110  1  0.32271186  0.76665674  0.19753866  1
  Bi2+  Bi111  1  0.39848030  0.73282310  0.68261304  1
  Bi2+  Bi112  1  0.61896723  0.00406456  0.20547015  1
  Bi2+  Bi113  1  0.69706422  -0.01221533  0.70114421  1
  Bi2+  Bi114  1  0.63082445  0.19121624  0.18315045  1
  Bi2+  Bi115  1  0.57747721  0.20749512  0.70962449  1
  Bi2+  Bi116  1  0.48286632  0.43438209  0.20551458  1
  Bi2+  Bi117  1  0.68189559  0.59021840  0.71232767  1
  Bi2+  Bi118  1  0.58146388  0.78488349  0.20279792  1
  Bi2+  Bi119  1  0.68555481  0.79604595  0.78855557  1
  Bi2+  Bi120  1  0.87099438  0.04098097  0.21245496  1
  Bi2+  Bi121  1  0.90031920  -0.02565563  0.70209725  1
  Bi2+  Bi122  1  0.81701203  0.23005258  0.22187164  1
  Bi2+  Bi123  1  0.88232113  0.22963293  0.70610535  1
  Bi2+  Bi124  1  0.88573154  0.47523641  0.21551736  1
  Bi2+  Bi125  1  0.85207930  0.48058783  0.70464778  1
  Bi2+  Bi126  1  0.88298245  0.77068841  0.21078427  1
  Bi2+  Bi127  1  0.84487805  0.74459093  0.72329288  1
  S2-  S128  1  0.03260102  0.19698565  0.13700521  1
  S2-  S129  1  0.01383868  0.23973944  0.64590133  1
  S2-  S130  1  0.04025677  0.43853555  0.16835126  1
  S2-  S131  1  -0.00229192  0.47189104  0.65602392  1
  S2-  S132  1  -0.10157134  0.62921846  0.16300939  1
  S2-  S133  1  0.09675038  0.64193494  0.64947281  1
  S2-  S134  1  -0.00520652  0.86254733  0.15330968  1
  S2-  S135  1  0.03120704  0.89076353  0.65435171  1
  S2-  S136  1  0.16991435  0.12394533  0.22384715  1
  S2-  S137  1  0.23913558  0.02232672  0.64791820  1
  S2-  S138  1  0.23110805  0.31074567  0.14340908  1
  S2-  S139  1  0.20865371  0.37571035  0.65833960  1
  S2-  S140  1  0.12873085  0.64221263  0.14100331  1
  S2-  S141  1  0.31061224  0.57629862  0.67361066  1
  S2-  S142  1  0.23671515  0.96359235  0.14065116  1
  S2-  S143  1  0.23554682  0.78647519  0.66245936  1
  S2-  S144  1  0.38149878  0.13185487  0.14194510  1
  S2-  S145  1  0.56619968  0.06756596  0.65282008  1
  S2-  S146  1  0.60004526  0.35479514  0.14392545  1
  S2-  S147  1  0.58186962  0.40950511  0.64647910  1
  S2-  S148  1  0.56785067  0.64643979  0.15288986  1
  S2-  S149  1  0.55611239  0.65728954  0.65873990  1
  S2-  S150  1  0.50167507  0.91133401  0.14090547  1
  S2-  S151  1  0.42167594  0.89166414  0.65956095  1
  S2-  S152  1  0.75160744  -0.00286049  0.13875899  1
  S2-  S153  1  0.81655716  0.10129684  0.64274659  1
  S2-  S154  1  0.85440052  0.34984727  0.15193414  1
  S2-  S155  1  0.80463884  0.35419838  0.64644775  1
  S2-  S156  1  0.73333281  0.51896279  0.19204101  1
  S2-  S157  1  0.81563177  0.62515734  0.64147386  1
  S2-  S158  1  0.74036575  0.78432212  0.15556976  1
  S2-  S159  1  0.66459472  0.86563233  0.64030962  1
  S2-  S160  1  0.03235579  0.03436200  0.36040087  1
  S2-  S161  1  0.18844100  -0.01666430  0.83386512  1
  S2-  S162  1  0.21234642  0.24063558  0.36094887  1
  S2-  S163  1  0.15866450  0.32604233  0.83236285  1
  S2-  S164  1  0.05431031  0.49228107  0.36046986  1
  S2-  S165  1  0.11465612  0.53754330  0.83982115  1
  S2-  S166  1  0.04228192  0.74581174  0.35190528  1
  S2-  S167  1  0.20717723  0.74208235  0.84365506  1
  S2-  S168  1  0.25849330  -0.02044011  0.36594836  1
  S2-  S169  1  0.37008900  -0.10878436  0.83007542  1
  S2-  S170  1  0.41139908  0.11920250  0.35885790  1
  S2-  S171  1  0.40421023  0.33668307  0.84146838  1
  S2-  S172  1  0.42617235  0.53242485  0.35199048  1
  S2-  S173  1  0.36513607  0.56035829  0.85211154  1
  S2-  S174  1  0.27820777  0.73889510  0.37180908  1
  S2-  S175  1  0.38470238  0.70959781  0.77611179  1
  S2-  S176  1  0.61843475  -0.01142825  0.33991950  1
  S2-  S177  1  0.51886325  0.02142645  0.84483843  1
  S2-  S178  1  0.66255662  0.23363159  0.34010827  1
  S2-  S179  1  0.73868711  0.26175182  0.86618391  1
  S2-  S180  1  0.64588562  0.47252352  0.33644874  1
  S2-  S181  1  0.63117059  0.51788508  0.85059616  1
  S2-  S182  1  0.61359734  0.71951206  0.33872579  1
  S2-  S183  1  0.54936332  0.73915497  0.84632927  1
  S2-  S184  1  0.84929791  -0.09325114  0.35089930  1
  S2-  S185  1  0.98171924  0.00013240  0.85526405  1
  S2-  S186  1  0.88505067  0.34637718  0.35230883  1
  S2-  S187  1  0.96563746  0.26205728  0.85952936  1
  S2-  S188  1  0.85253612  0.53683824  0.31465889  1
  S2-  S189  1  0.88972394  0.49613143  0.85486244  1
  S2-  S190  1  0.82178185  0.72840603  0.30745863  1
  S2-  S191  1  0.98417481  0.73585673  0.86381122  1
  S2-  S192  1  0.01359178  0.13313023  0.46558848  1
  S2-  S193  1  -0.01327316  0.12587468  0.95000991  1
  S2-  S194  1  0.01419256  0.37436228  0.46464816  1
  S2-  S195  1  -0.01164633  0.37200708  0.96573006  1
  S2-  S196  1  0.00655973  0.62779013  0.45818965  1
  S2-  S197  1  -0.00661515  0.62243912  0.96580698  1
  S2-  S198  1  0.01155238  0.87362658  0.45129514  1
  S2-  S199  1  -0.00753381  0.87290258  0.95330765  1
  S2-  S200  1  0.26153455  0.12836286  0.46401790  1
  S2-  S201  1  0.24106198  0.12598138  0.93321866  1
  S2-  S202  1  0.25960179  0.37975020  0.45706272  1
  S2-  S203  1  0.24382984  0.37741142  0.94623820  1
  S2-  S204  1  0.26100408  0.62463250  0.47297516  1
  S2-  S205  1  0.23980220  0.62110379  0.95629693  1
  S2-  S206  1  0.26416016  0.87768370  0.47134103  1
  S2-  S207  1  0.23900817  0.87243414  0.94472474  1
  S2-  S208  1  0.51470585  0.12589363  0.45699491  1
  S2-  S209  1  0.49499033  0.12650705  0.94991032  1
  S2-  S210  1  0.50942569  0.37863450  0.45308136  1
  S2-  S211  1  0.49462216  0.37723860  0.95622129  1
  S2-  S212  1  0.50764841  0.63122148  0.45658331  1
  S2-  S213  1  0.48672437  0.62617490  0.95807899  1
  S2-  S214  1  0.50537119  0.87599616  0.44962637  1
  S2-  S215  1  0.49030743  0.86912766  0.94247473  1
  S2-  S216  1  0.76249769  0.12690047  0.44736989  1
  S2-  S217  1  0.74071266  0.11864036  0.95593679  1
  S2-  S218  1  0.75868875  0.38153281  0.44932994  1
  S2-  S219  1  0.73796545  0.37728689  0.96694757  1
  S2-  S220  1  0.76483652  0.62815891  0.44034460  1
  S2-  S221  1  0.74246131  0.62606939  0.95366310  1
  S2-  S222  1  0.76186941  0.87290611  0.45459672  1
  S2-  S223  1  0.74072503  0.87102098  0.95182370  1
  S2-  S224  1  0.11348396  0.00431766  0.03877297  1
  S2-  S225  1  0.13108026  0.00728132  0.54733467  1
  S2-  S226  1  0.12328353  0.24143605  0.03377951  1
  S2-  S227  1  0.14156193  0.25002260  0.55247322  1
  S2-  S228  1  0.11780148  0.49105646  0.04712671  1
  S2-  S229  1  0.13434034  0.49615128  0.55217167  1
  S2-  S230  1  0.11716705  0.75360704  0.03877431  1
  S2-  S231  1  0.13125440  0.75376324  0.54487774  1
  S2-  S232  1  0.37033308  -0.00651533  0.02535728  1
  S2-  S233  1  0.39314342  0.00297202  0.54583866  1
  S2-  S234  1  0.36764348  0.25160548  0.03630869  1
  S2-  S235  1  0.38604685  0.25498854  0.53456059  1
  S2-  S236  1  0.36262475  0.49409037  0.04788802  1
  S2-  S237  1  0.38649842  0.49970851  0.55382192  1
  S2-  S238  1  0.36230180  0.75010618  0.05581841  1
  S2-  S239  1  0.39077341  0.75360009  0.55476193  1
  S2-  S240  1  0.60891653  -0.00374089  0.03585606  1
  S2-  S241  1  0.63875742  0.00136445  0.54060934  1
  S2-  S242  1  0.60993010  0.24005542  0.04233557  1
  S2-  S243  1  0.63822297  0.25323882  0.54652789  1
  S2-  S244  1  0.61594217  0.50453568  0.05500884  1
  S2-  S245  1  0.63635673  0.50300843  0.54007930  1
  S2-  S246  1  0.61389385  0.74882532  0.04376109  1
  S2-  S247  1  0.63642612  0.74964574  0.54080307  1
  S2-  S248  1  0.86569154  -0.00379856  0.03772221  1
  S2-  S249  1  0.88374245  -0.00006854  0.53884912  1
  S2-  S250  1  0.85685716  0.24129466  0.04603874  1
  S2-  S251  1  0.88011476  0.24998619  0.54219716  1
  S2-  S252  1  0.86112673  0.50051709  0.06052043  1
  S2-  S253  1  0.88463501  0.49692688  0.53930218  1
  S2-  S254  1  0.86610366  0.74818489  0.04780590  1
  S2-  S255  1  0.88602148  0.75497904  0.54949495  1
