# generated using pymatgen
data_La6Ce6Pr19Nd20Sm13(BiS2)64
_symmetry_space_group_name_H-M   'P 1'
_cell_length_a   16.08113303
_cell_length_b   16.13524290
_cell_length_c   27.09796694
_cell_angle_alpha   90.18400618
_cell_angle_beta   90.04245851
_cell_angle_gamma   89.87920112
_symmetry_Int_Tables_number   1
_chemical_formula_structural   La6Ce6Pr19Nd20Sm13(BiS2)64
_chemical_formula_sum   'La6 Ce6 Pr19 Nd20 Sm13 Bi64 S128'
_cell_volume   7031.13665373
_cell_formula_units_Z   1
loop_
 _symmetry_equiv_pos_site_id
 _symmetry_equiv_pos_as_xyz
  1  'x, y, z'
loop_
 _atom_type_symbol
 _atom_type_oxidation_number
  La3+  3.0
  Ce3+  3.0
  Pr3+  3.0
  Nd3+  3.0
  Sm3+  3.0
  Bi2+  2.0
  S2-  -2.0
loop_
 _atom_site_type_symbol
 _atom_site_label
 _atom_site_symmetry_multiplicity
 _atom_site_fract_x
 _atom_site_fract_y
 _atom_site_fract_z
 _atom_site_occupancy
  La3+  La0  1  0.02471775  0.11967320  0.58730789  1
  La3+  La1  1  0.86533124  0.48797221  0.92871728  1
  La3+  La2  1  0.27740246  0.61887319  0.56600517  1
  La3+  La3  1  0.76069414  0.87822247  0.07947081  1
  La3+  La4  1  0.74575736  0.36778420  0.08003141  1
  La3+  La5  1  0.75745624  0.11079461  0.57997439  1
  Ce3+  Ce6  1  0.39390052  0.24211838  0.42483049  1
  Ce3+  Ce7  1  0.89377085  0.74267635  0.44610183  1
  Ce3+  Ce8  1  0.49778717  0.62237068  0.06432316  1
  Ce3+  Ce9  1  -0.00442985  0.87601711  0.04238355  1
  Ce3+  Ce10  1  0.51571814  0.86712197  0.55171582  1
  Ce3+  Ce11  1  0.14325857  -0.00652143  0.44461221  1
  Pr3+  Pr12  1  0.24082174  0.37514583  0.06846347  1
  Pr3+  Pr13  1  0.02681382  0.37690855  0.58821681  1
  Pr3+  Pr14  1  0.37323630  -0.00336399  0.93228743  1
  Pr3+  Pr15  1  0.39480587  0.74454349  0.42322393  1
  Pr3+  Pr16  1  0.52074154  0.62139604  0.56141158  1
  Pr3+  Pr17  1  0.90065456  0.24176176  0.45017299  1
  Pr3+  Pr18  1  0.14473192  0.74293926  0.43956026  1
  Pr3+  Pr19  1  0.24293088  0.87365667  0.05760668  1
  Pr3+  Pr20  1  0.85778390  0.74917145  0.92480355  1
  Pr3+  Pr21  1  0.02915953  0.86775869  0.57597673  1
  Pr3+  Pr22  1  0.75583721  0.62411861  0.07396742  1
  Pr3+  Pr23  1  0.27913807  0.36745978  0.56674230  1
  Pr3+  Pr24  1  0.37052986  0.25086678  0.93546161  1
  Pr3+  Pr25  1  0.27596256  0.12066071  0.56421526  1
  Pr3+  Pr26  1  0.65279040  0.74106278  0.42492548  1
  Pr3+  Pr27  1  0.00249866  0.11909361  0.06091826  1
  Pr3+  Pr28  1  0.48524592  0.86437521  0.09345520  1
  Pr3+  Pr29  1  0.11894807  0.74641489  0.93186407  1
  Pr3+  Pr30  1  0.74681131  0.12397734  0.06975822  1
  Nd3+  Nd31  1  -0.00888568  0.37012373  0.06685977  1
  Nd3+  Nd32  1  0.62221723  0.74697372  0.95438928  1
  Nd3+  Nd33  1  0.11359102  0.49520682  0.93208980  1
  Nd3+  Nd34  1  0.11464434  0.24814283  0.93774003  1
  Nd3+  Nd35  1  0.65823519  -0.00651983  0.43101072  1
  Nd3+  Nd36  1  0.39514558  0.49287651  0.42606989  1
  Nd3+  Nd37  1  0.52130981  0.11824275  0.55012866  1
  Nd3+  Nd38  1  0.85853134  -0.00763668  0.92351501  1
  Nd3+  Nd39  1  0.37305447  0.74514601  0.93826509  1
  Nd3+  Nd40  1  0.49341998  0.37178084  0.07126328  1
  Nd3+  Nd41  1  0.65634990  0.24213297  0.42942855  1
  Nd3+  Nd42  1  0.39791488  -0.00524270  0.42476327  1
  Nd3+  Nd43  1  0.36539224  0.49579685  0.93665437  1
  Nd3+  Nd44  1  0.77343038  0.36779029  0.56882976  1
  Nd3+  Nd45  1  0.24823476  0.12342053  0.05620122  1
  Nd3+  Nd46  1  0.14044225  0.24321499  0.44550348  1
  Nd3+  Nd47  1  0.12441728  -0.00010389  0.91671193  1
  Nd3+  Nd48  1  0.77192581  0.86395880  0.56940497  1
  Nd3+  Nd49  1  0.24388046  0.62226943  0.05455810  1
  Nd3+  Nd50  1  0.89944094  0.48933371  0.44156394  1
  Sm3+  Sm51  1  0.49500175  0.11949183  0.06307119  1
  Sm3+  Sm52  1  0.61834366  -0.00540663  0.95254077  1
  Sm3+  Sm53  1  0.64593593  0.49133517  0.44612395  1
  Sm3+  Sm54  1  0.89570824  -0.00615509  0.45346315  1
  Sm3+  Sm55  1  0.02828984  0.61703475  0.56541945  1
  Sm3+  Sm56  1  0.14559167  0.49041031  0.44766752  1
  Sm3+  Sm57  1  -0.00894034  0.62345063  0.05112363  1
  Sm3+  Sm58  1  0.52011946  0.36676614  0.55225761  1
  Sm3+  Sm59  1  0.62045660  0.24680911  0.94638375  1
  Sm3+  Sm60  1  0.77105802  0.61738999  0.55947916  1
  Sm3+  Sm61  1  0.62316346  0.49412017  0.94799222  1
  Sm3+  Sm62  1  0.86097245  0.23698999  0.92938562  1
  Sm3+  Sm63  1  0.27410857  0.87019137  0.56170383  1
  Bi2+  Bi64  1  0.04794860  0.13823405  0.28822514  1
  Bi2+  Bi65  1  0.00929040  0.14728986  0.79876053  1
  Bi2+  Bi66  1  0.01289392  0.37534163  0.29656034  1
  Bi2+  Bi67  1  0.03701287  0.37289024  0.79278786  1
  Bi2+  Bi68  1  0.02276839  0.65888014  0.26972370  1
  Bi2+  Bi69  1  -0.04307530  0.61359251  0.78034684  1
  Bi2+  Bi70  1  -0.00338661  0.85480416  0.28189795  1
  Bi2+  Bi71  1  -0.03850244  0.80004342  0.76186201  1
  Bi2+  Bi72  1  0.23918842  0.17609873  0.30517862  1
  Bi2+  Bi73  1  0.30393571  0.11811283  0.77951538  1
  Bi2+  Bi74  1  0.22935547  0.37403027  0.28695554  1
  Bi2+  Bi75  1  0.30744571  0.39311401  0.79762643  1
  Bi2+  Bi76  1  0.23262515  0.59399372  0.30176484  1
  Bi2+  Bi77  1  0.26685460  0.64351874  0.79003786  1
  Bi2+  Bi78  1  0.19832562  0.90595181  0.30039246  1
  Bi2+  Bi79  1  0.33189322  0.91694656  0.76583642  1
  Bi2+  Bi80  1  0.40909207  0.13156526  0.24547055  1
  Bi2+  Bi81  1  0.52518513  0.11528896  0.78255454  1
  Bi2+  Bi82  1  0.47190171  0.39215739  0.26986478  1
  Bi2+  Bi83  1  0.51798752  0.38325255  0.78458953  1
  Bi2+  Bi84  1  0.41725737  0.58153742  0.25485318  1
  Bi2+  Bi85  1  0.53870544  0.68821322  0.78344218  1
  Bi2+  Bi86  1  0.45503766  0.94768088  0.28087758  1
  Bi2+  Bi87  1  0.50290158  0.93639217  0.82181114  1
  Bi2+  Bi88  1  0.72743096  0.12319099  0.30646085  1
  Bi2+  Bi89  1  0.72196436  0.11948736  0.79718916  1
  Bi2+  Bi90  1  0.73589636  0.37780371  0.31209177  1
  Bi2+  Bi91  1  0.71107124  0.38650639  0.78942688  1
  Bi2+  Bi92  1  0.77605649  0.62838009  0.27544014  1
  Bi2+  Bi93  1  0.75673331  0.62487264  0.79307110  1
  Bi2+  Bi94  1  0.72136585  0.86637216  0.31162284  1
  Bi2+  Bi95  1  0.72378467  0.86616640  0.79581371  1
  Bi2+  Bi96  1  0.05232097  -0.03983170  0.18174971  1
  Bi2+  Bi97  1  0.11368503  -0.00923925  0.71511961  1
  Bi2+  Bi98  1  0.16298056  0.24744810  0.20381942  1
  Bi2+  Bi99  1  0.19855745  0.24648795  0.71624129  1
  Bi2+  Bi100  1  0.16732411  0.50673487  0.20433224  1
  Bi2+  Bi101  1  0.13095364  0.51062248  0.71526230  1
  Bi2+  Bi102  1  0.13156764  0.78121584  0.20224346  1
  Bi2+  Bi103  1  0.15126140  0.75254815  0.72347884  1
  Bi2+  Bi104  1  0.26239137  0.01166590  0.21241734  1
  Bi2+  Bi105  1  0.40323890  0.03539777  0.68000628  1
  Bi2+  Bi106  1  0.34962918  0.24473035  0.15629033  1
  Bi2+  Bi107  1  0.37552807  0.22746043  0.67401365  1
  Bi2+  Bi108  1  0.36193113  0.43891657  0.17731153  1
  Bi2+  Bi109  1  0.39307468  0.50115744  0.71339472  1
  Bi2+  Bi110  1  0.33529915  0.75304848  0.21129433  1
  Bi2+  Bi111  1  0.40676774  0.75886830  0.70722292  1
  Bi2+  Bi112  1  0.66053221  0.00100130  0.20910063  1
  Bi2+  Bi113  1  0.59673070  -0.05036139  0.71975457  1
  Bi2+  Bi114  1  0.61088957  0.25188501  0.21252340  1
  Bi2+  Bi115  1  0.57896260  0.25451772  0.70075543  1
  Bi2+  Bi116  1  0.63894414  0.49486794  0.23527591  1
  Bi2+  Bi117  1  0.59050811  0.53912423  0.71689254  1
  Bi2+  Bi118  1  0.59535084  0.74432651  0.22001525  1
  Bi2+  Bi119  1  0.59811620  0.73450105  0.67423620  1
  Bi2+  Bi120  1  0.89877190  0.06939530  0.22769161  1
  Bi2+  Bi121  1  0.85646602  0.00030849  0.71690410  1
  Bi2+  Bi122  1  0.87305184  0.27119455  0.21913684  1
  Bi2+  Bi123  1  0.83437713  0.27310699  0.73244681  1
  Bi2+  Bi124  1  0.90647715  0.52206639  0.21876829  1
  Bi2+  Bi125  1  0.87247457  0.47724696  0.70878802  1
  Bi2+  Bi126  1  0.86637943  0.76158328  0.20911644  1
  Bi2+  Bi127  1  0.79117333  0.73900422  0.69990939  1
  S2-  S128  1  -0.04009028  0.18399115  0.15523933  1
  S2-  S129  1  -0.00311523  0.09555101  0.69245049  1
  S2-  S130  1  -0.11960034  0.40038066  0.14810164  1
  S2-  S131  1  -0.03251178  0.32519193  0.68344250  1
  S2-  S132  1  -0.09702136  0.63072166  0.13709510  1
  S2-  S133  1  -0.00022925  0.52781543  0.64798030  1
  S2-  S134  1  -0.07158872  0.86336488  0.13213171  1
  S2-  S135  1  -0.04043780  0.88293296  0.67083141  1
  S2-  S136  1  0.15089618  0.08734496  0.13636017  1
  S2-  S137  1  0.17627500  0.10959999  0.65018609  1
  S2-  S138  1  0.11379573  0.38119329  0.14217819  1
  S2-  S139  1  0.17525665  0.37996598  0.65279499  1
  S2-  S140  1  0.23059995  0.65224681  0.15300216  1
  S2-  S141  1  0.17110311  0.63080140  0.65210560  1
  S2-  S142  1  0.32822454  0.88611831  0.14629751  1
  S2-  S143  1  0.17030867  0.86814462  0.64582767  1
  S2-  S144  1  0.55421437  0.11435163  0.15690771  1
  S2-  S145  1  0.60226746  0.13107326  0.63861095  1
  S2-  S146  1  0.60196000  0.38067000  0.15169124  1
  S2-  S147  1  0.41873303  0.38522168  0.63355744  1
  S2-  S148  1  0.47081725  0.70653692  0.14962083  1
  S2-  S149  1  0.40149965  0.62003968  0.63868742  1
  S2-  S150  1  0.52584816  0.89967805  0.19185065  1
  S2-  S151  1  0.40485424  0.87542441  0.62989964  1
  S2-  S152  1  0.78303821  0.01936785  0.14807744  1
  S2-  S153  1  0.81076707  0.14277516  0.67517315  1
  S2-  S154  1  0.74283416  0.23509153  0.15310265  1
  S2-  S155  1  0.71854328  0.34815503  0.66315466  1
  S2-  S156  1  0.67741959  0.61535117  0.16904281  1
  S2-  S157  1  0.77657582  0.57670284  0.65523411  1
  S2-  S158  1  0.71367802  0.83864311  0.17892058  1
  S2-  S159  1  0.73656019  0.95656654  0.65122218  1
  S2-  S160  1  0.07705723  -0.00189069  0.35343543  1
  S2-  S161  1  0.06684894  -0.00056169  0.81696653  1
  S2-  S162  1  0.02194599  0.24823712  0.36951973  1
  S2-  S163  1  0.13733706  0.25333999  0.83769769  1
  S2-  S164  1  0.11124865  0.48106341  0.35039279  1
  S2-  S165  1  0.21792220  0.49920813  0.84897531  1
  S2-  S166  1  0.19308252  0.74518569  0.34300975  1
  S2-  S167  1  0.15309312  0.75012040  0.83243239  1
  S2-  S168  1  0.39254922  0.11988231  0.35243364  1
  S2-  S169  1  0.26613220  -0.00757544  0.85205020  1
  S2-  S170  1  0.37955716  0.36817993  0.35367227  1
  S2-  S171  1  0.38415477  0.24193062  0.83562143  1
  S2-  S172  1  0.39518953  0.61568798  0.35360880  1
  S2-  S173  1  0.43439674  0.48971528  0.84584249  1
  S2-  S174  1  0.37854067  0.87215646  0.35128672  1
  S2-  S175  1  0.39059768  0.72462819  0.83937711  1
  S2-  S176  1  0.59990444  -0.00240558  0.33205881  1
  S2-  S177  1  0.70091445  -0.00601763  0.86537261  1
  S2-  S178  1  0.60897437  0.24221080  0.32761530  1
  S2-  S179  1  0.70234262  0.25079916  0.85916691  1
  S2-  S180  1  0.64257208  0.50318709  0.34707379  1
  S2-  S181  1  0.72231950  0.49626109  0.86439930  1
  S2-  S182  1  0.59624374  0.76403093  0.32642807  1
  S2-  S183  1  0.70801263  0.73863868  0.86627344  1
  S2-  S184  1  0.80874568  -0.00548924  0.36639594  1
  S2-  S185  1  0.87443762  0.11450252  0.85046087  1
  S2-  S186  1  0.80045160  0.23376480  0.36436711  1
  S2-  S187  1  0.91145688  0.32004926  0.84260489  1
  S2-  S188  1  0.88102254  0.45653093  0.34315405  1
  S2-  S189  1  0.99454734  0.50511505  0.85497499  1
  S2-  S190  1  0.80429561  0.73699657  0.35950372  1
  S2-  S191  1  0.87313945  0.86723229  0.84529672  1
  S2-  S192  1  0.01951758  0.11349434  0.47156469  1
  S2-  S193  1  -0.00219526  0.12098654  0.94922238  1
  S2-  S194  1  0.02189449  0.37210851  0.47086292  1
  S2-  S195  1  -0.00623721  0.36851712  0.95799482  1
  S2-  S196  1  0.02071178  0.61675084  0.45645895  1
  S2-  S197  1  -0.01147502  0.62856288  0.94743815  1
  S2-  S198  1  0.01736447  0.86652411  0.46135733  1
  S2-  S199  1  -0.00098711  0.87517143  0.93822676  1
  S2-  S200  1  0.26549503  0.11905779  0.45493773  1
  S2-  S201  1  0.24725586  0.12606760  0.94940383  1
  S2-  S202  1  0.26473766  0.36663327  0.45630770  1
  S2-  S203  1  0.24332613  0.37206971  0.95631802  1
  S2-  S204  1  0.26565653  0.61479978  0.45466326  1
  S2-  S205  1  0.24496132  0.62323873  0.94929723  1
  S2-  S206  1  0.26738897  0.87000558  0.45529189  1
  S2-  S207  1  0.24799793  0.86759877  0.94986533  1
  S2-  S208  1  0.53058102  0.11950401  0.44567455  1
  S2-  S209  1  0.49607623  0.12250736  0.95346894  1
  S2-  S210  1  0.52637453  0.36710603  0.44799210  1
  S2-  S211  1  0.49780085  0.37296636  0.95813159  1
  S2-  S212  1  0.52814345  0.61828557  0.45225941  1
  S2-  S213  1  0.49825367  0.61873298  0.95561439  1
  S2-  S214  1  0.52751317  0.86865433  0.44614747  1
  S2-  S215  1  0.49577740  0.86972607  0.95327253  1
  S2-  S216  1  0.77355324  0.11681884  0.46949046  1
  S2-  S217  1  0.73846119  0.12132944  0.96281572  1
  S2-  S218  1  0.77261945  0.37209579  0.46083570  1
  S2-  S219  1  0.74250349  0.36625504  0.96557978  1
  S2-  S220  1  0.77182424  0.61154330  0.45556208  1
  S2-  S221  1  0.74327308  0.61868626  0.96585375  1
  S2-  S222  1  0.77377514  0.86575076  0.46359453  1
  S2-  S223  1  0.74134582  0.87376148  0.96698185  1
  S2-  S224  1  0.12454924  -0.00410309  0.02697931  1
  S2-  S225  1  0.14806112  -0.00516774  0.54849390  1
  S2-  S226  1  0.12348807  0.24753455  0.04338479  1
  S2-  S227  1  0.14615763  0.24516548  0.55170698  1
  S2-  S228  1  0.11638598  0.50259732  0.04000104  1
  S2-  S229  1  0.15017201  0.49475662  0.54964301  1
  S2-  S230  1  0.11822962  0.74613553  0.04123682  1
  S2-  S231  1  0.14716588  0.74267025  0.54560364  1
  S2-  S232  1  0.37306169  -0.00210471  0.04283923  1
  S2-  S233  1  0.39526625  -0.00301230  0.53225956  1
  S2-  S234  1  0.37283631  0.24863480  0.04193388  1
  S2-  S235  1  0.39966837  0.24244507  0.53342529  1
  S2-  S236  1  0.37024304  0.49851127  0.04574983  1
  S2-  S237  1  0.40074564  0.49402813  0.53236164  1
  S2-  S238  1  0.36920534  0.74715442  0.04368882  1
  S2-  S239  1  0.39512388  0.74377142  0.53168811  1
  S2-  S240  1  0.61152423  -0.01053819  0.05598160  1
  S2-  S241  1  0.64077033  -0.01409380  0.53934242  1
  S2-  S242  1  0.61195547  0.24495278  0.04915757  1
  S2-  S243  1  0.64605713  0.24992405  0.53967952  1
  S2-  S244  1  0.62131198  0.49824896  0.05163275  1
  S2-  S245  1  0.64415442  0.49277091  0.55233421  1
  S2-  S246  1  0.62200420  0.75040074  0.05906849  1
  S2-  S247  1  0.64903392  0.74244318  0.54125939  1
  S2-  S248  1  0.87584399  0.00226632  0.03455940  1
  S2-  S249  1  0.89873684  -0.00957099  0.55834431  1
  S2-  S250  1  0.87366870  0.24318614  0.04026306  1
  S2-  S251  1  0.89658623  0.24310933  0.56039178  1
  S2-  S252  1  0.87265702  0.49692924  0.03893186  1
  S2-  S253  1  0.89442592  0.49527180  0.54793778  1
  S2-  S254  1  0.87205859  0.74899798  0.03283138  1
  S2-  S255  1  0.89908157  0.73854938  0.55492223  1
