# generated using pymatgen
data_La6Ce6Pr19Nd20Sm13(BiS2)64
_symmetry_space_group_name_H-M   'P 1'
_cell_length_a   16.09372713
_cell_length_b   16.08637242
_cell_length_c   27.43360793
_cell_angle_alpha   90.08892464
_cell_angle_beta   90.11385679
_cell_angle_gamma   89.92773463
_symmetry_Int_Tables_number   1
_chemical_formula_structural   La6Ce6Pr19Nd20Sm13(BiS2)64
_chemical_formula_sum   'La6 Ce6 Pr19 Nd20 Sm13 Bi64 S128'
_cell_volume   7102.25000672
_cell_formula_units_Z   1
loop_
 _symmetry_equiv_pos_site_id
 _symmetry_equiv_pos_as_xyz
  1  'x, y, z'
loop_
 _atom_type_symbol
 _atom_type_oxidation_number
  La3+  3.0
  Ce3+  3.0
  Pr3+  3.0
  Nd3+  3.0
  Sm3+  3.0
  Bi2+  2.0
  S2-  -2.0
loop_
 _atom_site_type_symbol
 _atom_site_label
 _atom_site_symmetry_multiplicity
 _atom_site_fract_x
 _atom_site_fract_y
 _atom_site_fract_z
 _atom_site_occupancy
  La3+  La0  1  0.00372400  0.88943037  0.56148795  1
  La3+  La1  1  0.13423473  0.49444359  0.89212884  1
  La3+  La2  1  0.38028430  0.00620090  0.91191984  1
  La3+  La3  1  0.51084277  0.38239925  0.11952887  1
  La3+  La4  1  0.86145069  0.49910638  0.90225591  1
  La3+  La5  1  0.00447170  0.87285340  0.10179751  1
  Ce3+  Ce6  1  0.88808578  0.49832043  0.44493732  1
  Ce3+  Ce7  1  0.00239681  0.11728365  0.05414525  1
  Ce3+  Ce8  1  0.49899289  0.87873806  0.06107151  1
  Ce3+  Ce9  1  0.00971863  0.63237141  0.56665736  1
  Ce3+  Ce10  1  0.26056131  0.37692983  0.55585076  1
  Ce3+  Ce11  1  0.25791611  0.87890226  0.56118676  1
  Pr3+  Pr12  1  0.38118682  0.74645382  0.92845888  1
  Pr3+  Pr13  1  0.75495355  0.11776494  0.06507200  1
  Pr3+  Pr14  1  0.50788364  0.12774915  0.57543315  1
  Pr3+  Pr15  1  0.62936628  -0.00050939  0.93190932  1
  Pr3+  Pr16  1  0.25060700  0.11764290  0.05452014  1
  Pr3+  Pr17  1  0.38376806  0.75227801  0.44297921  1
  Pr3+  Pr18  1  0.75339531  0.86944113  0.05122043  1
  Pr3+  Pr19  1  0.87569057  0.00260665  0.41483485  1
  Pr3+  Pr20  1  0.37551248  0.25063315  0.94304149  1
  Pr3+  Pr21  1  0.76368550  0.37440874  0.56634231  1
  Pr3+  Pr22  1  0.13314651  0.00608074  0.41767400  1
  Pr3+  Pr23  1  0.13275498  0.74728230  0.92700003  1
  Pr3+  Pr24  1  0.77168078  0.10160416  0.58822457  1
  Pr3+  Pr25  1  0.51149019  0.37826640  0.56343933  1
  Pr3+  Pr26  1  0.38615951  0.00254993  0.43923300  1
  Pr3+  Pr27  1  0.51283093  0.87764978  0.56468290  1
  Pr3+  Pr28  1  0.87716345  0.25500770  0.94484119  1
  Pr3+  Pr29  1  0.13183428  0.75658554  0.43002974  1
  Pr3+  Pr30  1  0.75183584  0.62245209  0.06262129  1
  Nd3+  Nd31  1  0.00551917  0.37547876  0.06340381  1
  Nd3+  Nd32  1  0.87802892  -0.00392772  0.93884544  1
  Nd3+  Nd33  1  0.13239067  0.49905992  0.44028530  1
  Nd3+  Nd34  1  0.12438343  0.25475323  0.93733049  1
  Nd3+  Nd35  1  0.50021814  0.12276051  0.06482215  1
  Nd3+  Nd36  1  0.75341898  0.37376139  0.06941970  1
  Nd3+  Nd37  1  0.62396377  0.74459482  0.94361919  1
  Nd3+  Nd38  1  0.63840217  0.49915288  0.44063283  1
  Nd3+  Nd39  1  0.01559887  0.37536855  0.56789009  1
  Nd3+  Nd40  1  0.24811087  0.36996003  0.07103788  1
  Nd3+  Nd41  1  0.51149239  0.62746021  0.55371308  1
  Nd3+  Nd42  1  0.76038920  0.87592171  0.54880853  1
  Nd3+  Nd43  1  0.63498907  0.00387253  0.43532261  1
  Nd3+  Nd44  1  0.38665393  0.24872532  0.44361973  1
  Nd3+  Nd45  1  0.89184876  0.75226044  0.42745583  1
  Nd3+  Nd46  1  0.62817703  0.25100496  0.94874122  1
  Nd3+  Nd47  1  0.12479248  -0.00544662  0.93500074  1
  Nd3+  Nd48  1  0.25492875  0.62970341  0.55628593  1
  Nd3+  Nd49  1  0.24941870  0.62331017  0.05413941  1
  Nd3+  Nd50  1  0.25178281  0.87032303  0.05439294  1
  Sm3+  Sm51  1  0.49624298  0.62218415  0.06593367  1
  Sm3+  Sm52  1  0.76389019  0.62751195  0.55274396  1
  Sm3+  Sm53  1  0.62545157  0.49644046  0.94929267  1
  Sm3+  Sm54  1  0.38369057  0.49993580  0.44541310  1
  Sm3+  Sm55  1  0.13355357  0.24942893  0.43840002  1
  Sm3+  Sm56  1  0.25821902  0.12348020  0.56494945  1
  Sm3+  Sm57  1  0.88354476  0.74385571  0.93500252  1
  Sm3+  Sm58  1  0.01930430  0.12465876  0.55766702  1
  Sm3+  Sm59  1  0.88348970  0.24426778  0.45653367  1
  Sm3+  Sm60  1  0.37430706  0.49397696  0.94869473  1
  Sm3+  Sm61  1  0.63543556  0.24983693  0.45155889  1
  Sm3+  Sm62  1  0.63421337  0.74990120  0.43812611  1
  Sm3+  Sm63  1  0.00366992  0.62520719  0.04828328  1
  Bi2+  Bi64  1  -0.03251451  0.12736559  0.27951181  1
  Bi2+  Bi65  1  -0.00598020  0.16246140  0.75159540  1
  Bi2+  Bi66  1  -0.02355160  0.36887520  0.29967695  1
  Bi2+  Bi67  1  -0.00481090  0.35178282  0.78173842  1
  Bi2+  Bi68  1  -0.01699055  0.61941274  0.23204901  1
  Bi2+  Bi69  1  -0.01110795  0.65507478  0.78718149  1
  Bi2+  Bi70  1  0.02070943  0.84618405  0.30357480  1
  Bi2+  Bi71  1  -0.04998917  0.89541757  0.77547877  1
  Bi2+  Bi72  1  0.23423408  0.11781099  0.27981862  1
  Bi2+  Bi73  1  0.24953627  0.12209614  0.78135322  1
  Bi2+  Bi74  1  0.24890402  0.38391583  0.30521020  1
  Bi2+  Bi75  1  0.27594644  0.36642332  0.78774100  1
  Bi2+  Bi76  1  0.26230882  0.66422769  0.29944529  1
  Bi2+  Bi77  1  0.28455047  0.65565342  0.76401729  1
  Bi2+  Bi78  1  0.29107196  0.85397460  0.27206232  1
  Bi2+  Bi79  1  0.20043680  0.87293771  0.79665547  1
  Bi2+  Bi80  1  0.48422550  0.12040712  0.31644879  1
  Bi2+  Bi81  1  0.49386484  0.12949039  0.78503980  1
  Bi2+  Bi82  1  0.50923067  0.37420239  0.32551004  1
  Bi2+  Bi83  1  0.47625831  0.37945218  0.79515064  1
  Bi2+  Bi84  1  0.46718570  0.64240765  0.23755462  1
  Bi2+  Bi85  1  0.47045600  0.58027896  0.80838465  1
  Bi2+  Bi86  1  0.53124419  0.87580331  0.32736590  1
  Bi2+  Bi87  1  0.55192448  0.84953955  0.78983759  1
  Bi2+  Bi88  1  0.75779501  0.17190453  0.29885295  1
  Bi2+  Bi89  1  0.78854129  0.12950062  0.82489278  1
  Bi2+  Bi90  1  0.77504953  0.41710378  0.28962361  1
  Bi2+  Bi91  1  0.74142329  0.34905092  0.79361106  1
  Bi2+  Bi92  1  0.80027318  0.62117343  0.27698858  1
  Bi2+  Bi93  1  0.65786748  0.58771598  0.77712979  1
  Bi2+  Bi94  1  0.72225974  0.88289023  0.29200568  1
  Bi2+  Bi95  1  0.71602031  0.95079388  0.80682767  1
  Bi2+  Bi96  1  0.15601827  0.00967511  0.20228489  1
  Bi2+  Bi97  1  0.06318095  -0.01013935  0.69441343  1
  Bi2+  Bi98  1  0.12655559  0.27451107  0.23859325  1
  Bi2+  Bi99  1  0.15897309  0.24583158  0.70950204  1
  Bi2+  Bi100  1  0.10695585  0.47000511  0.20971664  1
  Bi2+  Bi101  1  0.12279499  0.50452846  0.69674799  1
  Bi2+  Bi102  1  0.16838285  0.73428361  0.21148417  1
  Bi2+  Bi103  1  0.12296061  0.75872494  0.68421197  1
  Bi2+  Bi104  1  0.37420330  -0.00577035  0.20125862  1
  Bi2+  Bi105  1  0.36491476  0.00581164  0.72250569  1
  Bi2+  Bi106  1  0.37718451  0.24922096  0.21416545  1
  Bi2+  Bi107  1  0.38933291  0.24640012  0.71070317  1
  Bi2+  Bi108  1  0.30826253  0.51633261  0.22834235  1
  Bi2+  Bi109  1  0.38294283  0.48743256  0.71583353  1
  Bi2+  Bi110  1  0.40093795  0.79914286  0.17458571  1
  Bi2+  Bi111  1  0.43913659  0.74656073  0.71809126  1
  Bi2+  Bi112  1  0.56532226  -0.00111419  0.23943655  1
  Bi2+  Bi113  1  0.60961198  -0.04723954  0.69316155  1
  Bi2+  Bi114  1  0.63906336  0.23531356  0.21660376  1
  Bi2+  Bi115  1  0.65617466  0.19724426  0.73497449  1
  Bi2+  Bi116  1  0.65786831  0.52402659  0.22148660  1
  Bi2+  Bi117  1  0.57962499  0.45302436  0.70406122  1
  Bi2+  Bi118  1  0.58308651  0.79593246  0.21491512  1
  Bi2+  Bi119  1  0.64662958  0.72902009  0.69982937  1
  Bi2+  Bi120  1  0.86822270  0.01731231  0.20146756  1
  Bi2+  Bi121  1  0.83382801  0.05059369  0.71536503  1
  Bi2+  Bi122  1  0.88217807  0.26846743  0.21458197  1
  Bi2+  Bi123  1  0.83788932  0.25488668  0.70470511  1
  Bi2+  Bi124  1  0.91244961  0.45128214  0.18299441  1
  Bi2+  Bi125  1  0.85876738  0.52624703  0.69619571  1
  Bi2+  Bi126  1  0.84643704  0.75869523  0.19599892  1
  Bi2+  Bi127  1  0.79337016  0.77618200  0.77684055  1
  S2-  S128  1  0.01447574  0.05837936  0.14540418  1
  S2-  S129  1  -0.06296674  0.04278237  0.62922851  1
  S2-  S130  1  0.11683776  0.34055354  0.14093588  1
  S2-  S131  1  -0.01257070  0.41010959  0.66436767  1
  S2-  S132  1  -0.00664867  0.70257942  0.13709755  1
  S2-  S133  1  0.00849784  0.62238470  0.66736330  1
  S2-  S134  1  -0.03440774  0.88425450  0.20586271  1
  S2-  S135  1  -0.01523487  0.83018037  0.65687964  1
  S2-  S136  1  0.27428555  0.12149733  0.15441847  1
  S2-  S137  1  0.13594328  0.12509207  0.63670299  1
  S2-  S138  1  0.34432319  0.37332362  0.15569348  1
  S2-  S139  1  0.20610655  0.38041845  0.64706864  1
  S2-  S140  1  0.25470523  0.62716178  0.15487005  1
  S2-  S141  1  0.23279183  0.62491297  0.65417097  1
  S2-  S142  1  0.16752417  0.87477623  0.14313283  1
  S2-  S143  1  0.20333258  0.89315647  0.65507287  1
  S2-  S144  1  0.50573293  0.21256900  0.15203500  1
  S2-  S145  1  0.37117373  0.10962286  0.64304473  1
  S2-  S146  1  0.50685496  0.35967730  0.23139388  1
  S2-  S147  1  0.51015862  0.31016067  0.65409807  1
  S2-  S148  1  0.51138479  0.55232468  0.15513669  1
  S2-  S149  1  0.51437882  0.64019015  0.65148100  1
  S2-  S150  1  0.51336034  0.99397490  0.13501110  1
  S2-  S151  1  0.44464148  0.89429371  0.65672539  1
  S2-  S152  1  0.73590977  0.12602121  0.16474583  1
  S2-  S153  1  0.62655886  0.10674856  0.64933249  1
  S2-  S154  1  0.67858298  0.37578932  0.15900442  1
  S2-  S155  1  0.74226256  0.43516144  0.65958990  1
  S2-  S156  1  0.73580197  0.63152658  0.16242497  1
  S2-  S157  1  0.78785378  0.65160020  0.64823581  1
  S2-  S158  1  0.77734419  0.89532141  0.14899986  1
  S2-  S159  1  0.75389937  0.93350036  0.64298641  1
  S2-  S160  1  0.16600231  -0.12783563  0.35127023  1
  S2-  S161  1  0.14726495  0.01537709  0.83645633  1
  S2-  S162  1  0.14717595  0.15584426  0.35777897  1
  S2-  S163  1  0.12610483  0.33122473  0.84799726  1
  S2-  S164  1  0.11378799  0.45544040  0.34491394  1
  S2-  S165  1  0.14629739  0.57732051  0.79258137  1
  S2-  S166  1  0.01748405  0.71168306  0.35542230  1
  S2-  S167  1  0.05173431  0.78223768  0.83520333  1
  S2-  S168  1  0.35467714  0.02855302  0.34136361  1
  S2-  S169  1  0.34465225  -0.07434992  0.81894867  1
  S2-  S170  1  0.38019747  0.25335762  0.34433639  1
  S2-  S171  1  0.36847341  0.16260150  0.85499789  1
  S2-  S172  1  0.38207431  0.48617101  0.34901869  1
  S2-  S173  1  0.30333010  0.48022030  0.85891031  1
  S2-  S174  1  0.39336317  0.76219606  0.34400037  1
  S2-  S175  1  0.26355969  0.73877186  0.85324392  1
  S2-  S176  1  0.73092445  0.02882141  0.35176205  1
  S2-  S177  1  0.52884703  0.00439525  0.85077898  1
  S2-  S178  1  0.61058386  0.23387884  0.35401577  1
  S2-  S179  1  0.64392323  0.23319497  0.84998001  1
  S2-  S180  1  0.62889365  0.48858156  0.34261890  1
  S2-  S181  1  0.69404664  0.48776892  0.85838005  1
  S2-  S182  1  0.64397923  0.74356321  0.34102835  1
  S2-  S183  1  0.52064955  0.73318363  0.86258803  1
  S2-  S184  1  1.00170849  0.00658622  0.34428596  1
  S2-  S185  1  0.92054127  0.01942780  0.84348430  1
  S2-  S186  1  0.89107751  0.21713100  0.35992794  1
  S2-  S187  1  0.87096216  0.33496368  0.85538934  1
  S2-  S188  1  0.88208966  0.51213519  0.34775985  1
  S2-  S189  1  0.98614206  0.49909825  0.83220798  1
  S2-  S190  1  0.86182772  0.85460822  0.34586806  1
  S2-  S191  1  0.85080385  0.66145907  0.85044672  1
  S2-  S192  1  0.01022836  0.12813464  0.45594598  1
  S2-  S193  1  0.00131626  0.12567989  0.94818621  1
  S2-  S194  1  0.00948675  0.37001806  0.45934461  1
  S2-  S195  1  0.00274404  0.38023243  0.95706380  1
  S2-  S196  1  0.01041943  0.62188217  0.46004893  1
  S2-  S197  1  0.00580125  0.61905917  0.94463939  1
  S2-  S198  1  0.00774532  0.88022370  0.45196379  1
  S2-  S199  1  -0.00019255  0.87099212  0.94407001  1
  S2-  S200  1  0.26225770  0.12774569  0.45955319  1
  S2-  S201  1  0.24558841  0.12303618  0.94920450  1
  S2-  S202  1  0.25935584  0.37425627  0.45067489  1
  S2-  S203  1  0.24801362  0.37352787  0.96199162  1
  S2-  S204  1  0.25766361  0.62376216  0.45012497  1
  S2-  S205  1  0.24942165  0.61519364  0.95121845  1
  S2-  S206  1  0.26291178  0.87804234  0.45554464  1
  S2-  S207  1  0.25685906  0.87795370  0.94879710  1
  S2-  S208  1  0.51186029  0.12702041  0.46211958  1
  S2-  S209  1  0.50455548  0.12605157  0.95747222  1
  S2-  S210  1  0.50999775  0.37736511  0.45706767  1
  S2-  S211  1  0.50255714  0.37470632  0.94596604  1
  S2-  S212  1  0.50974849  0.62351056  0.44810939  1
  S2-  S213  1  0.50047474  0.61547665  0.96206315  1
  S2-  S214  1  0.51282173  0.87584827  0.45699614  1
  S2-  S215  1  0.50337197  0.87605195  0.95460893  1
  S2-  S216  1  0.75542946  0.13066948  0.45966815  1
  S2-  S217  1  0.75480037  0.12387913  0.95794524  1
  S2-  S218  1  0.76151493  0.37279198  0.45797933  1
  S2-  S219  1  0.75187989  0.37754854  0.96376669  1
  S2-  S220  1  0.76139424  0.62718568  0.44763630  1
  S2-  S221  1  0.75049508  0.62180004  0.95762059  1
  S2-  S222  1  0.75317523  0.87182926  0.44676561  1
  S2-  S223  1  0.75375112  0.86635939  0.94408264  1
  S2-  S224  1  0.12337721  -0.00898354  0.03989765  1
  S2-  S225  1  0.13755187  0.00081044  0.53595692  1
  S2-  S226  1  0.12373181  0.24154210  0.04105755  1
  S2-  S227  1  0.13757647  0.25334901  0.54133169  1
  S2-  S228  1  0.12449664  0.50279607  0.05531439  1
  S2-  S229  1  0.13285855  0.50223471  0.54591543  1
  S2-  S230  1  0.12654732  0.74831292  0.03694995  1
  S2-  S231  1  0.13191910  0.75526489  0.54146358  1
  S2-  S232  1  0.37437187  -0.00386572  0.03845735  1
  S2-  S233  1  0.38570484  -0.00092899  0.54403172  1
  S2-  S234  1  0.37280868  0.24586155  0.04733165  1
  S2-  S235  1  0.38382430  0.25241620  0.54805676  1
  S2-  S236  1  0.37542009  0.49765674  0.05134980  1
  S2-  S237  1  0.38381956  0.50468515  0.55054033  1
  S2-  S238  1  0.37781963  0.74613880  0.03881655  1
  S2-  S239  1  0.38458948  0.75138050  0.54951424  1
  S2-  S240  1  0.63241683  -0.00271869  0.03816721  1
  S2-  S241  1  0.63473756  0.00136214  0.54097994  1
  S2-  S242  1  0.63179207  0.24680089  0.05225446  1
  S2-  S243  1  0.63944162  0.25046143  0.55435418  1
  S2-  S244  1  0.62309263  0.49691129  0.05237333  1
  S2-  S245  1  0.63830853  0.50340125  0.54681137  1
  S2-  S246  1  0.62174917  0.74579102  0.05029605  1
  S2-  S247  1  0.63658628  0.74971279  0.54348622  1
  S2-  S248  1  0.88235704  -0.01039478  0.04499167  1
  S2-  S249  1  0.87655496  0.00119934  0.52538651  1
  S2-  S250  1  0.87852202  0.24781531  0.05299862  1
  S2-  S251  1  0.88844026  0.24537552  0.56058038  1
  S2-  S252  1  0.87977933  0.50065752  0.05644280  1
  S2-  S253  1  0.88792748  0.50105818  0.55036811  1
  S2-  S254  1  0.87711298  0.74666025  0.03866590  1
  S2-  S255  1  0.88446098  0.75228004  0.53885284  1
