# generated using pymatgen
data_La6Ce6Pr19Nd20Sm13(BiS2)64
_symmetry_space_group_name_H-M   'P 1'
_cell_length_a   16.17276267
_cell_length_b   16.12208769
_cell_length_c   27.27062448
_cell_angle_alpha   89.96450585
_cell_angle_beta   90.05828498
_cell_angle_gamma   89.98483112
_symmetry_Int_Tables_number   1
_chemical_formula_structural   La6Ce6Pr19Nd20Sm13(BiS2)64
_chemical_formula_sum   'La6 Ce6 Pr19 Nd20 Sm13 Bi64 S128'
_cell_volume   7110.50182345
_cell_formula_units_Z   1
loop_
 _symmetry_equiv_pos_site_id
 _symmetry_equiv_pos_as_xyz
  1  'x, y, z'
loop_
 _atom_type_symbol
 _atom_type_oxidation_number
  La3+  3.0
  Ce3+  3.0
  Pr3+  3.0
  Nd3+  3.0
  Sm3+  3.0
  Bi2+  2.0
  S2-  -2.0
loop_
 _atom_site_type_symbol
 _atom_site_label
 _atom_site_symmetry_multiplicity
 _atom_site_fract_x
 _atom_site_fract_y
 _atom_site_fract_z
 _atom_site_occupancy
  La3+  La0  1  0.86672184  0.23893847  0.90387413  1
  La3+  La1  1  0.24865253  0.38125242  0.06529890  1
  La3+  La2  1  0.86974811  0.26054944  0.39406293  1
  La3+  La3  1  0.00448384  0.12879030  0.10842180  1
  La3+  La4  1  0.12355954  0.24807146  0.93519460  1
  La3+  La5  1  0.38286692  -0.00361549  0.89095916  1
  Ce3+  Ce6  1  0.24959044  0.62553564  0.55648938  1
  Ce3+  Ce7  1  -0.00139796  0.13047364  0.55397001  1
  Ce3+  Ce8  1  0.75297472  0.87755943  0.05679539  1
  Ce3+  Ce9  1  0.75395807  0.13228895  0.56184117  1
  Ce3+  Ce10  1  0.00132888  0.87836744  0.55760028  1
  Ce3+  Ce11  1  0.37467417  0.00232918  0.45212821  1
  Pr3+  Pr12  1  0.49845239  0.87982667  0.58041819  1
  Pr3+  Pr13  1  -0.00294759  0.38178513  0.58572694  1
  Pr3+  Pr14  1  0.75521878  0.37759682  0.06298640  1
  Pr3+  Pr15  1  -0.00075262  0.37934245  0.05715310  1
  Pr3+  Pr16  1  0.12580810  0.75188359  0.94094066  1
  Pr3+  Pr17  1  0.49601755  0.12715045  0.06178137  1
  Pr3+  Pr18  1  0.87297382  0.00000160  0.43652175  1
  Pr3+  Pr19  1  0.74635768  0.63199347  0.56465855  1
  Pr3+  Pr20  1  0.62808779  0.49643871  0.43982749  1
  Pr3+  Pr21  1  0.48997550  0.13250878  0.58280560  1
  Pr3+  Pr22  1  0.62605377  0.25109296  0.94413996  1
  Pr3+  Pr23  1  0.87638360  0.75573023  0.93618003  1
  Pr3+  Pr24  1  0.75091280  0.38235069  0.57584894  1
  Pr3+  Pr25  1  0.50039582  0.38008058  0.05989950  1
  Pr3+  Pr26  1  0.62254582  0.75313131  0.44086037  1
  Pr3+  Pr27  1  0.25573683  0.13269157  0.07052779  1
  Pr3+  Pr28  1  0.00222492  0.87848658  0.06281887  1
  Pr3+  Pr29  1  0.37498827  0.50007682  0.92752010  1
  Pr3+  Pr30  1  0.24982444  0.88015677  0.05351698  1
  Nd3+  Nd31  1  0.37180615  0.24575883  0.43754619  1
  Nd3+  Nd32  1  0.37416356  0.75117543  0.93458308  1
  Nd3+  Nd33  1  0.12457655  0.00695563  0.94195523  1
  Nd3+  Nd34  1  0.12546392  0.24894388  0.43298225  1
  Nd3+  Nd35  1  0.37307103  0.25137465  0.93295776  1
  Nd3+  Nd36  1  0.49844517  0.37294760  0.55987155  1
  Nd3+  Nd37  1  0.86689682  0.50029603  0.92240656  1
  Nd3+  Nd38  1  0.75440350  0.12626829  0.06614780  1
  Nd3+  Nd39  1  0.49761981  0.87718855  0.05728147  1
  Nd3+  Nd40  1  0.12259271  0.49808116  0.93156841  1
  Nd3+  Nd41  1  0.62746587  0.50207032  0.93980139  1
  Nd3+  Nd42  1  0.12851312  -0.00691275  0.43125125  1
  Nd3+  Nd43  1  0.37334075  0.49788750  0.44097001  1
  Nd3+  Nd44  1  0.75107198  0.87558912  0.56682318  1
  Nd3+  Nd45  1  0.37506762  0.75393127  0.44418295  1
  Nd3+  Nd46  1  0.62301787  0.00355244  0.94153175  1
  Nd3+  Nd47  1  0.25173312  0.87460851  0.57385537  1
  Nd3+  Nd48  1  0.87565689  0.49684180  0.44484914  1
  Nd3+  Nd49  1  0.87279319  0.75211237  0.43341004  1
  Nd3+  Nd50  1  0.12153590  0.49735967  0.44272075  1
  Sm3+  Sm51  1  0.62550052  0.24943617  0.44547324  1
  Sm3+  Sm52  1  -0.00100451  0.62220665  0.05369629  1
  Sm3+  Sm53  1  0.25240538  0.62425856  0.05979109  1
  Sm3+  Sm54  1  0.49979463  0.62732317  0.05070755  1
  Sm3+  Sm55  1  0.24752229  0.37255325  0.56135774  1
  Sm3+  Sm56  1  -0.00043747  0.62614856  0.55750434  1
  Sm3+  Sm57  1  0.62469987  0.75551396  0.94366836  1
  Sm3+  Sm58  1  0.62388948  0.00350687  0.45069551  1
  Sm3+  Sm59  1  0.49813037  0.62488244  0.55422351  1
  Sm3+  Sm60  1  0.12595911  0.75234717  0.44199991  1
  Sm3+  Sm61  1  0.75191209  0.62798634  0.05300296  1
  Sm3+  Sm62  1  0.24153799  0.12034519  0.56925282  1
  Sm3+  Sm63  1  0.87637629  0.00516181  0.94451904  1
  Bi2+  Bi64  1  0.01467971  0.09124560  0.30634143  1
  Bi2+  Bi65  1  -0.01735123  0.08257789  0.78301483  1
  Bi2+  Bi66  1  -0.00288985  0.38766360  0.29182689  1
  Bi2+  Bi67  1  0.03702640  0.38489494  0.78946469  1
  Bi2+  Bi68  1  -0.00468795  0.64792048  0.29802249  1
  Bi2+  Bi69  1  0.01169698  0.66454496  0.72360243  1
  Bi2+  Bi70  1  0.00711597  0.84624412  0.29077279  1
  Bi2+  Bi71  1  -0.02973576  0.85379906  0.80064878  1
  Bi2+  Bi72  1  0.30218465  0.12842355  0.29299543  1
  Bi2+  Bi73  1  0.23152103  0.14290274  0.79589578  1
  Bi2+  Bi74  1  0.25851721  0.39279790  0.29586097  1
  Bi2+  Bi75  1  0.27445016  0.40644494  0.78969986  1
  Bi2+  Bi76  1  0.20860901  0.65384594  0.27799937  1
  Bi2+  Bi77  1  0.27245421  0.61736515  0.82957858  1
  Bi2+  Bi78  1  0.27202500  0.83879149  0.29083228  1
  Bi2+  Bi79  1  0.24674310  0.81147418  0.78987505  1
  Bi2+  Bi80  1  0.48025675  0.20316477  0.32493260  1
  Bi2+  Bi81  1  0.54009516  0.15872036  0.76447048  1
  Bi2+  Bi82  1  0.48425407  0.39049289  0.29218729  1
  Bi2+  Bi83  1  0.53406323  0.35088075  0.79434752  1
  Bi2+  Bi84  1  0.51655739  0.67664611  0.27564122  1
  Bi2+  Bi85  1  0.46086426  0.59646857  0.81170471  1
  Bi2+  Bi86  1  0.46457571  0.88876206  0.30216186  1
  Bi2+  Bi87  1  0.52886711  0.88255119  0.78582566  1
  Bi2+  Bi88  1  0.72108927  0.11243071  0.29598145  1
  Bi2+  Bi89  1  0.72462883  0.11719978  0.78683517  1
  Bi2+  Bi90  1  0.73201169  0.38796647  0.28972697  1
  Bi2+  Bi91  1  0.76886630  0.38739396  0.79453749  1
  Bi2+  Bi92  1  0.79784545  0.64900597  0.31025912  1
  Bi2+  Bi93  1  0.64825705  0.62854854  0.78421047  1
  Bi2+  Bi94  1  0.75883922  0.84283468  0.28698992  1
  Bi2+  Bi95  1  0.77387128  0.85993628  0.80382541  1
  Bi2+  Bi96  1  0.14009662  -0.03631778  0.21274469  1
  Bi2+  Bi97  1  0.08564290  -0.02945863  0.71359838  1
  Bi2+  Bi98  1  0.13448456  0.24038486  0.21319186  1
  Bi2+  Bi99  1  0.16387007  0.22801126  0.69531221  1
  Bi2+  Bi100  1  0.11775946  0.53900999  0.20307917  1
  Bi2+  Bi101  1  0.17743702  0.55091025  0.73414882  1
  Bi2+  Bi102  1  0.08414025  0.73527883  0.19600054  1
  Bi2+  Bi103  1  0.17596559  0.75141356  0.69086552  1
  Bi2+  Bi104  1  0.38043332  -0.02031413  0.20785905  1
  Bi2+  Bi105  1  0.35704944  -0.00164924  0.70144301  1
  Bi2+  Bi106  1  0.39273208  0.25468722  0.20694167  1
  Bi2+  Bi107  1  0.38822386  0.26756365  0.71680429  1
  Bi2+  Bi108  1  0.39066815  0.51374715  0.20235878  1
  Bi2+  Bi109  1  0.42805995  0.47382564  0.72068336  1
  Bi2+  Bi110  1  0.35714015  0.70361632  0.20550944  1
  Bi2+  Bi111  1  0.38795768  0.71821115  0.71552508  1
  Bi2+  Bi112  1  0.56569250  0.03769346  0.24891437  1
  Bi2+  Bi113  1  0.65548421  -0.02469819  0.71485204  1
  Bi2+  Bi114  1  0.58690640  0.22936083  0.22787858  1
  Bi2+  Bi115  1  0.65741002  0.28223173  0.70429379  1
  Bi2+  Bi116  1  0.66903264  0.57415269  0.23514626  1
  Bi2+  Bi117  1  0.62076826  0.47980847  0.70905199  1
  Bi2+  Bi118  1  0.61235716  0.81255217  0.21415049  1
  Bi2+  Bi119  1  0.58095384  0.75541171  0.70280893  1
  Bi2+  Bi120  1  0.85416704  -0.03073477  0.21074667  1
  Bi2+  Bi121  1  0.85328110  -0.02584512  0.71464332  1
  Bi2+  Bi122  1  0.85805296  0.27300180  0.18438512  1
  Bi2+  Bi123  1  0.91066191  0.23553375  0.70140991  1
  Bi2+  Bi124  1  0.87434564  0.53459860  0.20753292  1
  Bi2+  Bi125  1  0.87118784  0.51352648  0.71367362  1
  Bi2+  Bi126  1  0.88787004  0.73453493  0.20787506  1
  Bi2+  Bi127  1  0.85037409  0.76909963  0.70972602  1
  S2-  S128  1  -0.01066322  0.14198616  0.21671255  1
  S2-  S129  1  0.02946254  0.13308753  0.65204752  1
  S2-  S130  1  0.02461877  0.30002010  0.14809230  1
  S2-  S131  1  0.05183078  0.34122711  0.68461308  1
  S2-  S132  1  -0.01180774  0.51492816  0.13188068  1
  S2-  S133  1  -0.00087244  0.54551290  0.64471422  1
  S2-  S134  1  -0.00585148  0.96007678  0.15202422  1
  S2-  S135  1  -0.00781166  0.87271329  0.65474753  1
  S2-  S136  1  0.16271965  0.10033290  0.15548275  1
  S2-  S137  1  0.34437858  0.14373590  0.64832511  1
  S2-  S138  1  0.25237452  0.28817727  0.15189777  1
  S2-  S139  1  0.25851885  0.35502083  0.65866114  1
  S2-  S140  1  0.24846280  0.51446734  0.13600260  1
  S2-  S141  1  0.26838206  0.61259006  0.65310516  1
  S2-  S142  1  0.24983596  0.89133426  0.15506915  1
  S2-  S143  1  0.20962615  0.99246016  0.64547560  1
  S2-  S144  1  0.39229089  0.12036956  0.14295086  1
  S2-  S145  1  0.51129814  0.00716364  0.65408999  1
  S2-  S146  1  0.47974230  0.39279331  0.15887214  1
  S2-  S147  1  0.50957794  0.27762273  0.64299507  1
  S2-  S148  1  0.48454719  0.62865145  0.14761861  1
  S2-  S149  1  0.50775449  0.62216392  0.65159123  1
  S2-  S150  1  0.48981879  0.88095034  0.15646692  1
  S2-  S151  1  0.37151078  0.84957200  0.65106920  1
  S2-  S152  1  0.79904612  0.10812185  0.16214050  1
  S2-  S153  1  0.76723634  0.16782598  0.65784932  1
  S2-  S154  1  0.73837379  0.37478366  0.16386588  1
  S2-  S155  1  0.86370642  0.36998060  0.65614887  1
  S2-  S156  1  0.75062173  0.61685357  0.15050285  1
  S2-  S157  1  0.74876910  0.52673176  0.64586174  1
  S2-  S158  1  0.74328777  0.88250982  0.15374201  1
  S2-  S159  1  0.73232086  0.75625932  0.63965118  1
  S2-  S160  1  0.16427771  0.06465370  0.34046283  1
  S2-  S161  1  0.10679904  0.05127447  0.84546320  1
  S2-  S162  1  0.03025107  0.25792852  0.34677346  1
  S2-  S163  1  0.15692182  0.29179795  0.83786018  1
  S2-  S164  1  0.12682290  0.46283180  0.34502991  1
  S2-  S165  1  0.10930548  0.52826500  0.83422623  1
  S2-  S166  1  0.13856975  0.84940693  0.36057761  1
  S2-  S167  1  0.10685765  0.77771412  0.84259025  1
  S2-  S168  1  0.37752061  0.01022382  0.35491451  1
  S2-  S169  1  0.29626167  -0.01158615  0.79508857  1
  S2-  S170  1  0.25767463  0.26043805  0.36059216  1
  S2-  S171  1  0.36839250  0.15559994  0.84868969  1
  S2-  S172  1  0.36239570  0.49188651  0.34126601  1
  S2-  S173  1  0.38796991  0.37239878  0.85671948  1
  S2-  S174  1  0.39136626  0.74075732  0.34626172  1
  S2-  S175  1  0.39748542  0.83085416  0.84764029  1
  S2-  S176  1  0.64105023  -0.00133753  0.35261635  1
  S2-  S177  1  0.54773798  0.00787374  0.85143053  1
  S2-  S178  1  0.70064162  0.26307011  0.35706088  1
  S2-  S179  1  0.71034138  0.25153310  0.85539063  1
  S2-  S180  1  0.61058886  0.47730102  0.34030160  1
  S2-  S181  1  0.71632142  0.50519879  0.85459840  1
  S2-  S182  1  0.64479735  0.73421433  0.34265095  1
  S2-  S183  1  0.63362715  0.77132181  0.84618734  1
  S2-  S184  1  0.85780009  0.09657440  0.35200953  1
  S2-  S185  1  0.84742771  0.07149268  0.85443683  1
  S2-  S186  1  0.86172710  0.28065000  0.28004318  1
  S2-  S187  1  0.93594099  0.25964951  0.80865458  1
  S2-  S188  1  0.86225458  0.43278722  0.35297380  1
  S2-  S189  1  0.90578170  0.47827896  0.82364058  1
  S2-  S190  1  0.87586665  0.87230385  0.36061704  1
  S2-  S191  1  0.87081881  0.72265651  0.83791730  1
  S2-  S192  1  0.00425608  0.12100649  0.44979505  1
  S2-  S193  1  -0.00679765  0.12903994  0.94635150  1
  S2-  S194  1  -0.00030074  0.37505720  0.45640235  1
  S2-  S195  1  -0.00780530  0.37506367  0.94407710  1
  S2-  S196  1  -0.00005366  0.62839274  0.45120705  1
  S2-  S197  1  -0.00236448  0.62531242  0.94816003  1
  S2-  S198  1  0.00080003  0.87222084  0.45527696  1
  S2-  S199  1  0.00015911  0.88009294  0.95491568  1
  S2-  S200  1  0.24793148  0.12360122  0.46211302  1
  S2-  S201  1  0.25033176  0.12561843  0.95443431  1
  S2-  S202  1  0.24858626  0.37805553  0.45752573  1
  S2-  S203  1  0.24826771  0.38000492  0.95368067  1
  S2-  S204  1  0.24895218  0.62629869  0.44839119  1
  S2-  S205  1  0.24992801  0.62549261  0.95530247  1
  S2-  S206  1  0.25200570  0.87345453  0.46416787  1
  S2-  S207  1  0.25077087  0.88019543  0.94589555  1
  S2-  S208  1  0.50141064  0.12735666  0.46484206  1
  S2-  S209  1  0.50013575  0.12831445  0.95541537  1
  S2-  S210  1  0.49853712  0.37266189  0.45339410  1
  S2-  S211  1  0.50607724  0.37878461  0.95407141  1
  S2-  S212  1  0.49903168  0.62346378  0.44896992  1
  S2-  S213  1  0.50382345  0.62889817  0.94631383  1
  S2-  S214  1  0.50049369  0.87820642  0.46172667  1
  S2-  S215  1  0.50023654  0.87697200  0.95317785  1
  S2-  S216  1  0.74665583  0.12619889  0.45767475  1
  S2-  S217  1  0.74942000  0.12553929  0.96041834  1
  S2-  S218  1  0.75062664  0.37502034  0.46234709  1
  S2-  S219  1  0.75365379  0.37324971  0.95597586  1
  S2-  S220  1  0.74987682  0.62659078  0.45600640  1
  S2-  S221  1  0.74865535  0.63353831  0.94994892  1
  S2-  S222  1  0.74589111  0.87612225  0.46084274  1
  S2-  S223  1  0.74978285  0.88029981  0.95072487  1
  S2-  S224  1  0.12374422  0.00420553  0.04641872  1
  S2-  S225  1  0.12115465  0.00070295  0.53956189  1
  S2-  S226  1  0.12417512  0.25060475  0.04303599  1
  S2-  S227  1  0.12485031  0.25344853  0.54775187  1
  S2-  S228  1  0.12424002  0.50626701  0.03649251  1
  S2-  S229  1  0.12502003  0.49954329  0.54874140  1
  S2-  S230  1  0.12527813  0.74666188  0.04840637  1
  S2-  S231  1  0.12432950  0.74972238  0.54710085  1
  S2-  S232  1  0.37525360  -0.00095202  0.04556120  1
  S2-  S233  1  0.37310943  0.00138627  0.55376707  1
  S2-  S234  1  0.37799730  0.25787958  0.04102387  1
  S2-  S235  1  0.36843317  0.25310867  0.54278642  1
  S2-  S236  1  0.37886454  0.50626302  0.03620274  1
  S2-  S237  1  0.37478205  0.49804491  0.54800441  1
  S2-  S238  1  0.37393922  0.74935738  0.04296965  1
  S2-  S239  1  0.37668994  0.74779133  0.54874543  1
  S2-  S240  1  0.62416971  0.00236940  0.04995869  1
  S2-  S241  1  0.63014004  0.00325842  0.55482701  1
  S2-  S242  1  0.62589845  0.25156023  0.05329869  1
  S2-  S243  1  0.62931109  0.25453773  0.54809938  1
  S2-  S244  1  0.62728818  0.50559278  0.04655106  1
  S2-  S245  1  0.62000623  0.50120879  0.54625467  1
  S2-  S246  1  0.62544984  0.75078339  0.04881413  1
  S2-  S247  1  0.61477398  0.75419654  0.54582420  1
  S2-  S248  1  0.87734060  0.00385192  0.04765243  1
  S2-  S249  1  0.87357883  0.00093130  0.54890038  1
  S2-  S250  1  0.87721751  0.24825050  0.05695257  1
  S2-  S251  1  0.87807249  0.25567171  0.55318582  1
  S2-  S252  1  0.87060160  0.50559968  0.03287719  1
  S2-  S253  1  0.87627696  0.50549612  0.54687394  1
  S2-  S254  1  0.87787428  0.74986295  0.04571108  1
  S2-  S255  1  0.87801202  0.75097593  0.54256718  1
