# generated using pymatgen
data_La6Ce6Pr19Nd20Sm13(BiS2)64
_symmetry_space_group_name_H-M   'P 1'
_cell_length_a   16.04880603
_cell_length_b   16.02752099
_cell_length_c   27.25565566
_cell_angle_alpha   90.18569637
_cell_angle_beta   89.78804528
_cell_angle_gamma   90.01286364
_symmetry_Int_Tables_number   1
_chemical_formula_structural   La6Ce6Pr19Nd20Sm13(BiS2)64
_chemical_formula_sum   'La6 Ce6 Pr19 Nd20 Sm13 Bi64 S128'
_cell_volume   7010.68499454
_cell_formula_units_Z   1
loop_
 _symmetry_equiv_pos_site_id
 _symmetry_equiv_pos_as_xyz
  1  'x, y, z'
loop_
 _atom_type_symbol
 _atom_type_oxidation_number
  La3+  3.0
  Ce3+  3.0
  Pr3+  3.0
  Nd3+  3.0
  Sm3+  3.0
  Bi2+  2.0
  S2-  -2.0
loop_
 _atom_site_type_symbol
 _atom_site_label
 _atom_site_symmetry_multiplicity
 _atom_site_fract_x
 _atom_site_fract_y
 _atom_site_fract_z
 _atom_site_occupancy
  La3+  La0  1  0.37872623  0.75237498  0.41584983  1
  La3+  La1  1  0.75388957  0.37566063  0.59818781  1
  La3+  La2  1  0.23992690  0.13709640  0.60204989  1
  La3+  La3  1  0.48986097  0.63606105  0.57257319  1
  La3+  La4  1  0.38363516  0.25555789  0.91115520  1
  La3+  La5  1  0.61572911  0.01161942  0.41663085  1
  Ce3+  Ce6  1  0.12204977  0.50872232  0.43681864  1
  Ce3+  Ce7  1  0.24361206  0.88279365  0.55501938  1
  Ce3+  Ce8  1  0.49904541  0.38476747  0.57521501  1
  Ce3+  Ce9  1  0.13045410  0.25241644  0.94105036  1
  Ce3+  Ce10  1  0.62323844  0.00182842  0.93308867  1
  Ce3+  Ce11  1  0.12513922  0.26698031  0.43380470  1
  Pr3+  Pr12  1  0.26832822  0.62639380  0.11999314  1
  Pr3+  Pr13  1  0.75403323  0.63487398  0.58125849  1
  Pr3+  Pr14  1  0.36989893  0.00748423  0.43895332  1
  Pr3+  Pr15  1  0.86718140  0.75831483  0.43629979  1
  Pr3+  Pr16  1  -0.00298036  0.13487888  0.56015491  1
  Pr3+  Pr17  1  0.00467300  0.63082071  0.07046184  1
  Pr3+  Pr18  1  0.75259768  0.37995870  0.06126297  1
  Pr3+  Pr19  1  0.62322563  0.26457738  0.43695000  1
  Pr3+  Pr20  1  0.87670888  0.50440607  0.92853509  1
  Pr3+  Pr21  1  0.50589233  0.87981791  0.07055973  1
  Pr3+  Pr22  1  0.12826966  0.75553106  0.94960976  1
  Pr3+  Pr23  1  0.00122356  0.12994691  0.05703761  1
  Pr3+  Pr24  1  0.87438514  0.25534463  0.93154424  1
  Pr3+  Pr25  1  0.11674432  0.76431936  0.41298392  1
  Pr3+  Pr26  1  -0.00250446  0.63279715  0.55766392  1
  Pr3+  Pr27  1  0.74374797  0.13087264  0.06801424  1
  Pr3+  Pr28  1  0.49701967  0.13071755  0.05834055  1
  Pr3+  Pr29  1  0.00333763  0.38110437  0.05500521  1
  Pr3+  Pr30  1  0.86712127  0.50951431  0.44028789  1
  Nd3+  Nd31  1  0.37606745  0.75394758  0.94894223  1
  Nd3+  Nd32  1  0.12171996  0.01550328  0.43168699  1
  Nd3+  Nd33  1  0.37295179  0.26341930  0.44094473  1
  Nd3+  Nd34  1  0.62094380  0.75511814  0.44230338  1
  Nd3+  Nd35  1  0.00383215  0.88459555  0.56212636  1
  Nd3+  Nd36  1  0.62031146  0.51520887  0.90423644  1
  Nd3+  Nd37  1  0.49785273  0.38418901  0.05148045  1
  Nd3+  Nd38  1  0.48652155  0.88532862  0.56475319  1
  Nd3+  Nd39  1  0.25469020  0.88317922  0.07494394  1
  Nd3+  Nd40  1  0.37082371  0.51008206  0.92865949  1
  Nd3+  Nd41  1  0.62766869  0.25744928  0.93628915  1
  Nd3+  Nd42  1  0.50101395  0.62879322  0.06071295  1
  Nd3+  Nd43  1  0.37595832  0.50270347  0.43425637  1
  Nd3+  Nd44  1  0.87059644  0.25770943  0.44124410  1
  Nd3+  Nd45  1  0.12741077  0.00056074  0.93135573  1
  Nd3+  Nd46  1  0.75541820  0.63034511  0.06396925  1
  Nd3+  Nd47  1  0.74031224  0.88256348  0.56261459  1
  Nd3+  Nd48  1  0.00056033  0.88417907  0.06653811  1
  Nd3+  Nd49  1  0.37514468  0.00139980  0.92275824  1
  Nd3+  Nd50  1  0.24695035  0.63511173  0.54982135  1
  Sm3+  Sm51  1  0.87023643  0.00779096  0.45051761  1
  Sm3+  Sm52  1  0.49267770  0.13549727  0.55958639  1
  Sm3+  Sm53  1  0.62364001  0.50469682  0.45110632  1
  Sm3+  Sm54  1  0.13119461  0.50836039  0.93858790  1
  Sm3+  Sm55  1  0.73992578  0.13108169  0.56210717  1
  Sm3+  Sm56  1  0.25450422  0.38446179  0.05449461  1
  Sm3+  Sm57  1  0.25586154  0.12695458  0.05539372  1
  Sm3+  Sm58  1  -0.00198215  0.38132698  0.55824472  1
  Sm3+  Sm59  1  0.87879186  0.00678390  0.92893365  1
  Sm3+  Sm60  1  0.25163652  0.38146273  0.56998410  1
  Sm3+  Sm61  1  0.62788545  0.75336735  0.94285483  1
  Sm3+  Sm62  1  0.75136497  0.88675376  0.06281190  1
  Sm3+  Sm63  1  0.87585385  0.75122495  0.93950638  1
  Bi2+  Bi64  1  -0.00130375  0.10214534  0.29075206  1
  Bi2+  Bi65  1  -0.01000305  0.10663704  0.78874000  1
  Bi2+  Bi66  1  0.04109033  0.32289562  0.29194949  1
  Bi2+  Bi67  1  0.01572476  0.47815924  0.81097226  1
  Bi2+  Bi68  1  -0.09262581  0.62249488  0.29163791  1
  Bi2+  Bi69  1  0.00843544  0.67363907  0.78768916  1
  Bi2+  Bi70  1  -0.01619235  0.89457967  0.29367739  1
  Bi2+  Bi71  1  -0.10976914  0.85807051  0.81686981  1
  Bi2+  Bi72  1  0.30235805  0.16822675  0.27630155  1
  Bi2+  Bi73  1  0.21731734  0.09793682  0.78994230  1
  Bi2+  Bi74  1  0.25323758  0.34541248  0.23013576  1
  Bi2+  Bi75  1  0.19427573  0.47022504  0.75577160  1
  Bi2+  Bi76  1  0.24027824  0.53537481  0.30748937  1
  Bi2+  Bi77  1  0.25093701  0.66394611  0.80547374  1
  Bi2+  Bi78  1  0.27682656  0.97446007  0.30166972  1
  Bi2+  Bi79  1  0.15432742  0.89097439  0.77549760  1
  Bi2+  Bi80  1  0.50303898  0.18597695  0.27689069  1
  Bi2+  Bi81  1  0.50083159  0.11356869  0.78814977  1
  Bi2+  Bi82  1  0.49190560  0.38084729  0.29159489  1
  Bi2+  Bi83  1  0.49490324  0.37044836  0.78779663  1
  Bi2+  Bi84  1  0.54058189  0.62062378  0.30025241  1
  Bi2+  Bi85  1  0.49674616  0.66090181  0.79097214  1
  Bi2+  Bi86  1  0.50878320  0.89450330  0.28996543  1
  Bi2+  Bi87  1  0.54113454  0.90258934  0.75853234  1
  Bi2+  Bi88  1  0.75934839  0.12186957  0.29537676  1
  Bi2+  Bi89  1  0.72263640  0.12919671  0.79310039  1
  Bi2+  Bi90  1  0.75764150  0.39645934  0.30526028  1
  Bi2+  Bi91  1  0.78727765  0.31309041  0.78113428  1
  Bi2+  Bi92  1  0.73036345  0.62647293  0.35511275  1
  Bi2+  Bi93  1  0.77224136  0.70163305  0.78692374  1
  Bi2+  Bi94  1  0.75787521  0.80048320  0.30066147  1
  Bi2+  Bi95  1  0.71109468  0.93173754  0.81579956  1
  Bi2+  Bi96  1  0.15447604  0.02894366  0.21964375  1
  Bi2+  Bi97  1  0.01683453  -0.03461643  0.69806438  1
  Bi2+  Bi98  1  0.10981603  0.21695456  0.20162552  1
  Bi2+  Bi99  1  0.06986744  0.30739403  0.76035380  1
  Bi2+  Bi100  1  0.02614988  0.49703839  0.23251352  1
  Bi2+  Bi101  1  0.07893284  0.56498344  0.67943955  1
  Bi2+  Bi102  1  0.11517631  0.73111715  0.22419140  1
  Bi2+  Bi103  1  0.15792132  0.73809675  0.70534904  1
  Bi2+  Bi104  1  0.41183124  0.05369188  0.18965898  1
  Bi2+  Bi105  1  0.41567541  0.02043479  0.69860741  1
  Bi2+  Bi106  1  0.36793949  0.23397371  0.16032924  1
  Bi2+  Bi107  1  0.32964978  0.27890045  0.71477855  1
  Bi2+  Bi108  1  0.41462746  0.48200056  0.20155008  1
  Bi2+  Bi109  1  0.36953264  0.53523776  0.71173345  1
  Bi2+  Bi110  1  0.37421838  0.76203828  0.22263617  1
  Bi2+  Bi111  1  0.37681635  0.77644703  0.70473806  1
  Bi2+  Bi112  1  0.65576381  0.00443589  0.20515460  1
  Bi2+  Bi113  1  0.62656058  0.00622004  0.65555344  1
  Bi2+  Bi114  1  0.65452876  0.27752866  0.22793242  1
  Bi2+  Bi115  1  0.62362173  0.19325269  0.70050160  1
  Bi2+  Bi116  1  0.67780273  0.54131807  0.23124941  1
  Bi2+  Bi117  1  0.62895503  0.48320785  0.72405041  1
  Bi2+  Bi118  1  0.65845558  0.73252221  0.20980982  1
  Bi2+  Bi119  1  0.63311096  0.74040605  0.71548173  1
  Bi2+  Bi120  1  0.89378008  -0.00428467  0.21451133  1
  Bi2+  Bi121  1  0.80305449  -0.02079701  0.71308574  1
  Bi2+  Bi122  1  0.85476065  0.26816357  0.22426982  1
  Bi2+  Bi123  1  0.92778453  0.21703748  0.70110096  1
  Bi2+  Bi124  1  0.84642214  0.46188733  0.18654184  1
  Bi2+  Bi125  1  0.89944901  0.50252466  0.71600710  1
  Bi2+  Bi126  1  0.86165703  0.75751618  0.20575018  1
  Bi2+  Bi127  1  0.90138131  0.80113258  0.70264787  1
  S2-  S128  1  0.00953314  0.08697367  0.15440800  1
  S2-  S129  1  0.05903810  0.11950286  0.65264427  1
  S2-  S130  1  0.00502947  0.39035893  0.15536853  1
  S2-  S131  1  -0.07554549  0.37493394  0.64853469  1
  S2-  S132  1  0.09980092  0.61604715  0.15751706  1
  S2-  S133  1  -0.08024663  0.64321833  0.64847980  1
  S2-  S134  1  0.00887078  0.83367435  0.16386800  1
  S2-  S135  1  0.12588248  0.86776180  0.63392417  1
  S2-  S136  1  0.25456863  0.02718638  0.13750750  1
  S2-  S137  1  0.24803512  0.06005120  0.69906715  1
  S2-  S138  1  0.26282784  0.45166291  0.14518295  1
  S2-  S139  1  0.20558341  0.28873457  0.65362552  1
  S2-  S140  1  0.28192918  0.61309652  0.22846406  1
  S2-  S141  1  0.32889286  0.64427987  0.63987138  1
  S2-  S142  1  0.23736929  0.78887423  0.16336890  1
  S2-  S143  1  0.34921865  0.89006586  0.63599498  1
  S2-  S144  1  0.59391917  0.10753723  0.14288907  1
  S2-  S145  1  0.40895386  0.16608267  0.64759868  1
  S2-  S146  1  0.49576506  0.36227764  0.15130359  1
  S2-  S147  1  0.37340668  0.39665557  0.64687719  1
  S2-  S148  1  0.43953125  0.64012537  0.15425644  1
  S2-  S149  1  0.52093527  0.55036473  0.66433041  1
  S2-  S150  1  0.42559079  0.89175759  0.16300677  1
  S2-  S151  1  0.50959357  0.77048379  0.64365725  1
  S2-  S152  1  0.78928294  0.00647609  0.13758386  1
  S2-  S153  1  0.77148920  0.21244527  0.64835987  1
  S2-  S154  1  0.75689936  0.26513147  0.14005974  1
  S2-  S155  1  0.60245079  0.35207022  0.65637816  1
  S2-  S156  1  0.87022234  0.62107830  0.13965327  1
  S2-  S157  1  0.75095499  0.51977983  0.66169273  1
  S2-  S158  1  0.64009107  0.86775904  0.14347689  1
  S2-  S159  1  0.75055499  0.77958960  0.64391063  1
  S2-  S160  1  0.12614105  -0.08641123  0.34941539  1
  S2-  S161  1  0.23894150  -0.04088804  0.85271344  1
  S2-  S162  1  0.10250811  0.18349100  0.34859317  1
  S2-  S163  1  0.11893577  0.22167413  0.84403236  1
  S2-  S164  1  0.14156966  0.40455918  0.35855862  1
  S2-  S165  1  0.23741500  0.52247025  0.85705726  1
  S2-  S166  1  0.14718868  0.66465571  0.32439529  1
  S2-  S167  1  0.11549732  0.76314222  0.84718637  1
  S2-  S168  1  0.46325885  0.00688625  0.35238134  1
  S2-  S169  1  0.35621264  0.12218089  0.84488685  1
  S2-  S170  1  0.37291740  0.37382665  0.36153525  1
  S2-  S171  1  0.34479576  0.33152537  0.81744670  1
  S2-  S172  1  0.38721214  0.60268750  0.35000974  1
  S2-  S173  1  0.47261010  0.51810794  0.84487581  1
  S2-  S174  1  0.33573499  0.82091474  0.31909822  1
  S2-  S175  1  0.38233126  0.75052641  0.84724925  1
  S2-  S176  1  0.66141600  -0.06104573  0.32317944  1
  S2-  S177  1  0.51186893  -0.02118082  0.85659289  1
  S2-  S178  1  0.62907512  0.15757880  0.35327904  1
  S2-  S179  1  0.53856346  0.25050580  0.85013225  1
  S2-  S180  1  0.61505518  0.40047181  0.36618716  1
  S2-  S181  1  0.67417300  0.42557784  0.82193645  1
  S2-  S182  1  0.53104496  0.76199363  0.35505156  1
  S2-  S183  1  0.63370670  0.67190228  0.85456790  1
  S2-  S184  1  0.87682868  0.00995286  0.35211600  1
  S2-  S185  1  1.00555198  -0.01623069  0.85703072  1
  S2-  S186  1  0.83749350  0.24839925  0.34278984  1
  S2-  S187  1  0.86301807  0.13450421  0.85627940  1
  S2-  S188  1  0.90796367  0.47432821  0.34261555  1
  S2-  S189  1  0.87967709  0.37276919  0.85346250  1
  S2-  S190  1  0.96655540  0.76145226  0.35279031  1
  S2-  S191  1  0.87332137  0.63862217  0.86040829  1
  S2-  S192  1  -0.00611142  0.13300963  0.45378559  1
  S2-  S193  1  0.00386752  0.13122904  0.95211668  1
  S2-  S194  1  -0.00616273  0.38380949  0.45500377  1
  S2-  S195  1  0.00862606  0.38061467  0.94972520  1
  S2-  S196  1  -0.00294310  0.63189110  0.45039278  1
  S2-  S197  1  0.00419503  0.62825641  0.95894807  1
  S2-  S198  1  -0.00406257  0.88832292  0.45679992  1
  S2-  S199  1  -0.00355005  0.87567265  0.95867024  1
  S2-  S200  1  0.24949405  0.13798486  0.43787947  1
  S2-  S201  1  0.25172694  0.12751885  0.95241848  1
  S2-  S202  1  0.24669605  0.38642748  0.46451973  1
  S2-  S203  1  0.25308692  0.37856155  0.94911288  1
  S2-  S204  1  0.24483299  0.63294262  0.44536487  1
  S2-  S205  1  0.25126807  0.63250894  0.95650206  1
  S2-  S206  1  0.24626363  0.88114017  0.44770988  1
  S2-  S207  1  0.25416973  0.87931344  0.96331623  1
  S2-  S208  1  0.49456638  0.13798220  0.45566057  1
  S2-  S209  1  0.50210116  0.12889729  0.95203004  1
  S2-  S210  1  0.49823509  0.38373277  0.46801903  1
  S2-  S211  1  0.50576210  0.38943816  0.94701533  1
  S2-  S212  1  0.50147893  0.62677144  0.45956228  1
  S2-  S213  1  0.50409562  0.62907150  0.95587822  1
  S2-  S214  1  0.49850267  0.88391820  0.45689010  1
  S2-  S215  1  0.50442270  0.87306489  0.96030923  1
  S2-  S216  1  0.74737791  0.13079549  0.45782826  1
  S2-  S217  1  0.74612428  0.12855666  0.95565369  1
  S2-  S218  1  0.75033472  0.38232795  0.46021249  1
  S2-  S219  1  0.74285298  0.38759793  0.95341243  1
  S2-  S220  1  0.74696522  0.63380468  0.47052174  1
  S2-  S221  1  0.74638742  0.62567178  0.95924552  1
  S2-  S222  1  0.74420232  0.88596155  0.45391554  1
  S2-  S223  1  0.75354347  0.87662828  0.95289724  1
  S2-  S224  1  0.12535223  0.00451987  0.04103471  1
  S2-  S225  1  0.12697872  0.01619924  0.53964763  1
  S2-  S226  1  0.13280416  0.25446841  0.04943159  1
  S2-  S227  1  0.12235405  0.25835665  0.54269217  1
  S2-  S228  1  0.12876618  0.50398806  0.04240450  1
  S2-  S229  1  0.12310645  0.50448912  0.54602326  1
  S2-  S230  1  0.12417680  0.76090818  0.05390823  1
  S2-  S231  1  0.12039424  0.75521273  0.53227851  1
  S2-  S232  1  0.37923044  0.00326492  0.03832333  1
  S2-  S233  1  0.36329735  0.02038883  0.54425013  1
  S2-  S234  1  0.37446478  0.25730201  0.03310613  1
  S2-  S235  1  0.36557860  0.25582161  0.54449237  1
  S2-  S236  1  0.37552545  0.50858565  0.04086849  1
  S2-  S237  1  0.36933320  0.50766420  0.54185052  1
  S2-  S238  1  0.37479775  0.75344424  0.05389103  1
  S2-  S239  1  0.36860710  0.75947920  0.53121672  1
  S2-  S240  1  0.62523028  0.00292231  0.03740862  1
  S2-  S241  1  0.61636709  0.00948026  0.53938790  1
  S2-  S242  1  0.62156497  0.25899085  0.04088475  1
  S2-  S243  1  0.62124797  0.25352042  0.54670845  1
  S2-  S244  1  0.62780594  0.50574430  0.06423679  1
  S2-  S245  1  0.62722774  0.50803387  0.55370309  1
  S2-  S246  1  0.63030107  0.75136102  0.04597918  1
  S2-  S247  1  0.62015602  0.75911203  0.54523830  1
  S2-  S248  1  0.87817399  0.00650290  0.03395915  1
  S2-  S249  1  0.87031295  0.00714065  0.55640344  1
  S2-  S250  1  0.87786636  0.25460660  0.03941394  1
  S2-  S251  1  0.87088306  0.25741219  0.54541010  1
  S2-  S252  1  0.87757331  0.50284629  0.03775753  1
  S2-  S253  1  0.87349382  0.50388504  0.54806153  1
  S2-  S254  1  0.87309945  0.76160298  0.04441042  1
  S2-  S255  1  0.87614394  0.76534236  0.54250318  1
