# generated using pymatgen
data_La6Ce6Pr19Nd20Sm13(BiS2)64
_symmetry_space_group_name_H-M   'P 1'
_cell_length_a   16.03592904
_cell_length_b   16.06998285
_cell_length_c   27.27371612
_cell_angle_alpha   90.04354355
_cell_angle_beta   89.95417851
_cell_angle_gamma   90.05570512
_symmetry_Int_Tables_number   1
_chemical_formula_structural   La6Ce6Pr19Nd20Sm13(BiS2)64
_chemical_formula_sum   'La6 Ce6 Pr19 Nd20 Sm13 Bi64 S128'
_cell_volume   7028.35008790
_cell_formula_units_Z   1
loop_
 _symmetry_equiv_pos_site_id
 _symmetry_equiv_pos_as_xyz
  1  'x, y, z'
loop_
 _atom_type_symbol
 _atom_type_oxidation_number
  La3+  3.0
  Ce3+  3.0
  Pr3+  3.0
  Nd3+  3.0
  Sm3+  3.0
  Bi2+  2.0
  S2-  -2.0
loop_
 _atom_site_type_symbol
 _atom_site_label
 _atom_site_symmetry_multiplicity
 _atom_site_fract_x
 _atom_site_fract_y
 _atom_site_fract_z
 _atom_site_occupancy
  La3+  La0  1  0.65611197  0.75714158  0.92332754  1
  La3+  La1  1  0.22386363  0.64379174  0.57689490  1
  La3+  La2  1  0.10838756  0.52370109  0.41507336  1
  La3+  La3  1  0.28231399  0.36414646  0.09166924  1
  La3+  La4  1  0.47345984  0.39318519  0.58552244  1
  La3+  La5  1  0.72877288  0.38810754  0.57703458  1
  Ce3+  Ce6  1  0.60626345  0.27844157  0.43788401  1
  Ce3+  Ce7  1  0.03397290  0.62535591  0.06356119  1
  Ce3+  Ce8  1  0.15893424  0.25536204  0.92274018  1
  Ce3+  Ce9  1  0.90135849  0.50198098  0.94948061  1
  Ce3+  Ce10  1  0.53272821  0.87654258  0.05783950  1
  Ce3+  Ce11  1  0.72646339  0.14463883  0.56072586  1
  Pr3+  Pr12  1  0.78354567  0.87534009  0.06748924  1
  Pr3+  Pr13  1  0.16181524  0.50093177  0.94674319  1
  Pr3+  Pr14  1  0.22789241  0.89519459  0.57101335  1
  Pr3+  Pr15  1  0.60353760  0.52101526  0.44343657  1
  Pr3+  Pr16  1  0.85409009  0.52264979  0.42527005  1
  Pr3+  Pr17  1  0.40930342  0.50200927  0.93745161  1
  Pr3+  Pr18  1  -0.01486077  0.14805260  0.56265756  1
  Pr3+  Pr19  1  0.10091388  0.26359788  0.41326433  1
  Pr3+  Pr20  1  0.35300150  0.76675952  0.43882431  1
  Pr3+  Pr21  1  -0.01985766  0.89215998  0.57368521  1
  Pr3+  Pr22  1  0.03504132  0.87532657  0.06124609  1
  Pr3+  Pr23  1  0.53228322  0.37870942  0.06311242  1
  Pr3+  Pr24  1  0.53206219  0.62612299  0.05936074  1
  Pr3+  Pr25  1  0.65917702  0.25253015  0.93107054  1
  Pr3+  Pr26  1  0.60633151  0.76662297  0.43697468  1
  Pr3+  Pr27  1  0.10640179  0.77099376  0.43550026  1
  Pr3+  Pr28  1  0.23302980  0.39057461  0.54994654  1
  Pr3+  Pr29  1  0.28655127  0.63144058  0.07879974  1
  Pr3+  Pr30  1  0.90678326  0.75045445  0.93402323  1
  Nd3+  Nd31  1  0.66578684  0.50032852  0.93096991  1
  Nd3+  Nd32  1  0.47868744  0.14049322  0.55746750  1
  Nd3+  Nd33  1  0.41026015  0.25465591  0.92807167  1
  Nd3+  Nd34  1  0.03901910  0.13714535  0.06440054  1
  Nd3+  Nd35  1  0.40706880  0.75180517  0.93007532  1
  Nd3+  Nd36  1  0.73399641  0.89204745  0.57283003  1
  Nd3+  Nd37  1  0.60694063  0.01263774  0.43179522  1
  Nd3+  Nd38  1  0.15819433  0.00302466  0.94216488  1
  Nd3+  Nd39  1  0.03272442  0.37710292  0.05517809  1
  Nd3+  Nd40  1  0.48140963  0.89050613  0.56185459  1
  Nd3+  Nd41  1  0.35282306  0.01563397  0.42915432  1
  Nd3+  Nd42  1  0.53206671  0.12966108  0.05920111  1
  Nd3+  Nd43  1  0.66273636  0.00214674  0.94264866  1
  Nd3+  Nd44  1  0.73348138  0.63557449  0.57026430  1
  Nd3+  Nd45  1  0.85318723  0.26829062  0.43619703  1
  Nd3+  Nd46  1  0.90988471  0.00347672  0.94515136  1
  Nd3+  Nd47  1  0.28365072  0.87652104  0.06291626  1
  Nd3+  Nd48  1  0.48487012  0.64776132  0.57426032  1
  Nd3+  Nd49  1  0.78410130  0.12878295  0.06938815  1
  Nd3+  Nd50  1  0.15687153  0.74858389  0.93168596  1
  Sm3+  Sm51  1  0.40673198  0.00112241  0.94445360  1
  Sm3+  Sm52  1  0.77811186  0.37068376  0.06959553  1
  Sm3+  Sm53  1  0.28219403  0.13229804  0.04950914  1
  Sm3+  Sm54  1  0.77497922  0.63128864  0.06840975  1
  Sm3+  Sm55  1  0.35595261  0.52254044  0.44131700  1
  Sm3+  Sm56  1  0.09966122  0.01157440  0.43618296  1
  Sm3+  Sm57  1  0.85480504  0.01735624  0.44897005  1
  Sm3+  Sm58  1  0.85509815  0.76840105  0.44476387  1
  Sm3+  Sm59  1  0.36973393  0.27673457  0.42307508  1
  Sm3+  Sm60  1  -0.01714277  0.39392861  0.54644649  1
  Sm3+  Sm61  1  -0.01758314  0.63946831  0.55322150  1
  Sm3+  Sm62  1  0.23073506  0.14308640  0.54276004  1
  Sm3+  Sm63  1  0.90828748  0.25115022  0.93177675  1
  Bi2+  Bi64  1  -0.01432887  0.07782833  0.30514925  1
  Bi2+  Bi65  1  0.10308479  0.11997010  0.78360215  1
  Bi2+  Bi66  1  -0.03101906  0.35125375  0.28117663  1
  Bi2+  Bi67  1  -0.03708154  0.34825185  0.79299278  1
  Bi2+  Bi68  1  -0.02630337  0.62538024  0.29020141  1
  Bi2+  Bi69  1  0.00145704  0.62176533  0.78497389  1
  Bi2+  Bi70  1  -0.01659098  0.89171088  0.28644498  1
  Bi2+  Bi71  1  0.00000841  0.86524643  0.78540541  1
  Bi2+  Bi72  1  0.23559766  0.05661849  0.29691266  1
  Bi2+  Bi73  1  0.30128101  0.13963485  0.79258958  1
  Bi2+  Bi74  1  0.28206875  0.35908789  0.29132622  1
  Bi2+  Bi75  1  0.15843213  0.38765566  0.78156356  1
  Bi2+  Bi76  1  0.23683064  0.62797513  0.28407269  1
  Bi2+  Bi77  1  0.20033829  0.65812561  0.78530741  1
  Bi2+  Bi78  1  0.23808957  0.85825716  0.28338722  1
  Bi2+  Bi79  1  0.25965726  0.92423914  0.79307519  1
  Bi2+  Bi80  1  0.53152777  0.07427356  0.30817703  1
  Bi2+  Bi81  1  0.49258699  0.07669997  0.76989809  1
  Bi2+  Bi82  1  0.56182257  0.33564917  0.28035458  1
  Bi2+  Bi83  1  0.47634270  0.36828695  0.80068976  1
  Bi2+  Bi84  1  0.47053945  0.56041226  0.31029947  1
  Bi2+  Bi85  1  0.39691308  0.67271883  0.79011750  1
  Bi2+  Bi86  1  0.47633422  0.88842973  0.28679003  1
  Bi2+  Bi87  1  0.53503869  0.88033201  0.79034056  1
  Bi2+  Bi88  1  0.71120644  0.17363926  0.29991763  1
  Bi2+  Bi89  1  0.73717183  0.07847108  0.77675463  1
  Bi2+  Bi90  1  0.77754103  0.36106243  0.31665803  1
  Bi2+  Bi91  1  0.73652658  0.38445279  0.80028604  1
  Bi2+  Bi92  1  0.72834989  0.61651075  0.29250688  1
  Bi2+  Bi93  1  0.80556069  0.61853166  0.78171613  1
  Bi2+  Bi94  1  0.73657806  0.91279354  0.28345378  1
  Bi2+  Bi95  1  0.79396398  0.88185091  0.79618381  1
  Bi2+  Bi96  1  0.12807459  -0.01935032  0.20773996  1
  Bi2+  Bi97  1  0.23668290  0.01954130  0.69306122  1
  Bi2+  Bi98  1  0.13461330  0.22857422  0.20435600  1
  Bi2+  Bi99  1  0.08956737  0.25883839  0.70182306  1
  Bi2+  Bi100  1  0.09407681  0.47947182  0.19878628  1
  Bi2+  Bi101  1  0.10404600  0.50701393  0.69605316  1
  Bi2+  Bi102  1  0.11513468  0.73058229  0.19321212  1
  Bi2+  Bi103  1  0.11090087  0.78334162  0.70256221  1
  Bi2+  Bi104  1  0.33221485  -0.03000261  0.19956394  1
  Bi2+  Bi105  1  0.43558074  0.01168908  0.66913387  1
  Bi2+  Bi106  1  0.38568466  0.14632329  0.24194259  1
  Bi2+  Bi107  1  0.33408859  0.25176229  0.70348938  1
  Bi2+  Bi108  1  0.42504508  0.49429706  0.21117667  1
  Bi2+  Bi109  1  0.36056255  0.48207288  0.72401631  1
  Bi2+  Bi110  1  0.40241519  0.76149280  0.20978981  1
  Bi2+  Bi111  1  0.37111363  0.83055526  0.71652678  1
  Bi2+  Bi112  1  0.59691846  0.00649619  0.20105335  1
  Bi2+  Bi113  1  0.65022744  0.03163896  0.67332715  1
  Bi2+  Bi114  1  0.65284318  0.23484311  0.19379965  1
  Bi2+  Bi115  1  0.60808852  0.22889885  0.70199823  1
  Bi2+  Bi116  1  0.63248623  0.49893413  0.21717702  1
  Bi2+  Bi117  1  0.62523910  0.53248961  0.70307615  1
  Bi2+  Bi118  1  0.65891057  0.74907573  0.20406402  1
  Bi2+  Bi119  1  0.62939858  0.84270125  0.69399709  1
  Bi2+  Bi120  1  0.78658917  -0.01020547  0.18005326  1
  Bi2+  Bi121  1  0.92304583  0.03235504  0.73797180  1
  Bi2+  Bi122  1  0.86513700  0.14820691  0.22554337  1
  Bi2+  Bi123  1  0.84841663  0.21911860  0.72891939  1
  Bi2+  Bi124  1  0.83419621  0.48015563  0.23047457  1
  Bi2+  Bi125  1  0.88229959  0.46865561  0.71778705  1
  Bi2+  Bi126  1  0.85154775  0.76349779  0.24358539  1
  Bi2+  Bi127  1  0.89218991  0.75173454  0.71035457  1
  S2-  S128  1  0.03380967  0.10617587  0.16275482  1
  S2-  S129  1  -0.03089560  0.13581893  0.66271332  1
  S2-  S130  1  0.02976382  0.33372806  0.15148536  1
  S2-  S131  1  0.00314004  0.38094794  0.64488435  1
  S2-  S132  1  -0.00128735  0.62033754  0.16032688  1
  S2-  S133  1  0.05735523  0.64205915  0.64220616  1
  S2-  S134  1  0.02538527  0.85449701  0.16079180  1
  S2-  S135  1  0.10154577  0.92523332  0.64653949  1
  S2-  S136  1  0.25273073  0.19722926  0.13818873  1
  S2-  S137  1  0.21166686  0.17204076  0.63984978  1
  S2-  S138  1  0.22364705  0.37931584  0.19235813  1
  S2-  S139  1  0.31492351  0.38157099  0.64146640  1
  S2-  S140  1  0.21424413  0.58259907  0.17327773  1
  S2-  S141  1  0.25689959  0.57568006  0.67496006  1
  S2-  S142  1  0.26932695  0.77899959  0.14458280  1
  S2-  S143  1  0.25133211  0.77668900  0.64700472  1
  S2-  S144  1  0.50693239  0.14156613  0.15831273  1
  S2-  S145  1  0.46773939  0.23438954  0.64324000  1
  S2-  S146  1  0.42885614  0.37273738  0.14766541  1
  S2-  S147  1  0.60578388  0.38413922  0.65816297  1
  S2-  S148  1  0.42775025  0.63144425  0.14527140  1
  S2-  S149  1  0.47489937  0.54206143  0.65702628  1
  S2-  S150  1  0.53443111  0.84919165  0.15495068  1
  S2-  S151  1  0.48318184  0.78399541  0.64319074  1
  S2-  S152  1  0.80640917  0.24481711  0.14364990  1
  S2-  S153  1  0.75309745  0.24151817  0.64335686  1
  S2-  S154  1  0.65227941  0.38142952  0.13991475  1
  S2-  S155  1  0.77410529  0.51405742  0.64606014  1
  S2-  S156  1  0.64623567  0.61927515  0.13955499  1
  S2-  S157  1  0.65609121  0.67495168  0.65954791  1
  S2-  S158  1  0.79584371  0.75622258  0.14212861  1
  S2-  S159  1  0.85532547  0.87967267  0.64821647  1
  S2-  S160  1  0.10036456  -0.10294030  0.36089800  1
  S2-  S161  1  0.12209074  -0.02273275  0.84580551  1
  S2-  S162  1  0.12604553  0.28770551  0.30990963  1
  S2-  S163  1  0.02713039  0.22478821  0.85611665  1
  S2-  S164  1  0.19154437  0.48874275  0.32207213  1
  S2-  S165  1  0.15103587  0.52114762  0.84547706  1
  S2-  S166  1  0.11097008  0.67210982  0.34820603  1
  S2-  S167  1  0.03021289  0.74739662  0.85803773  1
  S2-  S168  1  0.35360654  -0.11461018  0.35942021  1
  S2-  S169  1  0.40914502  -0.02899258  0.84764719  1
  S2-  S170  1  0.31557433  0.19989691  0.33571351  1
  S2-  S171  1  0.28891515  0.27573069  0.85208899  1
  S2-  S172  1  0.38720964  0.42141403  0.35927437  1
  S2-  S173  1  0.38554281  0.50929776  0.83463828  1
  S2-  S174  1  0.35290697  0.64510149  0.36146687  1
  S2-  S175  1  0.27911600  0.75578583  0.85756765  1
  S2-  S176  1  0.61971990  -0.11436625  0.35892516  1
  S2-  S177  1  0.65818649  -0.09128117  0.85888467  1
  S2-  S178  1  0.51132333  0.24151580  0.35794913  1
  S2-  S179  1  0.53482856  0.24761185  0.85331701  1
  S2-  S180  1  0.62789278  0.41026016  0.36309556  1
  S2-  S181  1  0.60057995  0.47189284  0.83506728  1
  S2-  S182  1  0.59309063  0.64187117  0.36223520  1
  S2-  S183  1  0.52048817  0.73431223  0.85081651  1
  S2-  S184  1  0.86362157  -0.02536136  0.35321786  1
  S2-  S185  1  0.86087223  0.02063645  0.85034283  1
  S2-  S186  1  0.94912272  0.23116798  0.35419266  1
  S2-  S187  1  0.78530525  0.25816480  0.85921355  1
  S2-  S188  1  0.97166130  0.49428910  0.34651630  1
  S2-  S189  1  0.81214778  0.50043214  0.86477835  1
  S2-  S190  1  0.84713146  0.67448115  0.36127022  1
  S2-  S191  1  0.78945891  0.73838822  0.85589385  1
  S2-  S192  1  -0.01925944  0.13728627  0.45599666  1
  S2-  S193  1  0.03445255  0.12623024  0.95762559  1
  S2-  S194  1  -0.01755870  0.38982080  0.44490360  1
  S2-  S195  1  0.02928352  0.37951090  0.94836615  1
  S2-  S196  1  -0.01871295  0.64443298  0.45243705  1
  S2-  S197  1  0.03090217  0.62189261  0.95760142  1
  S2-  S198  1  -0.02576872  0.89265868  0.46319089  1
  S2-  S199  1  0.03417652  0.87883970  0.95562517  1
  S2-  S200  1  0.22296535  0.13646981  0.44018785  1
  S2-  S201  1  0.28417674  0.12581423  0.94607726  1
  S2-  S202  1  0.22829993  0.38728615  0.44294942  1
  S2-  S203  1  0.28562746  0.37814608  0.95364085  1
  S2-  S204  1  0.22673070  0.64192362  0.46065842  1
  S2-  S205  1  0.28381965  0.62767135  0.95741345  1
  S2-  S206  1  0.22871317  0.89773946  0.46116984  1
  S2-  S207  1  0.28170194  0.87949932  0.95733262  1
  S2-  S208  1  0.47969331  0.13301347  0.45311108  1
  S2-  S209  1  0.53267230  0.12116596  0.95249302  1
  S2-  S210  1  0.48025743  0.39635493  0.46569351  1
  S2-  S211  1  0.53574936  0.37870894  0.95480653  1
  S2-  S212  1  0.47893523  0.64520086  0.46667920  1
  S2-  S213  1  0.53705258  0.62342883  0.95180520  1
  S2-  S214  1  0.48111597  0.89442528  0.45715976  1
  S2-  S215  1  0.52905594  0.88111292  0.95458844  1
  S2-  S216  1  0.72920888  0.14104703  0.45018020  1
  S2-  S217  1  0.78503433  0.12602718  0.96136650  1
  S2-  S218  1  0.73850392  0.39592529  0.46298176  1
  S2-  S219  1  0.78460936  0.37271519  0.96432573  1
  S2-  S220  1  0.73337121  0.64404546  0.46284001  1
  S2-  S221  1  0.78110813  0.62913560  0.96342459  1
  S2-  S222  1  0.73558116  0.89265021  0.46345093  1
  S2-  S223  1  0.78769862  0.87977288  0.96105789  1
  S2-  S224  1  0.16017206  0.00494989  0.04991182  1
  S2-  S225  1  0.10443445  0.02159351  0.53989339  1
  S2-  S226  1  0.15881941  0.25748407  0.03383534  1
  S2-  S227  1  0.10662782  0.26776707  0.53153275  1
  S2-  S228  1  0.16219354  0.49839464  0.05390837  1
  S2-  S229  1  0.10601928  0.51479942  0.53816173  1
  S2-  S230  1  0.15753063  0.74939850  0.04095262  1
  S2-  S231  1  0.10133991  0.77001952  0.54278104  1
  S2-  S232  1  0.40480843  0.00524840  0.04995041  1
  S2-  S233  1  0.35242083  0.01716029  0.53879311  1
  S2-  S234  1  0.40748102  0.25023384  0.03809607  1
  S2-  S235  1  0.35407696  0.26131801  0.53060714  1
  S2-  S236  1  0.40127373  0.50022492  0.04503951  1
  S2-  S237  1  0.35298236  0.52323093  0.54618596  1
  S2-  S238  1  0.40758579  0.75568847  0.03898073  1
  S2-  S239  1  0.35469608  0.76913597  0.54412466  1
  S2-  S240  1  0.65827647  0.00394668  0.04928224  1
  S2-  S241  1  0.60756705  0.01494894  0.54113253  1
  S2-  S242  1  0.65772030  0.24720884  0.04024496  1
  S2-  S243  1  0.60316122  0.26480527  0.54311250  1
  S2-  S244  1  0.66240328  0.50052384  0.03856328  1
  S2-  S245  1  0.60423684  0.51818878  0.55071236  1
  S2-  S246  1  0.65618629  0.75630663  0.03817469  1
  S2-  S247  1  0.61328464  0.77111312  0.54423278  1
  S2-  S248  1  0.91268075  0.00589454  0.05259769  1
  S2-  S249  1  0.85531664  0.02320201  0.55275536  1
  S2-  S250  1  0.91026260  0.25164487  0.03901651  1
  S2-  S251  1  0.85983328  0.26828609  0.54079837  1
  S2-  S252  1  0.90063281  0.50015443  0.05678828  1
  S2-  S253  1  0.86320950  0.51671248  0.53760105  1
  S2-  S254  1  0.91109783  0.74976340  0.04280534  1
  S2-  S255  1  0.85721868  0.76184198  0.54807013  1
