# generated using pymatgen
data_La6Ce6Pr19Nd20Sm13(BiS2)64
_symmetry_space_group_name_H-M   'P 1'
_cell_length_a   16.12190378
_cell_length_b   16.05958711
_cell_length_c   27.24966884
_cell_angle_alpha   89.83306829
_cell_angle_beta   89.74958422
_cell_angle_gamma   89.95110195
_symmetry_Int_Tables_number   1
_chemical_formula_structural   La6Ce6Pr19Nd20Sm13(BiS2)64
_chemical_formula_sum   'La6 Ce6 Pr19 Nd20 Sm13 Bi64 S128'
_cell_volume   7055.14240986
_cell_formula_units_Z   1
loop_
 _symmetry_equiv_pos_site_id
 _symmetry_equiv_pos_as_xyz
  1  'x, y, z'
loop_
 _atom_type_symbol
 _atom_type_oxidation_number
  La3+  3.0
  Ce3+  3.0
  Pr3+  3.0
  Nd3+  3.0
  Sm3+  3.0
  Bi2+  2.0
  S2-  -2.0
loop_
 _atom_site_type_symbol
 _atom_site_label
 _atom_site_symmetry_multiplicity
 _atom_site_fract_x
 _atom_site_fract_y
 _atom_site_fract_z
 _atom_site_occupancy
  La3+  La0  1  0.37515515  0.50078338  0.93539732  1
  La3+  La1  1  0.12470723  0.75026155  0.92812020  1
  La3+  La2  1  0.13630761  0.00974004  0.90036485  1
  La3+  La3  1  0.87118168  0.50348333  0.93473637  1
  La3+  La4  1  0.61881886  0.75570278  0.89029794  1
  La3+  La5  1  0.38525641  0.73183116  0.44002480  1
  Ce3+  Ce6  1  0.50960265  0.35332232  0.56022709  1
  Ce3+  Ce7  1  0.50941141  0.10618611  0.55659702  1
  Ce3+  Ce8  1  0.74851650  0.37746898  0.06998823  1
  Ce3+  Ce9  1  0.12027448  0.50325516  0.94527257  1
  Ce3+  Ce10  1  0.13163437  -0.01994358  0.44351674  1
  Ce3+  Ce11  1  0.38347578  -0.02214045  0.43575298  1
  Pr3+  Pr12  1  -0.00387045  0.12172996  0.06288582  1
  Pr3+  Pr13  1  -0.00094245  0.37103453  0.08022852  1
  Pr3+  Pr14  1  0.88850477  0.48500720  0.43455248  1
  Pr3+  Pr15  1  0.26022962  0.35350647  0.56832043  1
  Pr3+  Pr16  1  0.87416270  0.25170723  0.93778630  1
  Pr3+  Pr17  1  0.49312546  0.88291104  0.07279923  1
  Pr3+  Pr18  1  0.00335799  0.85100638  0.57093651  1
  Pr3+  Pr19  1  0.25863240  0.85951120  0.57257273  1
  Pr3+  Pr20  1  0.89603863  0.23917492  0.41377567  1
  Pr3+  Pr21  1  0.50644109  0.59740908  0.58349194  1
  Pr3+  Pr22  1  0.37936264  0.22491857  0.43261003  1
  Pr3+  Pr23  1  0.62184121  0.50197203  0.93841410  1
  Pr3+  Pr24  1  0.76056679  0.85407880  0.55406004  1
  Pr3+  Pr25  1  0.49587050  0.12776909  0.05851762  1
  Pr3+  Pr26  1  0.51118216  0.85559329  0.56838598  1
  Pr3+  Pr27  1  0.12254518  0.25492512  0.93657905  1
  Pr3+  Pr28  1  0.87475828  0.75749592  0.92506250  1
  Pr3+  Pr29  1  0.00658581  0.60150345  0.57316374  1
  Pr3+  Pr30  1  0.76909854  0.10477373  0.55652338  1
  Nd3+  Nd31  1  0.24861154  0.37769625  0.07207024  1
  Nd3+  Nd32  1  0.13921297  0.23380018  0.43557021  1
  Nd3+  Nd33  1  0.63103111  0.72446753  0.43770877  1
  Nd3+  Nd34  1  0.75650110  0.60165525  0.56164392  1
  Nd3+  Nd35  1  0.37216949  0.75088605  0.92117466  1
  Nd3+  Nd36  1  0.24713408  0.87689710  0.05723677  1
  Nd3+  Nd37  1  0.49811789  0.63433135  0.05827353  1
  Nd3+  Nd38  1  0.00781252  0.35760254  0.56550225  1
  Nd3+  Nd39  1  0.88777462  0.72905901  0.43781540  1
  Nd3+  Nd40  1  -0.00434037  0.87849116  0.05860900  1
  Nd3+  Nd41  1  0.62557200  0.25498264  0.94185312  1
  Nd3+  Nd42  1  0.87629652  0.00414692  0.92622013  1
  Nd3+  Nd43  1  0.25303479  0.10204340  0.57182221  1
  Nd3+  Nd44  1  0.89390684  -0.02756236  0.41859941  1
  Nd3+  Nd45  1  0.24900446  0.63050268  0.05967174  1
  Nd3+  Nd46  1  0.63634923  0.22678962  0.43908612  1
  Nd3+  Nd47  1  0.74682310  0.11449627  0.06680933  1
  Nd3+  Nd48  1  0.37297813  0.25655447  0.93809203  1
  Nd3+  Nd49  1  0.62085093  0.00401052  0.92850442  1
  Nd3+  Nd50  1  0.63094308  0.48004394  0.43627141  1
  Sm3+  Sm51  1  0.26177541  0.61119001  0.57792664  1
  Sm3+  Sm52  1  0.24563224  0.12782340  0.05333845  1
  Sm3+  Sm53  1  0.63606180  -0.02358347  0.43664173  1
  Sm3+  Sm54  1  0.37563748  -0.00001266  0.93661693  1
  Sm3+  Sm55  1  0.38569638  0.48558393  0.44383462  1
  Sm3+  Sm56  1  0.13570019  0.72923331  0.45019953  1
  Sm3+  Sm57  1  0.00853569  0.10465587  0.55973443  1
  Sm3+  Sm58  1  0.74306031  0.87599560  0.04387973  1
  Sm3+  Sm59  1  -0.00668388  0.63483798  0.06354447  1
  Sm3+  Sm60  1  0.13901866  0.48260406  0.45088706  1
  Sm3+  Sm61  1  0.49676702  0.38030769  0.07209705  1
  Sm3+  Sm62  1  0.76127789  0.35422457  0.54795721  1
  Sm3+  Sm63  1  0.74456101  0.63295256  0.04983879  1
  Bi2+  Bi64  1  -0.02489102  0.10308112  0.29650063  1
  Bi2+  Bi65  1  -0.05217323  0.12122067  0.77002145  1
  Bi2+  Bi66  1  0.04772611  0.37436665  0.28995962  1
  Bi2+  Bi67  1  -0.00154290  0.30510888  0.74289103  1
  Bi2+  Bi68  1  -0.05479298  0.64456009  0.31778032  1
  Bi2+  Bi69  1  -0.01198660  0.53626591  0.80254523  1
  Bi2+  Bi70  1  0.01808521  0.83826311  0.29447898  1
  Bi2+  Bi71  1  0.01367335  0.80663814  0.80288070  1
  Bi2+  Bi72  1  0.23892410  0.06985182  0.29035423  1
  Bi2+  Bi73  1  0.25120309  0.26007710  0.80692706  1
  Bi2+  Bi74  1  0.25149422  0.36848297  0.28666749  1
  Bi2+  Bi75  1  0.10892678  0.38728233  0.82667097  1
  Bi2+  Bi76  1  0.19879524  0.62863291  0.29474844  1
  Bi2+  Bi77  1  0.24469269  0.59506436  0.78706577  1
  Bi2+  Bi78  1  0.24200225  0.88701242  0.24546355  1
  Bi2+  Bi79  1  0.32765698  0.86030922  0.78693615  1
  Bi2+  Bi80  1  0.46993702  0.20679328  0.30663703  1
  Bi2+  Bi81  1  0.47302434  0.14851632  0.81068284  1
  Bi2+  Bi82  1  0.49852883  0.40376262  0.31811391  1
  Bi2+  Bi83  1  0.49219563  0.35718542  0.79278534  1
  Bi2+  Bi84  1  0.50410501  0.69222760  0.31108254  1
  Bi2+  Bi85  1  0.49002781  0.64124327  0.77702470  1
  Bi2+  Bi86  1  0.49240339  0.89572714  0.29696600  1
  Bi2+  Bi87  1  0.53374483  0.97325045  0.75932397  1
  Bi2+  Bi88  1  0.71244271  0.12477595  0.29922125  1
  Bi2+  Bi89  1  0.66642209  0.14849696  0.82370906  1
  Bi2+  Bi90  1  0.77158950  0.44849967  0.29133061  1
  Bi2+  Bi91  1  0.74857191  0.32362566  0.80010225  1
  Bi2+  Bi92  1  0.75669962  0.64264638  0.29973795  1
  Bi2+  Bi93  1  0.74141595  0.57937145  0.79056414  1
  Bi2+  Bi94  1  0.71488200  0.88298933  0.22523403  1
  Bi2+  Bi95  1  0.77089033  0.98386950  0.79090952  1
  Bi2+  Bi96  1  0.09416022  0.00797826  0.22004645  1
  Bi2+  Bi97  1  0.15059371  0.01043935  0.71427225  1
  Bi2+  Bi98  1  0.13302960  0.25155836  0.20561613  1
  Bi2+  Bi99  1  0.17091976  0.26377722  0.69513145  1
  Bi2+  Bi100  1  0.04818640  0.55101296  0.23168932  1
  Bi2+  Bi101  1  0.11396041  0.52768412  0.71140167  1
  Bi2+  Bi102  1  0.12128649  0.73727696  0.20275931  1
  Bi2+  Bi103  1  0.13217795  0.72340214  0.72711014  1
  Bi2+  Bi104  1  0.36320086  0.03912905  0.20324507  1
  Bi2+  Bi105  1  0.35142632  0.04406828  0.74000273  1
  Bi2+  Bi106  1  0.38600537  0.25686029  0.20522153  1
  Bi2+  Bi107  1  0.36649854  0.24150934  0.70296114  1
  Bi2+  Bi108  1  0.36622608  0.52509328  0.27411729  1
  Bi2+  Bi109  1  0.37849365  0.44842262  0.71484671  1
  Bi2+  Bi110  1  0.37884874  0.72737129  0.19005712  1
  Bi2+  Bi111  1  0.40541300  0.74699546  0.69322506  1
  Bi2+  Bi112  1  0.58127396  0.03290116  0.23031214  1
  Bi2+  Bi113  1  0.68493874  0.09487536  0.70540432  1
  Bi2+  Bi114  1  0.57992953  0.26911642  0.21655738  1
  Bi2+  Bi115  1  0.56315103  0.25272595  0.68608430  1
  Bi2+  Bi116  1  0.60793463  0.47101963  0.23155400  1
  Bi2+  Bi117  1  0.64094642  0.42558071  0.72022766  1
  Bi2+  Bi118  1  0.60689960  0.67969862  0.20804148  1
  Bi2+  Bi119  1  0.67217651  0.77302488  0.70329655  1
  Bi2+  Bi120  1  0.85143324  0.01586139  0.20164187  1
  Bi2+  Bi121  1  0.90346837  -0.03491024  0.70368481  1
  Bi2+  Bi122  1  0.87037124  0.26640350  0.21139495  1
  Bi2+  Bi123  1  0.83030908  0.23100524  0.69683537  1
  Bi2+  Bi124  1  0.85862295  0.54920993  0.20439145  1
  Bi2+  Bi125  1  0.84772026  0.50133652  0.70590433  1
  Bi2+  Bi126  1  0.86435763  0.76116494  0.21139055  1
  Bi2+  Bi127  1  0.91141888  0.70593075  0.72806497  1
  S2-  S128  1  -0.00241752  0.22392990  0.14846643  1
  S2-  S129  1  0.11772978  0.12692208  0.64026295  1
  S2-  S130  1  -0.13794756  0.39324145  0.14656996  1
  S2-  S131  1  -0.00813439  0.46933753  0.64385426  1
  S2-  S132  1  -0.01483881  0.75839557  0.13590601  1
  S2-  S133  1  -0.00161860  0.72093851  0.64790241  1
  S2-  S134  1  -0.02029888  0.99288447  0.13887987  1
  S2-  S135  1  0.05592359  0.91943651  0.66132436  1
  S2-  S136  1  0.25209857  0.14910835  0.15187934  1
  S2-  S137  1  0.28236981  -0.01708105  0.64744521  1
  S2-  S138  1  0.13447574  0.38510124  0.14936978  1
  S2-  S139  1  0.23675617  0.42623856  0.66016409  1
  S2-  S140  1  0.24031437  0.63455033  0.16027190  1
  S2-  S141  1  0.37216974  0.59205665  0.65485259  1
  S2-  S142  1  0.32229742  0.88359111  0.14828628  1
  S2-  S143  1  0.24959508  0.74614964  0.65145578  1
  S2-  S144  1  0.50585583  0.02569908  0.14020006  1
  S2-  S145  1  0.52719350  0.09126338  0.65286172  1
  S2-  S146  1  0.37471093  0.38331623  0.14332575  1
  S2-  S147  1  0.51889338  0.44296519  0.64418195  1
  S2-  S148  1  0.47219083  0.60265501  0.15817068  1
  S2-  S149  1  0.56657349  0.65805218  0.67786141  1
  S2-  S150  1  0.52261421  0.80485060  0.16510733  1
  S2-  S151  1  0.53429055  0.86879559  0.66940279  1
  S2-  S152  1  0.77151742  0.16538935  0.16481452  1
  S2-  S153  1  0.88768677  0.10078284  0.63241350  1
  S2-  S154  1  0.62215337  0.37975820  0.14239425  1
  S2-  S155  1  0.76429426  0.37679395  0.64550971  1
  S2-  S156  1  0.75808153  0.66017203  0.14806265  1
  S2-  S157  1  0.78095961  0.63675583  0.65869607  1
  S2-  S158  1  0.74172144  0.95867865  0.13124982  1
  S2-  S159  1  0.79592777  0.87307556  0.65219019  1
  S2-  S160  1  0.04410547  -0.02289998  0.35894595  1
  S2-  S161  1  0.08597646  -0.04415525  0.80727075  1
  S2-  S162  1  0.04149364  0.22880846  0.35182477  1
  S2-  S163  1  0.13026239  0.16629564  0.84817038  1
  S2-  S164  1  0.15211112  0.47988330  0.35232235  1
  S2-  S165  1  0.11682889  0.60234904  0.86205683  1
  S2-  S166  1  0.14936813  0.75367968  0.35166613  1
  S2-  S167  1  0.24236429  0.77599024  0.84989711  1
  S2-  S168  1  0.37329036  0.08315573  0.35576938  1
  S2-  S169  1  0.30008526  -0.00312745  0.84729497  1
  S2-  S170  1  0.25924416  0.25953470  0.36011556  1
  S2-  S171  1  0.36500658  0.37066729  0.86192282  1
  S2-  S172  1  0.37752896  0.60183640  0.36819990  1
  S2-  S173  1  0.37023316  0.59527154  0.84778769  1
  S2-  S174  1  0.37701150  0.85428398  0.36342571  1
  S2-  S175  1  0.47012276  0.77354551  0.83477509  1
  S2-  S176  1  0.59464602  0.02296004  0.34468017  1
  S2-  S177  1  0.62053526  -0.07753382  0.83897235  1
  S2-  S178  1  0.62903006  0.26653847  0.34244411  1
  S2-  S179  1  0.61692545  0.37185831  0.86593261  1
  S2-  S180  1  0.62003281  0.59799223  0.36269056  1
  S2-  S181  1  0.60261843  0.58771283  0.84727672  1
  S2-  S182  1  0.61245416  0.81305092  0.35007587  1
  S2-  S183  1  0.71066087  0.74297524  0.79634274  1
  S2-  S184  1  0.82889347  0.01529947  0.32519213  1
  S2-  S185  1  0.87423597  -0.11598256  0.84962836  1
  S2-  S186  1  0.84490926  0.21846967  0.31418450  1
  S2-  S187  1  0.88079131  0.13662718  0.85759516  1
  S2-  S188  1  0.90745402  0.40206583  0.34779970  1
  S2-  S189  1  0.86534982  0.37706131  0.86014602  1
  S2-  S190  1  0.88847186  0.82227449  0.35347623  1
  S2-  S191  1  0.87241455  0.62377861  0.85590895  1
  S2-  S192  1  0.00832578  0.10901631  0.45501979  1
  S2-  S193  1  0.00664206  0.12196363  0.95505770  1
  S2-  S194  1  0.01515430  0.36120829  0.45832366  1
  S2-  S195  1  -0.00148012  0.37783957  0.96330106  1
  S2-  S196  1  0.01355726  0.60505892  0.45958367  1
  S2-  S197  1  -0.00478117  0.63114814  0.96064742  1
  S2-  S198  1  0.01193312  0.84933180  0.46124847  1
  S2-  S199  1  0.00877835  0.88404391  0.94818483  1
  S2-  S200  1  0.25498130  0.10356407  0.46311556  1
  S2-  S201  1  0.25309729  0.12770895  0.95018017  1
  S2-  S202  1  0.26416362  0.36301584  0.46183176  1
  S2-  S203  1  0.24448354  0.37933661  0.96374562  1
  S2-  S204  1  0.25795776  0.60606659  0.46912177  1
  S2-  S205  1  0.25062324  0.62755481  0.95592071  1
  S2-  S206  1  0.25391490  0.85538965  0.46450140  1
  S2-  S207  1  0.24786498  0.88362748  0.95276484  1
  S2-  S208  1  0.51145359  0.10560671  0.45308655  1
  S2-  S209  1  0.49533434  0.12971923  0.95119680  1
  S2-  S210  1  0.50628200  0.35464917  0.45391912  1
  S2-  S211  1  0.49785903  0.37539297  0.96725813  1
  S2-  S212  1  0.50917819  0.60206692  0.46965666  1
  S2-  S213  1  0.49900832  0.63425452  0.95275833  1
  S2-  S214  1  0.51545871  0.85753364  0.46177224  1
  S2-  S215  1  0.49584662  0.87840335  0.94810966  1
  S2-  S216  1  0.76340893  0.10495753  0.44744728  1
  S2-  S217  1  0.74499180  0.12514412  0.95723488  1
  S2-  S218  1  0.75963090  0.35648218  0.44392415  1
  S2-  S219  1  0.74817188  0.37642894  0.96452158  1
  S2-  S220  1  0.76089767  0.60411835  0.45461090  1
  S2-  S221  1  0.73976929  0.63696031  0.94746677  1
  S2-  S222  1  0.75722418  0.85347443  0.44886746  1
  S2-  S223  1  0.74003117  0.87506162  0.94258643  1
  S2-  S224  1  0.12828080  0.00181715  0.05027847  1
  S2-  S225  1  0.12903326  -0.02109851  0.54656350  1
  S2-  S226  1  0.12504761  0.25033985  0.04419420  1
  S2-  S227  1  0.13151253  0.23649160  0.54272882  1
  S2-  S228  1  0.11748775  0.51238198  0.05132418  1
  S2-  S229  1  0.13827527  0.48342513  0.55327030  1
  S2-  S230  1  0.12382399  0.75297307  0.04034415  1
  S2-  S231  1  0.13375953  0.72732216  0.55234571  1
  S2-  S232  1  0.36925314  0.00465127  0.04031912  1
  S2-  S233  1  0.38843156  -0.01919220  0.54423053  1
  S2-  S234  1  0.37191174  0.25116449  0.04390483  1
  S2-  S235  1  0.38177428  0.22736457  0.54804481  1
  S2-  S236  1  0.37345599  0.50678755  0.04496000  1
  S2-  S237  1  0.38167055  0.47900187  0.54733875  1
  S2-  S238  1  0.37346351  0.75545537  0.04181324  1
  S2-  S239  1  0.38703594  0.73138188  0.55082835  1
  S2-  S240  1  0.61749679  -0.00010490  0.03431545  1
  S2-  S241  1  0.63889982  -0.01728400  0.54516789  1
  S2-  S242  1  0.62394966  0.24587170  0.04824003  1
  S2-  S243  1  0.63989194  0.22932469  0.54601717  1
  S2-  S244  1  0.62229316  0.50893246  0.04620104  1
  S2-  S245  1  0.63676314  0.47643655  0.54232506  1
  S2-  S246  1  0.62170146  0.75782615  0.05039173  1
  S2-  S247  1  0.63412966  0.72787756  0.54922717  1
  S2-  S248  1  0.87008550  -0.00175242  0.03199660  1
  S2-  S249  1  0.88765579  -0.02387706  0.53333228  1
  S2-  S250  1  0.86737923  0.24566545  0.04556509  1
  S2-  S251  1  0.88784975  0.23736621  0.53593541  1
  S2-  S252  1  0.87193553  0.51285162  0.04523004  1
  S2-  S253  1  0.88111879  0.47992951  0.54069717  1
  S2-  S254  1  0.86801286  0.75641331  0.03382263  1
  S2-  S255  1  0.88055009  0.72464735  0.54315604  1
