# generated using pymatgen
data_La6Ce6Pr19Nd20Sm13(BiS2)64
_symmetry_space_group_name_H-M   'P 1'
_cell_length_a   16.07000400
_cell_length_b   16.09062908
_cell_length_c   27.09651759
_cell_angle_alpha   90.22688686
_cell_angle_beta   90.16589688
_cell_angle_gamma   89.97927585
_symmetry_Int_Tables_number   1
_chemical_formula_structural   La6Ce6Pr19Nd20Sm13(BiS2)64
_chemical_formula_sum   'La6 Ce6 Pr19 Nd20 Sm13 Bi64 S128'
_cell_volume   7006.43723242
_cell_formula_units_Z   1
loop_
 _symmetry_equiv_pos_site_id
 _symmetry_equiv_pos_as_xyz
  1  'x, y, z'
loop_
 _atom_type_symbol
 _atom_type_oxidation_number
  La3+  3.0
  Ce3+  3.0
  Pr3+  3.0
  Nd3+  3.0
  Sm3+  3.0
  Bi2+  2.0
  S2-  -2.0
loop_
 _atom_site_type_symbol
 _atom_site_label
 _atom_site_symmetry_multiplicity
 _atom_site_fract_x
 _atom_site_fract_y
 _atom_site_fract_z
 _atom_site_occupancy
  La3+  La0  1  0.85922141  0.50099361  0.41686815  1
  La3+  La1  1  0.11760053  0.74412918  0.91500806  1
  La3+  La2  1  0.49254017  0.62739119  0.08059682  1
  La3+  La3  1  0.24028415  0.62690619  0.07226749  1
  La3+  La4  1  -0.02151491  0.87241904  0.58780533  1
  La3+  La5  1  0.36969449  0.24262743  0.39498880  1
  Ce3+  Ce6  1  0.60378825  0.75175116  0.43959694  1
  Ce3+  Ce7  1  0.73212001  0.62153194  0.55737423  1
  Ce3+  Ce8  1  0.85785280  0.50218019  0.93201244  1
  Ce3+  Ce9  1  0.24016820  0.38370557  0.06201832  1
  Ce3+  Ce10  1  -0.01973660  0.12766130  0.56921468  1
  Ce3+  Ce11  1  0.60735927  0.25206293  0.45131296  1
  Pr3+  Pr12  1  0.10936802  0.24450383  0.43443025  1
  Pr3+  Pr13  1  0.86098839  -0.00052696  0.92968721  1
  Pr3+  Pr14  1  0.10764102  0.50043594  0.43264654  1
  Pr3+  Pr15  1  0.73152031  0.12867221  0.57491975  1
  Pr3+  Pr16  1  0.47978157  0.87544523  0.55716705  1
  Pr3+  Pr17  1  0.48241963  0.12812231  0.07547388  1
  Pr3+  Pr18  1  0.85337390  0.75483061  0.43756118  1
  Pr3+  Pr19  1  0.74585794  0.38213326  0.58867798  1
  Pr3+  Pr20  1  0.48470010  0.37230467  0.07693079  1
  Pr3+  Pr21  1  -0.01052808  0.63016087  0.05560800  1
  Pr3+  Pr22  1  0.34920415  0.74873596  0.43347305  1
  Pr3+  Pr23  1  -0.01348202  0.38727462  0.06454429  1
  Pr3+  Pr24  1  -0.00973320  0.87348984  0.05883667  1
  Pr3+  Pr25  1  0.85604467  0.25321417  0.92165888  1
  Pr3+  Pr26  1  0.61081801  0.25035124  0.93866054  1
  Pr3+  Pr27  1  0.74001111  0.37450788  0.06722460  1
  Pr3+  Pr28  1  0.36679113  0.50349862  0.93656560  1
  Pr3+  Pr29  1  0.60149352  0.00671681  0.44425821  1
  Pr3+  Pr30  1  0.61151691  0.75182699  0.94194688  1
  Nd3+  Nd31  1  0.48942015  0.87779771  0.06725234  1
  Nd3+  Nd32  1  0.74085604  0.87957144  0.06537267  1
  Nd3+  Nd33  1  0.60269883  0.49815653  0.43590892  1
  Nd3+  Nd34  1  0.36329066  0.00329985  0.94139565  1
  Nd3+  Nd35  1  0.10275027  0.75275914  0.44366130  1
  Nd3+  Nd36  1  0.74005819  0.62681668  0.07817486  1
  Nd3+  Nd37  1  0.23013253  0.62011921  0.57038046  1
  Nd3+  Nd38  1  0.23743768  0.12752223  0.06320105  1
  Nd3+  Nd39  1  0.48197414  0.62402058  0.55840277  1
  Nd3+  Nd40  1  0.34952532  0.49817839  0.43138986  1
  Nd3+  Nd41  1  -0.02143838  0.62354367  0.56415955  1
  Nd3+  Nd42  1  0.73110285  0.87517976  0.56732826  1
  Nd3+  Nd43  1  0.61440482  0.50108725  0.94092085  1
  Nd3+  Nd44  1  0.11256183  0.00145354  0.93548445  1
  Nd3+  Nd45  1  -0.01219833  0.12877637  0.05037783  1
  Nd3+  Nd46  1  0.36596945  0.75066482  0.94039299  1
  Nd3+  Nd47  1  0.36366402  0.25448873  0.93499793  1
  Nd3+  Nd48  1  0.22917812  0.12716178  0.57411422  1
  Nd3+  Nd49  1  0.48015053  0.37542417  0.55719002  1
  Nd3+  Nd50  1  0.22946238  0.37549509  0.55984722  1
  Sm3+  Sm51  1  0.10359121  0.49938145  0.92946999  1
  Sm3+  Sm52  1  0.23514534  0.87137745  0.05522160  1
  Sm3+  Sm53  1  0.85310494  0.25275681  0.43525287  1
  Sm3+  Sm54  1  0.35245379  0.00726535  0.44775050  1
  Sm3+  Sm55  1  0.47807056  0.12909839  0.57448980  1
  Sm3+  Sm56  1  0.61214599  0.00348751  0.95019508  1
  Sm3+  Sm57  1  0.10406721  0.00167345  0.45121929  1
  Sm3+  Sm58  1  -0.02069559  0.37520076  0.55158717  1
  Sm3+  Sm59  1  0.85575710  0.00052636  0.44090786  1
  Sm3+  Sm60  1  0.85817192  0.75135645  0.93789932  1
  Sm3+  Sm61  1  0.11251940  0.25415955  0.94643520  1
  Sm3+  Sm62  1  0.74232941  0.13135578  0.06431657  1
  Sm3+  Sm63  1  0.23190750  0.87066522  0.56338880  1
  Bi2+  Bi64  1  0.00371790  0.06596384  0.30928249  1
  Bi2+  Bi65  1  0.08688789  0.16882150  0.76413745  1
  Bi2+  Bi66  1  -0.01836517  0.25972784  0.31638307  1
  Bi2+  Bi67  1  0.04222170  0.39220016  0.78461795  1
  Bi2+  Bi68  1  0.02011005  0.63743719  0.30227299  1
  Bi2+  Bi69  1  0.00995683  0.63317255  0.79310786  1
  Bi2+  Bi70  1  -0.02273989  0.86729160  0.28464937  1
  Bi2+  Bi71  1  0.01966157  0.92569324  0.79539553  1
  Bi2+  Bi72  1  0.22963549  0.09203710  0.29362502  1
  Bi2+  Bi73  1  0.27632348  0.19858264  0.81068804  1
  Bi2+  Bi74  1  0.14201051  0.29527901  0.25372460  1
  Bi2+  Bi75  1  0.31380551  0.40315559  0.81268119  1
  Bi2+  Bi76  1  0.27470274  0.62453038  0.30845385  1
  Bi2+  Bi77  1  0.27634845  0.59143011  0.78315750  1
  Bi2+  Bi78  1  0.33175863  0.93859367  0.22308528  1
  Bi2+  Bi79  1  0.32371446  0.90969111  0.75792339  1
  Bi2+  Bi80  1  0.51052067  0.09457639  0.28934918  1
  Bi2+  Bi81  1  0.45042976  0.10512358  0.81394479  1
  Bi2+  Bi82  1  0.54113413  0.36301908  0.29404999  1
  Bi2+  Bi83  1  0.51506956  0.38640522  0.79606906  1
  Bi2+  Bi84  1  0.52829161  0.63663834  0.30518173  1
  Bi2+  Bi85  1  0.47728663  0.67026365  0.80796961  1
  Bi2+  Bi86  1  0.49276697  0.88892281  0.28716028  1
  Bi2+  Bi87  1  0.54737516  0.85331801  0.81450433  1
  Bi2+  Bi88  1  0.81670587  0.12543235  0.32553245  1
  Bi2+  Bi89  1  0.65444183  0.11196033  0.77839531  1
  Bi2+  Bi90  1  0.73074568  0.29850321  0.28014058  1
  Bi2+  Bi91  1  0.75146144  0.35480199  0.79122949  1
  Bi2+  Bi92  1  0.75575407  0.65976498  0.27777310  1
  Bi2+  Bi93  1  0.74193567  0.59897778  0.77623485  1
  Bi2+  Bi94  1  0.76327741  0.94242116  0.28738316  1
  Bi2+  Bi95  1  0.78828309  0.86360026  0.80266615  1
  Bi2+  Bi96  1  0.13942715  -0.06655807  0.18735231  1
  Bi2+  Bi97  1  0.21555801  0.06160033  0.71433655  1
  Bi2+  Bi98  1  0.14364731  0.13176657  0.19041906  1
  Bi2+  Bi99  1  0.14466085  0.33552528  0.69035018  1
  Bi2+  Bi100  1  0.10054764  0.47958299  0.22497283  1
  Bi2+  Bi101  1  0.08779120  0.52637662  0.70285048  1
  Bi2+  Bi102  1  0.10961718  0.74205689  0.21695610  1
  Bi2+  Bi103  1  0.13895025  0.78952511  0.70627020  1
  Bi2+  Bi104  1  0.52682661  -0.01380139  0.18581421  1
  Bi2+  Bi105  1  0.46960968  0.02903196  0.70873239  1
  Bi2+  Bi106  1  0.38325111  0.22481120  0.21107238  1
  Bi2+  Bi107  1  0.33022743  0.27820795  0.70967868  1
  Bi2+  Bi108  1  0.34962413  0.47194969  0.20631292  1
  Bi2+  Bi109  1  0.37714590  0.47794600  0.70761507  1
  Bi2+  Bi110  1  0.35349687  0.74964623  0.21179746  1
  Bi2+  Bi111  1  0.40567845  0.74938106  0.71084101  1
  Bi2+  Bi112  1  0.73624925  -0.00060083  0.17900820  1
  Bi2+  Bi113  1  0.64362317  -0.08929918  0.72019064  1
  Bi2+  Bi114  1  0.63883241  0.16656409  0.20992444  1
  Bi2+  Bi115  1  0.54833951  0.24266015  0.71679817  1
  Bi2+  Bi116  1  0.65159619  0.49952800  0.21746298  1
  Bi2+  Bi117  1  0.58059528  0.52536533  0.72273960  1
  Bi2+  Bi118  1  0.62062320  0.76879071  0.21520582  1
  Bi2+  Bi119  1  0.67972372  0.72089328  0.69274235  1
  Bi2+  Bi120  1  0.93198135  -0.05009077  0.18307416  1
  Bi2+  Bi121  1  0.88319150  0.00437000  0.71969886  1
  Bi2+  Bi122  1  0.87856896  0.21612890  0.21295653  1
  Bi2+  Bi123  1  0.87401009  0.26092945  0.71370871  1
  Bi2+  Bi124  1  0.90630681  0.46597806  0.21537240  1
  Bi2+  Bi125  1  0.88639087  0.52266314  0.70757357  1
  Bi2+  Bi126  1  0.88662275  0.73590595  0.21103302  1
  Bi2+  Bi127  1  0.87148858  0.74208618  0.71499425  1
  S2-  S128  1  -0.02380417  0.11049911  0.15002829  1
  S2-  S129  1  0.10306627  0.13768367  0.64748825  1
  S2-  S130  1  -0.03737066  0.32899919  0.16179623  1
  S2-  S131  1  -0.08977207  0.37827484  0.64255753  1
  S2-  S132  1  -0.00803651  0.52685934  0.14105151  1
  S2-  S133  1  -0.00025734  0.72291376  0.64881565  1
  S2-  S134  1  0.00194722  0.74997875  0.13403775  1
  S2-  S135  1  0.02635142  0.93175698  0.68656224  1
  S2-  S136  1  0.34264223  0.11754574  0.14385575  1
  S2-  S137  1  0.35406849  0.12405875  0.64999610  1
  S2-  S138  1  0.33328729  0.34449404  0.14423378  1
  S2-  S139  1  0.23382234  0.48639400  0.63969234  1
  S2-  S140  1  0.20489638  0.49515569  0.14524009  1
  S2-  S141  1  0.25141399  0.70717593  0.65842266  1
  S2-  S142  1  0.22522043  0.77036475  0.13787200  1
  S2-  S143  1  0.23981412  0.90897571  0.65982646  1
  S2-  S144  1  0.51753149  0.24534898  0.15138596  1
  S2-  S145  1  0.59864463  0.12630569  0.64805867  1
  S2-  S146  1  0.51037130  0.45653849  0.17126535  1
  S2-  S147  1  0.51159625  0.39668300  0.65574732  1
  S2-  S148  1  0.36551319  0.61054346  0.15409483  1
  S2-  S149  1  0.51556335  0.64643030  0.65669719  1
  S2-  S150  1  0.48539269  0.78023909  0.15017493  1
  S2-  S151  1  0.48975544  0.87621531  0.65753333  1
  S2-  S152  1  0.75242618  0.24387501  0.14090871  1
  S2-  S153  1  0.86201494  0.12740727  0.64698131  1
  S2-  S154  1  0.77245660  0.48697369  0.14819504  1
  S2-  S155  1  0.72705370  0.30816322  0.68448445  1
  S2-  S156  1  0.62023606  0.62691706  0.15576709  1
  S2-  S157  1  0.75076681  0.53507656  0.64155863  1
  S2-  S158  1  0.75161924  0.77927219  0.14805023  1
  S2-  S159  1  0.83096725  0.89236847  0.64906707  1
  S2-  S160  1  0.13628772  -0.01430594  0.35316457  1
  S2-  S161  1  0.12441973  0.03206297  0.83699195  1
  S2-  S162  1  0.20800334  0.23554513  0.34982358  1
  S2-  S163  1  0.11739648  0.26945033  0.84818496  1
  S2-  S164  1  0.22304077  0.49671317  0.35459147  1
  S2-  S165  1  0.14208333  0.60054823  0.85120829  1
  S2-  S166  1  0.16815954  0.73039180  0.35083697  1
  S2-  S167  1  0.12140064  0.80662395  0.81481833  1
  S2-  S168  1  0.37002586  0.07607861  0.35781397  1
  S2-  S169  1  0.38857395  -0.05903263  0.84848429  1
  S2-  S170  1  0.38539840  0.32730460  0.30093126  1
  S2-  S171  1  0.48826286  0.25073265  0.86297069  1
  S2-  S172  1  0.42038664  0.53291669  0.33840359  1
  S2-  S173  1  0.49632507  0.51889473  0.86418013  1
  S2-  S174  1  0.40459943  0.75653319  0.33673597  1
  S2-  S175  1  0.32155863  0.72017153  0.84423899  1
  S2-  S176  1  0.61450157  -0.01520648  0.34366120  1
  S2-  S177  1  0.63509578  0.00721919  0.85164511  1
  S2-  S178  1  0.54828778  0.22982239  0.35884763  1
  S2-  S179  1  0.71333106  0.23083285  0.85307452  1
  S2-  S180  1  0.63501233  0.50342667  0.33562109  1
  S2-  S181  1  0.73213967  0.49334879  0.85940792  1
  S2-  S182  1  0.65089038  0.74754077  0.34582630  1
  S2-  S183  1  0.67863205  0.75097477  0.84761620  1
  S2-  S184  1  0.86035664  -0.11632604  0.36441619  1
  S2-  S185  1  0.87416187  0.02234061  0.82852113  1
  S2-  S186  1  0.83554671  0.35736354  0.35191422  1
  S2-  S187  1  0.89638548  0.28809110  0.82087827  1
  S2-  S188  1  1.00321367  0.49782689  0.34772218  1
  S2-  S189  1  0.96927369  0.49734671  0.85420585  1
  S2-  S190  1  0.86334519  0.64803216  0.35380333  1
  S2-  S191  1  0.90591896  0.75556929  0.84249678  1
  S2-  S192  1  -0.02197265  0.12468567  0.45712102  1
  S2-  S193  1  -0.01221009  0.12936710  0.94288695  1
  S2-  S194  1  -0.01724226  0.36993369  0.44963302  1
  S2-  S195  1  -0.01416290  0.37198562  0.95361496  1
  S2-  S196  1  -0.01741584  0.62932209  0.45824341  1
  S2-  S197  1  -0.01527537  0.63107556  0.94917297  1
  S2-  S198  1  -0.01671036  0.87793563  0.46435143  1
  S2-  S199  1  -0.01180671  0.87612198  0.94792347  1
  S2-  S200  1  0.22947898  0.12258549  0.46602635  1
  S2-  S201  1  0.23649237  0.12766255  0.95448591  1
  S2-  S202  1  0.23522186  0.36797609  0.45449199  1
  S2-  S203  1  0.23604629  0.37854923  0.95117639  1
  S2-  S204  1  0.22901511  0.62652178  0.46169498  1
  S2-  S205  1  0.24313697  0.62560488  0.95718433  1
  S2-  S206  1  0.23183689  0.87885199  0.45679284  1
  S2-  S207  1  0.23798965  0.87694260  0.94847918  1
  S2-  S208  1  0.47646106  0.13006967  0.46782329  1
  S2-  S209  1  0.48648589  0.12231586  0.96359903  1
  S2-  S210  1  0.47514106  0.37271665  0.44914590  1
  S2-  S211  1  0.48760944  0.37644831  0.96340013  1
  S2-  S212  1  0.47900847  0.62637159  0.45193307  1
  S2-  S213  1  0.48926248  0.63044695  0.96541760  1
  S2-  S214  1  0.47515179  0.87897585  0.45005293  1
  S2-  S215  1  0.48930089  0.87979461  0.95997814  1
  S2-  S216  1  0.73217057  0.12529215  0.46022639  1
  S2-  S217  1  0.74020053  0.12251303  0.95847247  1
  S2-  S218  1  0.72810970  0.37633208  0.45344143  1
  S2-  S219  1  0.73762813  0.37273993  0.95881040  1
  S2-  S220  1  0.72688240  0.62364430  0.45183846  1
  S2-  S221  1  0.73787704  0.63062946  0.95963339  1
  S2-  S222  1  0.72545304  0.87996529  0.46074185  1
  S2-  S223  1  0.73745504  0.87943197  0.95637728  1
  S2-  S224  1  0.11396414  0.00051280  0.04338137  1
  S2-  S225  1  0.10558294  -0.00625244  0.55475294  1
  S2-  S226  1  0.11320570  0.25492153  0.05192613  1
  S2-  S227  1  0.10341181  0.25420441  0.54341368  1
  S2-  S228  1  0.11278874  0.50344769  0.03338326  1
  S2-  S229  1  0.10050936  0.49962693  0.54238291  1
  S2-  S230  1  0.11527772  0.75358738  0.02888572  1
  S2-  S231  1  0.10953245  0.74986440  0.54920436  1
  S2-  S232  1  0.35854405  -0.00536624  0.04729693  1
  S2-  S233  1  0.35427523  -0.00137993  0.55159566  1
  S2-  S234  1  0.35944090  0.24902402  0.03919876  1
  S2-  S235  1  0.35515273  0.25472173  0.55678446  1
  S2-  S236  1  0.36731378  0.50112652  0.04430302  1
  S2-  S237  1  0.35892005  0.50168244  0.54126966  1
  S2-  S238  1  0.36503028  0.75629289  0.04479742  1
  S2-  S239  1  0.35618580  0.74865396  0.54424059  1
  S2-  S240  1  0.61482597  0.00698349  0.05370989  1
  S2-  S241  1  0.60537781  0.00069746  0.55154145  1
  S2-  S242  1  0.61401894  0.24662674  0.04485514  1
  S2-  S243  1  0.61304468  0.26040453  0.55518067  1
  S2-  S244  1  0.61515069  0.49960980  0.04861621  1
  S2-  S245  1  0.60619189  0.49863695  0.54443765  1
  S2-  S246  1  0.61726631  0.75681120  0.04768695  1
  S2-  S247  1  0.60712300  0.75075855  0.54750858  1
  S2-  S248  1  0.86516442  0.00258493  0.04017417  1
  S2-  S249  1  0.85519578  0.00107930  0.54486260  1
  S2-  S250  1  0.86766001  0.25183399  0.03686886  1
  S2-  S251  1  0.85298475  0.25425195  0.54125671  1
  S2-  S252  1  0.86067909  0.50577824  0.03837092  1
  S2-  S253  1  0.85946544  0.50054072  0.53497049  1
  S2-  S254  1  0.85933682  0.75352591  0.04136034  1
  S2-  S255  1  0.85337768  0.74894147  0.54707980  1
