# generated using pymatgen
data_La6Ce6Pr19Nd20Sm13(BiS2)64
_symmetry_space_group_name_H-M   'P 1'
_cell_length_a   16.08227373
_cell_length_b   16.08290422
_cell_length_c   27.50382965
_cell_angle_alpha   89.88572764
_cell_angle_beta   90.21282552
_cell_angle_gamma   90.02737332
_symmetry_Int_Tables_number   1
_chemical_formula_structural   La6Ce6Pr19Nd20Sm13(BiS2)64
_chemical_formula_sum   'La6 Ce6 Pr19 Nd20 Sm13 Bi64 S128'
_cell_volume   7113.79239654
_cell_formula_units_Z   1
loop_
 _symmetry_equiv_pos_site_id
 _symmetry_equiv_pos_as_xyz
  1  'x, y, z'
loop_
 _atom_type_symbol
 _atom_type_oxidation_number
  La3+  3.0
  Ce3+  3.0
  Pr3+  3.0
  Nd3+  3.0
  Sm3+  3.0
  Bi2+  2.0
  S2-  -2.0
loop_
 _atom_site_type_symbol
 _atom_site_label
 _atom_site_symmetry_multiplicity
 _atom_site_fract_x
 _atom_site_fract_y
 _atom_site_fract_z
 _atom_site_occupancy
  La3+  La0  1  0.15833075  0.26040034  0.88053499  1
  La3+  La1  1  0.49599423  0.11686008  0.09253205  1
  La3+  La2  1  0.87838043  0.74831177  0.42733620  1
  La3+  La3  1  0.62067013  0.75215779  0.90773175  1
  La3+  La4  1  0.39785686  0.48890222  0.38276606  1
  La3+  La5  1  0.37383827  -0.00176891  0.43520795  1
  Ce3+  Ce6  1  0.12432546  0.50117028  0.94774648  1
  Ce3+  Ce7  1  0.38069763  0.25603055  0.94927007  1
  Ce3+  Ce8  1  0.37097639  0.50137634  0.94513084  1
  Ce3+  Ce9  1  -0.00463466  0.10626467  0.57663314  1
  Ce3+  Ce10  1  0.12642122  0.01279843  0.93488188  1
  Ce3+  Ce11  1  0.49802112  0.87145396  0.55247444  1
  Pr3+  Pr12  1  0.12704348  0.49407500  0.43117544  1
  Pr3+  Pr13  1  0.37928031  0.01198497  0.92443022  1
  Pr3+  Pr14  1  0.88089908  -0.00270861  0.42728411  1
  Pr3+  Pr15  1  0.37296067  0.74321667  0.43676506  1
  Pr3+  Pr16  1  0.75174269  0.63217700  0.06676431  1
  Pr3+  Pr17  1  0.49934648  0.62039997  0.56873266  1
  Pr3+  Pr18  1  0.87558273  0.76039516  0.94205087  1
  Pr3+  Pr19  1  0.36728951  0.24176331  0.42508435  1
  Pr3+  Pr20  1  0.87581980  0.50163133  0.43263159  1
  Pr3+  Pr21  1  0.12605930  0.75704079  0.93203030  1
  Pr3+  Pr22  1  0.00256934  0.88793534  0.06579976  1
  Pr3+  Pr23  1  0.50373176  0.38772248  0.07449343  1
  Pr3+  Pr24  1  0.75204071  0.37956256  0.05812212  1
  Pr3+  Pr25  1  0.87309287  0.51974115  0.93899693  1
  Pr3+  Pr26  1  0.24921303  0.37751958  0.06626832  1
  Pr3+  Pr27  1  0.00159564  0.64107811  0.07177967  1
  Pr3+  Pr28  1  0.62363003  0.25901790  0.93743740  1
  Pr3+  Pr29  1  0.12557449  0.74668779  0.43343378  1
  Pr3+  Pr30  1  0.25625987  0.11685555  0.57311199  1
  Nd3+  Nd31  1  0.25570474  0.88554887  0.05193278  1
  Nd3+  Nd32  1  0.62236124  0.00601214  0.92547642  1
  Nd3+  Nd33  1  0.74483161  0.13183024  0.05065285  1
  Nd3+  Nd34  1  0.62401494  0.74049402  0.44079246  1
  Nd3+  Nd35  1  0.50169947  0.12733052  0.57208759  1
  Nd3+  Nd36  1  0.87510534  0.24448211  0.45123388  1
  Nd3+  Nd37  1  -0.00375043  0.62020018  0.56733215  1
  Nd3+  Nd38  1  0.24980174  0.63512664  0.06412279  1
  Nd3+  Nd39  1  0.75071149  0.37341839  0.56091004  1
  Nd3+  Nd40  1  0.75128993  0.87291252  0.55634170  1
  Nd3+  Nd41  1  0.74568084  0.12068545  0.56255500  1
  Nd3+  Nd42  1  0.50223424  0.63260279  0.05499715  1
  Nd3+  Nd43  1  0.62309088  0.50348024  0.93412291  1
  Nd3+  Nd44  1  0.87502679  0.00593853  0.94159700  1
  Nd3+  Nd45  1  0.00028479  0.86198976  0.56434651  1
  Nd3+  Nd46  1  0.00000769  0.36836469  0.56390592  1
  Nd3+  Nd47  1  0.62405632  0.49703440  0.44857937  1
  Nd3+  Nd48  1  0.12501417  0.24209150  0.44636287  1
  Nd3+  Nd49  1  0.62413900  -0.00040212  0.43805392  1
  Nd3+  Nd50  1  0.88431174  0.25978266  0.93411381  1
  Sm3+  Sm51  1  0.74865015  0.62911393  0.57227743  1
  Sm3+  Sm52  1  0.24955574  0.36856651  0.55388838  1
  Sm3+  Sm53  1  0.50047292  0.88278716  0.04791661  1
  Sm3+  Sm54  1  0.74534197  0.88414754  0.05792263  1
  Sm3+  Sm55  1  0.49509142  0.36733213  0.55545605  1
  Sm3+  Sm56  1  0.62058632  0.24835760  0.43897974  1
  Sm3+  Sm57  1  0.25253107  0.13339375  0.05334703  1
  Sm3+  Sm58  1  0.25157581  0.86550078  0.56436756  1
  Sm3+  Sm59  1  0.37134394  0.75314619  0.93175874  1
  Sm3+  Sm60  1  0.24987378  0.61571840  0.55041410  1
  Sm3+  Sm61  1  0.12216869  -0.00468169  0.44810264  1
  Sm3+  Sm62  1  -0.00007751  0.37844911  0.06010844  1
  Sm3+  Sm63  1  0.00096829  0.12866326  0.06314837  1
  Bi2+  Bi64  1  0.00069158  0.15245182  0.29789085  1
  Bi2+  Bi65  1  -0.04952311  0.09788485  0.75696193  1
  Bi2+  Bi66  1  0.00824555  0.36938806  0.26501341  1
  Bi2+  Bi67  1  -0.00428707  0.39001295  0.79253926  1
  Bi2+  Bi68  1  -0.02389787  0.60839640  0.29488817  1
  Bi2+  Bi69  1  0.03160504  0.64344986  0.77453053  1
  Bi2+  Bi70  1  -0.01415567  0.88746893  0.29683355  1
  Bi2+  Bi71  1  -0.01746904  0.81051595  0.82774672  1
  Bi2+  Bi72  1  0.26522038  0.12702446  0.28406391  1
  Bi2+  Bi73  1  0.21836436  0.09079764  0.77563198  1
  Bi2+  Bi74  1  0.20054734  0.34839120  0.28114235  1
  Bi2+  Bi75  1  0.28797281  0.44345312  0.73987457  1
  Bi2+  Bi76  1  0.22726188  0.70069231  0.30626843  1
  Bi2+  Bi77  1  0.21362362  0.57694038  0.81204020  1
  Bi2+  Bi78  1  0.25197492  0.88029336  0.35153917  1
  Bi2+  Bi79  1  0.16944607  0.86512106  0.80815369  1
  Bi2+  Bi80  1  0.53180428  0.12626212  0.30053896  1
  Bi2+  Bi81  1  0.48730907  0.26646508  0.81040234  1
  Bi2+  Bi82  1  0.53993417  0.37184312  0.28609226  1
  Bi2+  Bi83  1  0.48788636  0.41716948  0.73037914  1
  Bi2+  Bi84  1  0.52511394  0.63996889  0.28852903  1
  Bi2+  Bi85  1  0.49898825  0.58208302  0.79515014  1
  Bi2+  Bi86  1  0.42324018  0.87529220  0.29176533  1
  Bi2+  Bi87  1  0.52179008  0.90998638  0.78929633  1
  Bi2+  Bi88  1  0.80854975  0.10082792  0.30272484  1
  Bi2+  Bi89  1  0.64437104  0.14882448  0.80452296  1
  Bi2+  Bi90  1  0.81145647  0.38315602  0.29417937  1
  Bi2+  Bi91  1  0.73154060  0.40522273  0.79593930  1
  Bi2+  Bi92  1  0.74132417  0.56433402  0.28533961  1
  Bi2+  Bi93  1  0.74688104  0.69774941  0.78719400  1
  Bi2+  Bi94  1  0.76140011  0.89538685  0.26216459  1
  Bi2+  Bi95  1  0.79613884  0.91242668  0.78429169  1
  Bi2+  Bi96  1  0.16457199  -0.04074511  0.25653362  1
  Bi2+  Bi97  1  0.03929991  -0.07120479  0.72933815  1
  Bi2+  Bi98  1  0.11671751  0.13022738  0.20255621  1
  Bi2+  Bi99  1  0.10701152  0.26952332  0.68498638  1
  Bi2+  Bi100  1  0.14842113  0.53660070  0.26107260  1
  Bi2+  Bi101  1  0.11281990  0.51233506  0.70228359  1
  Bi2+  Bi102  1  0.13801083  0.77669033  0.21269130  1
  Bi2+  Bi103  1  0.16366869  0.74818770  0.70790829  1
  Bi2+  Bi104  1  0.37077726  -0.02036287  0.20499906  1
  Bi2+  Bi105  1  0.37810821  -0.06855014  0.71074343  1
  Bi2+  Bi106  1  0.37369409  0.23527104  0.20760291  1
  Bi2+  Bi107  1  0.34912017  0.21415940  0.69408579  1
  Bi2+  Bi108  1  0.36371454  0.47503844  0.18607798  1
  Bi2+  Bi109  1  0.39587714  0.58515448  0.68746226  1
  Bi2+  Bi110  1  0.33182521  0.73827436  0.20970249  1
  Bi2+  Bi111  1  0.39344739  0.74487320  0.75482129  1
  Bi2+  Bi112  1  0.63339394  0.00660725  0.20095957  1
  Bi2+  Bi113  1  0.65154478  -0.08925910  0.69648534  1
  Bi2+  Bi114  1  0.75972921  0.23339884  0.22346121  1
  Bi2+  Bi115  1  0.62058000  0.24717189  0.70426730  1
  Bi2+  Bi116  1  0.64154589  0.51280033  0.19688600  1
  Bi2+  Bi117  1  0.67862629  0.47886767  0.69838623  1
  Bi2+  Bi118  1  0.58667363  0.80413787  0.24414748  1
  Bi2+  Bi119  1  0.58839489  0.72546368  0.71998602  1
  Bi2+  Bi120  1  0.90622291  0.01680020  0.21637627  1
  Bi2+  Bi121  1  0.77446808  0.06471649  0.70641978  1
  Bi2+  Bi122  1  0.94565759  0.22629168  0.18287812  1
  Bi2+  Bi123  1  0.82113570  0.23355381  0.79048597  1
  Bi2+  Bi124  1  0.85611243  0.46577569  0.19112433  1
  Bi2+  Bi125  1  0.84980793  0.56418440  0.73247155  1
  Bi2+  Bi126  1  0.86479910  0.73971605  0.19557086  1
  Bi2+  Bi127  1  0.90025464  0.80569473  0.69602452  1
  S2-  S128  1  0.01564148  0.01389690  0.13935475  1
  S2-  S129  1  -0.02774364  0.18145590  0.66421031  1
  S2-  S130  1  0.00643359  0.38678762  0.15819133  1
  S2-  S131  1  0.00073894  0.40873313  0.66087074  1
  S2-  S132  1  -0.05703073  0.59740383  0.16608864  1
  S2-  S133  1  0.02879528  0.74437443  0.63926594  1
  S2-  S134  1  0.00919815  0.77705659  0.14373477  1
  S2-  S135  1  -0.04122687  0.96522594  0.64071069  1
  S2-  S136  1  0.33092577  0.10595402  0.13981807  1
  S2-  S137  1  0.19955167  0.12398450  0.66995506  1
  S2-  S138  1  0.25414876  0.34454447  0.16561107  1
  S2-  S139  1  0.26075573  0.34753732  0.65155615  1
  S2-  S140  1  0.24718283  0.60350490  0.16091375  1
  S2-  S141  1  0.22875953  0.61865422  0.64794309  1
  S2-  S142  1  0.25863806  0.86921706  0.15077362  1
  S2-  S143  1  0.23956944  0.88428376  0.66114872  1
  S2-  S144  1  0.52679530  0.14359510  0.19510940  1
  S2-  S145  1  0.39588174  0.08022302  0.64830672  1
  S2-  S146  1  0.48027507  0.34420459  0.17243569  1
  S2-  S147  1  0.48496384  0.27597501  0.63904693  1
  S2-  S148  1  0.50336670  0.55263091  0.14282115  1
  S2-  S149  1  0.62201335  0.61951872  0.64319632  1
  S2-  S150  1  0.50353356  0.95029741  0.13814602  1
  S2-  S151  1  0.48819747  0.84916410  0.64845353  1
  S2-  S152  1  0.72228613  0.11398352  0.14789687  1
  S2-  S153  1  0.63667565  0.11418922  0.64097113  1
  S2-  S154  1  0.71489413  0.36453846  0.15509470  1
  S2-  S155  1  0.74617301  0.33374358  0.65754307  1
  S2-  S156  1  0.72386971  0.65392974  0.16486047  1
  S2-  S157  1  0.86921722  0.60212964  0.63991074  1
  S2-  S158  1  0.77201223  0.87489923  0.15490862  1
  S2-  S159  1  0.75562456  0.79725639  0.64557462  1
  S2-  S160  1  0.02638198  0.01673860  0.36526393  1
  S2-  S161  1  0.11573140  0.09213787  0.84866385  1
  S2-  S162  1  0.20491092  0.23757079  0.35755720  1
  S2-  S163  1  0.16116725  0.25953352  0.77367258  1
  S2-  S164  1  0.22953027  0.47691216  0.34684146  1
  S2-  S165  1  0.12937035  0.43620208  0.85661985  1
  S2-  S166  1  0.01735500  0.74515592  0.35327878  1
  S2-  S167  1  0.24693900  0.73262331  0.85944168  1
  S2-  S168  1  0.39139174  0.10663403  0.35660755  1
  S2-  S169  1  0.29603400  -0.01457516  0.83187926  1
  S2-  S170  1  0.41864804  0.32640985  0.34028899  1
  S2-  S171  1  0.33598204  0.24890885  0.85392628  1
  S2-  S172  1  0.41597265  0.49459167  0.27378069  1
  S2-  S173  1  0.36750900  0.51025126  0.84827623  1
  S2-  S174  1  0.39292586  0.65989709  0.35001225  1
  S2-  S175  1  0.46738235  0.76380876  0.84840275  1
  S2-  S176  1  0.61300940  0.00624260  0.33938264  1
  S2-  S177  1  0.50367025  0.03907274  0.85076025  1
  S2-  S178  1  0.62686069  0.24995025  0.34087509  1
  S2-  S179  1  0.60170026  0.37731128  0.86211432  1
  S2-  S180  1  0.57354636  0.49752389  0.35431343  1
  S2-  S181  1  0.64283722  0.60520473  0.85221837  1
  S2-  S182  1  0.62634114  0.74209813  0.34133308  1
  S2-  S183  1  0.66141672  0.89107857  0.84975703  1
  S2-  S184  1  0.84831956  -0.12376909  0.35351129  1
  S2-  S185  1  0.88063922  0.02324797  0.84329601  1
  S2-  S186  1  0.87816291  0.24302786  0.35303808  1
  S2-  S187  1  0.98190961  0.26175510  0.85240592  1
  S2-  S188  1  1.00054203  0.48873926  0.35849419  1
  S2-  S189  1  0.87820385  0.44974164  0.84637552  1
  S2-  S190  1  0.83584327  0.62514959  0.35799919  1
  S2-  S191  1  0.86660398  0.66686277  0.85875419  1
  S2-  S192  1  -0.00010842  0.12188341  0.46707845  1
  S2-  S193  1  -0.00387475  0.12845842  0.96043396  1
  S2-  S194  1  0.00109992  0.36665987  0.45789928  1
  S2-  S195  1  -0.00602414  0.38837919  0.95929347  1
  S2-  S196  1  0.00346328  0.62074643  0.46057966  1
  S2-  S197  1  0.00510287  0.63444739  0.96120775  1
  S2-  S198  1  0.00205493  0.87255190  0.45973141  1
  S2-  S199  1  0.00331334  0.88551036  0.95751510  1
  S2-  S200  1  0.24529992  0.11536084  0.46138076  1
  S2-  S201  1  0.25098700  0.13548578  0.95073267  1
  S2-  S202  1  0.25009234  0.36910528  0.45361265  1
  S2-  S203  1  0.24666884  0.37391551  0.95945590  1
  S2-  S204  1  0.24975432  0.61910602  0.44907667  1
  S2-  S205  1  0.24909954  0.62739170  0.96004291  1
  S2-  S206  1  0.24828669  0.87150109  0.46163135  1
  S2-  S207  1  0.25297503  0.88446596  0.94867456  1
  S2-  S208  1  0.50341413  0.12459180  0.46011620  1
  S2-  S209  1  0.50349282  0.13497354  0.95544305  1
  S2-  S210  1  0.49810050  0.37192692  0.45393767  1
  S2-  S211  1  0.49842323  0.38393844  0.96599933  1
  S2-  S212  1  0.49843917  0.61808056  0.46086730  1
  S2-  S213  1  0.49617340  0.62975673  0.95177197  1
  S2-  S214  1  0.50052147  0.86975510  0.44578024  1
  S2-  S215  1  0.49921218  0.87757210  0.94796775  1
  S2-  S216  1  0.74674221  0.12391267  0.45395724  1
  S2-  S217  1  0.75122118  0.13405432  0.94546667  1
  S2-  S218  1  0.74977547  0.37072201  0.45262990  1
  S2-  S219  1  0.75544879  0.38173874  0.95326119  1
  S2-  S220  1  0.74635202  0.62006336  0.46485927  1
  S2-  S221  1  0.74273454  0.63784396  0.96076985  1
  S2-  S222  1  0.74308939  0.87103809  0.45225755  1
  S2-  S223  1  0.74731381  0.88019363  0.95492356  1
  S2-  S224  1  0.13275214  0.01038339  0.04129212  1
  S2-  S225  1  0.12918851  -0.00989045  0.55198858  1
  S2-  S226  1  0.12282356  0.25148834  0.05924880  1
  S2-  S227  1  0.12424338  0.24111160  0.55198975  1
  S2-  S228  1  0.12281931  0.50706129  0.05532563  1
  S2-  S229  1  0.12451790  0.49367453  0.54467130  1
  S2-  S230  1  0.13054921  0.76129090  0.04162620  1
  S2-  S231  1  0.13274904  0.74299394  0.53958591  1
  S2-  S232  1  0.37805078  0.00865000  0.03409993  1
  S2-  S233  1  0.37252598  -0.00958372  0.54237771  1
  S2-  S234  1  0.38068705  0.25535648  0.05373569  1
  S2-  S235  1  0.37056133  0.24462010  0.53828087  1
  S2-  S236  1  0.37098798  0.50662921  0.04960454  1
  S2-  S237  1  0.37400423  0.49140484  0.55555823  1
  S2-  S238  1  0.37710460  0.75672968  0.04277235  1
  S2-  S239  1  0.37254102  0.74218632  0.54580006  1
  S2-  S240  1  0.62331852  0.00652842  0.03727858  1
  S2-  S241  1  0.62221062  -0.00528758  0.54347756  1
  S2-  S242  1  0.62027175  0.25470276  0.04859182  1
  S2-  S243  1  0.62719020  0.25077694  0.54185578  1
  S2-  S244  1  0.62868454  0.50680603  0.04254922  1
  S2-  S245  1  0.62126681  0.48982306  0.55133747  1
  S2-  S246  1  0.62239627  0.76007543  0.05524953  1
  S2-  S247  1  0.62254372  0.74879758  0.54453301  1
  S2-  S248  1  0.86940236  0.00705041  0.04656888  1
  S2-  S249  1  0.86720940  -0.00123610  0.53618324  1
  S2-  S250  1  0.87686051  0.25298401  0.04417489  1
  S2-  S251  1  0.87245392  0.24380074  0.55495291  1
  S2-  S252  1  0.87797057  0.50759342  0.04804529  1
  S2-  S253  1  0.87537994  0.49075601  0.54044500  1
  S2-  S254  1  0.87131326  0.76184199  0.04726983  1
  S2-  S255  1  0.87213011  0.74667145  0.53934174  1
