# generated using pymatgen
data_La6Ce6Pr19Nd20Sm13(BiS2)64
_symmetry_space_group_name_H-M   'P 1'
_cell_length_a   16.07324124
_cell_length_b   16.06622401
_cell_length_c   27.34592428
_cell_angle_alpha   89.67272001
_cell_angle_beta   90.03930014
_cell_angle_gamma   90.09300672
_symmetry_Int_Tables_number   1
_chemical_formula_structural   La6Ce6Pr19Nd20Sm13(BiS2)64
_chemical_formula_sum   'La6 Ce6 Pr19 Nd20 Sm13 Bi64 S128'
_cell_volume   7061.58402468
_cell_formula_units_Z   1
loop_
 _symmetry_equiv_pos_site_id
 _symmetry_equiv_pos_as_xyz
  1  'x, y, z'
loop_
 _atom_type_symbol
 _atom_type_oxidation_number
  La3+  3.0
  Ce3+  3.0
  Pr3+  3.0
  Nd3+  3.0
  Sm3+  3.0
  Bi2+  2.0
  S2-  -2.0
loop_
 _atom_site_type_symbol
 _atom_site_label
 _atom_site_symmetry_multiplicity
 _atom_site_fract_x
 _atom_site_fract_y
 _atom_site_fract_z
 _atom_site_occupancy
  La3+  La0  1  0.25491914  0.11530331  0.59926821  1
  La3+  La1  1  0.62923739  0.00167787  0.41051024  1
  La3+  La2  1  -0.00589797  0.11425543  0.59185470  1
  La3+  La3  1  0.14314505  0.49348030  0.38742254  1
  La3+  La4  1  0.25833378  0.14456805  0.11202739  1
  La3+  La5  1  0.27286221  0.38240617  0.07372217  1
  Ce3+  Ce6  1  0.39358693  0.25310196  0.94614361  1
  Ce3+  Ce7  1  0.02727571  0.12766747  0.05280579  1
  Ce3+  Ce8  1  0.74779123  0.36684530  0.56558696  1
  Ce3+  Ce9  1  0.36605085  0.74034278  0.43613898  1
  Ce3+  Ce10  1  0.15042796  0.00223536  0.93600282  1
  Ce3+  Ce11  1  0.89937114  0.75578436  0.93799682  1
  Pr3+  Pr12  1  0.61806862  0.24671381  0.43671226  1
  Pr3+  Pr13  1  0.49222051  0.36334370  0.56737590  1
  Pr3+  Pr14  1  -0.00840780  0.37008017  0.57214604  1
  Pr3+  Pr15  1  0.52246746  0.37493160  0.06863792  1
  Pr3+  Pr16  1  0.23375896  0.37663373  0.58594570  1
  Pr3+  Pr17  1  0.77285026  0.62669202  0.04645931  1
  Pr3+  Pr18  1  -0.00402755  0.86931549  0.56459845  1
  Pr3+  Pr19  1  0.15466158  0.25042052  0.92513257  1
  Pr3+  Pr20  1  0.36116790  -0.00943702  0.41679328  1
  Pr3+  Pr21  1  0.61902543  0.48978804  0.43485516  1
  Pr3+  Pr22  1  0.12038199  0.24873255  0.45233712  1
  Pr3+  Pr23  1  0.86962282  0.74440510  0.44084563  1
  Pr3+  Pr24  1  0.39591394  0.50141807  0.93498386  1
  Pr3+  Pr25  1  0.74044853  0.11317327  0.57196989  1
  Pr3+  Pr26  1  0.27524539  0.88224114  0.06800097  1
  Pr3+  Pr27  1  0.24606507  0.87134609  0.56030880  1
  Pr3+  Pr28  1  0.74009731  0.87092739  0.56429722  1
  Pr3+  Pr29  1  0.65044867  0.49955641  0.92407635  1
  Pr3+  Pr30  1  0.49171320  0.11523529  0.55140497  1
  Nd3+  Nd31  1  0.76884416  0.12836880  0.06786536  1
  Nd3+  Nd32  1  0.49511421  0.61621066  0.55868133  1
  Nd3+  Nd33  1  0.39936041  0.00343789  0.94412911  1
  Nd3+  Nd34  1  0.61949485  0.74426291  0.43963153  1
  Nd3+  Nd35  1  0.74338625  0.61933690  0.55448229  1
  Nd3+  Nd36  1  0.27548716  0.63001466  0.06558612  1
  Nd3+  Nd37  1  0.39690435  0.75469792  0.93629811  1
  Nd3+  Nd38  1  0.87805038  0.49034770  0.43563555  1
  Nd3+  Nd39  1  0.90626547  0.50347563  0.92733535  1
  Nd3+  Nd40  1  0.24189265  0.61847238  0.56527398  1
  Nd3+  Nd41  1  0.64772874  0.25259641  0.93611064  1
  Nd3+  Nd42  1  0.15113120  0.50185088  0.93350738  1
  Nd3+  Nd43  1  0.52654623  0.62648809  0.05207218  1
  Nd3+  Nd44  1  0.02540762  0.87976197  0.05782056  1
  Nd3+  Nd45  1  0.89628581  0.00613796  0.93990936  1
  Nd3+  Nd46  1  0.02452498  0.62829642  0.05395706  1
  Nd3+  Nd47  1  0.12025100  -0.00395537  0.44103588  1
  Nd3+  Nd48  1  0.77579185  0.38072217  0.06353344  1
  Nd3+  Nd49  1  0.64406997  0.76213287  0.91390535  1
  Nd3+  Nd50  1  0.15432323  0.75454299  0.93173320  1
  Sm3+  Sm51  1  0.87117065  0.24112661  0.44798812  1
  Sm3+  Sm52  1  0.11846694  0.73957557  0.44227718  1
  Sm3+  Sm53  1  0.89993005  0.25596799  0.94193186  1
  Sm3+  Sm54  1  0.02555510  0.37447458  0.06144895  1
  Sm3+  Sm55  1  0.87057109  -0.00476449  0.44600723  1
  Sm3+  Sm56  1  0.77068557  0.87780693  0.05421614  1
  Sm3+  Sm57  1  0.49129511  0.87285701  0.54284938  1
  Sm3+  Sm58  1  0.52659341  0.87720574  0.06093107  1
  Sm3+  Sm59  1  0.36233611  0.24660019  0.44630405  1
  Sm3+  Sm60  1  0.36507372  0.49202481  0.45218862  1
  Sm3+  Sm61  1  0.52058142  0.12593846  0.06851409  1
  Sm3+  Sm62  1  -0.00630229  0.61719134  0.55672758  1
  Sm3+  Sm63  1  0.64640537  0.00939094  0.93592379  1
  Bi2+  Bi64  1  0.01764041  0.11836502  0.30180567  1
  Bi2+  Bi65  1  -0.00793363  0.14785574  0.80894884  1
  Bi2+  Bi66  1  -0.07108163  0.36492001  0.27827109  1
  Bi2+  Bi67  1  -0.04530372  0.40154615  0.80341427  1
  Bi2+  Bi68  1  -0.01707306  0.63012682  0.29052484  1
  Bi2+  Bi69  1  -0.11768081  0.64196944  0.78032215  1
  Bi2+  Bi70  1  -0.00615692  0.92419817  0.30611988  1
  Bi2+  Bi71  1  -0.04079138  0.79720442  0.70314511  1
  Bi2+  Bi72  1  0.26657959  0.14298612  0.31390236  1
  Bi2+  Bi73  1  0.29410963  0.12089897  0.80702900  1
  Bi2+  Bi74  1  0.27059524  0.37071672  0.29601406  1
  Bi2+  Bi75  1  0.30662119  0.42562670  0.77562096  1
  Bi2+  Bi76  1  0.28938622  0.68196749  0.30374640  1
  Bi2+  Bi77  1  0.14382523  0.66028890  0.80239572  1
  Bi2+  Bi78  1  0.17597858  0.85532688  0.28850401  1
  Bi2+  Bi79  1  0.22943596  0.86684799  0.80297483  1
  Bi2+  Bi80  1  0.54483219  0.10283778  0.27333157  1
  Bi2+  Bi81  1  0.51307184  0.16094543  0.79305909  1
  Bi2+  Bi82  1  0.52828051  0.40786938  0.27018143  1
  Bi2+  Bi83  1  0.47770444  0.35441980  0.81880244  1
  Bi2+  Bi84  1  0.54256324  0.61689940  0.29060078  1
  Bi2+  Bi85  1  0.49665434  0.55007337  0.81896275  1
  Bi2+  Bi86  1  0.44524940  0.79345974  0.24647129  1
  Bi2+  Bi87  1  0.50317556  0.88395077  0.79411017  1
  Bi2+  Bi88  1  0.78481524  0.13123812  0.29621945  1
  Bi2+  Bi89  1  0.76057898  0.08844620  0.79001105  1
  Bi2+  Bi90  1  0.73237835  0.39121185  0.29116785  1
  Bi2+  Bi91  1  0.69052467  0.37192212  0.76142609  1
  Bi2+  Bi92  1  0.73822960  0.58867705  0.29952306  1
  Bi2+  Bi93  1  0.65428104  0.66119604  0.79416151  1
  Bi2+  Bi94  1  0.73372618  0.86942171  0.29187620  1
  Bi2+  Bi95  1  0.74710118  0.85170395  0.78095372  1
  Bi2+  Bi96  1  0.10010329  -0.02004677  0.20978243  1
  Bi2+  Bi97  1  0.12449030  0.02280693  0.71708856  1
  Bi2+  Bi98  1  0.08997660  0.23927633  0.22169857  1
  Bi2+  Bi99  1  0.14572339  0.28611269  0.72824966  1
  Bi2+  Bi100  1  0.10293218  0.48179564  0.19030088  1
  Bi2+  Bi101  1  0.11240064  0.54082498  0.71226544  1
  Bi2+  Bi102  1  0.10267894  0.72685117  0.20733020  1
  Bi2+  Bi103  1  0.14911910  0.75237871  0.70022705  1
  Bi2+  Bi104  1  0.38379885  -0.01442616  0.21616865  1
  Bi2+  Bi105  1  0.39365969  -0.02000372  0.70210206  1
  Bi2+  Bi106  1  0.43826326  0.25901631  0.21574775  1
  Bi2+  Bi107  1  0.44960731  0.27546366  0.70524431  1
  Bi2+  Bi108  1  0.36555203  0.57966019  0.21604629  1
  Bi2+  Bi109  1  0.37315999  0.59172098  0.72973831  1
  Bi2+  Bi110  1  0.29018367  0.75477650  0.17961824  1
  Bi2+  Bi111  1  0.34258341  0.78496097  0.71986535  1
  Bi2+  Bi112  1  0.63500802  -0.01904914  0.20419488  1
  Bi2+  Bi113  1  0.61287901  0.05318846  0.71709306  1
  Bi2+  Bi114  1  0.67965264  0.25422576  0.20993036  1
  Bi2+  Bi115  1  0.64334585  0.24120281  0.68028879  1
  Bi2+  Bi116  1  0.61490305  0.52444538  0.19223160  1
  Bi2+  Bi117  1  0.60194855  0.52842864  0.71376959  1
  Bi2+  Bi118  1  0.71269726  0.73464896  0.20844846  1
  Bi2+  Bi119  1  0.57590951  0.77725691  0.70447053  1
  Bi2+  Bi120  1  0.89452217  0.05316366  0.21649605  1
  Bi2+  Bi121  1  0.84947347  -0.01515054  0.70657327  1
  Bi2+  Bi122  1  0.87331870  0.24339480  0.18756846  1
  Bi2+  Bi123  1  0.83000263  0.25078836  0.72531615  1
  Bi2+  Bi124  1  0.86383870  0.51742701  0.21611746  1
  Bi2+  Bi125  1  0.85780486  0.50253428  0.70789279  1
  Bi2+  Bi126  1  0.89810214  0.78881433  0.23661035  1
  Bi2+  Bi127  1  0.77210217  0.76048917  0.67892098  1
  S2-  S128  1  0.08714146  0.12236230  0.14438812  1
  S2-  S129  1  0.04668683  0.16420518  0.69013424  1
  S2-  S130  1  -0.09615062  0.39225400  0.13569924  1
  S2-  S131  1  0.09409477  0.37913623  0.65658483  1
  S2-  S132  1  0.00860954  0.61261997  0.15212509  1
  S2-  S133  1  -0.01639084  0.58772690  0.65443095  1
  S2-  S134  1  0.01260900  0.85782990  0.15615509  1
  S2-  S135  1  0.00215293  0.96013684  0.65043756  1
  S2-  S136  1  0.25325724  0.19731692  0.21634567  1
  S2-  S137  1  0.23810819  0.13953479  0.70765555  1
  S2-  S138  1  0.13747643  0.34012934  0.13929428  1
  S2-  S139  1  0.29673244  0.33428517  0.67938687  1
  S2-  S140  1  0.25371827  0.52460079  0.14475594  1
  S2-  S141  1  0.25133091  0.54487857  0.65576149  1
  S2-  S142  1  0.26083772  0.97936566  0.15298309  1
  S2-  S143  1  0.23970129  0.95865988  0.64730003  1
  S2-  S144  1  0.42432505  0.12154672  0.15356392  1
  S2-  S145  1  0.41852848  0.10986604  0.64353358  1
  S2-  S146  1  0.40668212  0.36606109  0.14764288  1
  S2-  S147  1  0.50797739  0.42337902  0.66093902  1
  S2-  S148  1  0.49418180  0.62022413  0.15044916  1
  S2-  S149  1  0.49394172  0.64450075  0.65572402  1
  S2-  S150  1  0.50312467  0.88634933  0.15965651  1
  S2-  S151  1  0.49167518  0.89001846  0.64055284  1
  S2-  S152  1  0.64861433  0.11735043  0.14111228  1
  S2-  S153  1  0.85050098  0.13260486  0.65303062  1
  S2-  S154  1  0.65550236  0.37659729  0.13821221  1
  S2-  S155  1  0.85780970  0.37162028  0.64319707  1
  S2-  S156  1  0.76270565  0.60453184  0.14614135  1
  S2-  S157  1  0.73775140  0.58664555  0.65114092  1
  S2-  S158  1  0.74237767  0.88360761  0.15126408  1
  S2-  S159  1  0.71242735  0.97994422  0.64269088  1
  S2-  S160  1  0.21078310  -0.01135425  0.35450292  1
  S2-  S161  1  0.13783637  0.06695968  0.84262084  1
  S2-  S162  1  0.15476203  0.31668987  0.35883447  1
  S2-  S163  1  0.08750511  0.29210050  0.83065193  1
  S2-  S164  1  0.15638476  0.48575382  0.27891367  1
  S2-  S165  1  0.03704947  0.51125849  0.85414490  1
  S2-  S166  1  0.12985932  0.66669669  0.35378061  1
  S2-  S167  1  0.08413056  0.80809014  0.84257591  1
  S2-  S168  1  0.39603951  0.04350447  0.31913122  1
  S2-  S169  1  0.37476962  -0.02134240  0.84469804  1
  S2-  S170  1  0.37790841  0.25432839  0.34716091  1
  S2-  S171  1  0.30117265  0.25430517  0.85955307  1
  S2-  S172  1  0.31896601  0.49625118  0.35834314  1
  S2-  S173  1  0.27259486  0.49790644  0.85903803  1
  S2-  S174  1  0.37527249  0.81043289  0.34599545  1
  S2-  S175  1  0.28077506  0.73673657  0.85877846  1
  S2-  S176  1  0.58788595  -0.05455594  0.31458624  1
  S2-  S177  1  0.64535885  -0.09075455  0.85428495  1
  S2-  S178  1  0.63605938  0.15243144  0.35242507  1
  S2-  S179  1  0.64283885  0.13102931  0.86145868  1
  S2-  S180  1  0.59887984  0.37227999  0.36162608  1
  S2-  S181  1  0.64698402  0.36446797  0.85850238  1
  S2-  S182  1  0.65028130  0.73238953  0.34286322  1
  S2-  S183  1  0.49990156  0.75454461  0.85328039  1
  S2-  S184  1  0.79019647  -0.00955996  0.35887496  1
  S2-  S185  1  0.90521046  0.01677756  0.83984236  1
  S2-  S186  1  0.89917310  0.23353347  0.34968571  1
  S2-  S187  1  0.87238002  0.25645846  0.84454923  1
  S2-  S188  1  0.97310195  0.48329346  0.35248291  1
  S2-  S189  1  0.82283266  0.50352369  0.83867140  1
  S2-  S190  1  0.90186837  0.75117382  0.34265566  1
  S2-  S191  1  0.85681762  0.76734950  0.84409245  1
  S2-  S192  1  -0.00550824  0.11720105  0.45527451  1
  S2-  S193  1  0.02231625  0.12987388  0.94874043  1
  S2-  S194  1  -0.00906523  0.36511416  0.46389529  1
  S2-  S195  1  0.02562332  0.37354839  0.95588656  1
  S2-  S196  1  -0.00526470  0.61983289  0.45444516  1
  S2-  S197  1  0.02549648  0.63533102  0.94933097  1
  S2-  S198  1  -0.00347177  0.86896649  0.45599873  1
  S2-  S199  1  0.02203656  0.88123389  0.95268071  1
  S2-  S200  1  0.24480672  0.12161195  0.44966830  1
  S2-  S201  1  0.27395735  0.12235419  0.95129790  1
  S2-  S202  1  0.24448186  0.37346615  0.46796078  1
  S2-  S203  1  0.27197614  0.37759566  0.96238823  1
  S2-  S204  1  0.24191949  0.61714639  0.45937722  1
  S2-  S205  1  0.27401688  0.62797353  0.96154753  1
  S2-  S206  1  0.24099211  0.86246131  0.45403165  1
  S2-  S207  1  0.27446310  0.87935930  0.95963444  1
  S2-  S208  1  0.48753572  0.12076222  0.44580074  1
  S2-  S209  1  0.52022262  0.12854092  0.96067484  1
  S2-  S210  1  0.48744858  0.36979121  0.46120009  1
  S2-  S211  1  0.52008125  0.37761805  0.95972534  1
  S2-  S212  1  0.49394937  0.61595401  0.45070300  1
  S2-  S213  1  0.52759239  0.62793476  0.94860497  1
  S2-  S214  1  0.49692838  0.87151830  0.44028076  1
  S2-  S215  1  0.52593602  0.87881075  0.95689025  1
  S2-  S216  1  0.74829523  0.11957271  0.46096146  1
  S2-  S217  1  0.77630757  0.12934073  0.95955803  1
  S2-  S218  1  0.74985144  0.36857952  0.45629407  1
  S2-  S219  1  0.77958228  0.37925035  0.95569755  1
  S2-  S220  1  0.74548460  0.61549491  0.44866878  1
  S2-  S221  1  0.76818388  0.63366494  0.94159559  1
  S2-  S222  1  0.74383190  0.86794555  0.45628952  1
  S2-  S223  1  0.77187226  0.88021887  0.95112879  1
  S2-  S224  1  0.14948973  0.00261724  0.04291090  1
  S2-  S225  1  0.12157494  -0.00095713  0.54575555  1
  S2-  S226  1  0.15168877  0.24538439  0.03838730  1
  S2-  S227  1  0.12326734  0.23450496  0.55984657  1
  S2-  S228  1  0.14307859  0.50367742  0.03988477  1
  S2-  S229  1  0.11553687  0.49915625  0.55288608  1
  S2-  S230  1  0.14959506  0.75458458  0.04613032  1
  S2-  S231  1  0.11850974  0.74306175  0.54913082  1
  S2-  S232  1  0.40515313  -0.00163090  0.04842037  1
  S2-  S233  1  0.36613585  -0.00663859  0.53399626  1
  S2-  S234  1  0.39119168  0.24338748  0.05020260  1
  S2-  S235  1  0.36179117  0.24381726  0.55200651  1
  S2-  S236  1  0.40021963  0.50659301  0.04258279  1
  S2-  S237  1  0.36937011  0.49307671  0.55562495  1
  S2-  S238  1  0.40136389  0.75446552  0.04544173  1
  S2-  S239  1  0.37035391  0.74288421  0.54568730  1
  S2-  S240  1  0.64767529  0.00029937  0.04154089  1
  S2-  S241  1  0.61511979  -0.00720536  0.53350220  1
  S2-  S242  1  0.64812609  0.25067842  0.04179520  1
  S2-  S243  1  0.61954424  0.24240664  0.54496025  1
  S2-  S244  1  0.64841811  0.50248286  0.03345570  1
  S2-  S245  1  0.61983321  0.49118386  0.54340837  1
  S2-  S246  1  0.64858036  0.75459766  0.04455275  1
  S2-  S247  1  0.61571093  0.74511016  0.54536352  1
  S2-  S248  1  0.89553195  0.00280983  0.04936711  1
  S2-  S249  1  0.87043997  -0.00745050  0.54768909  1
  S2-  S250  1  0.89723664  0.24788514  0.04522625  1
  S2-  S251  1  0.87052658  0.23792133  0.54977820  1
  S2-  S252  1  0.90160664  0.50517287  0.03441420  1
  S2-  S253  1  0.86794337  0.49752003  0.54181079  1
  S2-  S254  1  0.89713094  0.75565957  0.04611809  1
  S2-  S255  1  0.86964697  0.74440916  0.54782808  1
