# generated using pymatgen
data_La6Ce6Pr19Nd20Sm13(BiS2)64
_symmetry_space_group_name_H-M   'P 1'
_cell_length_a   16.15596309
_cell_length_b   16.12201800
_cell_length_c   27.30782214
_cell_angle_alpha   89.94575560
_cell_angle_beta   89.89286653
_cell_angle_gamma   89.96305404
_symmetry_Int_Tables_number   1
_chemical_formula_structural   La6Ce6Pr19Nd20Sm13(BiS2)64
_chemical_formula_sum   'La6 Ce6 Pr19 Nd20 Sm13 Bi64 S128'
_cell_volume   7112.76198185
_cell_formula_units_Z   1
loop_
 _symmetry_equiv_pos_site_id
 _symmetry_equiv_pos_as_xyz
  1  'x, y, z'
loop_
 _atom_type_symbol
 _atom_type_oxidation_number
  La3+  3.0
  Ce3+  3.0
  Pr3+  3.0
  Nd3+  3.0
  Sm3+  3.0
  Bi2+  2.0
  S2-  -2.0
loop_
 _atom_site_type_symbol
 _atom_site_label
 _atom_site_symmetry_multiplicity
 _atom_site_fract_x
 _atom_site_fract_y
 _atom_site_fract_z
 _atom_site_occupancy
  La3+  La0  1  0.63471964  -0.01249001  0.89472321  1
  La3+  La1  1  0.75482872  0.87071725  0.57404000  1
  La3+  La2  1  0.73913863  0.35336132  0.08446632  1
  La3+  La3  1  0.50052146  0.13019732  0.60787842  1
  La3+  La4  1  -0.00931942  0.62191205  0.11108732  1
  La3+  La5  1  0.36510561  -0.01787329  0.90587542  1
  Ce3+  Ce6  1  0.12163305  0.23929955  0.94552529  1
  Ce3+  Ce7  1  0.50415283  0.87476229  0.56777485  1
  Ce3+  Ce8  1  0.87223235  -0.01087128  0.93469462  1
  Ce3+  Ce9  1  0.26063459  0.12559298  0.55321406  1
  Ce3+  Ce10  1  0.00669759  0.87318051  0.55625133  1
  Ce3+  Ce11  1  0.13308445  -0.00500264  0.43509318  1
  Pr3+  Pr12  1  0.37287646  0.73330999  0.93008380  1
  Pr3+  Pr13  1  0.49600712  0.86402162  0.04981605  1
  Pr3+  Pr14  1  0.62126630  0.24157609  0.93553246  1
  Pr3+  Pr15  1  0.74696196  0.61258061  0.06232048  1
  Pr3+  Pr16  1  0.00222461  0.37471698  0.55634270  1
  Pr3+  Pr17  1  0.49319502  0.35134517  0.07446454  1
  Pr3+  Pr18  1  0.37026791  0.48758569  0.94202889  1
  Pr3+  Pr19  1  0.38427344  -0.00022234  0.44118138  1
  Pr3+  Pr20  1  0.63225309  -0.00800157  0.43287517  1
  Pr3+  Pr21  1  0.38225863  0.24875126  0.42809340  1
  Pr3+  Pr22  1  0.86998299  0.24557921  0.93431671  1
  Pr3+  Pr23  1  0.11791275  -0.01667681  0.93292861  1
  Pr3+  Pr24  1  0.49060438  0.10027430  0.05282033  1
  Pr3+  Pr25  1  0.13449921  0.50041572  0.41081032  1
  Pr3+  Pr26  1  0.38275729  0.74403982  0.43902701  1
  Pr3+  Pr27  1  0.25406095  0.62117410  0.55724635  1
  Pr3+  Pr28  1  -0.00722045  0.35685855  0.07432966  1
  Pr3+  Pr29  1  0.37172891  0.23606135  0.93826732  1
  Pr3+  Pr30  1  0.50171819  0.62498710  0.56990144  1
  Nd3+  Nd31  1  0.88021417  0.25113626  0.43646050  1
  Nd3+  Nd32  1  0.63032170  0.74431956  0.44373610  1
  Nd3+  Nd33  1  0.62098901  0.48254458  0.95050337  1
  Nd3+  Nd34  1  -0.00399910  0.86225328  0.06207941  1
  Nd3+  Nd35  1  0.50527048  0.37435633  0.55531081  1
  Nd3+  Nd36  1  0.87967766  -0.00074486  0.44538144  1
  Nd3+  Nd37  1  0.25890644  0.37424187  0.55501243  1
  Nd3+  Nd38  1  0.63193981  0.24971191  0.43550000  1
  Nd3+  Nd39  1  0.74864521  0.86207220  0.05836016  1
  Nd3+  Nd40  1  0.25611780  0.87616968  0.56583641  1
  Nd3+  Nd41  1  0.74502036  0.11271029  0.05851494  1
  Nd3+  Nd42  1  0.49262761  0.61398778  0.06833187  1
  Nd3+  Nd43  1  0.62259088  0.73839838  0.93839938  1
  Nd3+  Nd44  1  0.00651457  0.12279533  0.55447655  1
  Nd3+  Nd45  1  0.24493111  0.36184150  0.06496291  1
  Nd3+  Nd46  1  0.88096601  0.74997549  0.43606827  1
  Nd3+  Nd47  1  0.88613019  0.50702582  0.41889147  1
  Nd3+  Nd48  1  0.38290643  0.49247434  0.42079284  1
  Nd3+  Nd49  1  0.87312578  0.48519462  0.95221045  1
  Nd3+  Nd50  1  0.24664912  0.61600311  0.07382237  1
  Sm3+  Sm51  1  0.12965890  0.25358146  0.44057535  1
  Sm3+  Sm52  1  0.24478692  0.10664855  0.04995125  1
  Sm3+  Sm53  1  0.13456605  0.75193454  0.43494199  1
  Sm3+  Sm54  1  0.75620448  0.62402307  0.55979395  1
  Sm3+  Sm55  1  -0.00387762  0.11044957  0.05532539  1
  Sm3+  Sm56  1  0.00715699  0.62240172  0.55270249  1
  Sm3+  Sm57  1  0.63313860  0.49795902  0.43900938  1
  Sm3+  Sm58  1  0.24601359  0.86108407  0.05224465  1
  Sm3+  Sm59  1  0.74713834  0.12129278  0.55930409  1
  Sm3+  Sm60  1  0.75579310  0.37474270  0.55269586  1
  Sm3+  Sm61  1  0.87094921  0.73514310  0.94238502  1
  Sm3+  Sm62  1  0.11987748  0.73129643  0.94476503  1
  Sm3+  Sm63  1  0.12014226  0.48931517  0.95463656  1
  Bi2+  Bi64  1  0.01370950  0.08934156  0.28522190  1
  Bi2+  Bi65  1  -0.00060804  0.03886932  0.81919993  1
  Bi2+  Bi66  1  -0.03541010  0.36789801  0.29733248  1
  Bi2+  Bi67  1  0.01475322  0.40873507  0.80380914  1
  Bi2+  Bi68  1  0.00742613  0.66471428  0.29392954  1
  Bi2+  Bi69  1  -0.09835938  0.59701723  0.79928592  1
  Bi2+  Bi70  1  0.00880791  0.89501594  0.29909737  1
  Bi2+  Bi71  1  0.00030884  0.88319988  0.75205183  1
  Bi2+  Bi72  1  0.29256051  0.15410112  0.30659694  1
  Bi2+  Bi73  1  0.17279335  0.12422240  0.78401548  1
  Bi2+  Bi74  1  0.25811651  0.35738998  0.30126737  1
  Bi2+  Bi75  1  0.22203430  0.41341908  0.78676279  1
  Bi2+  Bi76  1  0.27277096  0.66940387  0.27839500  1
  Bi2+  Bi77  1  0.26668690  0.60488434  0.79019368  1
  Bi2+  Bi78  1  0.24771620  0.96014566  0.28621609  1
  Bi2+  Bi79  1  0.23116673  0.85541227  0.78555242  1
  Bi2+  Bi80  1  0.49217783  0.12539663  0.30992100  1
  Bi2+  Bi81  1  0.49947715  0.17557321  0.81043493  1
  Bi2+  Bi82  1  0.47244214  0.34744348  0.24378548  1
  Bi2+  Bi83  1  0.48507996  0.41690427  0.79490421  1
  Bi2+  Bi84  1  0.45369516  0.62606646  0.31799941  1
  Bi2+  Bi85  1  0.50402166  0.61318216  0.78437930  1
  Bi2+  Bi86  1  0.52650693  0.81859979  0.26999497  1
  Bi2+  Bi87  1  0.51382914  0.83293208  0.77996068  1
  Bi2+  Bi88  1  0.81512020  0.07106491  0.25058083  1
  Bi2+  Bi89  1  0.78030142  0.19520157  0.77597341  1
  Bi2+  Bi90  1  0.71757508  0.35597989  0.29826677  1
  Bi2+  Bi91  1  0.73933072  0.39537816  0.79986489  1
  Bi2+  Bi92  1  0.67937167  0.69581004  0.28943318  1
  Bi2+  Bi93  1  0.70366242  0.59523419  0.79095311  1
  Bi2+  Bi94  1  0.81145720  0.86755297  0.30416701  1
  Bi2+  Bi95  1  0.78007405  0.84806875  0.78724544  1
  Bi2+  Bi96  1  0.14788232  0.01912841  0.19284109  1
  Bi2+  Bi97  1  0.10084271  0.03009228  0.69382116  1
  Bi2+  Bi98  1  0.14156628  0.20580949  0.23415852  1
  Bi2+  Bi99  1  0.10746697  0.28211841  0.73029187  1
  Bi2+  Bi100  1  0.13563369  0.47869773  0.21176010  1
  Bi2+  Bi101  1  0.10382873  0.50780523  0.71017017  1
  Bi2+  Bi102  1  0.13805469  0.82185853  0.22284042  1
  Bi2+  Bi103  1  0.08792938  0.67738668  0.77026043  1
  Bi2+  Bi104  1  0.42512318  0.04385492  0.20586593  1
  Bi2+  Bi105  1  0.37607984  0.01738591  0.71797223  1
  Bi2+  Bi106  1  0.32797211  0.24626313  0.19750260  1
  Bi2+  Bi107  1  0.35959580  0.27218000  0.70345792  1
  Bi2+  Bi108  1  0.38367241  0.52377742  0.22790567  1
  Bi2+  Bi109  1  0.41220893  0.51860430  0.69352638  1
  Bi2+  Bi110  1  0.40751563  0.78512314  0.18294760  1
  Bi2+  Bi111  1  0.36074239  0.75386379  0.70736737  1
  Bi2+  Bi112  1  0.65207636  -0.03046668  0.24031085  1
  Bi2+  Bi113  1  0.64738625  0.00985500  0.70850279  1
  Bi2+  Bi114  1  0.61922600  0.22318185  0.21078017  1
  Bi2+  Bi115  1  0.61484330  0.36508051  0.71192880  1
  Bi2+  Bi116  1  0.58378546  0.52875937  0.24484933  1
  Bi2+  Bi117  1  0.60815464  0.55483148  0.67856694  1
  Bi2+  Bi118  1  0.58712847  0.69509338  0.18340630  1
  Bi2+  Bi119  1  0.63958427  0.74761973  0.70804720  1
  Bi2+  Bi120  1  0.94738119  -0.00463689  0.18114143  1
  Bi2+  Bi121  1  0.89042882  0.05927882  0.72193790  1
  Bi2+  Bi122  1  0.88321224  0.27595546  0.20150084  1
  Bi2+  Bi123  1  0.89547035  0.33314622  0.72120157  1
  Bi2+  Bi124  1  0.81868408  0.55206198  0.23267243  1
  Bi2+  Bi125  1  0.81864991  0.51912366  0.69826355  1
  Bi2+  Bi126  1  0.84966737  0.80604550  0.19961980  1
  Bi2+  Bi127  1  0.90720779  0.70267019  0.70212777  1
  S2-  S128  1  -0.02368594  0.15956898  0.14746388  1
  S2-  S129  1  -0.01694788  0.14028985  0.65256129  1
  S2-  S130  1  0.03969990  0.36209599  0.17237291  1
  S2-  S131  1  0.02991269  0.38000681  0.65476415  1
  S2-  S132  1  -0.02416382  0.55958397  0.21032560  1
  S2-  S133  1  0.03751405  0.63728344  0.64898786  1
  S2-  S134  1  0.00716839  0.78556390  0.15183767  1
  S2-  S135  1  0.03323726  0.88779040  0.65121144  1
  S2-  S136  1  0.28810659  0.07783518  0.14291674  1
  S2-  S137  1  0.32077350  0.13373894  0.64523884  1
  S2-  S138  1  0.26894933  0.39681157  0.16151340  1
  S2-  S139  1  0.29687088  0.39118031  0.65247681  1
  S2-  S140  1  0.14986046  0.60942524  0.15661848  1
  S2-  S141  1  0.29196326  0.62769244  0.65536595  1
  S2-  S142  1  0.25399101  0.82025516  0.14804125  1
  S2-  S143  1  0.28280041  0.88864982  0.66516657  1
  S2-  S144  1  0.51153029  0.15972789  0.14766350  1
  S2-  S145  1  0.48343476  0.14308457  0.71660049  1
  S2-  S146  1  0.59235337  0.36310094  0.15667546  1
  S2-  S147  1  0.49934295  0.30102673  0.64497353  1
  S2-  S148  1  0.37655100  0.62052180  0.14370323  1
  S2-  S149  1  0.49844865  0.75254538  0.64247316  1
  S2-  S150  1  0.47421066  0.93915297  0.14058455  1
  S2-  S151  1  0.50395257  0.96941604  0.65286178  1
  S2-  S152  1  0.75043729  0.20389918  0.14494880  1
  S2-  S153  1  0.66641337  0.13287732  0.64541567  1
  S2-  S154  1  0.81128438  0.41337579  0.17159186  1
  S2-  S155  1  0.76434677  0.35839403  0.65016120  1
  S2-  S156  1  0.81851009  0.64803037  0.15164698  1
  S2-  S157  1  0.76704454  0.72964410  0.63948733  1
  S2-  S158  1  0.72082327  0.87828990  0.15619271  1
  S2-  S159  1  0.77738763  0.95170174  0.66588779  1
  S2-  S160  1  0.14437013  -0.11851885  0.36135619  1
  S2-  S161  1  0.20760719  -0.02163163  0.84618164  1
  S2-  S162  1  0.10760639  0.32520323  0.35258516  1
  S2-  S163  1  0.15536578  0.25148486  0.85100484  1
  S2-  S164  1  0.00887422  0.50938448  0.34238808  1
  S2-  S165  1  0.15398613  0.51472771  0.85859855  1
  S2-  S166  1  0.14260560  0.66581385  0.34969681  1
  S2-  S167  1  0.11768579  0.77778519  0.84939279  1
  S2-  S168  1  0.38965464  -0.01254857  0.34050528  1
  S2-  S169  1  0.37247546  0.08118908  0.81900633  1
  S2-  S170  1  0.40720764  0.35645354  0.34830324  1
  S2-  S171  1  0.39414999  0.30488289  0.84675389  1
  S2-  S172  1  0.26668847  0.50583451  0.34422043  1
  S2-  S173  1  0.38173185  0.59581363  0.86321349  1
  S2-  S174  1  0.35465918  0.76814283  0.34031433  1
  S2-  S175  1  0.36931568  0.83413470  0.84513590  1
  S2-  S176  1  0.61669612  0.02488397  0.33233161  1
  S2-  S177  1  0.55812649  -0.01316940  0.80141617  1
  S2-  S178  1  0.62155613  0.23398263  0.33641201  1
  S2-  S179  1  0.65994115  0.15622095  0.84901755  1
  S2-  S180  1  0.61268166  0.45945355  0.34406774  1
  S2-  S181  1  0.61038664  0.38255665  0.86921969  1
  S2-  S182  1  0.63564127  0.82268428  0.35578258  1
  S2-  S183  1  0.63979095  0.81264928  0.84899673  1
  S2-  S184  1  0.84572198  0.01590540  0.34920012  1
  S2-  S185  1  0.79289533  -0.02511361  0.84728329  1
  S2-  S186  1  0.85970264  0.25858352  0.33752420  1
  S2-  S187  1  0.90572962  0.17852836  0.84124152  1
  S2-  S188  1  0.81816166  0.47187530  0.32893270  1
  S2-  S189  1  0.87677076  0.39129867  0.86810963  1
  S2-  S190  1  0.87361647  0.67869422  0.34606388  1
  S2-  S191  1  0.87381592  0.75622823  0.84408483  1
  S2-  S192  1  0.00725369  0.12553128  0.44700109  1
  S2-  S193  1  -0.00168344  0.11438118  0.95315469  1
  S2-  S194  1  0.00174402  0.37749433  0.45176499  1
  S2-  S195  1  0.00159358  0.36332730  0.96587616  1
  S2-  S196  1  0.00982845  0.62655448  0.45083762  1
  S2-  S197  1  -0.00525277  0.61071812  0.94676555  1
  S2-  S198  1  0.00363266  0.87388754  0.45195564  1
  S2-  S199  1  -0.00544239  0.85777711  0.95382272  1
  S2-  S200  1  0.25280484  0.12644142  0.44675386  1
  S2-  S201  1  0.24483356  0.11166937  0.94679643  1
  S2-  S202  1  0.25482709  0.37369824  0.45030319  1
  S2-  S203  1  0.24584096  0.36562436  0.95791207  1
  S2-  S204  1  0.25774404  0.62025991  0.45203696  1
  S2-  S205  1  0.24484828  0.61317551  0.96419901  1
  S2-  S206  1  0.26107483  0.87304580  0.45873721  1
  S2-  S207  1  0.24195979  0.85596759  0.95058449  1
  S2-  S208  1  0.50916827  0.12470591  0.44318241  1
  S2-  S209  1  0.49684581  0.10778447  0.94364697  1
  S2-  S210  1  0.50945550  0.37525077  0.45167501  1
  S2-  S211  1  0.49093986  0.36412900  0.96752251  1
  S2-  S212  1  0.50715966  0.61773230  0.45586405  1
  S2-  S213  1  0.50141697  0.61238808  0.96081757  1
  S2-  S214  1  0.50558176  0.87113846  0.45640391  1
  S2-  S215  1  0.50194714  0.86590205  0.94441897  1
  S2-  S216  1  0.75489602  0.12456673  0.45277592  1
  S2-  S217  1  0.75047839  0.11244707  0.95438761  1
  S2-  S218  1  0.75805179  0.37755337  0.44870810  1
  S2-  S219  1  0.74645535  0.36348429  0.97134560  1
  S2-  S220  1  0.75646903  0.62067977  0.45418316  1
  S2-  S221  1  0.74605285  0.60991516  0.95355514  1
  S2-  S222  1  0.75839808  0.87154616  0.45990868  1
  S2-  S223  1  0.74920874  0.86060419  0.95368904  1
  S2-  S224  1  0.11980652  -0.01478412  0.04301630  1
  S2-  S225  1  0.13311949  0.00025786  0.54241833  1
  S2-  S226  1  0.12367763  0.23321133  0.05325308  1
  S2-  S227  1  0.13092759  0.24970856  0.54597114  1
  S2-  S228  1  0.11813601  0.48554969  0.05699522  1
  S2-  S229  1  0.13012824  0.49669487  0.54670913  1
  S2-  S230  1  0.11959977  0.73690380  0.04707650  1
  S2-  S231  1  0.13211402  0.74901405  0.54273190  1
  S2-  S232  1  0.36390458  -0.01698949  0.02850040  1
  S2-  S233  1  0.38110826  0.00013778  0.54686439  1
  S2-  S234  1  0.36645618  0.23285771  0.04594429  1
  S2-  S235  1  0.38253232  0.25003384  0.53631666  1
  S2-  S236  1  0.37318834  0.48254710  0.04969759  1
  S2-  S237  1  0.38241568  0.49903729  0.53874336  1
  S2-  S238  1  0.37183298  0.74043132  0.03871788  1
  S2-  S239  1  0.37660407  0.74889487  0.54487950  1
  S2-  S240  1  0.62594028  -0.01325571  0.04739844  1
  S2-  S241  1  0.63254238  -0.00451473  0.54223339  1
  S2-  S242  1  0.61544829  0.23110081  0.04243294  1
  S2-  S243  1  0.63380331  0.25356848  0.54136099  1
  S2-  S244  1  0.61840047  0.48945780  0.05582928  1
  S2-  S245  1  0.63275032  0.49968961  0.54484262  1
  S2-  S246  1  0.62163035  0.73770735  0.04488387  1
  S2-  S247  1  0.62976453  0.74495816  0.54629756  1
  S2-  S248  1  0.87161703  -0.01159187  0.04435797  1
  S2-  S249  1  0.88012344  0.00116284  0.55046230  1
  S2-  S250  1  0.87298917  0.23585442  0.04304001  1
  S2-  S251  1  0.87665466  0.24596035  0.54410823  1
  S2-  S252  1  0.87824295  0.49264371  0.05678524  1
  S2-  S253  1  0.87910897  0.50203280  0.54426255  1
  S2-  S254  1  0.87471799  0.73659107  0.04472049  1
  S2-  S255  1  0.88549159  0.74656285  0.54215717  1
