# generated using pymatgen
data_La6Ce6Pr19Nd20Sm13(BiS2)64
_symmetry_space_group_name_H-M   'P 1'
_cell_length_a   16.18837043
_cell_length_b   16.19757931
_cell_length_c   27.22730365
_cell_angle_alpha   89.99246204
_cell_angle_beta   90.11992084
_cell_angle_gamma   90.02082484
_symmetry_Int_Tables_number   1
_chemical_formula_structural   La6Ce6Pr19Nd20Sm13(BiS2)64
_chemical_formula_sum   'La6 Ce6 Pr19 Nd20 Sm13 Bi64 S128'
_cell_volume   7139.32084419
_cell_formula_units_Z   1
loop_
 _symmetry_equiv_pos_site_id
 _symmetry_equiv_pos_as_xyz
  1  'x, y, z'
loop_
 _atom_type_symbol
 _atom_type_oxidation_number
  La3+  3.0
  Ce3+  3.0
  Pr3+  3.0
  Nd3+  3.0
  Sm3+  3.0
  Bi2+  2.0
  S2-  -2.0
loop_
 _atom_site_type_symbol
 _atom_site_label
 _atom_site_symmetry_multiplicity
 _atom_site_fract_x
 _atom_site_fract_y
 _atom_site_fract_z
 _atom_site_occupancy
  La3+  La0  1  0.25257517  0.12570365  0.55664841  1
  La3+  La1  1  0.00937730  0.88669931  0.59844621  1
  La3+  La2  1  0.74250425  0.88455917  0.57900016  1
  La3+  La3  1  0.63022571  0.50270992  0.43829496  1
  La3+  La4  1  0.63996005  0.75064097  0.41775101  1
  La3+  La5  1  0.63347923  0.01135635  0.40710738  1
  Ce3+  Ce6  1  0.86923235  0.73675330  0.92630918  1
  Ce3+  Ce7  1  0.74827356  0.62168458  0.05712457  1
  Ce3+  Ce8  1  0.87219055  0.00019972  0.44734536  1
  Ce3+  Ce9  1  0.37568365  0.49345013  0.94651367  1
  Ce3+  Ce10  1  0.75457668  0.63324434  0.56957649  1
  Ce3+  Ce11  1  0.25046837  0.11809188  0.05920115  1
  Pr3+  Pr12  1  0.61726479  0.73699526  0.91620717  1
  Pr3+  Pr13  1  0.00104376  0.62203634  0.05499373  1
  Pr3+  Pr14  1  0.75353580  0.37775021  0.56125928  1
  Pr3+  Pr15  1  0.24900102  0.62947335  0.56285706  1
  Pr3+  Pr16  1  0.50209053  0.12781773  0.55542565  1
  Pr3+  Pr17  1  0.00634257  0.12779411  0.56485123  1
  Pr3+  Pr18  1  0.36864749  0.25078382  0.42603367  1
  Pr3+  Pr19  1  0.87140692  0.49412913  0.93400962  1
  Pr3+  Pr20  1  0.12542396  0.25194113  0.43023225  1
  Pr3+  Pr21  1  0.50442797  0.12290379  0.06906706  1
  Pr3+  Pr22  1  0.25069094  0.37072328  0.05800744  1
  Pr3+  Pr23  1  0.25365245  0.86985528  0.56319788  1
  Pr3+  Pr24  1  0.75532729  0.12122963  0.06533735  1
  Pr3+  Pr25  1  0.12272832  -0.00198584  0.43689462  1
  Pr3+  Pr26  1  0.50259062  0.37877609  0.55763288  1
  Pr3+  Pr27  1  0.37742212  0.50549745  0.44229213  1
  Pr3+  Pr28  1  0.12421134  0.50580636  0.44083130  1
  Pr3+  Pr29  1  0.50956075  0.87781148  0.54893246  1
  Pr3+  Pr30  1  0.00097961  0.86611644  0.05338441  1
  Nd3+  Nd31  1  0.00446167  0.37717088  0.55680613  1
  Nd3+  Nd32  1  0.37963911  0.00053176  0.43871220  1
  Nd3+  Nd33  1  0.75186854  0.12668911  0.56559349  1
  Nd3+  Nd34  1  0.50599723  0.62969200  0.56035627  1
  Nd3+  Nd35  1  0.38188273  0.75441844  0.43548762  1
  Nd3+  Nd36  1  0.12289642  0.73617873  0.92402161  1
  Nd3+  Nd37  1  0.37710209  -0.00172336  0.94196895  1
  Nd3+  Nd38  1  0.50517156  0.62163856  0.06363394  1
  Nd3+  Nd39  1  0.62457289  0.24294359  0.93557791  1
  Nd3+  Nd40  1  0.00236138  0.11765306  0.05865236  1
  Nd3+  Nd41  1  0.37655129  0.74747475  0.93767174  1
  Nd3+  Nd42  1  0.62069607  0.48820030  0.93413364  1
  Nd3+  Nd43  1  0.12376154  0.24238654  0.94164331  1
  Nd3+  Nd44  1  0.87564579  0.24161896  0.94084310  1
  Nd3+  Nd45  1  0.25254628  0.62319848  0.05455220  1
  Nd3+  Nd46  1  0.25249564  0.37828531  0.55552219  1
  Nd3+  Nd47  1  0.12320002  0.75376717  0.44133271  1
  Nd3+  Nd48  1  0.00052542  0.63132464  0.56113350  1
  Nd3+  Nd49  1  0.50379122  0.86983744  0.06486813  1
  Nd3+  Nd50  1  0.87511400  0.25021351  0.44389673  1
  Sm3+  Sm51  1  0.12655438  0.49477006  0.93863501  1
  Sm3+  Sm52  1  0.74866119  0.86792333  0.05236826  1
  Sm3+  Sm53  1  0.62589557  0.25116367  0.44285303  1
  Sm3+  Sm54  1  0.87274487  0.75662102  0.45234366  1
  Sm3+  Sm55  1  0.50179019  0.36918551  0.05875545  1
  Sm3+  Sm56  1  0.37375478  0.24146945  0.94831121  1
  Sm3+  Sm57  1  0.25117618  0.86971479  0.04770463  1
  Sm3+  Sm58  1  0.87371526  -0.00945058  0.94114169  1
  Sm3+  Sm59  1  0.00085510  0.37205850  0.05104173  1
  Sm3+  Sm60  1  0.87602062  0.50303819  0.44996986  1
  Sm3+  Sm61  1  0.12199364  -0.00867888  0.93861417  1
  Sm3+  Sm62  1  0.75132765  0.37047215  0.05683779  1
  Sm3+  Sm63  1  0.62511522  -0.00598600  0.94594563  1
  Bi2+  Bi64  1  0.00077225  0.09314329  0.29559029  1
  Bi2+  Bi65  1  0.00493645  0.11624423  0.80017098  1
  Bi2+  Bi66  1  0.02778339  0.36222499  0.29744974  1
  Bi2+  Bi67  1  0.06759432  0.38331373  0.78994472  1
  Bi2+  Bi68  1  0.02791711  0.64154657  0.29912775  1
  Bi2+  Bi69  1  -0.00955764  0.56271961  0.78646718  1
  Bi2+  Bi70  1  0.02357271  0.89721751  0.30433976  1
  Bi2+  Bi71  1  0.01052075  0.88760060  0.79810502  1
  Bi2+  Bi72  1  0.23913639  0.17628643  0.25635552  1
  Bi2+  Bi73  1  0.25453476  0.17242786  0.77854081  1
  Bi2+  Bi74  1  0.21766470  0.39706481  0.29541218  1
  Bi2+  Bi75  1  0.26741649  0.37257165  0.77396066  1
  Bi2+  Bi76  1  0.23028971  0.60465507  0.25624392  1
  Bi2+  Bi77  1  0.26489317  0.59060997  0.79164003  1
  Bi2+  Bi78  1  0.22586430  0.88507728  0.24607289  1
  Bi2+  Bi79  1  0.25877343  0.87444646  0.78250088  1
  Bi2+  Bi80  1  0.49725801  0.13007353  0.29215251  1
  Bi2+  Bi81  1  0.50138550  0.14147746  0.80304741  1
  Bi2+  Bi82  1  0.51059002  0.40132523  0.29162820  1
  Bi2+  Bi83  1  0.50577564  0.33675618  0.79019142  1
  Bi2+  Bi84  1  0.48518648  0.64741587  0.29935710  1
  Bi2+  Bi85  1  0.49096998  0.60568431  0.78999676  1
  Bi2+  Bi86  1  0.45550475  0.88511581  0.29671811  1
  Bi2+  Bi87  1  0.52344658  0.87608918  0.79730843  1
  Bi2+  Bi88  1  0.76354190  0.13606027  0.29412559  1
  Bi2+  Bi89  1  0.69652550  0.12759972  0.79738237  1
  Bi2+  Bi90  1  0.73746375  0.38436731  0.30943397  1
  Bi2+  Bi91  1  0.77902765  0.38848734  0.80642951  1
  Bi2+  Bi92  1  0.75120495  0.63355687  0.29372180  1
  Bi2+  Bi93  1  0.74470489  0.57160784  0.77856257  1
  Bi2+  Bi94  1  0.83160732  0.87511736  0.28454781  1
  Bi2+  Bi95  1  0.77565537  0.87689608  0.77162245  1
  Bi2+  Bi96  1  0.08398691  -0.00011845  0.20100035  1
  Bi2+  Bi97  1  0.13106487  0.02560218  0.71170762  1
  Bi2+  Bi98  1  0.06028920  0.22491182  0.21326863  1
  Bi2+  Bi99  1  0.11032310  0.26182620  0.69984033  1
  Bi2+  Bi100  1  0.08384326  0.49083361  0.21013780  1
  Bi2+  Bi101  1  0.15859998  0.50391886  0.70632164  1
  Bi2+  Bi102  1  0.11199412  0.75902256  0.18247625  1
  Bi2+  Bi103  1  0.14349639  0.74918709  0.70248642  1
  Bi2+  Bi104  1  0.34927793  0.02946153  0.21488188  1
  Bi2+  Bi105  1  0.39156536  -0.00008078  0.74494817  1
  Bi2+  Bi106  1  0.37513802  0.27617771  0.20372581  1
  Bi2+  Bi107  1  0.40093008  0.23165417  0.70960347  1
  Bi2+  Bi108  1  0.35760346  0.46687112  0.22128816  1
  Bi2+  Bi109  1  0.38389835  0.50681951  0.71099073  1
  Bi2+  Bi110  1  0.36747484  0.74096990  0.19382191  1
  Bi2+  Bi111  1  0.36434571  0.73348205  0.73715242  1
  Bi2+  Bi112  1  0.61824894  -0.01498060  0.19754923  1
  Bi2+  Bi113  1  0.60068471  0.00638786  0.70366918  1
  Bi2+  Bi114  1  0.63894249  0.29400483  0.22505125  1
  Bi2+  Bi115  1  0.66724822  0.25068378  0.71073460  1
  Bi2+  Bi116  1  0.64451536  0.49423535  0.22979415  1
  Bi2+  Bi117  1  0.59503499  0.43972488  0.71192288  1
  Bi2+  Bi118  1  0.61874931  0.74133222  0.19011393  1
  Bi2+  Bi119  1  0.62852030  0.73353299  0.69590089  1
  Bi2+  Bi120  1  0.85680605  0.03404999  0.21700899  1
  Bi2+  Bi121  1  0.85269055  0.03399311  0.72691434  1
  Bi2+  Bi122  1  0.87989781  0.30701508  0.21535834  1
  Bi2+  Bi123  1  0.85916310  0.22499774  0.73655261  1
  Bi2+  Bi124  1  0.89754327  0.50029598  0.25173355  1
  Bi2+  Bi125  1  0.89031606  0.44272398  0.71749110  1
  Bi2+  Bi126  1  0.89218102  0.71615187  0.22952496  1
  Bi2+  Bi127  1  0.89219750  0.69314612  0.70340285  1
  S2-  S128  1  -0.05714478  0.13159188  0.15044974  1
  S2-  S129  1  -0.00493853  0.04031132  0.65252281  1
  S2-  S130  1  0.00473747  0.37808201  0.14837692  1
  S2-  S131  1  -0.01357590  0.34090267  0.65266890  1
  S2-  S132  1  -0.00014146  0.64730619  0.15399390  1
  S2-  S133  1  0.04538309  0.62328647  0.65722068  1
  S2-  S134  1  -0.00140890  0.87803715  0.15382290  1
  S2-  S135  1  -0.01347335  0.82394383  0.69582475  1
  S2-  S136  1  0.22377640  0.10549093  0.15453493  1
  S2-  S137  1  0.20642850  0.12986026  0.65288459  1
  S2-  S138  1  0.25434010  0.37097163  0.15802611  1
  S2-  S139  1  0.21688877  0.36994189  0.65177023  1
  S2-  S140  1  0.24425972  0.63772612  0.15251130  1
  S2-  S141  1  0.27486617  0.72416168  0.64499779  1
  S2-  S142  1  0.25582402  0.85586692  0.14492464  1
  S2-  S143  1  0.16815183  0.89657761  0.64933362  1
  S2-  S144  1  0.48731680  0.08795625  0.16783119  1
  S2-  S145  1  0.48710318  0.11490119  0.65489841  1
  S2-  S146  1  0.51478791  0.32183450  0.15156809  1
  S2-  S147  1  0.45733426  0.37717105  0.65404112  1
  S2-  S148  1  0.48075987  0.63841847  0.16276657  1
  S2-  S149  1  0.51546861  0.64002872  0.65955261  1
  S2-  S150  1  0.49520912  0.86078725  0.16523986  1
  S2-  S151  1  0.57314592  0.87266464  0.64391551  1
  S2-  S152  1  0.70674872  0.10393946  0.16165016  1
  S2-  S153  1  0.73888143  0.02780843  0.64725005  1
  S2-  S154  1  0.75742678  0.35182142  0.15373341  1
  S2-  S155  1  0.73668418  0.38591293  0.66001880  1
  S2-  S156  1  0.70446156  0.62002755  0.15232594  1
  S2-  S157  1  0.74576988  0.61167961  0.66772583  1
  S2-  S158  1  0.71663176  0.86216209  0.14982117  1
  S2-  S159  1  0.78098594  0.81089050  0.67036924  1
  S2-  S160  1  0.14025559  0.02044294  0.33813947  1
  S2-  S161  1  0.12062038  0.00895184  0.84110176  1
  S2-  S162  1  0.23563047  0.24989018  0.35301414  1
  S2-  S163  1  0.10894061  0.23210742  0.84346506  1
  S2-  S164  1  0.15564838  0.54607945  0.34587303  1
  S2-  S165  1  0.12415892  0.58525082  0.85596046  1
  S2-  S166  1  0.11837195  0.76914506  0.34261627  1
  S2-  S167  1  0.12705275  0.78667285  0.82762105  1
  S2-  S168  1  0.38408921  0.02820877  0.34077109  1
  S2-  S169  1  0.37861133  -0.05127197  0.84764867  1
  S2-  S170  1  0.44003802  0.26025460  0.33409794  1
  S2-  S171  1  0.36173920  0.19004233  0.85598932  1
  S2-  S172  1  0.40746083  0.51661380  0.34454521  1
  S2-  S173  1  0.39458409  0.49949036  0.85061092  1
  S2-  S174  1  0.36501333  0.74907423  0.33641251  1
  S2-  S175  1  0.47090894  0.74450999  0.85572651  1
  S2-  S176  1  0.59190618  -0.01532823  0.30333968  1
  S2-  S177  1  0.61557517  -0.00081415  0.84845019  1
  S2-  S178  1  0.63092376  0.16978312  0.35631308  1
  S2-  S179  1  0.62418577  0.36088124  0.86146325  1
  S2-  S180  1  0.62365111  0.60202191  0.35660940  1
  S2-  S181  1  0.62583812  0.58876277  0.85219957  1
  S2-  S182  1  0.57583140  0.78656740  0.32069643  1
  S2-  S183  1  0.66928379  0.79124812  0.81986048  1
  S2-  S184  1  0.79156947  0.00074733  0.35987489  1
  S2-  S185  1  0.88980402  0.01196575  0.84455168  1
  S2-  S186  1  0.84401064  0.25289070  0.34577914  1
  S2-  S187  1  0.87003765  0.25783753  0.84297027  1
  S2-  S188  1  0.83780670  0.50983617  0.35500983  1
  S2-  S189  1  0.86075598  0.60130951  0.85492132  1
  S2-  S190  1  0.79772975  0.75761958  0.36324542  1
  S2-  S191  1  0.89131744  0.79686553  0.83299733  1
  S2-  S192  1  0.00164023  0.12797919  0.45393978  1
  S2-  S193  1  -0.00082446  0.11589956  0.95228940  1
  S2-  S194  1  -0.00012417  0.37793253  0.44973563  1
  S2-  S195  1  0.00087173  0.37158076  0.94599429  1
  S2-  S196  1  -0.00380465  0.62991030  0.45399154  1
  S2-  S197  1  -0.00071507  0.61701661  0.95088392  1
  S2-  S198  1  -0.00321734  0.87547788  0.44950978  1
  S2-  S199  1  -0.00098997  0.86664356  0.94654157  1
  S2-  S200  1  0.25026947  0.12154418  0.45067478  1
  S2-  S201  1  0.24552309  0.11633334  0.95288903  1
  S2-  S202  1  0.24965983  0.38198613  0.45034878  1
  S2-  S203  1  0.24873487  0.36699975  0.94941039  1
  S2-  S204  1  0.25262637  0.63254330  0.45537307  1
  S2-  S205  1  0.25371753  0.62049914  0.94972846  1
  S2-  S206  1  0.25263180  0.87595166  0.45172601  1
  S2-  S207  1  0.24778429  0.86972724  0.94431651  1
  S2-  S208  1  0.49950143  0.12879147  0.44974421  1
  S2-  S209  1  0.50205229  0.12072339  0.95936627  1
  S2-  S210  1  0.50277647  0.37609544  0.45039486  1
  S2-  S211  1  0.49450343  0.36312912  0.95580720  1
  S2-  S212  1  0.50311572  0.63080108  0.45470623  1
  S2-  S213  1  0.49834499  0.61702585  0.95784892  1
  S2-  S214  1  0.50912894  0.87997296  0.44224600  1
  S2-  S215  1  0.50208551  0.87352443  0.95724397  1
  S2-  S216  1  0.75077690  0.13067765  0.46034705  1
  S2-  S217  1  0.75071449  0.11799510  0.95465464  1
  S2-  S218  1  0.75221747  0.37514327  0.45521853  1
  S2-  S219  1  0.75283704  0.36675301  0.95441981  1
  S2-  S220  1  0.75669899  0.62533680  0.46333667  1
  S2-  S221  1  0.74277374  0.61699757  0.95453513  1
  S2-  S222  1  0.74835405  0.87937119  0.46256976  1
  S2-  S223  1  0.74757906  0.86954962  0.94682841  1
  S2-  S224  1  0.12581517  -0.00773506  0.04408432  1
  S2-  S225  1  0.12666016  -0.00007883  0.54339069  1
  S2-  S226  1  0.12307923  0.24585821  0.04830401  1
  S2-  S227  1  0.12717646  0.25370886  0.53902237  1
  S2-  S228  1  0.12634183  0.49647324  0.04405827  1
  S2-  S229  1  0.12581822  0.50359145  0.54765055  1
  S2-  S230  1  0.12874828  0.74505385  0.03537766  1
  S2-  S231  1  0.12132149  0.75558188  0.54742180  1
  S2-  S232  1  0.37685859  -0.00590807  0.04938887  1
  S2-  S233  1  0.37750777  -0.00203112  0.54724178  1
  S2-  S234  1  0.37594029  0.24443632  0.05199255  1
  S2-  S235  1  0.37542096  0.25422040  0.54094950  1
  S2-  S236  1  0.37855346  0.49553773  0.05414974  1
  S2-  S237  1  0.37614784  0.50613292  0.54958896  1
  S2-  S238  1  0.37779071  0.74698348  0.04396934  1
  S2-  S239  1  0.38284249  0.75298290  0.54241134  1
  S2-  S240  1  0.62772691  -0.00426222  0.04979725  1
  S2-  S241  1  0.62569434  0.00882181  0.53949298  1
  S2-  S242  1  0.62846590  0.24651322  0.04421986  1
  S2-  S243  1  0.62812922  0.25236161  0.54913627  1
  S2-  S244  1  0.62422282  0.49041126  0.04588714  1
  S2-  S245  1  0.62861326  0.50333375  0.54883065  1
  S2-  S246  1  0.62433526  0.74680147  0.04168591  1
  S2-  S247  1  0.63062187  0.74958611  0.54306565  1
  S2-  S248  1  0.87417541  -0.00788447  0.04653993  1
  S2-  S249  1  0.87987499  0.00166434  0.55142662  1
  S2-  S250  1  0.87809210  0.24827898  0.04647542  1
  S2-  S251  1  0.87812888  0.25029098  0.55096992  1
  S2-  S252  1  0.87520439  0.49401309  0.04503269  1
  S2-  S253  1  0.87959856  0.50270938  0.55534012  1
  S2-  S254  1  0.87212843  0.74533797  0.04096254  1
  S2-  S255  1  0.88236816  0.76061783  0.55684925  1
