# generated using pymatgen
data_La6Ce6Pr19Nd20Sm13(BiS2)64
_symmetry_space_group_name_H-M   'P 1'
_cell_length_a   16.03562659
_cell_length_b   16.04984198
_cell_length_c   27.21184673
_cell_angle_alpha   90.15287498
_cell_angle_beta   90.52791287
_cell_angle_gamma   89.95625623
_symmetry_Int_Tables_number   1
_chemical_formula_structural   La6Ce6Pr19Nd20Sm13(BiS2)64
_chemical_formula_sum   'La6 Ce6 Pr19 Nd20 Sm13 Bi64 S128'
_cell_volume   7003.16908444
_cell_formula_units_Z   1
loop_
 _symmetry_equiv_pos_site_id
 _symmetry_equiv_pos_as_xyz
  1  'x, y, z'
loop_
 _atom_type_symbol
 _atom_type_oxidation_number
  La3+  3.0
  Ce3+  3.0
  Pr3+  3.0
  Nd3+  3.0
  Sm3+  3.0
  Bi2+  2.0
  S2-  -2.0
loop_
 _atom_site_type_symbol
 _atom_site_label
 _atom_site_symmetry_multiplicity
 _atom_site_fract_x
 _atom_site_fract_y
 _atom_site_fract_z
 _atom_site_occupancy
  La3+  La0  1  0.62602826  0.01508426  0.92964837  1
  La3+  La1  1  0.74385834  0.14766113  0.56189503  1
  La3+  La2  1  0.76725534  0.39043056  0.10032655  1
  La3+  La3  1  0.73672008  0.64734064  0.57554387  1
  La3+  La4  1  0.13675092  0.01726229  0.92340514  1
  La3+  La5  1  0.61516400  0.26786838  0.41393057  1
  Ce3+  Ce6  1  0.76011458  0.13350298  0.07202374  1
  Ce3+  Ce7  1  0.38712321  0.76507223  0.93554559  1
  Ce3+  Ce8  1  0.10973891  0.01944797  0.43036676  1
  Ce3+  Ce9  1  0.01225436  0.38716772  0.06161478  1
  Ce3+  Ce10  1  0.25289197  0.88240958  0.05643700  1
  Ce3+  Ce11  1  0.49884989  0.91099198  0.57139570  1
  Pr3+  Pr12  1  0.86827791  0.77315661  0.45150208  1
  Pr3+  Pr13  1  0.49743318  0.15551792  0.55962225  1
  Pr3+  Pr14  1  0.63429980  0.50903112  0.94460432  1
  Pr3+  Pr15  1  0.51135974  0.63823377  0.06722689  1
  Pr3+  Pr16  1  0.13272256  0.50593133  0.92366016  1
  Pr3+  Pr17  1  0.00950041  0.13412337  0.07037277  1
  Pr3+  Pr18  1  0.61910737  0.77522490  0.44832018  1
  Pr3+  Pr19  1  0.11332331  0.52645708  0.42387185  1
  Pr3+  Pr20  1  0.52051687  0.88429785  0.07642234  1
  Pr3+  Pr21  1  0.24209236  0.64800308  0.55721511  1
  Pr3+  Pr22  1  0.00040181  0.90187534  0.58024907  1
  Pr3+  Pr23  1  0.37162849  0.52469034  0.42961516  1
  Pr3+  Pr24  1  0.24400267  0.39569680  0.56731382  1
  Pr3+  Pr25  1  -0.00294358  0.14890868  0.56570595  1
  Pr3+  Pr26  1  0.24773111  0.14708105  0.56424498  1
  Pr3+  Pr27  1  0.61966111  0.02334339  0.42657311  1
  Pr3+  Pr28  1  0.49664776  0.39792295  0.55422200  1
  Pr3+  Pr29  1  0.87822220  0.75954057  0.92532940  1
  Pr3+  Pr30  1  0.75086004  0.90099113  0.57981073  1
  Nd3+  Nd31  1  0.88146062  0.01934254  0.92648372  1
  Nd3+  Nd32  1  0.63529507  0.76266932  0.93492436  1
  Nd3+  Nd33  1  0.36804621  0.77657311  0.45071557  1
  Nd3+  Nd34  1  0.12238803  0.75582427  0.91266000  1
  Nd3+  Nd35  1  0.87724528  0.27055604  0.42809732  1
  Nd3+  Nd36  1  0.38747236  0.01238772  0.95144401  1
  Nd3+  Nd37  1  -0.00807475  0.39434856  0.56227366  1
  Nd3+  Nd38  1  0.24497593  0.90319326  0.57292029  1
  Nd3+  Nd39  1  0.88321820  0.25737305  0.94630125  1
  Nd3+  Nd40  1  0.01387279  0.63656063  0.05344148  1
  Nd3+  Nd41  1  0.86612608  0.52508623  0.43449292  1
  Nd3+  Nd42  1  0.76598449  0.88899023  0.05808028  1
  Nd3+  Nd43  1  0.51158614  0.39139918  0.07690229  1
  Nd3+  Nd44  1  0.38729207  0.51033881  0.93924409  1
  Nd3+  Nd45  1  0.62182544  0.51944539  0.42030626  1
  Nd3+  Nd46  1  0.01095053  0.88649115  0.05124139  1
  Nd3+  Nd47  1  0.74211748  0.39365137  0.55421551  1
  Nd3+  Nd48  1  0.63152437  0.25735102  0.94988302  1
  Nd3+  Nd49  1  0.25931499  0.38955645  0.06298560  1
  Nd3+  Nd50  1  -0.01134398  0.64250804  0.57281662  1
  Sm3+  Sm51  1  0.25708875  0.63628227  0.04369848  1
  Sm3+  Sm52  1  0.38479779  0.26058929  0.95151001  1
  Sm3+  Sm53  1  0.51574310  0.13887956  0.07893837  1
  Sm3+  Sm54  1  0.36908113  0.02156272  0.43588130  1
  Sm3+  Sm55  1  0.13529277  0.26040611  0.94618155  1
  Sm3+  Sm56  1  0.12059740  0.27324781  0.44156069  1
  Sm3+  Sm57  1  0.49495102  0.64574017  0.56411537  1
  Sm3+  Sm58  1  0.86582144  0.01864786  0.44177474  1
  Sm3+  Sm59  1  0.36605023  0.27319739  0.43188282  1
  Sm3+  Sm60  1  0.76757178  0.63533899  0.06726088  1
  Sm3+  Sm61  1  0.26467822  0.13224875  0.07217325  1
  Sm3+  Sm62  1  0.11661888  0.77642424  0.44030327  1
  Sm3+  Sm63  1  0.88034183  0.50677144  0.94317235  1
  Bi2+  Bi64  1  0.04867496  0.11941163  0.28651317  1
  Bi2+  Bi65  1  0.00871143  0.20664117  0.79188183  1
  Bi2+  Bi66  1  0.08100543  0.40055798  0.29050776  1
  Bi2+  Bi67  1  -0.01449539  0.40270205  0.79907546  1
  Bi2+  Bi68  1  -0.02614695  0.64806628  0.30157332  1
  Bi2+  Bi69  1  0.06212025  0.57700343  0.74804206  1
  Bi2+  Bi70  1  -0.03547687  0.85657708  0.26587013  1
  Bi2+  Bi71  1  0.07135753  0.84075282  0.77616014  1
  Bi2+  Bi72  1  0.24320405  0.11141027  0.31739564  1
  Bi2+  Bi73  1  0.25053071  0.04445688  0.80494856  1
  Bi2+  Bi74  1  0.27110184  0.44669845  0.32019549  1
  Bi2+  Bi75  1  0.17026916  0.34299358  0.82433403  1
  Bi2+  Bi76  1  0.21513461  0.62823176  0.27799789  1
  Bi2+  Bi77  1  0.24477839  0.52089997  0.79608138  1
  Bi2+  Bi78  1  0.25226106  0.89983380  0.30117145  1
  Bi2+  Bi79  1  0.35068954  0.73309851  0.80085504  1
  Bi2+  Bi80  1  0.42962991  0.11938833  0.28591687  1
  Bi2+  Bi81  1  0.51445677  0.12911916  0.79746349  1
  Bi2+  Bi82  1  0.47534064  0.40539693  0.29401862  1
  Bi2+  Bi83  1  0.44115726  0.37867217  0.75263456  1
  Bi2+  Bi84  1  0.42230132  0.66385818  0.28096186  1
  Bi2+  Bi85  1  0.51180928  0.59157929  0.79855124  1
  Bi2+  Bi86  1  0.50033008  0.87265955  0.29324996  1
  Bi2+  Bi87  1  0.51378308  0.88119870  0.79153628  1
  Bi2+  Bi88  1  0.80637530  0.10992422  0.30928715  1
  Bi2+  Bi89  1  0.76216919  0.09722993  0.79632238  1
  Bi2+  Bi90  1  0.77373837  0.42200125  0.29273254  1
  Bi2+  Bi91  1  0.71257136  0.35269424  0.76053110  1
  Bi2+  Bi92  1  0.74481074  0.60727972  0.25049931  1
  Bi2+  Bi93  1  0.75984304  0.57578058  0.78688556  1
  Bi2+  Bi94  1  0.75046154  0.85000994  0.29108008  1
  Bi2+  Bi95  1  0.76508738  0.83618451  0.78524029  1
  Bi2+  Bi96  1  0.07466971  -0.02046972  0.20356024  1
  Bi2+  Bi97  1  0.14357233  0.02185032  0.70794609  1
  Bi2+  Bi98  1  0.10548122  0.26300791  0.20324960  1
  Bi2+  Bi99  1  0.15542620  0.24533306  0.71592440  1
  Bi2+  Bi100  1  0.15076630  0.47117296  0.17063096  1
  Bi2+  Bi101  1  0.08667567  0.42412971  0.68000668  1
  Bi2+  Bi102  1  0.14012706  0.78776307  0.22271783  1
  Bi2+  Bi103  1  0.25859169  0.77892206  0.70159246  1
  Bi2+  Bi104  1  0.28237594  0.02237431  0.20127785  1
  Bi2+  Bi105  1  0.35748543  -0.05357558  0.72485337  1
  Bi2+  Bi106  1  0.27958579  0.28019581  0.25604661  1
  Bi2+  Bi107  1  0.34407678  0.20538641  0.76378148  1
  Bi2+  Bi108  1  0.34109664  0.53913967  0.20256737  1
  Bi2+  Bi109  1  0.29529763  0.45395165  0.69199215  1
  Bi2+  Bi110  1  0.35827202  0.83667125  0.19806447  1
  Bi2+  Bi111  1  0.41778178  0.65043297  0.70140978  1
  Bi2+  Bi112  1  0.48268761  -0.00444537  0.19947994  1
  Bi2+  Bi113  1  0.62226580  -0.03999495  0.69788901  1
  Bi2+  Bi114  1  0.62530907  0.21940191  0.22913339  1
  Bi2+  Bi115  1  0.61036170  0.21195170  0.69423286  1
  Bi2+  Bi116  1  0.60296061  0.46498435  0.21025844  1
  Bi2+  Bi117  1  0.58661464  0.43450274  0.68572279  1
  Bi2+  Bi118  1  0.59092998  0.72953222  0.23163810  1
  Bi2+  Bi119  1  0.63302208  0.69674343  0.72624286  1
  Bi2+  Bi120  1  0.78578793  -0.03396122  0.19890262  1
  Bi2+  Bi121  1  0.88111478  0.00901270  0.71838908  1
  Bi2+  Bi122  1  0.90692440  0.24683835  0.21226696  1
  Bi2+  Bi123  1  0.86688925  0.26194898  0.71055776  1
  Bi2+  Bi124  1  0.97770645  0.52272753  0.21480710  1
  Bi2+  Bi125  1  0.85557109  0.46146424  0.70626892  1
  Bi2+  Bi126  1  0.84259760  0.75660387  0.19167486  1
  Bi2+  Bi127  1  0.90437618  0.72394438  0.71611543  1
  S2-  S128  1  -0.11468517  0.12593429  0.14771175  1
  S2-  S129  1  -0.00116381  0.05177604  0.65243940  1
  S2-  S130  1  -0.06966969  0.38813957  0.14939508  1
  S2-  S131  1  -0.00840221  0.27882645  0.63998872  1
  S2-  S132  1  -0.03374116  0.65533374  0.14940448  1
  S2-  S133  1  0.04205799  0.68703215  0.66786675  1
  S2-  S134  1  -0.10408114  0.89033629  0.13098404  1
  S2-  S135  1  -0.10443682  0.87444374  0.66386247  1
  S2-  S136  1  0.13966075  0.12432155  0.14286518  1
  S2-  S137  1  0.27738306  0.03293896  0.64335596  1
  S2-  S138  1  0.30038652  0.37705914  0.16089721  1
  S2-  S139  1  0.26440279  0.26932213  0.64029934  1
  S2-  S140  1  0.22459705  0.62468067  0.13985081  1
  S2-  S141  1  0.25690328  0.62020189  0.65667647  1
  S2-  S142  1  0.13107500  0.86539831  0.12855135  1
  S2-  S143  1  0.13326857  0.87914448  0.65219466  1
  S2-  S144  1  0.38735369  0.12999628  0.14794387  1
  S2-  S145  1  0.52740150  0.06666342  0.64821330  1
  S2-  S146  1  0.53175476  0.31671287  0.17272326  1
  S2-  S147  1  0.50144053  0.28841789  0.63543031  1
  S2-  S148  1  0.49617298  0.52450090  0.14609259  1
  S2-  S149  1  0.60099302  0.59626106  0.64042052  1
  S2-  S150  1  0.49424086  0.75248998  0.14687011  1
  S2-  S151  1  0.48480987  0.86220412  0.66719706  1
  S2-  S152  1  0.64378481  0.13125224  0.14944004  1
  S2-  S153  1  0.74918707  0.03840462  0.64884771  1
  S2-  S154  1  0.74902352  0.31702501  0.19656241  1
  S2-  S155  1  0.73953366  0.27744019  0.63303614  1
  S2-  S156  1  0.74257630  0.54344101  0.15197944  1
  S2-  S157  1  0.85584045  0.60757584  0.64854228  1
  S2-  S158  1  0.66617901  0.90298820  0.14332603  1
  S2-  S159  1  0.70805675  0.79494458  0.66378074  1
  S2-  S160  1  0.12787615  -0.10887755  0.36381499  1
  S2-  S161  1  0.08039375  -0.01381571  0.82241106  1
  S2-  S162  1  0.05850947  0.26542557  0.34973506  1
  S2-  S163  1  0.15389226  0.17111644  0.86195136  1
  S2-  S164  1  -0.02409474  0.50550314  0.35558331  1
  S2-  S165  1  0.12392261  0.61298345  0.84353690  1
  S2-  S166  1  0.11619021  0.66853296  0.35845958  1
  S2-  S167  1  0.21377195  0.81791219  0.83394260  1
  S2-  S168  1  0.48088191  0.00789957  0.35814828  1
  S2-  S169  1  0.46859820  0.00334593  0.86319102  1
  S2-  S170  1  0.45882223  0.26369665  0.34790281  1
  S2-  S171  1  0.42829024  0.23892815  0.85757233  1
  S2-  S172  1  0.48761027  0.55102150  0.35238061  1
  S2-  S173  1  0.40494147  0.47428001  0.84224630  1
  S2-  S174  1  0.36295611  0.78259014  0.35061634  1
  S2-  S175  1  0.50668058  0.75219479  0.86280045  1
  S2-  S176  1  0.75345929  -0.02064246  0.36229646  1
  S2-  S177  1  0.65407695  -0.08088905  0.84065872  1
  S2-  S178  1  0.65403519  0.15661047  0.33086727  1
  S2-  S179  1  0.64459342  0.16002906  0.86366548  1
  S2-  S180  1  0.63367478  0.39240250  0.33990393  1
  S2-  S181  1  0.63559594  0.50114438  0.84303391  1
  S2-  S182  1  0.62255789  0.78082365  0.34653860  1
  S2-  S183  1  0.74545528  0.72467756  0.85573880  1
  S2-  S184  1  0.96485049  0.04093168  0.35988774  1
  S2-  S185  1  0.86035846  -0.03339374  0.82648151  1
  S2-  S186  1  0.84616077  0.27517709  0.32794346  1
  S2-  S187  1  0.87997365  0.16629807  0.85904701  1
  S2-  S188  1  0.75401499  0.55758989  0.35470713  1
  S2-  S189  1  0.88775596  0.52768330  0.84537236  1
  S2-  S190  1  0.88339558  0.77656351  0.35016002  1
  S2-  S191  1  0.98442372  0.76851662  0.84260017  1
  S2-  S192  1  -0.00297639  0.15142415  0.45875609  1
  S2-  S193  1  0.01290157  0.13833191  0.95963262  1
  S2-  S194  1  -0.00233400  0.39618528  0.45720564  1
  S2-  S195  1  0.00836299  0.38300022  0.95177656  1
  S2-  S196  1  -0.00562206  0.64718883  0.46313178  1
  S2-  S197  1  0.00308114  0.62893778  0.94787028  1
  S2-  S198  1  -0.00763420  0.89689878  0.46460440  1
  S2-  S199  1  0.00730890  0.89227207  0.94451345  1
  S2-  S200  1  0.24384644  0.14699742  0.45102523  1
  S2-  S201  1  0.26516030  0.13804182  0.96579892  1
  S2-  S202  1  0.24235713  0.40036093  0.45305232  1
  S2-  S203  1  0.26146112  0.38497412  0.95406231  1
  S2-  S204  1  0.24568253  0.64725320  0.45190932  1
  S2-  S205  1  0.26268122  0.63551972  0.93983719  1
  S2-  S206  1  0.24683968  0.90093267  0.46396478  1
  S2-  S207  1  0.26158160  0.88960965  0.94958775  1
  S2-  S208  1  0.48843049  0.14832629  0.45195582  1
  S2-  S209  1  0.50601486  0.13957357  0.97263840  1
  S2-  S210  1  0.48988332  0.39690485  0.44837450  1
  S2-  S211  1  0.50846301  0.38419643  0.96208173  1
  S2-  S212  1  0.49209953  0.65033358  0.46038090  1
  S2-  S213  1  0.51024716  0.63328375  0.95976825  1
  S2-  S214  1  0.49243217  0.89881017  0.46167140  1
  S2-  S215  1  0.51129475  0.88339053  0.96710007  1
  S2-  S216  1  0.74911141  0.14926445  0.45016446  1
  S2-  S217  1  0.75859088  0.13606547  0.96445079  1
  S2-  S218  1  0.74843025  0.39330981  0.44859809  1
  S2-  S219  1  0.75859624  0.38034371  0.94207577  1
  S2-  S220  1  0.74188587  0.64932057  0.46342640  1
  S2-  S221  1  0.76027130  0.62967674  0.96142524  1
  S2-  S222  1  0.74388263  0.89636594  0.46890879  1
  S2-  S223  1  0.76029678  0.88993807  0.95152472  1
  S2-  S224  1  0.13763036  0.01297433  0.03638017  1
  S2-  S225  1  0.12191104  0.02310999  0.54165144  1
  S2-  S226  1  0.13777613  0.26187646  0.04933139  1
  S2-  S227  1  0.12269662  0.27233208  0.54334883  1
  S2-  S228  1  0.13440736  0.50998881  0.03263226  1
  S2-  S229  1  0.11829221  0.52059852  0.54818620  1
  S2-  S230  1  0.13317370  0.75623904  0.02388133  1
  S2-  S231  1  0.11774393  0.77082888  0.54594344  1
  S2-  S232  1  0.38595575  0.00086127  0.05499836  1
  S2-  S233  1  0.37463811  0.02480149  0.53952042  1
  S2-  S234  1  0.38639126  0.26528638  0.05497867  1
  S2-  S235  1  0.36733546  0.27523921  0.53403836  1
  S2-  S236  1  0.38122265  0.51331646  0.04457851  1
  S2-  S237  1  0.37028650  0.52254914  0.54486683  1
  S2-  S238  1  0.37934966  0.75927266  0.04209181  1
  S2-  S239  1  0.37205581  0.77282580  0.55692633  1
  S2-  S240  1  0.63449530  0.01571624  0.04227808  1
  S2-  S241  1  0.62082358  0.02528130  0.53789108  1
  S2-  S242  1  0.64026591  0.27143860  0.05454015  1
  S2-  S243  1  0.61922588  0.27446408  0.52759228  1
  S2-  S244  1  0.64216204  0.50752423  0.04968590  1
  S2-  S245  1  0.61958577  0.51872672  0.53241748  1
  S2-  S246  1  0.64428866  0.75497378  0.04558258  1
  S2-  S247  1  0.61177612  0.77514450  0.55374558  1
  S2-  S248  1  0.88788796  0.01518423  0.03468441  1
  S2-  S249  1  0.87239322  0.02267021  0.54589399  1
  S2-  S250  1  0.88261483  0.26622299  0.05002535  1
  S2-  S251  1  0.87068150  0.27298496  0.53588886  1
  S2-  S252  1  0.88564266  0.50967136  0.04723660  1
  S2-  S253  1  0.86777311  0.51618527  0.54231664  1
  S2-  S254  1  0.88596297  0.75587281  0.03453819  1
  S2-  S255  1  0.86990362  0.77023532  0.55649533  1
