# generated using pymatgen
data_La6Ce6Pr19Nd20Sm13(BiS2)64
_symmetry_space_group_name_H-M   'P 1'
_cell_length_a   16.04924741
_cell_length_b   16.07610971
_cell_length_c   27.44857423
_cell_angle_alpha   89.65295819
_cell_angle_beta   89.77699614
_cell_angle_gamma   89.83128931
_symmetry_Int_Tables_number   1
_chemical_formula_structural   La6Ce6Pr19Nd20Sm13(BiS2)64
_chemical_formula_sum   'La6 Ce6 Pr19 Nd20 Sm13 Bi64 S128'
_cell_volume   7081.77811149
_cell_formula_units_Z   1
loop_
 _symmetry_equiv_pos_site_id
 _symmetry_equiv_pos_as_xyz
  1  'x, y, z'
loop_
 _atom_type_symbol
 _atom_type_oxidation_number
  La3+  3.0
  Ce3+  3.0
  Pr3+  3.0
  Nd3+  3.0
  Sm3+  3.0
  Bi2+  2.0
  S2-  -2.0
loop_
 _atom_site_type_symbol
 _atom_site_label
 _atom_site_symmetry_multiplicity
 _atom_site_fract_x
 _atom_site_fract_y
 _atom_site_fract_z
 _atom_site_occupancy
  La3+  La0  1  0.62475506  0.01727212  0.92827117  1
  La3+  La1  1  0.38021120  0.75540199  0.92672559  1
  La3+  La2  1  0.11988797  0.51588457  0.90225781  1
  La3+  La3  1  0.37188645  0.25218202  0.39794131  1
  La3+  La4  1  0.49960438  0.88103016  0.06672192  1
  La3+  La5  1  0.12622318  0.25011927  0.91504950  1
  Ce3+  Ce6  1  0.47958587  0.36403242  0.56943665  1
  Ce3+  Ce7  1  0.73361582  0.61348660  0.56615156  1
  Ce3+  Ce8  1  0.24633122  0.13304974  0.06427774  1
  Ce3+  Ce9  1  0.87741796  0.50400877  0.93547508  1
  Ce3+  Ce10  1  0.74921487  0.38144562  0.05334256  1
  Ce3+  Ce11  1  0.62358103  0.25457833  0.94459668  1
  Pr3+  Pr12  1  0.23240495  0.60765006  0.59720561  1
  Pr3+  Pr13  1  0.11284319  0.48208535  0.44746518  1
  Pr3+  Pr14  1  0.11430165  0.23746021  0.44024969  1
  Pr3+  Pr15  1  0.85939444  0.73592757  0.43901109  1
  Pr3+  Pr16  1  0.85975595  -0.01179187  0.43410013  1
  Pr3+  Pr17  1  0.00345403  0.62893704  0.06768739  1
  Pr3+  Pr18  1  0.35989775  0.73651106  0.44622816  1
  Pr3+  Pr19  1  0.61006901  0.23893483  0.44744129  1
  Pr3+  Pr20  1  0.60850875  0.48461994  0.44787167  1
  Pr3+  Pr21  1  0.49811468  0.12960324  0.09513001  1
  Pr3+  Pr22  1  0.22758790  0.35402804  0.58065546  1
  Pr3+  Pr23  1  0.12340583  0.75738441  0.93714112  1
  Pr3+  Pr24  1  0.49033741  0.61072204  0.59671680  1
  Pr3+  Pr25  1  0.37820342  0.00529645  0.93330160  1
  Pr3+  Pr26  1  0.24914922  0.62803009  0.05982882  1
  Pr3+  Pr27  1  0.87475605  0.24839451  0.92749372  1
  Pr3+  Pr28  1  0.48720416  0.10716766  0.57648945  1
  Pr3+  Pr29  1  0.60428126  0.73636468  0.43761171  1
  Pr3+  Pr30  1  0.60240319  -0.00807875  0.43323332  1
  Nd3+  Nd31  1  0.62205797  0.50689772  0.93500895  1
  Nd3+  Nd32  1  0.49355809  0.37869573  0.06596784  1
  Nd3+  Nd33  1  0.00113957  0.37970325  0.05073291  1
  Nd3+  Nd34  1  0.35632512  -0.00546778  0.44135006  1
  Nd3+  Nd35  1  0.87574243  0.01062975  0.94711558  1
  Nd3+  Nd36  1  0.35743179  0.48486788  0.45074282  1
  Nd3+  Nd37  1  0.48343218  0.86029412  0.56909534  1
  Nd3+  Nd38  1  0.00025834  0.13812942  0.07128952  1
  Nd3+  Nd39  1  0.73342143  0.10807073  0.56366172  1
  Nd3+  Nd40  1  -0.01567683  0.85755504  0.55689974  1
  Nd3+  Nd41  1  0.23160067  0.10852373  0.57432077  1
  Nd3+  Nd42  1  0.62796397  0.76400807  0.93149544  1
  Nd3+  Nd43  1  0.12287827  0.00716043  0.94320907  1
  Nd3+  Nd44  1  0.37768742  0.51196657  0.92739511  1
  Nd3+  Nd45  1  0.11017374  -0.00866613  0.44658365  1
  Nd3+  Nd46  1  0.86479031  0.23959439  0.43229054  1
  Nd3+  Nd47  1  0.37645721  0.25632069  0.93843403  1
  Nd3+  Nd48  1  0.87541448  0.75536772  0.94595593  1
  Nd3+  Nd49  1  0.25090015  0.88094087  0.05714227  1
  Nd3+  Nd50  1  -0.02300058  0.10903414  0.56883686  1
  Sm3+  Sm51  1  0.23609215  0.85901057  0.55794360  1
  Sm3+  Sm52  1  -0.00283226  0.88164452  0.06362616  1
  Sm3+  Sm53  1  -0.01383616  0.61003106  0.56854742  1
  Sm3+  Sm54  1  0.74689953  0.88257566  0.05916122  1
  Sm3+  Sm55  1  0.74760864  0.62990086  0.05420549  1
  Sm3+  Sm56  1  -0.01987271  0.35720886  0.56907523  1
  Sm3+  Sm57  1  0.74872886  0.13269314  0.07124026  1
  Sm3+  Sm58  1  0.73875067  0.36001082  0.56287368  1
  Sm3+  Sm59  1  0.24842858  0.38092649  0.04056393  1
  Sm3+  Sm60  1  0.49535193  0.63351065  0.06388500  1
  Sm3+  Sm61  1  0.86269427  0.48796211  0.44742543  1
  Sm3+  Sm62  1  0.11141867  0.73437399  0.44423060  1
  Sm3+  Sm63  1  0.72998057  0.85900051  0.55430285  1
  Bi2+  Bi64  1  -0.00696394  0.10164056  0.29417661  1
  Bi2+  Bi65  1  -0.00982692  0.10570425  0.80472230  1
  Bi2+  Bi66  1  0.00454680  0.36663987  0.29748868  1
  Bi2+  Bi67  1  -0.06996237  0.37371632  0.78096718  1
  Bi2+  Bi68  1  -0.05120070  0.57145858  0.27912348  1
  Bi2+  Bi69  1  -0.10315434  0.62761625  0.78415383  1
  Bi2+  Bi70  1  0.00320814  0.83599942  0.29564834  1
  Bi2+  Bi71  1  0.04637482  0.88786829  0.82324457  1
  Bi2+  Bi72  1  0.24849885  0.09932727  0.29813103  1
  Bi2+  Bi73  1  0.27366683  0.08851213  0.79241340  1
  Bi2+  Bi74  1  0.25478366  0.44703355  0.27762450  1
  Bi2+  Bi75  1  0.32023331  0.36818115  0.78255184  1
  Bi2+  Bi76  1  0.22147000  0.64095502  0.26999827  1
  Bi2+  Bi77  1  0.23134818  0.65615737  0.78286281  1
  Bi2+  Bi78  1  0.26873278  0.82313667  0.29744677  1
  Bi2+  Bi79  1  0.23212908  0.88932305  0.78920904  1
  Bi2+  Bi80  1  0.51276385  0.11001001  0.29591078  1
  Bi2+  Bi81  1  0.52915221  0.15139168  0.78538370  1
  Bi2+  Bi82  1  0.50867464  0.39271597  0.29488794  1
  Bi2+  Bi83  1  0.54625136  0.36984891  0.79170020  1
  Bi2+  Bi84  1  0.50139671  0.59462162  0.25819233  1
  Bi2+  Bi85  1  0.49366356  0.62570252  0.78736591  1
  Bi2+  Bi86  1  0.51778438  0.86382012  0.31472369  1
  Bi2+  Bi87  1  0.51252909  0.89282091  0.80101921  1
  Bi2+  Bi88  1  0.80474198  0.17313363  0.31064243  1
  Bi2+  Bi89  1  0.75199116  0.16478144  0.77424805  1
  Bi2+  Bi90  1  0.73629043  0.39061768  0.29378430  1
  Bi2+  Bi91  1  0.74630347  0.38800436  0.82096305  1
  Bi2+  Bi92  1  0.76747116  0.66452991  0.28386820  1
  Bi2+  Bi93  1  0.70327749  0.58626837  0.80914134  1
  Bi2+  Bi94  1  0.82496404  0.83812073  0.23650325  1
  Bi2+  Bi95  1  0.77565714  0.87047069  0.78467214  1
  Bi2+  Bi96  1  0.14540330  -0.05131067  0.24529775  1
  Bi2+  Bi97  1  0.14778319  0.00953350  0.71475151  1
  Bi2+  Bi98  1  0.08225255  0.22176076  0.21766525  1
  Bi2+  Bi99  1  0.13771552  0.24915595  0.71942888  1
  Bi2+  Bi100  1  0.11336998  0.50992425  0.20760656  1
  Bi2+  Bi101  1  0.11357206  0.49421466  0.71428991  1
  Bi2+  Bi102  1  0.05868937  0.77986087  0.19069017  1
  Bi2+  Bi103  1  0.01695787  0.76785297  0.73197610  1
  Bi2+  Bi104  1  0.36593389  -0.02612851  0.21076483  1
  Bi2+  Bi105  1  0.39573962  0.09539948  0.70655317  1
  Bi2+  Bi106  1  0.34226956  0.26414555  0.19492336  1
  Bi2+  Bi107  1  0.45386193  0.28813597  0.69570804  1
  Bi2+  Bi108  1  0.39614561  0.46837973  0.19499467  1
  Bi2+  Bi109  1  0.37901561  0.54421324  0.71579944  1
  Bi2+  Bi110  1  0.38018980  0.72941703  0.20586788  1
  Bi2+  Bi111  1  0.36955942  0.84213250  0.69667623  1
  Bi2+  Bi112  1  0.63702207  -0.00095372  0.21712992  1
  Bi2+  Bi113  1  0.68751332  0.00683587  0.71737579  1
  Bi2+  Bi114  1  0.65451340  0.21891113  0.24336577  1
  Bi2+  Bi115  1  0.65278455  0.27236972  0.69296203  1
  Bi2+  Bi116  1  0.64590697  0.48924029  0.20774549  1
  Bi2+  Bi117  1  0.68895422  0.46698963  0.71659463  1
  Bi2+  Bi118  1  0.62581961  0.73727464  0.21121181  1
  Bi2+  Bi119  1  0.68536467  0.73755766  0.71801234  1
  Bi2+  Bi120  1  0.87978267  0.03154081  0.21583722  1
  Bi2+  Bi121  1  0.92936412  -0.04356080  0.73621656  1
  Bi2+  Bi122  1  0.84064487  0.28160685  0.21478219  1
  Bi2+  Bi123  1  0.90112965  0.20543464  0.70087017  1
  Bi2+  Bi124  1  0.92405336  0.47028118  0.18024286  1
  Bi2+  Bi125  1  0.88457036  0.49232226  0.69225011  1
  Bi2+  Bi126  1  0.89106252  0.66915878  0.18098740  1
  Bi2+  Bi127  1  0.85976152  0.68546848  0.67351465  1
  S2-  S128  1  -0.12731401  0.14546871  0.14360826  1
  S2-  S129  1  0.05639455  0.13059423  0.65822253  1
  S2-  S130  1  0.02281827  0.33421218  0.14694881  1
  S2-  S131  1  0.08022326  0.36034538  0.65054109  1
  S2-  S132  1  0.13293820  0.63581752  0.13924787  1
  S2-  S133  1  0.07966353  0.61512385  0.65213654  1
  S2-  S134  1  -0.00805719  0.92989950  0.15724018  1
  S2-  S135  1  -0.00962040  0.87378616  0.65463892  1
  S2-  S136  1  0.12727445  0.13926061  0.14068972  1
  S2-  S137  1  0.24670686  0.22080662  0.65296957  1
  S2-  S138  1  0.26946114  0.38328018  0.13924922  1
  S2-  S139  1  0.25179192  0.46686661  0.66052423  1
  S2-  S140  1  0.36697994  0.60759606  0.13503706  1
  S2-  S141  1  0.28358312  0.69430586  0.68280981  1
  S2-  S142  1  0.29065876  0.86000319  0.15372440  1
  S2-  S143  1  0.23681599  0.93073023  0.64699655  1
  S2-  S144  1  0.34224331  0.11278301  0.14885751  1
  S2-  S145  1  0.62663279  0.11441618  0.64560851  1
  S2-  S146  1  0.48863141  0.28418910  0.14980267  1
  S2-  S147  1  0.48203754  0.45952866  0.65236432  1
  S2-  S148  1  0.51248397  0.75178103  0.13947120  1
  S2-  S149  1  0.48530194  0.75824564  0.65299257  1
  S2-  S150  1  0.50140314  0.97373331  0.15624826  1
  S2-  S151  1  0.46154170  0.97326025  0.64755611  1
  S2-  S152  1  0.64840082  0.12493072  0.15485456  1
  S2-  S153  1  0.84721211  0.09282461  0.63939558  1
  S2-  S154  1  0.73164958  0.37227670  0.14983065  1
  S2-  S155  1  0.85110950  0.33952302  0.63791158  1
  S2-  S156  1  0.70376253  0.62260163  0.14952278  1
  S2-  S157  1  0.64508068  0.61450143  0.65070291  1
  S2-  S158  1  0.72389790  0.88605605  0.15704405  1
  S2-  S159  1  0.70734964  0.87726384  0.65193339  1
  S2-  S160  1  0.15331344  -0.00501319  0.35079451  1
  S2-  S161  1  0.14166593  0.09280690  0.85727492  1
  S2-  S162  1  0.21597634  0.22170160  0.35717942  1
  S2-  S163  1  0.20028467  0.27836886  0.81693427  1
  S2-  S164  1  0.11984988  0.44964415  0.34874584  1
  S2-  S165  1  0.19526929  0.48823406  0.80847660  1
  S2-  S166  1  0.13758093  0.73849409  0.34749350  1
  S2-  S167  1  0.11700238  0.67384287  0.84954298  1
  S2-  S168  1  0.40676489  -0.00224101  0.34480305  1
  S2-  S169  1  0.49240727  0.02853934  0.85340308  1
  S2-  S170  1  0.37996142  0.21207869  0.29034820  1
  S2-  S171  1  0.42193114  0.26448127  0.84160826  1
  S2-  S172  1  0.36833624  0.41869255  0.35723358  1
  S2-  S173  1  0.35018564  0.63394367  0.85031441  1
  S2-  S174  1  0.41141116  0.75562432  0.35029102  1
  S2-  S175  1  0.36083743  0.88175742  0.85407021  1
  S2-  S176  1  0.63805610  -0.00822922  0.33405596  1
  S2-  S177  1  0.65478388  -0.10769607  0.85599451  1
  S2-  S178  1  0.54227740  0.24959029  0.35623313  1
  S2-  S179  1  0.64708729  0.16793871  0.86051123  1
  S2-  S180  1  0.61711186  0.48450293  0.34749432  1
  S2-  S181  1  0.50844683  0.49460415  0.85817427  1
  S2-  S182  1  0.63970754  0.75689379  0.33974328  1
  S2-  S183  1  0.52068753  0.74454093  0.85228027  1
  S2-  S184  1  0.90636981  -0.03751607  0.33878282  1
  S2-  S185  1  0.85677570  0.09727311  0.86143635  1
  S2-  S186  1  0.99342514  0.23993614  0.36307914  1
  S2-  S187  1  0.98854768  0.26202147  0.84831061  1
  S2-  S188  1  0.87166467  0.44680833  0.35239094  1
  S2-  S189  1  0.96592663  0.50373080  0.85037668  1
  S2-  S190  1  0.90477769  0.70842679  0.34482708  1
  S2-  S191  1  0.86448048  0.76049047  0.84750196  1
  S2-  S192  1  -0.01808307  0.10909295  0.45955898  1
  S2-  S193  1  0.00060423  0.13154629  0.96186287  1
  S2-  S194  1  -0.01774109  0.36375254  0.46445567  1
  S2-  S195  1  0.00340092  0.38121858  0.94740079  1
  S2-  S196  1  -0.01304122  0.61136503  0.45970150  1
  S2-  S197  1  -0.00156097  0.63078258  0.95889624  1
  S2-  S198  1  -0.01198404  0.85994369  0.45175478  1
  S2-  S199  1  -0.00296856  0.88237996  0.95890450  1
  S2-  S200  1  0.23407604  0.11088049  0.46563364  1
  S2-  S201  1  0.25320391  0.13156783  0.95548344  1
  S2-  S202  1  0.23929172  0.35815795  0.46459856  1
  S2-  S203  1  0.24966546  0.38702232  0.93614845  1
  S2-  S204  1  0.23430311  0.61185123  0.44790270  1
  S2-  S205  1  0.24391062  0.62817967  0.95376299  1
  S2-  S206  1  0.23323776  0.86205836  0.45490449  1
  S2-  S207  1  0.24614233  0.88264853  0.95269667  1
  S2-  S208  1  0.47969261  0.11796927  0.45710973  1
  S2-  S209  1  0.49723509  0.13560136  0.95873943  1
  S2-  S210  1  0.48250070  0.36099272  0.46339429  1
  S2-  S211  1  0.50096448  0.37904383  0.95834881  1
  S2-  S212  1  0.48341598  0.60880677  0.44862414  1
  S2-  S213  1  0.50538535  0.63254491  0.95927571  1
  S2-  S214  1  0.48252895  0.86540945  0.45938734  1
  S2-  S215  1  0.50480845  0.88347068  0.95841760  1
  S2-  S216  1  0.73522723  0.11259214  0.45220881  1
  S2-  S217  1  0.75074000  0.13259305  0.96724877  1
  S2-  S218  1  0.73991487  0.36246941  0.45768255  1
  S2-  S219  1  0.74991418  0.38040161  0.94833837  1
  S2-  S220  1  0.73544713  0.61052259  0.45440067  1
  S2-  S221  1  0.74989925  0.63012357  0.94996715  1
  S2-  S222  1  0.73258773  0.86292267  0.44894696  1
  S2-  S223  1  0.75521314  0.88469603  0.95718898  1
  S2-  S224  1  0.12055680  0.00220410  0.04754263  1
  S2-  S225  1  0.10746865  -0.01684901  0.55055230  1
  S2-  S226  1  0.12646536  0.25864964  0.03213328  1
  S2-  S227  1  0.10243633  0.23288358  0.54720562  1
  S2-  S228  1  0.12508615  0.50152112  0.04218680  1
  S2-  S229  1  0.10790716  0.48776895  0.55167671  1
  S2-  S230  1  0.12170896  0.76207202  0.04312907  1
  S2-  S231  1  0.11343338  0.73347871  0.54890269  1
  S2-  S232  1  0.37261119  0.00579874  0.04231996  1
  S2-  S233  1  0.35608697  -0.01241483  0.54498172  1
  S2-  S234  1  0.37325613  0.25593129  0.04301355  1
  S2-  S235  1  0.36478178  0.23343266  0.55998971  1
  S2-  S236  1  0.37605697  0.50199232  0.03300609  1
  S2-  S237  1  0.35888441  0.49594143  0.55365701  1
  S2-  S238  1  0.37289896  0.75578292  0.03801323  1
  S2-  S239  1  0.35579803  0.73161370  0.55213947  1
  S2-  S240  1  0.62823434  0.00761719  0.04653916  1
  S2-  S241  1  0.60951098  -0.01632619  0.54051737  1
  S2-  S242  1  0.62404667  0.25677752  0.04879359  1
  S2-  S243  1  0.61136076  0.24272156  0.55103790  1
  S2-  S244  1  0.62092431  0.50713367  0.04391361  1
  S2-  S245  1  0.61419589  0.48488529  0.55209039  1
  S2-  S246  1  0.63002889  0.75495485  0.03919789  1
  S2-  S247  1  0.60777051  0.73528042  0.54424943  1
  S2-  S248  1  0.87320639  0.00382542  0.05096929  1
  S2-  S249  1  0.85673257  -0.02320317  0.54046047  1
  S2-  S250  1  0.87349516  0.25869409  0.03914910  1
  S2-  S251  1  0.85606082  0.23267578  0.53728952  1
  S2-  S252  1  0.87385330  0.50744874  0.04308933  1
  S2-  S253  1  0.86033475  0.49046631  0.54990651  1
  S2-  S254  1  0.87282588  0.75637397  0.05139602  1
  S2-  S255  1  0.85822768  0.73646834  0.54503661  1
