# generated using pymatgen
data_La6Ce6Pr19Nd20Sm13(BiS2)64
_symmetry_space_group_name_H-M   'P 1'
_cell_length_a   16.10198019
_cell_length_b   16.03942158
_cell_length_c   27.26630848
_cell_angle_alpha   90.24266271
_cell_angle_beta   89.96257168
_cell_angle_gamma   90.06371627
_symmetry_Int_Tables_number   1
_chemical_formula_structural   La6Ce6Pr19Nd20Sm13(BiS2)64
_chemical_formula_sum   'La6 Ce6 Pr19 Nd20 Sm13 Bi64 S128'
_cell_volume   7041.90366517
_cell_formula_units_Z   1
loop_
 _symmetry_equiv_pos_site_id
 _symmetry_equiv_pos_as_xyz
  1  'x, y, z'
loop_
 _atom_type_symbol
 _atom_type_oxidation_number
  La3+  3.0
  Ce3+  3.0
  Pr3+  3.0
  Nd3+  3.0
  Sm3+  3.0
  Bi2+  2.0
  S2-  -2.0
loop_
 _atom_site_type_symbol
 _atom_site_label
 _atom_site_symmetry_multiplicity
 _atom_site_fract_x
 _atom_site_fract_y
 _atom_site_fract_z
 _atom_site_occupancy
  La3+  La0  1  0.13988976  0.49278657  0.88646448  1
  La3+  La1  1  0.51582593  0.12431955  0.11402251  1
  La3+  La2  1  0.47000557  0.12684615  0.56899477  1
  La3+  La3  1  0.35406012  0.26026144  0.40742755  1
  La3+  La4  1  0.00540539  0.12690416  0.09178968  1
  La3+  La5  1  0.24210350  0.62625544  0.58255019  1
  Ce3+  Ce6  1  0.60781852  0.50064104  0.43964707  1
  Ce3+  Ce7  1  0.36175851  0.74879847  0.45460157  1
  Ce3+  Ce8  1  0.73535789  0.37443627  0.55138549  1
  Ce3+  Ce9  1  0.38289207  0.50166095  0.93498497  1
  Ce3+  Ce10  1  0.73764835  0.62382962  0.56247151  1
  Ce3+  Ce11  1  0.75242560  0.87885456  0.05720980  1
  Pr3+  Pr12  1  0.24673506  0.88442475  0.57518130  1
  Pr3+  Pr13  1  0.36260550  -0.01460154  0.42468340  1
  Pr3+  Pr14  1  0.63026569  0.25047030  0.93532264  1
  Pr3+  Pr15  1  0.37834412  0.24997567  0.94181621  1
  Pr3+  Pr16  1  -0.00853394  0.61959742  0.57930361  1
  Pr3+  Pr17  1  0.62894531  -0.00007158  0.93333855  1
  Pr3+  Pr18  1  0.11039287  0.75039263  0.44559110  1
  Pr3+  Pr19  1  0.10478370  0.50001097  0.43922482  1
  Pr3+  Pr20  1  0.47972494  0.37500991  0.55711416  1
  Pr3+  Pr21  1  0.00405827  0.87439234  0.07244595  1
  Pr3+  Pr22  1  0.25663810  0.12412652  0.07038217  1
  Pr3+  Pr23  1  0.63157320  0.74798197  0.93661688  1
  Pr3+  Pr24  1  0.12571564  0.75344227  0.93485133  1
  Pr3+  Pr25  1  0.60784390  0.24985752  0.43650475  1
  Pr3+  Pr26  1  0.49232870  0.62152374  0.58855215  1
  Pr3+  Pr27  1  0.75263298  0.13201286  0.06411828  1
  Pr3+  Pr28  1  0.60886315  0.74692031  0.44087159  1
  Pr3+  Pr29  1  0.00682967  0.37893392  0.06840244  1
  Pr3+  Pr30  1  0.86048767  0.75853414  0.43671863  1
  Nd3+  Nd31  1  0.35043011  0.50533770  0.43406658  1
  Nd3+  Nd32  1  0.88480128  0.25190685  0.94099379  1
  Nd3+  Nd33  1  0.38118241  0.00113816  0.94283836  1
  Nd3+  Nd34  1  0.62994876  0.50033818  0.93231476  1
  Nd3+  Nd35  1  0.60680083  -0.00184150  0.44158694  1
  Nd3+  Nd36  1  0.10316995  0.23919639  0.42409924  1
  Nd3+  Nd37  1  0.88121086  0.74754817  0.94954276  1
  Nd3+  Nd38  1  -0.01233244  0.87234319  0.57260297  1
  Nd3+  Nd39  1  0.37979242  0.74845173  0.93553554  1
  Nd3+  Nd40  1  0.86128372  0.24775339  0.43333020  1
  Nd3+  Nd41  1  0.25525627  0.62399867  0.05458159  1
  Nd3+  Nd42  1  0.73223171  0.12702816  0.55875321  1
  Nd3+  Nd43  1  0.25647562  0.37521217  0.06025819  1
  Nd3+  Nd44  1  0.50832723  0.87261930  0.06365434  1
  Nd3+  Nd45  1  0.88690268  0.49991144  0.94003460  1
  Nd3+  Nd46  1  0.88385486  0.00253485  0.94475399  1
  Nd3+  Nd47  1  0.75299910  0.37552896  0.06153489  1
  Nd3+  Nd48  1  0.49365349  0.87346072  0.57707131  1
  Nd3+  Nd49  1  0.25595004  0.87690626  0.06046028  1
  Nd3+  Nd50  1  0.11046665  -0.00895716  0.43588804  1
  Sm3+  Sm51  1  0.13109396  0.25345526  0.94465653  1
  Sm3+  Sm52  1  -0.01230788  0.12653707  0.56454327  1
  Sm3+  Sm53  1  -0.01447798  0.36904910  0.56390785  1
  Sm3+  Sm54  1  0.86584557  0.50476685  0.43620651  1
  Sm3+  Sm55  1  0.85906228  -0.00242914  0.45116531  1
  Sm3+  Sm56  1  0.50519145  0.37189907  0.06089352  1
  Sm3+  Sm57  1  0.73338030  0.87518952  0.56707527  1
  Sm3+  Sm58  1  0.23594681  0.37214594  0.55218542  1
  Sm3+  Sm59  1  0.12990953  -0.00074084  0.94215853  1
  Sm3+  Sm60  1  0.50529932  0.62651101  0.06273720  1
  Sm3+  Sm61  1  0.75237217  0.61895532  0.06504642  1
  Sm3+  Sm62  1  0.00767006  0.62186668  0.06683847  1
  Sm3+  Sm63  1  0.23604652  0.12661987  0.54128556  1
  Bi2+  Bi64  1  -0.05496554  0.09813109  0.30419280  1
  Bi2+  Bi65  1  0.01879100  0.09616639  0.79798921  1
  Bi2+  Bi66  1  -0.01478751  0.37804600  0.28327792  1
  Bi2+  Bi67  1  0.01078441  0.29830130  0.78326264  1
  Bi2+  Bi68  1  -0.00076248  0.62935023  0.29305002  1
  Bi2+  Bi69  1  0.00362548  0.63153435  0.78542504  1
  Bi2+  Bi70  1  0.00778148  0.83451301  0.29181070  1
  Bi2+  Bi71  1  -0.05033456  0.88837302  0.78666348  1
  Bi2+  Bi72  1  0.20845076  0.15686629  0.28440763  1
  Bi2+  Bi73  1  0.21809812  0.08617115  0.80462141  1
  Bi2+  Bi74  1  0.25026621  0.43099135  0.28837246  1
  Bi2+  Bi75  1  0.25218134  0.27600064  0.77716891  1
  Bi2+  Bi76  1  0.25696250  0.66247193  0.29227837  1
  Bi2+  Bi77  1  0.26822536  0.62075283  0.78510901  1
  Bi2+  Bi78  1  0.19203309  0.83417854  0.24898530  1
  Bi2+  Bi79  1  0.19721335  0.88590185  0.77961727  1
  Bi2+  Bi80  1  0.50597993  0.11523683  0.32102707  1
  Bi2+  Bi81  1  0.51480188  0.13485014  0.81683789  1
  Bi2+  Bi82  1  0.51800527  0.41616877  0.28514348  1
  Bi2+  Bi83  1  0.52151393  0.36566029  0.79545039  1
  Bi2+  Bi84  1  0.45506341  0.62476387  0.29485313  1
  Bi2+  Bi85  1  0.51643767  0.66059588  0.80045288  1
  Bi2+  Bi86  1  0.50895698  0.86375758  0.31250165  1
  Bi2+  Bi87  1  0.54803766  0.90786464  0.78874590  1
  Bi2+  Bi88  1  0.76055652  0.17884216  0.30458160  1
  Bi2+  Bi89  1  0.84961884  0.10987773  0.73809479  1
  Bi2+  Bi90  1  0.78476332  0.37808678  0.29829302  1
  Bi2+  Bi91  1  0.81496586  0.42350752  0.81873115  1
  Bi2+  Bi92  1  0.73039839  0.56903983  0.27451429  1
  Bi2+  Bi93  1  0.78001025  0.67028634  0.80303050  1
  Bi2+  Bi94  1  0.78989728  0.82046355  0.29501370  1
  Bi2+  Bi95  1  0.80376317  0.89650788  0.70662186  1
  Bi2+  Bi96  1  0.12199752  0.00994611  0.21943803  1
  Bi2+  Bi97  1  0.17882367  0.01581549  0.69100599  1
  Bi2+  Bi98  1  0.11310729  0.27710288  0.21710984  1
  Bi2+  Bi99  1  0.12049444  0.20360771  0.70152317  1
  Bi2+  Bi100  1  0.12381781  0.57993739  0.20872229  1
  Bi2+  Bi101  1  0.12033236  0.44478856  0.68743474  1
  Bi2+  Bi102  1  0.02369662  0.74487319  0.18304970  1
  Bi2+  Bi103  1  0.09814396  0.75227901  0.71596851  1
  Bi2+  Bi104  1  0.37411812  0.00087063  0.21753832  1
  Bi2+  Bi105  1  0.38063110  0.02672135  0.74198156  1
  Bi2+  Bi106  1  0.37467961  0.28458828  0.20606992  1
  Bi2+  Bi107  1  0.38960435  0.22733518  0.70073414  1
  Bi2+  Bi108  1  0.39185121  0.52461071  0.20274228  1
  Bi2+  Bi109  1  0.38507471  0.45928294  0.71526983  1
  Bi2+  Bi110  1  0.38301477  0.73866680  0.21269916  1
  Bi2+  Bi111  1  0.35929816  0.82065390  0.71691114  1
  Bi2+  Bi112  1  0.63244400  -0.02709356  0.21410790  1
  Bi2+  Bi113  1  0.63534646  0.03574858  0.71498476  1
  Bi2+  Bi114  1  0.66652650  0.28420598  0.22107487  1
  Bi2+  Bi115  1  0.61968078  0.29410074  0.70731716  1
  Bi2+  Bi116  1  0.58757422  0.53419338  0.18916476  1
  Bi2+  Bi117  1  0.65517689  0.51876453  0.78378225  1
  Bi2+  Bi118  1  0.64118311  0.72152542  0.20165569  1
  Bi2+  Bi119  1  0.62657193  0.74950142  0.70649735  1
  Bi2+  Bi120  1  0.86766369  -0.03046363  0.22960478  1
  Bi2+  Bi121  1  0.98270807  -0.01175987  0.68335802  1
  Bi2+  Bi122  1  0.86787424  0.16709949  0.20594304  1
  Bi2+  Bi123  1  0.86265744  0.29936563  0.70924992  1
  Bi2+  Bi124  1  0.87171845  0.47811683  0.20819529  1
  Bi2+  Bi125  1  0.86866548  0.51824398  0.72321915  1
  Bi2+  Bi126  1  0.83572362  0.68395416  0.19714526  1
  Bi2+  Bi127  1  0.81604929  0.69905177  0.68694083  1
  S2-  S128  1  0.14779485  0.13112828  0.15409269  1
  S2-  S129  1  -0.01295948  0.24442052  0.63777126  1
  S2-  S130  1  -0.01103820  0.27381294  0.15158663  1
  S2-  S131  1  -0.03544521  0.47624202  0.64284649  1
  S2-  S132  1  0.00796496  0.50792806  0.14400377  1
  S2-  S133  1  0.12180951  0.59945837  0.65496121  1
  S2-  S134  1  -0.00934299  0.97924700  0.15478429  1
  S2-  S135  1  -0.02455191  0.75480880  0.64793414  1
  S2-  S136  1  0.35369512  0.13616751  0.15622207  1
  S2-  S137  1  0.31678878  0.15129715  0.62851739  1
  S2-  S138  1  0.24849566  0.35749201  0.16108678  1
  S2-  S139  1  0.27134311  0.37961677  0.65002258  1
  S2-  S140  1  0.27249843  0.63154349  0.15446095  1
  S2-  S141  1  0.36610313  0.58324004  0.65833559  1
  S2-  S142  1  0.25067096  0.91222930  0.15833292  1
  S2-  S143  1  0.24024351  0.77255579  0.65505951  1
  S2-  S144  1  0.51834780  0.10345061  0.22625264  1
  S2-  S145  1  0.53906655  0.15000763  0.66315229  1
  S2-  S146  1  0.52067924  0.29677624  0.15080150  1
  S2-  S147  1  0.51332779  0.39527828  0.65706433  1
  S2-  S148  1  0.50409794  0.74143979  0.13766407  1
  S2-  S149  1  0.48399231  0.75555902  0.65797713  1
  S2-  S150  1  0.49426836  0.95476472  0.15222071  1
  S2-  S151  1  0.38309462  0.94130524  0.64528911  1
  S2-  S152  1  0.67752565  0.08058259  0.15064109  1
  S2-  S153  1  0.74942506  0.12490666  0.65791062  1
  S2-  S154  1  0.76055461  0.26881753  0.14269292  1
  S2-  S155  1  0.73924156  0.36837575  0.65066100  1
  S2-  S156  1  0.74010936  0.49664229  0.13605722  1
  S2-  S157  1  0.64335021  0.61110651  0.64596879  1
  S2-  S158  1  0.71829673  0.85930571  0.15241014  1
  S2-  S159  1  0.63348348  0.90360956  0.64661097  1
  S2-  S160  1  0.10089892  0.08459822  0.35062054  1
  S2-  S161  1  0.10924223  -0.10760757  0.86483871  1
  S2-  S162  1  0.19395237  0.29558941  0.34487332  1
  S2-  S163  1  0.13581493  0.32265579  0.85420296  1
  S2-  S164  1  0.21651017  0.53805790  0.36149658  1
  S2-  S165  1  0.14075599  0.50442257  0.77412334  1
  S2-  S166  1  0.11864142  0.85940810  0.36548290  1
  S2-  S167  1  0.14060741  0.66324228  0.84875876  1
  S2-  S168  1  0.36736557  0.00897127  0.32147051  1
  S2-  S169  1  0.41822753  -0.01566675  0.84508562  1
  S2-  S170  1  0.36838993  0.21607960  0.30504781  1
  S2-  S171  1  0.39546122  0.26116155  0.84111892  1
  S2-  S172  1  0.38139040  0.41307546  0.34828329  1
  S2-  S173  1  0.30401636  0.50132424  0.84621743  1
  S2-  S174  1  0.37872546  0.82156119  0.36724747  1
  S2-  S175  1  0.37916313  0.73717600  0.83469173  1
  S2-  S176  1  0.62259675  -0.01229998  0.34133968  1
  S2-  S177  1  0.64959550  0.02278303  0.83281177  1
  S2-  S178  1  0.57199087  0.27759429  0.33919197  1
  S2-  S179  1  0.63360578  0.24755864  0.83287889  1
  S2-  S180  1  0.59824914  0.53988614  0.34442520  1
  S2-  S181  1  0.50967248  0.51185399  0.86022670  1
  S2-  S182  1  0.63445851  0.77221489  0.34137967  1
  S2-  S183  1  0.64086856  0.77902481  0.83754334  1
  S2-  S184  1  0.86536467  -0.09527896  0.36820923  1
  S2-  S185  1  0.88565252  0.00986238  0.84464762  1
  S2-  S186  1  0.97071331  0.25333110  0.35575075  1
  S2-  S187  1  0.86587208  0.26447103  0.84195299  1
  S2-  S188  1  0.98409060  0.49768119  0.36181074  1
  S2-  S189  1  0.96961735  0.50507585  0.85249245  1
  S2-  S190  1  0.85944710  0.67886552  0.34514305  1
  S2-  S191  1  0.91134012  0.74842340  0.85104005  1
  S2-  S192  1  -0.01792772  0.11742390  0.46047022  1
  S2-  S193  1  0.01029039  0.12623318  0.94787153  1
  S2-  S194  1  -0.01874655  0.37085978  0.45981066  1
  S2-  S195  1  0.00779518  0.37447265  0.95827704  1
  S2-  S196  1  -0.01772676  0.62971309  0.46440647  1
  S2-  S197  1  0.00519006  0.62681630  0.96276851  1
  S2-  S198  1  -0.01455316  0.87707309  0.46842437  1
  S2-  S199  1  0.00145558  0.87494001  0.96561857  1
  S2-  S200  1  0.23939554  0.12071916  0.43972465  1
  S2-  S201  1  0.25220012  0.12343131  0.95503807  1
  S2-  S202  1  0.22964353  0.37387812  0.45074721  1
  S2-  S203  1  0.25554858  0.37806020  0.95498225  1
  S2-  S204  1  0.23332042  0.62948348  0.46836297  1
  S2-  S205  1  0.25562292  0.62486711  0.95102440  1
  S2-  S206  1  0.23715245  0.87452203  0.46668230  1
  S2-  S207  1  0.25742866  0.87505517  0.95337587  1
  S2-  S208  1  0.48074359  0.12464189  0.44355073  1
  S2-  S209  1  0.50494264  0.12568874  0.94549439  1
  S2-  S210  1  0.48427811  0.37716297  0.45076954  1
  S2-  S211  1  0.50558401  0.37337446  0.95562532  1
  S2-  S212  1  0.48292288  0.62290226  0.45368885  1
  S2-  S213  1  0.50562569  0.62917116  0.95902831  1
  S2-  S214  1  0.49068507  0.87303051  0.46600755  1
  S2-  S215  1  0.50508655  0.87280897  0.95278645  1
  S2-  S216  1  0.73563303  0.12231929  0.45167041  1
  S2-  S217  1  0.75665333  0.12636570  0.95155294  1
  S2-  S218  1  0.73912753  0.37619167  0.44398555  1
  S2-  S219  1  0.75515132  0.37738743  0.95339356  1
  S2-  S220  1  0.73836126  0.62347563  0.45312588  1
  S2-  S221  1  0.75548192  0.62120831  0.95514168  1
  S2-  S222  1  0.73041486  0.87692411  0.46339440  1
  S2-  S223  1  0.75769847  0.87603795  0.94931314  1
  S2-  S224  1  0.12776657  -0.00033170  0.04622689  1
  S2-  S225  1  0.11166039  0.00333066  0.54836340  1
  S2-  S226  1  0.13130321  0.25029009  0.04760080  1
  S2-  S227  1  0.11208205  0.24659440  0.53715279  1
  S2-  S228  1  0.13466003  0.50093834  0.05096531  1
  S2-  S229  1  0.11107848  0.49191290  0.54564905  1
  S2-  S230  1  0.13003774  0.74994602  0.04883584  1
  S2-  S231  1  0.11382759  0.75497228  0.55150657  1
  S2-  S232  1  0.38162618  -0.00006855  0.04726648  1
  S2-  S233  1  0.36022431  0.00395902  0.53227269  1
  S2-  S234  1  0.38157629  0.25028822  0.04742103  1
  S2-  S235  1  0.35826640  0.25332577  0.52712992  1
  S2-  S236  1  0.38455207  0.50055478  0.04740175  1
  S2-  S237  1  0.35874912  0.49846491  0.54188331  1
  S2-  S238  1  0.37837694  0.75136333  0.04227652  1
  S2-  S239  1  0.36950664  0.74965583  0.55566001  1
  S2-  S240  1  0.62734762  0.00031775  0.04046364  1
  S2-  S241  1  0.60635411  0.00756829  0.54660697  1
  S2-  S242  1  0.62499166  0.25017257  0.04223697  1
  S2-  S243  1  0.60635317  0.24837629  0.54397515  1
  S2-  S244  1  0.62314945  0.50076742  0.03819380  1
  S2-  S245  1  0.60938893  0.49723379  0.54393920  1
  S2-  S246  1  0.63556034  0.74490528  0.04228721  1
  S2-  S247  1  0.61530263  0.74703482  0.54749661  1
  S2-  S248  1  0.87850573  0.00384982  0.05071851  1
  S2-  S249  1  0.85899677  0.00090250  0.55522645  1
  S2-  S250  1  0.88477326  0.24906062  0.04438694  1
  S2-  S251  1  0.85834136  0.24690772  0.53995439  1
  S2-  S252  1  0.87946109  0.50287020  0.04401996  1
  S2-  S253  1  0.85902104  0.49814215  0.54108774  1
  S2-  S254  1  0.87637533  0.74579046  0.05549122  1
  S2-  S255  1  0.85562754  0.75478710  0.54663624  1
