# generated using pymatgen
data_La6Ce6Pr19Nd20Sm13(BiS2)64
_symmetry_space_group_name_H-M   'P 1'
_cell_length_a   16.08780908
_cell_length_b   16.07938641
_cell_length_c   27.37193017
_cell_angle_alpha   89.82324381
_cell_angle_beta   89.80663690
_cell_angle_gamma   89.91823287
_symmetry_Int_Tables_number   1
_chemical_formula_structural   La6Ce6Pr19Nd20Sm13(BiS2)64
_chemical_formula_sum   'La6 Ce6 Pr19 Nd20 Sm13 Bi64 S128'
_cell_volume   7080.54722044
_cell_formula_units_Z   1
loop_
 _symmetry_equiv_pos_site_id
 _symmetry_equiv_pos_as_xyz
  1  'x, y, z'
loop_
 _atom_type_symbol
 _atom_type_oxidation_number
  La3+  3.0
  Ce3+  3.0
  Pr3+  3.0
  Nd3+  3.0
  Sm3+  3.0
  Bi2+  2.0
  S2-  -2.0
loop_
 _atom_site_type_symbol
 _atom_site_label
 _atom_site_symmetry_multiplicity
 _atom_site_fract_x
 _atom_site_fract_y
 _atom_site_fract_z
 _atom_site_occupancy
  La3+  La0  1  0.12865043  0.24645856  0.89185008  1
  La3+  La1  1  0.86800714  0.24190358  0.42301154  1
  La3+  La2  1  0.23807277  0.10703587  0.09476473  1
  La3+  La3  1  0.40655086  0.51205409  0.38021815  1
  La3+  La4  1  -0.01891369  0.11713678  0.58380193  1
  La3+  La5  1  0.23367209  0.61324469  0.06266912  1
  Ce3+  Ce6  1  0.35985134  0.23800926  0.94359508  1
  Ce3+  Ce7  1  0.23963344  0.62137037  0.56062639  1
  Ce3+  Ce8  1  0.86391562  0.23517050  0.93268704  1
  Ce3+  Ce9  1  0.87675680  0.50140094  0.43111558  1
  Ce3+  Ce10  1  0.23944458  0.87868616  0.56506948  1
  Ce3+  Ce11  1  0.86640398  0.73937986  0.94752676  1
  Pr3+  Pr12  1  -0.01928254  0.11572031  0.07434964  1
  Pr3+  Pr13  1  0.10730662  0.48923035  0.93234705  1
  Pr3+  Pr14  1  0.35851794  0.73834669  0.92967537  1
  Pr3+  Pr15  1  0.48914356  0.12755271  0.56598927  1
  Pr3+  Pr16  1  0.10817891  -0.00292927  0.93859731  1
  Pr3+  Pr17  1  0.61049495  0.73948244  0.93140063  1
  Pr3+  Pr18  1  0.48605762  0.11767043  0.06730158  1
  Pr3+  Pr19  1  0.86747742  0.48873237  0.93479007  1
  Pr3+  Pr20  1  0.73642959  0.11548280  0.06525292  1
  Pr3+  Pr21  1  0.35943663  0.48829005  0.93565939  1
  Pr3+  Pr22  1  0.61134514  0.25479397  0.42921514  1
  Pr3+  Pr23  1  -0.01030467  0.60465464  0.07301815  1
  Pr3+  Pr24  1  0.85960590  -0.00313198  0.43016778  1
  Pr3+  Pr25  1  0.12165129  0.49808114  0.43906868  1
  Pr3+  Pr26  1  0.73471168  0.85851687  0.06291036  1
  Pr3+  Pr27  1  0.73431398  0.61118042  0.05999548  1
  Pr3+  Pr28  1  0.61508518  0.23759376  0.92888699  1
  Pr3+  Pr29  1  0.61124189  -0.01095789  0.94537806  1
  Pr3+  Pr30  1  -0.01827099  0.62778678  0.56716773  1
  Nd3+  Nd31  1  -0.01796108  0.37845797  0.57028520  1
  Nd3+  Nd32  1  0.35782424  0.25874827  0.43548189  1
  Nd3+  Nd33  1  0.48954669  0.61386978  0.56907735  1
  Nd3+  Nd34  1  0.22929644  0.37181593  0.57232270  1
  Nd3+  Nd35  1  0.62146315  0.50146685  0.44454155  1
  Nd3+  Nd36  1  0.48733006  0.87020602  0.56451026  1
  Nd3+  Nd37  1  0.73728699  0.12690213  0.55750700  1
  Nd3+  Nd38  1  0.74326779  0.62590635  0.55715696  1
  Nd3+  Nd39  1  0.36599978  0.00317894  0.44141784  1
  Nd3+  Nd40  1  0.47828665  0.61429888  0.06585489  1
  Nd3+  Nd41  1  0.48927767  0.37597407  0.56231027  1
  Nd3+  Nd42  1  0.11622167  0.00265132  0.44032421  1
  Nd3+  Nd43  1  -0.01165536  0.87744356  0.55398986  1
  Nd3+  Nd44  1  0.35918295  -0.00516624  0.93573429  1
  Nd3+  Nd45  1  0.73923554  0.87674616  0.55972695  1
  Nd3+  Nd46  1  -0.00899716  0.86761424  0.07025159  1
  Nd3+  Nd47  1  0.24556295  0.12680967  0.56749407  1
  Nd3+  Nd48  1  0.48339738  0.86402042  0.05758738  1
  Nd3+  Nd49  1  0.10569633  0.74496064  0.92594905  1
  Nd3+  Nd50  1  0.11197078  0.24852610  0.44338878  1
  Sm3+  Sm51  1  0.61218646  0.74792553  0.44919775  1
  Sm3+  Sm52  1  0.11799849  0.75026172  0.44807757  1
  Sm3+  Sm53  1  0.61125251  0.49096349  0.94121222  1
  Sm3+  Sm54  1  0.23383712  0.36010491  0.05860508  1
  Sm3+  Sm55  1  0.86559713  0.75315145  0.43088107  1
  Sm3+  Sm56  1  0.36554441  0.74519227  0.44470682  1
  Sm3+  Sm57  1  0.73731691  0.36341686  0.05125583  1
  Sm3+  Sm58  1  0.86392405  -0.01031250  0.94563681  1
  Sm3+  Sm59  1  0.48652540  0.36203779  0.05148598  1
  Sm3+  Sm60  1  0.74693733  0.37151114  0.55108482  1
  Sm3+  Sm61  1  0.23658469  0.86750585  0.05360253  1
  Sm3+  Sm62  1  -0.01075691  0.35510638  0.06138435  1
  Sm3+  Sm63  1  0.61057977  0.00152656  0.44421037  1
  Bi2+  Bi64  1  0.00814849  0.13974166  0.29123078  1
  Bi2+  Bi65  1  -0.01947416  0.13129171  0.78657145  1
  Bi2+  Bi66  1  0.02242732  0.39304624  0.28454680  1
  Bi2+  Bi67  1  0.01451182  0.38888785  0.78825790  1
  Bi2+  Bi68  1  0.02929327  0.68157466  0.30078980  1
  Bi2+  Bi69  1  -0.01812511  0.63354266  0.77950112  1
  Bi2+  Bi70  1  -0.02075169  0.88027131  0.27925106  1
  Bi2+  Bi71  1  -0.06468722  0.88294293  0.81039380  1
  Bi2+  Bi72  1  0.25066575  0.13046234  0.29220974  1
  Bi2+  Bi73  1  0.26614281  0.09379324  0.79789357  1
  Bi2+  Bi74  1  0.28566058  0.37245818  0.29453146  1
  Bi2+  Bi75  1  0.28657237  0.37282018  0.78019118  1
  Bi2+  Bi76  1  0.23568936  0.65199743  0.30343694  1
  Bi2+  Bi77  1  0.18129192  0.61785933  0.77358353  1
  Bi2+  Bi78  1  0.26067323  0.84925623  0.24280360  1
  Bi2+  Bi79  1  0.20443725  0.86333917  0.78649559  1
  Bi2+  Bi80  1  0.52470372  0.12682817  0.31628924  1
  Bi2+  Bi81  1  0.50962970  0.11870852  0.80615020  1
  Bi2+  Bi82  1  0.62139027  0.35280790  0.29722341  1
  Bi2+  Bi83  1  0.56737589  0.30703699  0.80079636  1
  Bi2+  Bi84  1  0.61388684  0.64361074  0.28080612  1
  Bi2+  Bi85  1  0.47748439  0.59357979  0.79458047  1
  Bi2+  Bi86  1  0.53063584  0.93135698  0.29557403  1
  Bi2+  Bi87  1  0.56279068  0.84314175  0.78502453  1
  Bi2+  Bi88  1  0.74683681  0.11430118  0.28527474  1
  Bi2+  Bi89  1  0.70767041  0.12918369  0.78152544  1
  Bi2+  Bi90  1  0.80393705  0.42897623  0.29059079  1
  Bi2+  Bi91  1  0.80435271  0.41309967  0.79223624  1
  Bi2+  Bi92  1  0.84020460  0.62065486  0.32015869  1
  Bi2+  Bi93  1  0.71492995  0.59109387  0.80204728  1
  Bi2+  Bi94  1  0.75298282  0.79200037  0.28828629  1
  Bi2+  Bi95  1  0.74588862  0.78909086  0.80681267  1
  Bi2+  Bi96  1  0.12712236  -0.00794361  0.21468570  1
  Bi2+  Bi97  1  0.07828515  -0.01922153  0.71407555  1
  Bi2+  Bi98  1  0.11312468  0.31238505  0.20192273  1
  Bi2+  Bi99  1  0.17566091  0.21874463  0.69140024  1
  Bi2+  Bi100  1  0.21640448  0.55752407  0.20723484  1
  Bi2+  Bi101  1  0.14027405  0.47898762  0.69397085  1
  Bi2+  Bi102  1  0.08563562  0.78373758  0.19588155  1
  Bi2+  Bi103  1  0.08125567  0.76372152  0.71107170  1
  Bi2+  Bi104  1  0.40813899  -0.02861369  0.20559285  1
  Bi2+  Bi105  1  0.34379642  -0.01600371  0.69726358  1
  Bi2+  Bi106  1  0.45644761  0.22385770  0.22837139  1
  Bi2+  Bi107  1  0.45194867  0.23157732  0.71810607  1
  Bi2+  Bi108  1  0.41741175  0.47396530  0.18083195  1
  Bi2+  Bi109  1  0.39635359  0.55101952  0.69595056  1
  Bi2+  Bi110  1  0.44185167  0.77311968  0.25466803  1
  Bi2+  Bi111  1  0.34081667  0.72793521  0.76419759  1
  Bi2+  Bi112  1  0.59638189  0.06655049  0.20715544  1
  Bi2+  Bi113  1  0.60740500  0.01046840  0.70676477  1
  Bi2+  Bi114  1  0.65251188  0.25843398  0.19651560  1
  Bi2+  Bi115  1  0.62136221  0.19385110  0.66411231  1
  Bi2+  Bi116  1  0.68305194  0.50923698  0.20663438  1
  Bi2+  Bi117  1  0.64762022  0.42268972  0.71886794  1
  Bi2+  Bi118  1  0.64343935  0.76892542  0.18947324  1
  Bi2+  Bi119  1  0.61819747  0.69282652  0.72089478  1
  Bi2+  Bi120  1  0.86563762  -0.00519907  0.21373372  1
  Bi2+  Bi121  1  0.82554097  -0.01018521  0.70467411  1
  Bi2+  Bi122  1  0.85439546  0.26185639  0.21197974  1
  Bi2+  Bi123  1  0.79132254  0.26572617  0.71095577  1
  Bi2+  Bi124  1  0.93947443  0.53437686  0.22024708  1
  Bi2+  Bi125  1  0.84756462  0.51767876  0.69695871  1
  Bi2+  Bi126  1  0.89387600  0.73539744  0.20684514  1
  Bi2+  Bi127  1  0.88367953  0.77193301  0.71689635  1
  S2-  S128  1  -0.01509727  0.25145911  0.14703363  1
  S2-  S129  1  0.01881824  0.14171010  0.68751929  1
  S2-  S130  1  -0.01190657  0.46606790  0.13886396  1
  S2-  S131  1  0.07851247  0.33904267  0.65162281  1
  S2-  S132  1  0.11998096  0.63313722  0.14229499  1
  S2-  S133  1  -0.00367505  0.52409556  0.64810622  1
  S2-  S134  1  -0.00109889  0.98647680  0.14656422  1
  S2-  S135  1  -0.03247111  0.95354779  0.64189107  1
  S2-  S136  1  0.18630415  0.16280445  0.19171627  1
  S2-  S137  1  0.19689723  0.04883458  0.65389621  1
  S2-  S138  1  0.24834842  0.39941158  0.15617657  1
  S2-  S139  1  0.28100408  0.35910267  0.67197901  1
  S2-  S140  1  0.34542849  0.61947740  0.14315784  1
  S2-  S141  1  0.23986861  0.60942217  0.65716927  1
  S2-  S142  1  0.24573581  0.94119754  0.14361607  1
  S2-  S143  1  0.27118173  0.85172875  0.65975906  1
  S2-  S144  1  0.38885274  0.11929900  0.15141249  1
  S2-  S145  1  0.37793836  0.13587007  0.64538077  1
  S2-  S146  1  0.49990577  0.32768227  0.14718606  1
  S2-  S147  1  0.51558132  0.46140111  0.65022100  1
  S2-  S148  1  0.55215828  0.57144138  0.15328541  1
  S2-  S149  1  0.47990912  0.68944239  0.65836118  1
  S2-  S150  1  0.48334734  0.82616665  0.15468805  1
  S2-  S151  1  0.48070860  0.92461862  0.65853717  1
  S2-  S152  1  0.83111439  0.12016574  0.14946240  1
  S2-  S153  1  0.82735539  0.12287365  0.64266295  1
  S2-  S154  1  0.76101414  0.37525716  0.14862823  1
  S2-  S155  1  0.83839896  0.37128075  0.63506126  1
  S2-  S156  1  0.76451285  0.64274360  0.15717972  1
  S2-  S157  1  0.83553115  0.65558271  0.63880494  1
  S2-  S158  1  0.74424027  0.89424983  0.16093137  1
  S2-  S159  1  0.71775413  0.89611371  0.65802222  1
  S2-  S160  1  0.12407256  0.04093115  0.34196184  1
  S2-  S161  1  0.11427816  0.08653593  0.84787830  1
  S2-  S162  1  0.22707012  0.24705765  0.35960896  1
  S2-  S163  1  0.11269260  0.24939690  0.77824693  1
  S2-  S164  1  0.23279690  0.48986527  0.35594403  1
  S2-  S165  1  0.15781411  0.40817762  0.84499040  1
  S2-  S166  1  0.14765509  0.77514809  0.35255592  1
  S2-  S167  1  0.09361300  0.88121812  0.85937706  1
  S2-  S168  1  0.36368768  0.06135949  0.34686931  1
  S2-  S169  1  0.33832363  -0.03460838  0.83677947  1
  S2-  S170  1  0.41764535  0.33505285  0.35123083  1
  S2-  S171  1  0.30486400  0.24260723  0.84961806  1
  S2-  S172  1  0.39423022  0.49976092  0.27182312  1
  S2-  S173  1  0.35876973  0.48105370  0.83463909  1
  S2-  S174  1  0.38271145  0.68466081  0.35352160  1
  S2-  S175  1  0.23920524  0.71692980  0.85354810  1
  S2-  S176  1  0.66312805  0.00218091  0.35116598  1
  S2-  S177  1  0.60044153  -0.01918299  0.84594410  1
  S2-  S178  1  0.72705229  0.24895155  0.35169810  1
  S2-  S179  1  0.74139650  0.22829116  0.85944183  1
  S2-  S180  1  0.57847460  0.50695952  0.34882635  1
  S2-  S181  1  0.58773548  0.48162309  0.84492875  1
  S2-  S182  1  0.61215276  0.76553388  0.35238481  1
  S2-  S183  1  0.48986996  0.73904401  0.85775131  1
  S2-  S184  1  0.88406616  0.10140834  0.34970625  1
  S2-  S185  1  0.87707094  0.02517586  0.84832576  1
  S2-  S186  1  1.00774486  0.26348396  0.35768527  1
  S2-  S187  1  0.96033960  0.25864211  0.85167699  1
  S2-  S188  1  1.00271622  0.50070056  0.36222179  1
  S2-  S189  1  0.97852028  0.50909618  0.85713020  1
  S2-  S190  1  0.86226444  0.86851249  0.35699375  1
  S2-  S191  1  0.95862731  0.72813292  0.86515332  1
  S2-  S192  1  -0.01002364  0.11747475  0.46005809  1
  S2-  S193  1  -0.01931256  0.11267145  0.96232195  1
  S2-  S194  1  -0.01100349  0.37545855  0.46347929  1
  S2-  S195  1  -0.01106989  0.36079480  0.95662185  1
  S2-  S196  1  -0.00983175  0.63521560  0.45791399  1
  S2-  S197  1  -0.01077845  0.61538841  0.96650943  1
  S2-  S198  1  -0.00492564  0.87488312  0.45024481  1
  S2-  S199  1  -0.01611477  0.86754768  0.96518415  1
  S2-  S200  1  0.24188518  0.12296141  0.46140322  1
  S2-  S201  1  0.23699965  0.11871628  0.95129854  1
  S2-  S202  1  0.23289996  0.36894187  0.46630350  1
  S2-  S203  1  0.23636365  0.36190245  0.95519509  1
  S2-  S204  1  0.24050598  0.62935747  0.45671019  1
  S2-  S205  1  0.23455404  0.61170420  0.95441273  1
  S2-  S206  1  0.24476471  0.87481276  0.45620991  1
  S2-  S207  1  0.23855660  0.86873695  0.95204314  1
  S2-  S208  1  0.48873104  0.12955488  0.45712721  1
  S2-  S209  1  0.48817405  0.11633372  0.95605120  1
  S2-  S210  1  0.49212656  0.38351378  0.45755503  1
  S2-  S211  1  0.48903494  0.36330350  0.94724097  1
  S2-  S212  1  0.49119870  0.62202903  0.46040433  1
  S2-  S213  1  0.48589113  0.61107350  0.95685124  1
  S2-  S214  1  0.48882559  0.87346923  0.45533754  1
  S2-  S215  1  0.48369228  0.86716056  0.95280926  1
  S2-  S216  1  0.73251704  0.12351011  0.45354661  1
  S2-  S217  1  0.73655250  0.10913986  0.95924109  1
  S2-  S218  1  0.74571023  0.37809431  0.44813929  1
  S2-  S219  1  0.73569186  0.36994059  0.94796573  1
  S2-  S220  1  0.74268253  0.63011627  0.45148013  1
  S2-  S221  1  0.73643953  0.61454469  0.95116211  1
  S2-  S222  1  0.73168031  0.87271692  0.45524202  1
  S2-  S223  1  0.73741624  0.86314149  0.95451693  1
  S2-  S224  1  0.11590741  -0.00681451  0.04574328  1
  S2-  S225  1  0.11441476  0.00022244  0.54537082  1
  S2-  S226  1  0.11978119  0.23370616  0.05910351  1
  S2-  S227  1  0.11031528  0.23990384  0.55109841  1
  S2-  S228  1  0.11469285  0.48252883  0.04023438  1
  S2-  S229  1  0.11229843  0.50174263  0.54623288  1
  S2-  S230  1  0.11270077  0.74892710  0.04104509  1
  S2-  S231  1  0.11295308  0.75145577  0.55332236  1
  S2-  S232  1  0.36347573  -0.00749795  0.04267228  1
  S2-  S233  1  0.36798723  -0.00204244  0.54609114  1
  S2-  S234  1  0.35956598  0.23940435  0.04873542  1
  S2-  S235  1  0.36528013  0.25640613  0.54497122  1
  S2-  S236  1  0.36313500  0.48277114  0.04200230  1
  S2-  S237  1  0.36124441  0.49541269  0.55741078  1
  S2-  S238  1  0.35958036  0.74365224  0.03932968  1
  S2-  S239  1  0.36534993  0.74748649  0.54895607  1
  S2-  S240  1  0.61015412  -0.01149716  0.05262740  1
  S2-  S241  1  0.61081464  -0.00111230  0.54854528  1
  S2-  S242  1  0.61237134  0.23938530  0.04036495  1
  S2-  S243  1  0.61589908  0.25544359  0.53768138  1
  S2-  S244  1  0.61034603  0.48539727  0.04445508  1
  S2-  S245  1  0.62408075  0.49812206  0.54910929  1
  S2-  S246  1  0.60747410  0.73612319  0.04126108  1
  S2-  S247  1  0.61476842  0.74721799  0.55388179  1
  S2-  S248  1  0.85774356  -0.01547863  0.04885974  1
  S2-  S249  1  0.85920495  -0.00190747  0.53754009  1
  S2-  S250  1  0.85723576  0.24128383  0.04052358  1
  S2-  S251  1  0.86487742  0.24480575  0.53743351  1
  S2-  S252  1  0.85857697  0.48741412  0.04087067  1
  S2-  S253  1  0.86265433  0.50343249  0.53655536  1
  S2-  S254  1  0.86624373  0.73863744  0.05324494  1
  S2-  S255  1  0.86374099  0.75696563  0.53596663  1
