# generated using pymatgen
data_La6Ce6Pr19Nd20Sm13(BiS2)64
_symmetry_space_group_name_H-M   'P 1'
_cell_length_a   16.15736138
_cell_length_b   16.16305866
_cell_length_c   27.13468663
_cell_angle_alpha   90.00387492
_cell_angle_beta   89.96563192
_cell_angle_gamma   89.98599452
_symmetry_Int_Tables_number   1
_chemical_formula_structural   La6Ce6Pr19Nd20Sm13(BiS2)64
_chemical_formula_sum   'La6 Ce6 Pr19 Nd20 Sm13 Bi64 S128'
_cell_volume   7086.28648839
_cell_formula_units_Z   1
loop_
 _symmetry_equiv_pos_site_id
 _symmetry_equiv_pos_as_xyz
  1  'x, y, z'
loop_
 _atom_type_symbol
 _atom_type_oxidation_number
  La3+  3.0
  Ce3+  3.0
  Pr3+  3.0
  Nd3+  3.0
  Sm3+  3.0
  Bi2+  2.0
  S2-  -2.0
loop_
 _atom_site_type_symbol
 _atom_site_label
 _atom_site_symmetry_multiplicity
 _atom_site_fract_x
 _atom_site_fract_y
 _atom_site_fract_z
 _atom_site_occupancy
  La3+  La0  1  -0.01064695  0.38123492  0.09767812  1
  La3+  La1  1  0.64029981  0.75404364  0.40153447  1
  La3+  La2  1  0.13585029  0.23881875  0.41143464  1
  La3+  La3  1  0.11460350  0.25756011  0.88673379  1
  La3+  La4  1  0.14032761  0.50895830  0.40547212  1
  La3+  La5  1  0.26407870  0.11996881  0.58487475  1
  Ce3+  Ce6  1  0.00619842  0.87809922  0.55857534  1
  Ce3+  Ce7  1  -0.00236618  0.62681755  0.06168580  1
  Ce3+  Ce8  1  0.24004938  0.62677402  0.06512117  1
  Ce3+  Ce9  1  0.24233621  0.37559045  0.06414874  1
  Ce3+  Ce10  1  0.75924355  0.37865080  0.55571368  1
  Ce3+  Ce11  1  0.13336757  0.75368944  0.43897155  1
  Pr3+  Pr12  1  0.38288363  0.50582060  0.43846010  1
  Pr3+  Pr13  1  0.36785296  0.00241375  0.93363255  1
  Pr3+  Pr14  1  0.74708539  0.63290543  0.07719779  1
  Pr3+  Pr15  1  0.63129335  0.00545542  0.42800451  1
  Pr3+  Pr16  1  0.38089803  0.00968457  0.43680342  1
  Pr3+  Pr17  1  -0.00132991  0.87921958  0.06689957  1
  Pr3+  Pr18  1  0.48943700  0.88156453  0.06988866  1
  Pr3+  Pr19  1  0.87362254  0.50152730  0.94488954  1
  Pr3+  Pr20  1  0.24394887  0.88188616  0.06715057  1
  Pr3+  Pr21  1  0.12357464  0.75230069  0.93194619  1
  Pr3+  Pr22  1  0.49640068  0.37692179  0.06161157  1
  Pr3+  Pr23  1  0.88799241  0.01190853  0.43777374  1
  Pr3+  Pr24  1  0.50716344  0.37705972  0.56278520  1
  Pr3+  Pr25  1  0.25373774  0.37697328  0.56245672  1
  Pr3+  Pr26  1  0.86993348  0.75065270  0.94360150  1
  Pr3+  Pr27  1  0.74498652  0.37637320  0.06368660  1
  Pr3+  Pr28  1  0.73984429  0.88045642  0.07803623  1
  Pr3+  Pr29  1  0.75760792  0.63035512  0.55914399  1
  Pr3+  Pr30  1  0.62095220  0.00196432  0.93885834  1
  Nd3+  Nd31  1  0.25792620  0.87828180  0.56438595  1
  Nd3+  Nd32  1  0.61883245  0.25614880  0.93104811  1
  Nd3+  Nd33  1  0.88368114  0.75688704  0.43447878  1
  Nd3+  Nd34  1  0.88305415  0.50376849  0.43656452  1
  Nd3+  Nd35  1  0.74633528  0.12873947  0.05170020  1
  Nd3+  Nd36  1  0.37140074  0.25759764  0.92962325  1
  Nd3+  Nd37  1  0.25604746  0.62814510  0.56053137  1
  Nd3+  Nd38  1  0.63016765  0.25513624  0.43152837  1
  Nd3+  Nd39  1  0.87706590  0.25581347  0.93715938  1
  Nd3+  Nd40  1  -0.00489378  0.13057574  0.05690298  1
  Nd3+  Nd41  1  0.50792376  0.63190037  0.55398816  1
  Nd3+  Nd42  1  0.63190991  0.50535789  0.44385822  1
  Nd3+  Nd43  1  0.88208611  0.25722123  0.43455067  1
  Nd3+  Nd44  1  0.51084637  0.12675990  0.56293272  1
  Nd3+  Nd45  1  0.37042772  0.75062170  0.94831240  1
  Nd3+  Nd46  1  0.12035592  -0.00090138  0.92969360  1
  Nd3+  Nd47  1  0.62037571  0.75129347  0.94566190  1
  Nd3+  Nd48  1  0.23916251  0.13377839  0.05106327  1
  Nd3+  Nd49  1  -0.00399517  0.13168083  0.57587502  1
  Nd3+  Nd50  1  0.87192552  0.00281371  0.94043923  1
  Sm3+  Sm51  1  0.13393758  0.00654772  0.45323490  1
  Sm3+  Sm52  1  0.62315534  0.50441090  0.95215155  1
  Sm3+  Sm53  1  0.75604615  0.87790151  0.55163981  1
  Sm3+  Sm54  1  0.37017754  0.50122870  0.95310807  1
  Sm3+  Sm55  1  0.38085397  0.75624866  0.44203016  1
  Sm3+  Sm56  1  0.12220790  0.49644062  0.94514821  1
  Sm3+  Sm57  1  0.75646766  0.12749576  0.55509012  1
  Sm3+  Sm58  1  0.00717822  0.62800520  0.55403059  1
  Sm3+  Sm59  1  0.37888125  0.25556222  0.44650302  1
  Sm3+  Sm60  1  0.00974848  0.37824867  0.54914680  1
  Sm3+  Sm61  1  0.49299280  0.12963153  0.05323251  1
  Sm3+  Sm62  1  0.49533834  0.62790385  0.06469599  1
  Sm3+  Sm63  1  0.51017994  0.87865332  0.55091203  1
  Bi2+  Bi64  1  -0.02400981  0.07438923  0.29134083  1
  Bi2+  Bi65  1  -0.01506714  0.13313996  0.78381644  1
  Bi2+  Bi66  1  -0.03081413  0.35807423  0.30090364  1
  Bi2+  Bi67  1  -0.01449469  0.43060000  0.78237014  1
  Bi2+  Bi68  1  -0.01873345  0.69036205  0.28328873  1
  Bi2+  Bi69  1  -0.00044153  0.63932908  0.79937499  1
  Bi2+  Bi70  1  0.02214196  0.87896581  0.29942636  1
  Bi2+  Bi71  1  0.01665552  0.83871786  0.76346200  1
  Bi2+  Bi72  1  0.25227868  0.09007963  0.30381828  1
  Bi2+  Bi73  1  0.24593277  0.12590093  0.78429951  1
  Bi2+  Bi74  1  0.25135178  0.36227770  0.29197553  1
  Bi2+  Bi75  1  0.25357332  0.40873802  0.79071186  1
  Bi2+  Bi76  1  0.26971203  0.64900418  0.28657814  1
  Bi2+  Bi77  1  0.19103086  0.66039019  0.81225440  1
  Bi2+  Bi78  1  0.21713483  0.84974793  0.28695132  1
  Bi2+  Bi79  1  0.25958291  0.85721927  0.80025838  1
  Bi2+  Bi80  1  0.50707686  0.11203555  0.33531303  1
  Bi2+  Bi81  1  0.53980717  0.12141272  0.77820534  1
  Bi2+  Bi82  1  0.50876945  0.30877340  0.31852760  1
  Bi2+  Bi83  1  0.51107273  0.38531558  0.79931651  1
  Bi2+  Bi84  1  0.48848548  0.58069305  0.30080240  1
  Bi2+  Bi85  1  0.50669757  0.68021832  0.79687581  1
  Bi2+  Bi86  1  0.47522233  0.93305229  0.28136316  1
  Bi2+  Bi87  1  0.53432583  0.86261050  0.75162504  1
  Bi2+  Bi88  1  0.69283147  0.11460678  0.29889876  1
  Bi2+  Bi89  1  0.73041821  0.12237149  0.80041211  1
  Bi2+  Bi90  1  0.74091973  0.35621406  0.24715790  1
  Bi2+  Bi91  1  0.71008802  0.32950225  0.78939237  1
  Bi2+  Bi92  1  0.74232261  0.59727384  0.30184329  1
  Bi2+  Bi93  1  0.75575939  0.61377105  0.81401574  1
  Bi2+  Bi94  1  0.74496082  0.91748344  0.27509791  1
  Bi2+  Bi95  1  0.73134738  0.83596618  0.75010676  1
  Bi2+  Bi96  1  0.15037643  -0.00037474  0.22036129  1
  Bi2+  Bi97  1  0.10696636  -0.02572392  0.70489380  1
  Bi2+  Bi98  1  0.12779976  0.23084662  0.20225794  1
  Bi2+  Bi99  1  0.12195553  0.28481067  0.68215133  1
  Bi2+  Bi100  1  0.13638143  0.50648612  0.20969542  1
  Bi2+  Bi101  1  0.11726221  0.54322670  0.72507256  1
  Bi2+  Bi102  1  0.09974966  0.74642698  0.19664407  1
  Bi2+  Bi103  1  0.17810900  0.75962181  0.70647563  1
  Bi2+  Bi104  1  0.37251790  0.03314935  0.20079495  1
  Bi2+  Bi105  1  0.39920339  -0.01842441  0.70918624  1
  Bi2+  Bi106  1  0.38132035  0.21373034  0.25189790  1
  Bi2+  Bi107  1  0.38653674  0.26959625  0.70088316  1
  Bi2+  Bi108  1  0.40504985  0.44644002  0.23980519  1
  Bi2+  Bi109  1  0.39578525  0.53094243  0.75476674  1
  Bi2+  Bi110  1  0.37432430  0.78782302  0.22865811  1
  Bi2+  Bi111  1  0.36564558  0.70678226  0.70306468  1
  Bi2+  Bi112  1  0.62551761  0.01663580  0.20518910  1
  Bi2+  Bi113  1  0.66460964  0.03769993  0.69204746  1
  Bi2+  Bi114  1  0.58905919  0.25158004  0.21338092  1
  Bi2+  Bi115  1  0.63018307  0.23070512  0.69594479  1
  Bi2+  Bi116  1  0.59686686  0.46915707  0.20705625  1
  Bi2+  Bi117  1  0.63123626  0.50894105  0.74787560  1
  Bi2+  Bi118  1  0.62077418  0.72835713  0.19890148  1
  Bi2+  Bi119  1  0.62152354  0.70247508  0.69444637  1
  Bi2+  Bi120  1  0.85357326  0.00672125  0.19585732  1
  Bi2+  Bi121  1  0.84430833  -0.00840317  0.74360888  1
  Bi2+  Bi122  1  0.86531772  0.22056287  0.20533706  1
  Bi2+  Bi123  1  0.83247931  0.25319757  0.71110410  1
  Bi2+  Bi124  1  0.87871994  0.56212749  0.22594281  1
  Bi2+  Bi125  1  0.86694812  0.47672423  0.69821373  1
  Bi2+  Bi126  1  0.91777060  0.82384192  0.19693540  1
  Bi2+  Bi127  1  0.89426557  0.72062321  0.70326915  1
  S2-  S128  1  0.00195164  0.13781245  0.15750207  1
  S2-  S129  1  0.04802074  0.12236389  0.67321339  1
  S2-  S130  1  0.01104381  0.34070285  0.19887370  1
  S2-  S131  1  -0.01814719  0.38363395  0.64766541  1
  S2-  S132  1  -0.00279984  0.54236661  0.14943029  1
  S2-  S133  1  0.00054007  0.62941317  0.65295455  1
  S2-  S134  1  0.11972348  0.89314066  0.14138656  1
  S2-  S135  1  -0.01541065  0.89031998  0.65541777  1
  S2-  S136  1  0.23727936  0.11404547  0.15103423  1
  S2-  S137  1  0.24446114  0.17422622  0.68224371  1
  S2-  S138  1  0.21059690  0.37331603  0.16211933  1
  S2-  S139  1  0.27228347  0.37554533  0.66397869  1
  S2-  S140  1  0.23178797  0.61773629  0.16435925  1
  S2-  S141  1  0.24669881  0.60296094  0.65838894  1
  S2-  S142  1  0.36339283  0.88261071  0.14487399  1
  S2-  S143  1  0.26211332  0.96652384  0.65040688  1
  S2-  S144  1  0.50659370  0.11848272  0.15089489  1
  S2-  S145  1  0.42678099  0.12119149  0.64921242  1
  S2-  S146  1  0.47785492  0.35763831  0.15985737  1
  S2-  S147  1  0.51030943  0.35332601  0.66248565  1
  S2-  S148  1  0.50057526  0.64030591  0.16314535  1
  S2-  S149  1  0.49362209  0.61495425  0.65237342  1
  S2-  S150  1  0.60321527  0.87755196  0.14725803  1
  S2-  S151  1  0.48439225  0.88159548  0.64897989  1
  S2-  S152  1  0.75046549  0.13147006  0.15064257  1
  S2-  S153  1  0.84712523  0.14138641  0.63800987  1
  S2-  S154  1  0.82867443  0.36230786  0.15102917  1
  S2-  S155  1  0.75118317  0.38588418  0.65324170  1
  S2-  S156  1  0.73048501  0.56315339  0.17319742  1
  S2-  S157  1  0.77323183  0.61964200  0.65948617  1
  S2-  S158  1  0.76728000  0.75813103  0.15069558  1
  S2-  S159  1  0.73531183  0.89605925  0.64895826  1
  S2-  S160  1  0.11480200  0.07484572  0.36437932  1
  S2-  S161  1  0.11707150  0.09051263  0.84387413  1
  S2-  S162  1  0.11042005  0.26646782  0.30710431  1
  S2-  S163  1  0.11661872  0.24710307  0.77458387  1
  S2-  S164  1  0.08055837  0.47343398  0.31006734  1
  S2-  S165  1  0.12550191  0.42877540  0.85275364  1
  S2-  S166  1  0.14256994  0.66835791  0.35329873  1
  S2-  S167  1  0.12032407  0.87135048  0.85710446  1
  S2-  S168  1  0.33441621  -0.04843040  0.34549340  1
  S2-  S169  1  0.34320771  0.00413116  0.83318652  1
  S2-  S170  1  0.29408339  0.23766352  0.36194831  1
  S2-  S171  1  0.28192748  0.26088674  0.84298210  1
  S2-  S172  1  0.29302819  0.49348206  0.35250439  1
  S2-  S173  1  0.37534599  0.47642575  0.85606314  1
  S2-  S174  1  0.39139405  0.71187765  0.34692431  1
  S2-  S175  1  0.36795732  0.74707767  0.84907360  1
  S2-  S176  1  0.61840334  -0.09960846  0.34653440  1
  S2-  S177  1  0.61638642  0.00268529  0.83842336  1
  S2-  S178  1  0.70683182  0.27102259  0.34118515  1
  S2-  S179  1  0.50188412  0.24919787  0.85638235  1
  S2-  S180  1  0.61869577  0.49751157  0.34506530  1
  S2-  S181  1  0.62652624  0.50459547  0.85460249  1
  S2-  S182  1  0.60047890  0.70063475  0.30279964  1
  S2-  S183  1  0.65196799  0.73795621  0.84869888  1
  S2-  S184  1  0.87562474  -0.04393151  0.34298214  1
  S2-  S185  1  0.90049328  0.00790543  0.84193322  1
  S2-  S186  1  0.91611077  0.19687735  0.34299515  1
  S2-  S187  1  0.94909184  0.25823554  0.84663493  1
  S2-  S188  1  0.86124801  0.47620042  0.33927012  1
  S2-  S189  1  0.86423501  0.48654781  0.84371261  1
  S2-  S190  1  0.79468445  0.73333651  0.35038743  1
  S2-  S191  1  0.87117946  0.73114197  0.84373375  1
  S2-  S192  1  0.00921296  0.13414586  0.46508621  1
  S2-  S193  1  -0.00450028  0.12765598  0.95128503  1
  S2-  S194  1  0.01529220  0.37781188  0.44254308  1
  S2-  S195  1  -0.00209437  0.37815861  0.95397504  1
  S2-  S196  1  0.00657573  0.62750753  0.44840546  1
  S2-  S197  1  0.00081572  0.62579154  0.95252017  1
  S2-  S198  1  0.00976797  0.88081155  0.45092273  1
  S2-  S199  1  -0.00710760  0.87666200  0.95730619  1
  S2-  S200  1  0.25661754  0.12825672  0.46756051  1
  S2-  S201  1  0.24591058  0.13127616  0.94611756  1
  S2-  S202  1  0.25189429  0.37724694  0.45575427  1
  S2-  S203  1  0.24826179  0.37796087  0.95814898  1
  S2-  S204  1  0.25955006  0.63049091  0.45555354  1
  S2-  S205  1  0.24574916  0.62346772  0.95679006  1
  S2-  S206  1  0.25564031  0.87884120  0.45748745  1
  S2-  S207  1  0.24821030  0.87609428  0.95927894  1
  S2-  S208  1  0.50643071  0.13359539  0.45690635  1
  S2-  S209  1  0.49523856  0.12587592  0.94952913  1
  S2-  S210  1  0.50552246  0.37854142  0.45483496  1
  S2-  S211  1  0.49883037  0.38237250  0.95636930  1
  S2-  S212  1  0.50995376  0.63493239  0.44791608  1
  S2-  S213  1  0.49608334  0.62466492  0.95805748  1
  S2-  S214  1  0.50419140  0.87729953  0.44715470  1
  S2-  S215  1  0.49451182  0.87702409  0.95505487  1
  S2-  S216  1  0.75669575  0.13115072  0.44982341  1
  S2-  S217  1  0.74630686  0.13133394  0.94560032  1
  S2-  S218  1  0.75588898  0.37984073  0.44985449  1
  S2-  S219  1  0.74450820  0.37656179  0.95460417  1
  S2-  S220  1  0.75685965  0.62815943  0.45271908  1
  S2-  S221  1  0.74517803  0.62710687  0.96420397  1
  S2-  S222  1  0.75849623  0.88124992  0.44825211  1
  S2-  S223  1  0.74550061  0.87740254  0.95724651  1
  S2-  S224  1  0.11952322  0.00663008  0.03836876  1
  S2-  S225  1  0.12747368  0.00469259  0.55554874  1
  S2-  S226  1  0.11338958  0.25794640  0.05856353  1
  S2-  S227  1  0.12796403  0.25162550  0.55995413  1
  S2-  S228  1  0.11894767  0.49907691  0.04948080  1
  S2-  S229  1  0.12919871  0.50512472  0.54909630  1
  S2-  S230  1  0.12050556  0.75147415  0.04203548  1
  S2-  S231  1  0.13195563  0.75303002  0.54824235  1
  S2-  S232  1  0.36829629  0.00974794  0.04156438  1
  S2-  S233  1  0.38676946  -0.00074821  0.54360725  1
  S2-  S234  1  0.37101986  0.25304982  0.04429517  1
  S2-  S235  1  0.38215696  0.25276458  0.55029116  1
  S2-  S236  1  0.37084935  0.50344502  0.05880202  1
  S2-  S237  1  0.38245700  0.50410087  0.54712789  1
  S2-  S238  1  0.36957112  0.74689486  0.05356724  1
  S2-  S239  1  0.38218896  0.75553941  0.54777629  1
  S2-  S240  1  0.61838261  0.00711901  0.04508255  1
  S2-  S241  1  0.63308744  0.00329512  0.53880770  1
  S2-  S242  1  0.62028233  0.25119049  0.04203647  1
  S2-  S243  1  0.63338649  0.25173543  0.54327019  1
  S2-  S244  1  0.62092438  0.50478820  0.05685216  1
  S2-  S245  1  0.63089468  0.50506421  0.55096944  1
  S2-  S246  1  0.61521000  0.75198068  0.05021262  1
  S2-  S247  1  0.63267518  0.75581649  0.54528098  1
  S2-  S248  1  0.86906644  0.00069224  0.04813107  1
  S2-  S249  1  0.87835828  0.00091048  0.54456859  1
  S2-  S250  1  0.87207149  0.25402657  0.04477548  1
  S2-  S251  1  0.88177614  0.25847551  0.54033690  1
  S2-  S252  1  0.86831968  0.50422390  0.05132009  1
  S2-  S253  1  0.88527956  0.50433491  0.54367002  1
  S2-  S254  1  0.87510453  0.75434403  0.04941822  1
  S2-  S255  1  0.88211108  0.75415724  0.54258830  1
