# generated using pymatgen
data_La6Ce6Pr19Nd20Sm13(BiS2)64
_symmetry_space_group_name_H-M   'P 1'
_cell_length_a   16.12764594
_cell_length_b   16.15561234
_cell_length_c   27.26847226
_cell_angle_alpha   90.15186399
_cell_angle_beta   90.11302521
_cell_angle_gamma   89.96986071
_symmetry_Int_Tables_number   1
_chemical_formula_structural   La6Ce6Pr19Nd20Sm13(BiS2)64
_chemical_formula_sum   'La6 Ce6 Pr19 Nd20 Sm13 Bi64 S128'
_cell_volume   7104.81512412
_cell_formula_units_Z   1
loop_
 _symmetry_equiv_pos_site_id
 _symmetry_equiv_pos_as_xyz
  1  'x, y, z'
loop_
 _atom_type_symbol
 _atom_type_oxidation_number
  La3+  3.0
  Ce3+  3.0
  Pr3+  3.0
  Nd3+  3.0
  Sm3+  3.0
  Bi2+  2.0
  S2-  -2.0
loop_
 _atom_site_type_symbol
 _atom_site_label
 _atom_site_symmetry_multiplicity
 _atom_site_fract_x
 _atom_site_fract_y
 _atom_site_fract_z
 _atom_site_occupancy
  La3+  La0  1  0.49351230  0.86023188  0.11429872  1
  La3+  La1  1  0.51025031  0.12337684  0.57826214  1
  La3+  La2  1  0.25563774  0.87436437  0.56253140  1
  La3+  La3  1  0.14456254  0.75588726  0.88142360  1
  La3+  La4  1  0.86506822  0.74161800  0.92910490  1
  La3+  La5  1  0.49104721  0.37321628  0.61545927  1
  Ce3+  Ce6  1  -0.00558513  0.37720687  0.55462515  1
  Ce3+  Ce7  1  0.60400988  0.23595545  0.91823071  1
  Ce3+  Ce8  1  0.00208605  0.12565824  0.55102405  1
  Ce3+  Ce9  1  0.75996339  0.62455801  0.55847612  1
  Ce3+  Ce10  1  0.86004903  0.25176944  0.93607218  1
  Ce3+  Ce11  1  0.48255967  0.37086727  0.05636898  1
  Pr3+  Pr12  1  0.22670450  0.12937347  0.07102114  1
  Pr3+  Pr13  1  0.50566161  0.62356672  0.55993769  1
  Pr3+  Pr14  1  0.73153883  0.62552305  0.06886020  1
  Pr3+  Pr15  1  -0.01941124  0.62411846  0.07072733  1
  Pr3+  Pr16  1  0.60748790  -0.00266541  0.94013847  1
  Pr3+  Pr17  1  0.11020303  -0.00637960  0.94130980  1
  Pr3+  Pr18  1  0.87864166  0.74775481  0.43192460  1
  Pr3+  Pr19  1  0.62706726  0.74956863  0.43403270  1
  Pr3+  Pr20  1  0.87413399  0.24898063  0.43330086  1
  Pr3+  Pr21  1  0.12939332  0.74967494  0.43603067  1
  Pr3+  Pr22  1  0.50672059  0.87451140  0.56708995  1
  Pr3+  Pr23  1  0.25767845  0.12610037  0.56298381  1
  Pr3+  Pr24  1  -0.01549626  0.37433013  0.06038337  1
  Pr3+  Pr25  1  0.37909840  0.49982932  0.43745756  1
  Pr3+  Pr26  1  0.23676911  0.62871592  0.06323857  1
  Pr3+  Pr27  1  0.35926630  0.50266213  0.93859967  1
  Pr3+  Pr28  1  0.72998460  0.12094642  0.05927363  1
  Pr3+  Pr29  1  0.23225316  0.87238534  0.07258475  1
  Pr3+  Pr30  1  0.86838972  0.48924034  0.41031656  1
  Nd3+  Nd31  1  0.75250958  0.37641693  0.56841959  1
  Nd3+  Nd32  1  0.38188545  0.25080862  0.44059542  1
  Nd3+  Nd33  1  0.38067556  0.00665324  0.43188801  1
  Nd3+  Nd34  1  0.35666308  0.24364263  0.93292039  1
  Nd3+  Nd35  1  0.87699068  0.00014529  0.43524260  1
  Nd3+  Nd36  1  0.86115690  -0.00356227  0.94146596  1
  Nd3+  Nd37  1  0.35778795  -0.00505689  0.95156801  1
  Nd3+  Nd38  1  0.00278796  0.87704489  0.55699564  1
  Nd3+  Nd39  1  0.62591527  0.25011757  0.44760604  1
  Nd3+  Nd40  1  0.24574715  0.62312509  0.56928054  1
  Nd3+  Nd41  1  0.12803931  0.50192128  0.43673670  1
  Nd3+  Nd42  1  0.13123008  0.00026869  0.44217082  1
  Nd3+  Nd43  1  0.12794546  0.25069676  0.44267448  1
  Nd3+  Nd44  1  0.10855660  0.24768261  0.92726429  1
  Nd3+  Nd45  1  -0.00215847  0.62381396  0.55987007  1
  Nd3+  Nd46  1  0.62898128  0.49842460  0.44334050  1
  Nd3+  Nd47  1  0.47706204  0.12017046  0.07182708  1
  Nd3+  Nd48  1  0.73052605  0.36219211  0.06657298  1
  Nd3+  Nd49  1  0.85537397  0.49820062  0.94392389  1
  Nd3+  Nd50  1  0.25552178  0.37558664  0.55418341  1
  Sm3+  Sm51  1  -0.01213198  0.87246274  0.06297548  1
  Sm3+  Sm52  1  -0.01404054  0.12580400  0.05608685  1
  Sm3+  Sm53  1  0.61068865  0.49523955  0.94610720  1
  Sm3+  Sm54  1  0.23456674  0.37634839  0.05030918  1
  Sm3+  Sm55  1  0.36290831  0.75156662  0.94769328  1
  Sm3+  Sm56  1  0.48675351  0.62608160  0.05420886  1
  Sm3+  Sm57  1  0.73380784  0.87394542  0.05929619  1
  Sm3+  Sm58  1  0.10613773  0.51070946  0.94730936  1
  Sm3+  Sm59  1  0.75546091  0.87294128  0.54893965  1
  Sm3+  Sm60  1  0.75332532  0.12408429  0.55812561  1
  Sm3+  Sm61  1  0.62489183  0.00022455  0.44231899  1
  Sm3+  Sm62  1  0.37790189  0.75030141  0.44433447  1
  Sm3+  Sm63  1  0.61423622  0.74789488  0.93643102  1
  Bi2+  Bi64  1  -0.01242748  0.08864667  0.29537640  1
  Bi2+  Bi65  1  -0.02224104  0.13487686  0.79233337  1
  Bi2+  Bi66  1  -0.00531239  0.28304136  0.27327594  1
  Bi2+  Bi67  1  -0.00025433  0.42015146  0.78839641  1
  Bi2+  Bi68  1  0.00533183  0.64736685  0.29953076  1
  Bi2+  Bi69  1  -0.00693674  0.64099632  0.78723859  1
  Bi2+  Bi70  1  -0.00474721  0.88906098  0.25513659  1
  Bi2+  Bi71  1  -0.01782459  0.91129268  0.78915903  1
  Bi2+  Bi72  1  0.24472580  0.13374881  0.30854656  1
  Bi2+  Bi73  1  0.16570274  0.08821281  0.81088893  1
  Bi2+  Bi74  1  0.26706118  0.35186344  0.29797215  1
  Bi2+  Bi75  1  0.19762936  0.36238668  0.79231348  1
  Bi2+  Bi76  1  0.21893239  0.59501646  0.28258442  1
  Bi2+  Bi77  1  0.24664175  0.55140156  0.79279527  1
  Bi2+  Bi78  1  0.25956894  0.86203035  0.29691988  1
  Bi2+  Bi79  1  0.31958875  0.88742200  0.79265796  1
  Bi2+  Bi80  1  0.54060341  0.13152808  0.30078802  1
  Bi2+  Bi81  1  0.48642269  0.10277581  0.79697808  1
  Bi2+  Bi82  1  0.45883957  0.37489044  0.33626005  1
  Bi2+  Bi83  1  0.53138451  0.40028306  0.81463323  1
  Bi2+  Bi84  1  0.47622147  0.54273311  0.28160719  1
  Bi2+  Bi85  1  0.53577832  0.65348050  0.77692321  1
  Bi2+  Bi86  1  0.50908171  0.85409015  0.32055608  1
  Bi2+  Bi87  1  0.54554636  0.83489939  0.81984855  1
  Bi2+  Bi88  1  0.79129476  0.10492345  0.28911510  1
  Bi2+  Bi89  1  0.77011605  0.10575380  0.74001982  1
  Bi2+  Bi90  1  0.73520978  0.34977270  0.28576065  1
  Bi2+  Bi91  1  0.81045553  0.37152823  0.78980350  1
  Bi2+  Bi92  1  0.75024118  0.61650476  0.29809774  1
  Bi2+  Bi93  1  0.74814399  0.62012780  0.79244252  1
  Bi2+  Bi94  1  0.76506299  0.90951176  0.26018867  1
  Bi2+  Bi95  1  0.73408926  0.87377620  0.78731755  1
  Bi2+  Bi96  1  0.14365925  0.01956064  0.23262708  1
  Bi2+  Bi97  1  0.08915274  0.04007410  0.71244641  1
  Bi2+  Bi98  1  0.18997511  0.20886618  0.20624732  1
  Bi2+  Bi99  1  0.08101434  0.28659866  0.71191983  1
  Bi2+  Bi100  1  0.12293436  0.41449132  0.22572040  1
  Bi2+  Bi101  1  0.11506857  0.48226820  0.70261971  1
  Bi2+  Bi102  1  0.11262381  0.75831584  0.20256734  1
  Bi2+  Bi103  1  0.15361729  0.76747369  0.68216887  1
  Bi2+  Bi104  1  0.38291715  0.02789075  0.20790085  1
  Bi2+  Bi105  1  0.35083614  0.01490840  0.71217999  1
  Bi2+  Bi106  1  0.42309823  0.26086236  0.24522041  1
  Bi2+  Bi107  1  0.35195191  0.25907016  0.72035477  1
  Bi2+  Bi108  1  0.34900668  0.46009172  0.20816089  1
  Bi2+  Bi109  1  0.35212344  0.51917414  0.70505799  1
  Bi2+  Bi110  1  0.36679023  0.73441275  0.21347564  1
  Bi2+  Bi111  1  0.41234177  0.77344407  0.71943457  1
  Bi2+  Bi112  1  0.70281859  0.05767469  0.19012170  1
  Bi2+  Bi113  1  0.57847272  -0.07435491  0.72175135  1
  Bi2+  Bi114  1  0.61218774  0.25300777  0.21257255  1
  Bi2+  Bi115  1  0.63815765  0.24544853  0.71741837  1
  Bi2+  Bi116  1  0.61644544  0.45612130  0.22005754  1
  Bi2+  Bi117  1  0.65138875  0.54759365  0.69761348  1
  Bi2+  Bi118  1  0.62310100  0.72673307  0.21243131  1
  Bi2+  Bi119  1  0.58633167  0.73858957  0.66738049  1
  Bi2+  Bi120  1  0.87700847  -0.04576896  0.16658090  1
  Bi2+  Bi121  1  0.89467894  -0.03358996  0.69280887  1
  Bi2+  Bi122  1  0.90910651  0.15563553  0.19656634  1
  Bi2+  Bi123  1  0.88449044  0.24849406  0.70604920  1
  Bi2+  Bi124  1  0.88143337  0.50218202  0.20231915  1
  Bi2+  Bi125  1  0.84587606  0.50097452  0.70512702  1
  Bi2+  Bi126  1  0.87111454  0.76067111  0.20191843  1
  Bi2+  Bi127  1  0.77805017  0.74060269  0.69814784  1
  S2-  S128  1  0.08098358  0.15504020  0.13676622  1
  S2-  S129  1  -0.02390592  0.11041293  0.64609888  1
  S2-  S130  1  -0.01894350  0.39455534  0.16051256  1
  S2-  S131  1  -0.10944757  0.38184495  0.63428289  1
  S2-  S132  1  -0.00519420  0.63303592  0.17289805  1
  S2-  S133  1  0.10340989  0.61738177  0.64114772  1
  S2-  S134  1  0.09991510  0.88628016  0.14432101  1
  S2-  S135  1  0.00199390  0.84253327  0.65405373  1
  S2-  S136  1  0.34875692  0.14678525  0.14708145  1
  S2-  S137  1  0.27168277  0.14426903  0.66333475  1
  S2-  S138  1  0.22900643  0.37386276  0.14885206  1
  S2-  S139  1  0.31084815  0.37934416  0.64827221  1
  S2-  S140  1  0.24403415  0.65349068  0.16432200  1
  S2-  S141  1  0.30268649  0.67715920  0.65926978  1
  S2-  S142  1  0.33159889  0.87752783  0.15951663  1
  S2-  S143  1  0.24622577  0.91548054  0.66052729  1
  S2-  S144  1  0.51818645  0.02826369  0.15645405  1
  S2-  S145  1  0.48796665  0.21835311  0.66454809  1
  S2-  S146  1  0.48769754  0.39985714  0.15299682  1
  S2-  S147  1  0.46251671  0.39075292  0.72771362  1
  S2-  S148  1  0.49222027  0.67975829  0.14790332  1
  S2-  S149  1  0.49182537  0.54013346  0.64763222  1
  S2-  S150  1  0.50186601  0.84992075  0.22450448  1
  S2-  S151  1  0.48674904  0.98864705  0.64437160  1
  S2-  S152  1  0.73335600  0.22175193  0.14198451  1
  S2-  S153  1  0.68749735  0.12262330  0.64883546  1
  S2-  S154  1  0.75960416  0.43322228  0.15717589  1
  S2-  S155  1  0.65620202  0.37085545  0.65653592  1
  S2-  S156  1  0.75739363  0.64485923  0.16929108  1
  S2-  S157  1  0.87329098  0.62933021  0.63409023  1
  S2-  S158  1  0.66097216  0.83695175  0.14603605  1
  S2-  S159  1  0.76085335  0.89154616  0.64626955  1
  S2-  S160  1  0.16258324  -0.01491000  0.34552120  1
  S2-  S161  1  0.12894733  -0.07292856  0.84829939  1
  S2-  S162  1  0.12806804  0.25599192  0.34364276  1
  S2-  S163  1  0.23503827  0.22855143  0.85867100  1
  S2-  S164  1  0.10425580  0.51410531  0.33824953  1
  S2-  S165  1  0.10740055  0.58374653  0.85821759  1
  S2-  S166  1  0.14505358  0.74384184  0.33563448  1
  S2-  S167  1  0.13243357  0.73676945  0.77266695  1
  S2-  S168  1  0.37822719  -0.04591759  0.33314311  1
  S2-  S169  1  0.36993655  0.02050571  0.85178353  1
  S2-  S170  1  0.39344303  0.14341644  0.36260791  1
  S2-  S171  1  0.46265354  0.24857824  0.85145351  1
  S2-  S172  1  0.33048860  0.55463951  0.34549086  1
  S2-  S173  1  0.38603109  0.48897868  0.83989878  1
  S2-  S174  1  0.37542345  0.75978786  0.34612799  1
  S2-  S175  1  0.31450926  0.75133798  0.85326547  1
  S2-  S176  1  0.60730151  -0.00370595  0.34456641  1
  S2-  S177  1  0.61242205  0.09138819  0.85486616  1
  S2-  S178  1  0.64835130  0.24361455  0.34780382  1
  S2-  S179  1  0.67903495  0.30294371  0.83574365  1
  S2-  S180  1  0.70890858  0.48933797  0.35481133  1
  S2-  S181  1  0.62029867  0.53484960  0.85052629  1
  S2-  S182  1  0.62888000  0.72022756  0.33380668  1
  S2-  S183  1  0.72989492  0.75389337  0.86082414  1
  S2-  S184  1  0.86915181  -0.03907681  0.33908156  1
  S2-  S185  1  0.85183900  -0.02638121  0.84250538  1
  S2-  S186  1  0.87817383  0.33628275  0.34754656  1
  S2-  S187  1  0.97022514  0.25791737  0.85998571  1
  S2-  S188  1  0.90000842  0.52783837  0.30892352  1
  S2-  S189  1  0.87433025  0.58466159  0.85800838  1
  S2-  S190  1  0.86948422  0.72915572  0.33238249  1
  S2-  S191  1  0.97254840  0.77051133  0.84934600  1
  S2-  S192  1  0.00341077  0.12462424  0.44434194  1
  S2-  S193  1  -0.01384757  0.12096207  0.95315924  1
  S2-  S194  1  0.00343924  0.37594050  0.44815175  1
  S2-  S195  1  -0.01242852  0.38274970  0.95426825  1
  S2-  S196  1  0.00230880  0.62327635  0.44773002  1
  S2-  S197  1  -0.02186560  0.61827093  0.96626242  1
  S2-  S198  1  0.00385142  0.87683538  0.44726472  1
  S2-  S199  1  -0.01805171  0.87487407  0.96001128  1
  S2-  S200  1  0.25149576  0.12700980  0.45655065  1
  S2-  S201  1  0.23319641  0.11963941  0.96201264  1
  S2-  S202  1  0.25295303  0.37424782  0.44819075  1
  S2-  S203  1  0.22966553  0.38232535  0.94704522  1
  S2-  S204  1  0.25316522  0.62782335  0.45869831  1
  S2-  S205  1  0.23627883  0.62912100  0.95685364  1
  S2-  S206  1  0.25618857  0.87514467  0.45376110  1
  S2-  S207  1  0.23407317  0.86763291  0.95981027  1
  S2-  S208  1  0.50765990  0.12338977  0.46421911  1
  S2-  S209  1  0.48022257  0.12042472  0.96299830  1
  S2-  S210  1  0.50480552  0.37585507  0.45433189  1
  S2-  S211  1  0.48479909  0.37494006  0.95195633  1
  S2-  S212  1  0.50303013  0.62549133  0.45034124  1
  S2-  S213  1  0.48859344  0.62574474  0.94930473  1
  S2-  S214  1  0.50159137  0.87534694  0.45660094  1
  S2-  S215  1  0.48605258  0.87033201  0.94821563  1
  S2-  S216  1  0.75059897  0.12179028  0.45150568  1
  S2-  S217  1  0.73915071  0.12459269  0.95306694  1
  S2-  S218  1  0.75163007  0.37188134  0.45834654  1
  S2-  S219  1  0.73201917  0.37107144  0.95761999  1
  S2-  S220  1  0.75358643  0.62534947  0.44991040  1
  S2-  S221  1  0.73044856  0.62021997  0.96178604  1
  S2-  S222  1  0.75136443  0.87642149  0.44391746  1
  S2-  S223  1  0.73529379  0.87528404  0.95641108  1
  S2-  S224  1  0.10660546  0.00052936  0.04614759  1
  S2-  S225  1  0.12851922  0.00187680  0.54858430  1
  S2-  S226  1  0.11050158  0.25626463  0.03435485  1
  S2-  S227  1  0.12706162  0.25204563  0.54977850  1
  S2-  S228  1  0.11142147  0.50141667  0.05284099  1
  S2-  S229  1  0.12662505  0.49612167  0.54260313  1
  S2-  S230  1  0.10616563  0.74506043  0.05508907  1
  S2-  S231  1  0.12634431  0.75126029  0.54276091  1
  S2-  S232  1  0.35391772  -0.00248665  0.05417258  1
  S2-  S233  1  0.37812794  -0.00004774  0.54140934  1
  S2-  S234  1  0.35419663  0.25311704  0.04078622  1
  S2-  S235  1  0.38174292  0.25173158  0.54717310  1
  S2-  S236  1  0.36030246  0.50202141  0.04692679  1
  S2-  S237  1  0.37404392  0.50308965  0.54391270  1
  S2-  S238  1  0.36606812  0.75169246  0.05105681  1
  S2-  S239  1  0.38137877  0.75011149  0.54918708  1
  S2-  S240  1  0.60924562  -0.00626828  0.04602872  1
  S2-  S241  1  0.63392664  -0.00374065  0.54570931  1
  S2-  S242  1  0.60125914  0.24467292  0.04526687  1
  S2-  S243  1  0.63130158  0.25025120  0.55103890  1
  S2-  S244  1  0.60863218  0.49814246  0.05169788  1
  S2-  S245  1  0.63333495  0.50219443  0.54776340  1
  S2-  S246  1  0.60871379  0.74774262  0.04043014  1
  S2-  S247  1  0.63246376  0.75034916  0.54067938  1
  S2-  S248  1  0.86204702  0.00085675  0.04701188  1
  S2-  S249  1  0.87607156  0.00015418  0.54121268  1
  S2-  S250  1  0.86343374  0.24706760  0.04292634  1
  S2-  S251  1  0.87460744  0.24499377  0.54023364  1
  S2-  S252  1  0.85443060  0.49670626  0.04994264  1
  S2-  S253  1  0.87771456  0.50048618  0.52999520  1
  S2-  S254  1  0.85869050  0.75215943  0.05172079  1
  S2-  S255  1  0.88057550  0.75557468  0.53770806  1
