# generated using pymatgen
data_La6Ce6Pr19Nd20Sm13(BiS2)64
_symmetry_space_group_name_H-M   'P 1'
_cell_length_a   16.13407098
_cell_length_b   16.12986377
_cell_length_c   27.38144835
_cell_angle_alpha   90.12614422
_cell_angle_beta   90.06122287
_cell_angle_gamma   89.93254480
_symmetry_Int_Tables_number   1
_chemical_formula_structural   La6Ce6Pr19Nd20Sm13(BiS2)64
_chemical_formula_sum   'La6 Ce6 Pr19 Nd20 Sm13 Bi64 S128'
_cell_volume   7125.73190944
_cell_formula_units_Z   1
loop_
 _symmetry_equiv_pos_site_id
 _symmetry_equiv_pos_as_xyz
  1  'x, y, z'
loop_
 _atom_type_symbol
 _atom_type_oxidation_number
  La3+  3.0
  Ce3+  3.0
  Pr3+  3.0
  Nd3+  3.0
  Sm3+  3.0
  Bi2+  2.0
  S2-  -2.0
loop_
 _atom_site_type_symbol
 _atom_site_label
 _atom_site_symmetry_multiplicity
 _atom_site_fract_x
 _atom_site_fract_y
 _atom_site_fract_z
 _atom_site_occupancy
  La3+  La0  1  0.26155158  0.11978092  0.09461024  1
  La3+  La1  1  0.50540713  0.11830903  0.57493940  1
  La3+  La2  1  0.12631320  0.74807952  0.91344765  1
  La3+  La3  1  0.25356590  0.38394801  0.07469716  1
  La3+  La4  1  0.24513358  0.14183384  0.60944319  1
  La3+  La5  1  0.37846412  0.25421915  0.90210977  1
  Ce3+  Ce6  1  0.49901555  0.13161967  0.05769656  1
  Ce3+  Ce7  1  0.75346403  0.63000017  0.05988440  1
  Ce3+  Ce8  1  0.87896557  -0.00560343  0.43794269  1
  Ce3+  Ce9  1  0.62480723  0.00776331  0.93534991  1
  Ce3+  Ce10  1  0.00420748  0.63178635  0.05563957  1
  Ce3+  Ce11  1  0.25080260  0.87809214  0.57129729  1
  Pr3+  Pr12  1  0.13340274  0.74694806  0.44180134  1
  Pr3+  Pr13  1  0.88090448  0.00340216  0.92838390  1
  Pr3+  Pr14  1  0.26132554  0.36754204  0.54647786  1
  Pr3+  Pr15  1  0.62472082  0.74956096  0.93262404  1
  Pr3+  Pr16  1  0.75685088  0.12577735  0.57223348  1
  Pr3+  Pr17  1  0.38806481  0.50852750  0.40261354  1
  Pr3+  Pr18  1  0.62962896  0.49567480  0.43763684  1
  Pr3+  Pr19  1  0.51364174  0.63872246  0.07928290  1
  Pr3+  Pr20  1  0.50573199  0.62246798  0.56677348  1
  Pr3+  Pr21  1  0.12991103  0.25222385  0.94255956  1
  Pr3+  Pr22  1  0.88136322  0.25664481  0.92980335  1
  Pr3+  Pr23  1  0.88051229  0.24174080  0.43545746  1
  Pr3+  Pr24  1  0.38314797  0.50322828  0.93980842  1
  Pr3+  Pr25  1  0.38853513  0.23586083  0.42528357  1
  Pr3+  Pr26  1  0.75645318  0.61970474  0.56231854  1
  Pr3+  Pr27  1  0.00455904  0.87749584  0.05693460  1
  Pr3+  Pr28  1  0.13906174  0.24659097  0.42547625  1
  Pr3+  Pr29  1  0.13289126  0.00708974  0.94255192  1
  Pr3+  Pr30  1  0.00798226  0.87348110  0.56603272  1
  Nd3+  Nd31  1  0.50786216  0.88128593  0.05900231  1
  Nd3+  Nd32  1  0.00265527  0.12886067  0.06223552  1
  Nd3+  Nd33  1  0.00237640  0.37934200  0.06520394  1
  Nd3+  Nd34  1  0.50284518  0.36753987  0.55604400  1
  Nd3+  Nd35  1  0.00833206  0.61822657  0.55826319  1
  Nd3+  Nd36  1  0.25426445  0.63106047  0.06432860  1
  Nd3+  Nd37  1  0.87752117  0.50104033  0.93799985  1
  Nd3+  Nd38  1  0.00689467  0.12116376  0.55170754  1
  Nd3+  Nd39  1  0.75497009  0.12912483  0.05208212  1
  Nd3+  Nd40  1  0.25203638  0.87718154  0.05731895  1
  Nd3+  Nd41  1  0.75392500  0.37679371  0.06091228  1
  Nd3+  Nd42  1  0.63247590  -0.00674999  0.44811030  1
  Nd3+  Nd43  1  0.87785780  0.74307014  0.92975892  1
  Nd3+  Nd44  1  0.37951248  0.75195515  0.94723746  1
  Nd3+  Nd45  1  0.49870190  0.37855111  0.06467931  1
  Nd3+  Nd46  1  0.88258587  0.49296208  0.44057096  1
  Nd3+  Nd47  1  0.76333755  0.87152559  0.57253845  1
  Nd3+  Nd48  1  0.13286259  0.50026442  0.94127501  1
  Nd3+  Nd49  1  0.01107807  0.36588720  0.55443222  1
  Nd3+  Nd50  1  0.25879752  0.62115787  0.55747670  1
  Sm3+  Sm51  1  0.50513735  0.87298576  0.55744275  1
  Sm3+  Sm52  1  0.75498396  0.88145810  0.04350110  1
  Sm3+  Sm53  1  0.88248069  0.74479795  0.44624994  1
  Sm3+  Sm54  1  0.37740356  0.00610930  0.94315421  1
  Sm3+  Sm55  1  0.63211407  0.74481291  0.44799537  1
  Sm3+  Sm56  1  0.38185384  0.74571004  0.44320536  1
  Sm3+  Sm57  1  0.13377690  0.49465594  0.43986531  1
  Sm3+  Sm58  1  0.62269041  0.50058987  0.94532900  1
  Sm3+  Sm59  1  0.38036106  -0.00275613  0.44502677  1
  Sm3+  Sm60  1  0.62837715  0.24147280  0.43848784  1
  Sm3+  Sm61  1  0.75586612  0.37063974  0.55365741  1
  Sm3+  Sm62  1  0.13394066  -0.00400507  0.44235545  1
  Sm3+  Sm63  1  0.62568380  0.25489043  0.94275702  1
  Bi2+  Bi64  1  -0.07806329  0.12872288  0.27123525  1
  Bi2+  Bi65  1  -0.04929685  0.12656495  0.79173119  1
  Bi2+  Bi66  1  -0.03124044  0.40713957  0.28896812  1
  Bi2+  Bi67  1  -0.04453997  0.39939727  0.81721885  1
  Bi2+  Bi68  1  0.01010376  0.67406371  0.28839153  1
  Bi2+  Bi69  1  -0.00221159  0.62274982  0.79619567  1
  Bi2+  Bi70  1  -0.03956000  0.86665559  0.28430644  1
  Bi2+  Bi71  1  0.03379525  0.89514430  0.78959335  1
  Bi2+  Bi72  1  0.23692977  0.10689316  0.30082957  1
  Bi2+  Bi73  1  0.26435309  0.08538818  0.81385814  1
  Bi2+  Bi74  1  0.20582592  0.35818263  0.29302339  1
  Bi2+  Bi75  1  0.22612055  0.43064837  0.77605217  1
  Bi2+  Bi76  1  0.26229500  0.65337928  0.27781598  1
  Bi2+  Bi77  1  0.27721435  0.61768489  0.79500044  1
  Bi2+  Bi78  1  0.24476492  0.85688277  0.29610386  1
  Bi2+  Bi79  1  0.29987802  0.82821871  0.75831478  1
  Bi2+  Bi80  1  0.50176707  0.11511316  0.29100531  1
  Bi2+  Bi81  1  0.52942501  0.10894602  0.80585831  1
  Bi2+  Bi82  1  0.50614179  0.37688119  0.28814347  1
  Bi2+  Bi83  1  0.48852067  0.40622875  0.80021292  1
  Bi2+  Bi84  1  0.45033576  0.68623109  0.25575277  1
  Bi2+  Bi85  1  0.50012591  0.66688506  0.79932695  1
  Bi2+  Bi86  1  0.51500144  0.85448558  0.29248063  1
  Bi2+  Bi87  1  0.54676136  0.83791428  0.73557890  1
  Bi2+  Bi88  1  0.75396326  0.15783842  0.32088651  1
  Bi2+  Bi89  1  0.76171724  0.18504779  0.79617030  1
  Bi2+  Bi90  1  0.69536878  0.40885666  0.30715377  1
  Bi2+  Bi91  1  0.75983553  0.37095252  0.84004477  1
  Bi2+  Bi92  1  0.70086070  0.63287590  0.29769260  1
  Bi2+  Bi93  1  0.73725562  0.68202730  0.80188114  1
  Bi2+  Bi94  1  0.70987395  0.95158699  0.27687715  1
  Bi2+  Bi95  1  0.74772892  0.84894307  0.70169560  1
  Bi2+  Bi96  1  0.11226650  -0.08991892  0.21508384  1
  Bi2+  Bi97  1  0.11927890  -0.00807536  0.70291182  1
  Bi2+  Bi98  1  0.08586034  0.24557001  0.20340637  1
  Bi2+  Bi99  1  0.11080866  0.26786743  0.70886366  1
  Bi2+  Bi100  1  0.11293885  0.55682383  0.21746564  1
  Bi2+  Bi101  1  0.05782109  0.47667178  0.72665299  1
  Bi2+  Bi102  1  0.08930515  0.73202501  0.16620540  1
  Bi2+  Bi103  1  0.13899553  0.71055060  0.70869634  1
  Bi2+  Bi104  1  0.37709987  -0.05858935  0.22488755  1
  Bi2+  Bi105  1  0.40880615  -0.01669690  0.71638212  1
  Bi2+  Bi106  1  0.36208861  0.23339788  0.20555490  1
  Bi2+  Bi107  1  0.37031666  0.27191175  0.70830435  1
  Bi2+  Bi108  1  0.36058858  0.47277297  0.20460908  1
  Bi2+  Bi109  1  0.38453603  0.51146403  0.72152708  1
  Bi2+  Bi110  1  0.28117583  0.77395467  0.18328201  1
  Bi2+  Bi111  1  0.40038737  0.70547342  0.68968576  1
  Bi2+  Bi112  1  0.56448451  -0.02831637  0.19961721  1
  Bi2+  Bi113  1  0.71444859  0.04229549  0.71786347  1
  Bi2+  Bi114  1  0.63488591  0.23849607  0.24640212  1
  Bi2+  Bi115  1  0.62529850  0.26921839  0.71074068  1
  Bi2+  Bi116  1  0.63840737  0.50864893  0.21293277  1
  Bi2+  Bi117  1  0.65530857  0.50509857  0.77754787  1
  Bi2+  Bi118  1  0.65658403  0.77571698  0.20424920  1
  Bi2+  Bi119  1  0.65410402  0.67656573  0.68531610  1
  Bi2+  Bi120  1  0.83243110  0.00145654  0.19423579  1
  Bi2+  Bi121  1  0.89525434  0.05629549  0.67733843  1
  Bi2+  Bi122  1  0.83181253  0.26645280  0.19474107  1
  Bi2+  Bi123  1  0.87386587  0.24454335  0.70370199  1
  Bi2+  Bi124  1  0.83301972  0.52235243  0.23851515  1
  Bi2+  Bi125  1  0.82543427  0.44402898  0.73410446  1
  Bi2+  Bi126  1  0.84513438  0.72576639  0.23421950  1
  Bi2+  Bi127  1  0.86631953  0.68046995  0.71366078  1
  S2-  S128  1  -0.00641726  0.13756610  0.16156029  1
  S2-  S129  1  0.07391114  0.13410753  0.64298308  1
  S2-  S130  1  -0.02403237  0.35693505  0.16288065  1
  S2-  S131  1  -0.00731019  0.36662224  0.65206071  1
  S2-  S132  1  -0.01462414  0.58983143  0.14920200  1
  S2-  S133  1  0.01056716  0.63933672  0.65620637  1
  S2-  S134  1  -0.02309994  0.91850796  0.15348688  1
  S2-  S135  1  0.11583175  0.85371776  0.64715833  1
  S2-  S136  1  0.21951323  0.13545029  0.19578010  1
  S2-  S137  1  0.21720129  0.14739091  0.72301524  1
  S2-  S138  1  0.23182991  0.33184648  0.17323014  1
  S2-  S139  1  0.23681712  0.31416648  0.64124827  1
  S2-  S140  1  0.23760880  0.52964182  0.14448579  1
  S2-  S141  1  0.24180106  0.62213509  0.65599397  1
  S2-  S142  1  0.26160300  0.95368599  0.14616149  1
  S2-  S143  1  0.26781619  0.97743061  0.65200302  1
  S2-  S144  1  0.42579740  0.12467528  0.14659683  1
  S2-  S145  1  0.40404666  0.13245275  0.65685959  1
  S2-  S146  1  0.46740354  0.36047056  0.16270113  1
  S2-  S147  1  0.50654019  0.33209866  0.65487813  1
  S2-  S148  1  0.44161444  0.59779474  0.16918071  1
  S2-  S149  1  0.52145964  0.57045605  0.66182153  1
  S2-  S150  1  0.51968882  0.80771196  0.14713651  1
  S2-  S151  1  0.51528690  0.93217013  0.64952636  1
  S2-  S152  1  0.74823371  0.13500179  0.15069373  1
  S2-  S153  1  0.63503360  0.13275740  0.64662696  1
  S2-  S154  1  0.72882584  0.37734538  0.15830720  1
  S2-  S155  1  0.74613401  0.32299415  0.64745085  1
  S2-  S156  1  0.66092128  0.63125265  0.14189949  1
  S2-  S157  1  0.78022427  0.56017015  0.65505524  1
  S2-  S158  1  0.75333370  0.88140415  0.14110494  1
  S2-  S159  1  0.89124241  0.88408736  0.64250392  1
  S2-  S160  1  0.15444002  -0.01358289  0.34492026  1
  S2-  S161  1  0.11252073  0.02040401  0.84224056  1
  S2-  S162  1  0.11260113  0.21709753  0.32644818  1
  S2-  S163  1  0.22132491  0.22157890  0.85856103  1
  S2-  S164  1  0.10384002  0.46730703  0.34550920  1
  S2-  S165  1  0.14120849  0.59247787  0.85612419  1
  S2-  S166  1  0.14456188  0.72707619  0.34326633  1
  S2-  S167  1  0.17961236  0.82131620  0.82334980  1
  S2-  S168  1  0.38512359  0.06046443  0.35238546  1
  S2-  S169  1  0.41484632  0.00277925  0.84644010  1
  S2-  S170  1  0.31036108  0.25503781  0.33295848  1
  S2-  S171  1  0.38520376  0.20948983  0.79615096  1
  S2-  S172  1  0.32752043  0.46593430  0.30955634  1
  S2-  S173  1  0.34370737  0.40980550  0.85520511  1
  S2-  S174  1  0.38920840  0.66804782  0.35657088  1
  S2-  S175  1  0.38022213  0.74471416  0.84840532  1
  S2-  S176  1  0.62765096  0.03410713  0.35188300  1
  S2-  S177  1  0.65551374  0.02548076  0.84041991  1
  S2-  S178  1  0.52572501  0.24505471  0.36005497  1
  S2-  S179  1  0.54806713  0.26417423  0.85568054  1
  S2-  S180  1  0.54163119  0.50218836  0.35127404  1
  S2-  S181  1  0.51863470  0.53186656  0.86871874  1
  S2-  S182  1  0.63299821  0.76054220  0.35105153  1
  S2-  S183  1  0.60668732  0.79179393  0.83529004  1
  S2-  S184  1  0.91369268  0.00719496  0.34256414  1
  S2-  S185  1  0.89496095  -0.02147821  0.82884035  1
  S2-  S186  1  0.89406356  0.27330426  0.33678886  1
  S2-  S187  1  1.00844756  0.25261299  0.85951202  1
  S2-  S188  1  0.88499799  0.51449465  0.34300354  1
  S2-  S189  1  0.86004519  0.60526018  0.85862604  1
  S2-  S190  1  0.88233886  0.76088399  0.34936202  1
  S2-  S191  1  0.98289904  0.76882357  0.85155351  1
  S2-  S192  1  0.00907904  0.11978845  0.44568685  1
  S2-  S193  1  0.00162355  0.12610473  0.95626405  1
  S2-  S194  1  0.00838063  0.36920934  0.44891050  1
  S2-  S195  1  0.00370539  0.38203963  0.95906456  1
  S2-  S196  1  0.00736436  0.61846876  0.45179850  1
  S2-  S197  1  0.00356178  0.62447702  0.95299632  1
  S2-  S198  1  0.00578933  0.87044032  0.45474697  1
  S2-  S199  1  0.00536813  0.87956873  0.95069551  1
  S2-  S200  1  0.25524566  0.11750482  0.44655975  1
  S2-  S201  1  0.25987764  0.12714796  0.96064674  1
  S2-  S202  1  0.26320419  0.37726577  0.44150281  1
  S2-  S203  1  0.25336889  0.37794366  0.96389562  1
  S2-  S204  1  0.25831256  0.61715007  0.45176633  1
  S2-  S205  1  0.25659191  0.62839189  0.95789748  1
  S2-  S206  1  0.25938921  0.87085073  0.45573033  1
  S2-  S207  1  0.25549630  0.87806147  0.95056903  1
  S2-  S208  1  0.50972065  0.11497113  0.46279296  1
  S2-  S209  1  0.49920768  0.13255051  0.95329470  1
  S2-  S210  1  0.50107559  0.37487623  0.45209331  1
  S2-  S211  1  0.50193801  0.37420186  0.96012131  1
  S2-  S212  1  0.50669697  0.62380805  0.45982592  1
  S2-  S213  1  0.50490049  0.63268625  0.96880138  1
  S2-  S214  1  0.50547490  0.86886517  0.45265498  1
  S2-  S215  1  0.50298722  0.87954516  0.95199923  1
  S2-  S216  1  0.75392891  0.12129772  0.45962317  1
  S2-  S217  1  0.75389656  0.13274432  0.94624664  1
  S2-  S218  1  0.75401189  0.36824158  0.44884139  1
  S2-  S219  1  0.74939275  0.37883578  0.95645620  1
  S2-  S220  1  0.75736105  0.62101832  0.45432965  1
  S2-  S221  1  0.74566625  0.62347967  0.95593405  1
  S2-  S222  1  0.75739242  0.86617381  0.45917223  1
  S2-  S223  1  0.75403302  0.87581538  0.93900135  1
  S2-  S224  1  0.12847693  0.00630622  0.04987260  1
  S2-  S225  1  0.13112715  -0.00076600  0.54506141  1
  S2-  S226  1  0.12715480  0.25092534  0.05460597  1
  S2-  S227  1  0.13293934  0.24355631  0.53418327  1
  S2-  S228  1  0.12407194  0.50495613  0.04561911  1
  S2-  S229  1  0.13358749  0.49436254  0.54581911  1
  S2-  S230  1  0.13020483  0.75334828  0.03757885  1
  S2-  S231  1  0.13205453  0.74291822  0.54602737  1
  S2-  S232  1  0.38036498  0.00038069  0.04611312  1
  S2-  S233  1  0.38197540  -0.00857140  0.54605426  1
  S2-  S234  1  0.37378202  0.25392396  0.05679415  1
  S2-  S235  1  0.38148597  0.24186017  0.54102796  1
  S2-  S236  1  0.38300287  0.50859586  0.04848168  1
  S2-  S237  1  0.38159308  0.49663034  0.55493675  1
  S2-  S238  1  0.37991635  0.75565533  0.05170443  1
  S2-  S239  1  0.38039234  0.75059806  0.54811601  1
  S2-  S240  1  0.62936735  0.00597262  0.04301889  1
  S2-  S241  1  0.63804213  -0.01002163  0.55159909  1
  S2-  S242  1  0.62770575  0.25382490  0.04910681  1
  S2-  S243  1  0.63227779  0.24933543  0.54097097  1
  S2-  S244  1  0.62715242  0.49948393  0.04845140  1
  S2-  S245  1  0.63128897  0.49320919  0.54580728  1
  S2-  S246  1  0.63424882  0.75883601  0.03929644  1
  S2-  S247  1  0.63247102  0.75076691  0.55252881  1
  S2-  S248  1  0.87835348  0.00383654  0.03698647  1
  S2-  S249  1  0.87875903  0.00015260  0.54169728  1
  S2-  S250  1  0.87899409  0.25442243  0.04181480  1
  S2-  S251  1  0.88105247  0.24686529  0.54287213  1
  S2-  S252  1  0.87592842  0.50232506  0.04550950  1
  S2-  S253  1  0.88348928  0.49124564  0.54589225  1
  S2-  S254  1  0.87582064  0.75513163  0.04076711  1
  S2-  S255  1  0.88334751  0.74200090  0.54982794  1
