# generated using pymatgen
data_La6Ce6Pr19Nd20Sm13(BiS2)64
_symmetry_space_group_name_H-M   'P 1'
_cell_length_a   16.10920768
_cell_length_b   16.11089912
_cell_length_c   27.35150797
_cell_angle_alpha   90.11092380
_cell_angle_beta   89.85500909
_cell_angle_gamma   90.05912972
_symmetry_Int_Tables_number   1
_chemical_formula_structural   La6Ce6Pr19Nd20Sm13(BiS2)64
_chemical_formula_sum   'La6 Ce6 Pr19 Nd20 Sm13 Bi64 S128'
_cell_volume   7098.60156448
_cell_formula_units_Z   1
loop_
 _symmetry_equiv_pos_site_id
 _symmetry_equiv_pos_as_xyz
  1  'x, y, z'
loop_
 _atom_type_symbol
 _atom_type_oxidation_number
  La3+  3.0
  Ce3+  3.0
  Pr3+  3.0
  Nd3+  3.0
  Sm3+  3.0
  Bi2+  2.0
  S2-  -2.0
loop_
 _atom_site_type_symbol
 _atom_site_label
 _atom_site_symmetry_multiplicity
 _atom_site_fract_x
 _atom_site_fract_y
 _atom_site_fract_z
 _atom_site_occupancy
  La3+  La0  1  0.49713006  0.37359181  0.56704361  1
  La3+  La1  1  0.49508480  0.87180595  0.57050621  1
  La3+  La2  1  0.38214710  0.73959995  0.90166226  1
  La3+  La3  1  -0.00321658  0.87866054  0.59551272  1
  La3+  La4  1  0.88131713  0.49595742  0.41647973  1
  La3+  La5  1  0.11651510  0.23517581  0.39468640  1
  Ce3+  Ce6  1  0.87695884  -0.00183516  0.44529708  1
  Ce3+  Ce7  1  0.75342985  0.87117998  0.05689410  1
  Ce3+  Ce8  1  0.62460912  0.25005712  0.43503016  1
  Ce3+  Ce9  1  0.24577476  0.86594721  0.58156356  1
  Ce3+  Ce10  1  0.75508796  0.12475545  0.06115118  1
  Ce3+  Ce11  1  0.12993231  0.24851701  0.94402054  1
  Pr3+  Pr12  1  0.25402268  0.37671528  0.06241191  1
  Pr3+  Pr13  1  0.62961575  0.49847618  0.94666310  1
  Pr3+  Pr14  1  0.62913922  0.24888876  0.94400304  1
  Pr3+  Pr15  1  0.74836753  0.12451889  0.56198873  1
  Pr3+  Pr16  1  0.87346850  0.74899715  0.42091188  1
  Pr3+  Pr17  1  0.25717868  0.12080153  0.06309124  1
  Pr3+  Pr18  1  0.88336938  0.24804828  0.94534266  1
  Pr3+  Pr19  1  0.62383555  -0.00350315  0.44040397  1
  Pr3+  Pr20  1  0.62759565  -0.00095235  0.94430212  1
  Pr3+  Pr21  1  0.37205649  0.49741578  0.44050173  1
  Pr3+  Pr22  1  0.01223288  0.12147731  0.06980028  1
  Pr3+  Pr23  1  0.75126343  0.62760937  0.55277364  1
  Pr3+  Pr24  1  0.00753594  0.87056885  0.05706616  1
  Pr3+  Pr25  1  0.62059842  0.74766967  0.42837782  1
  Pr3+  Pr26  1  0.50213029  0.62533712  0.06216809  1
  Pr3+  Pr27  1  0.88053675  0.74351811  0.93967772  1
  Pr3+  Pr28  1  0.00851469  0.63261507  0.08587497  1
  Pr3+  Pr29  1  -0.00236472  0.37787702  0.56111618  1
  Pr3+  Pr30  1  0.36942578  0.00035404  0.44401024  1
  Nd3+  Nd31  1  0.50622534  0.37662009  0.06472112  1
  Nd3+  Nd32  1  0.24590179  0.62722426  0.55522678  1
  Nd3+  Nd33  1  0.12984872  0.73851657  0.93235590  1
  Nd3+  Nd34  1  0.12385466  0.49819233  0.43529613  1
  Nd3+  Nd35  1  0.86897541  0.24749889  0.43738996  1
  Nd3+  Nd36  1  0.75692640  0.37468698  0.06756430  1
  Nd3+  Nd37  1  0.62772699  0.74669145  0.93241907  1
  Nd3+  Nd38  1  0.25606117  0.87271167  0.04672063  1
  Nd3+  Nd39  1  0.00387301  0.37761957  0.06574606  1
  Nd3+  Nd40  1  -0.00434978  0.62757350  0.56008483  1
  Nd3+  Nd41  1  0.88130260  -0.00216352  0.94584427  1
  Nd3+  Nd42  1  0.74438276  0.63749987  0.09819769  1
  Nd3+  Nd43  1  0.37093088  0.24950789  0.43646728  1
  Nd3+  Nd44  1  0.12034127  0.75262739  0.43533127  1
  Nd3+  Nd45  1  0.38032861  -0.00088105  0.93335204  1
  Nd3+  Nd46  1  0.50435038  0.87139323  0.05079833  1
  Nd3+  Nd47  1  0.25617045  0.62415509  0.06098575  1
  Nd3+  Nd48  1  0.87924615  0.50233035  0.95607846  1
  Nd3+  Nd49  1  0.13113543  -0.01273380  0.92285485  1
  Nd3+  Nd50  1  0.13020270  0.50101399  0.93774852  1
  Sm3+  Sm51  1  0.74833965  0.87198417  0.56362249  1
  Sm3+  Sm52  1  0.38576400  0.49516725  0.93376722  1
  Sm3+  Sm53  1  0.50194143  0.12347176  0.06661241  1
  Sm3+  Sm54  1  0.49786851  0.62613095  0.55448863  1
  Sm3+  Sm55  1  0.24526028  0.12435375  0.56056625  1
  Sm3+  Sm56  1  0.49683014  0.12554353  0.55313573  1
  Sm3+  Sm57  1  0.12276919  -0.00057207  0.44810179  1
  Sm3+  Sm58  1  0.74950677  0.37659983  0.55216468  1
  Sm3+  Sm59  1  -0.00041523  0.12599108  0.56351713  1
  Sm3+  Sm60  1  0.37661410  0.24784185  0.94688115  1
  Sm3+  Sm61  1  0.37249556  0.75316405  0.43342927  1
  Sm3+  Sm62  1  0.24548782  0.37389121  0.55384922  1
  Sm3+  Sm63  1  0.62319407  0.49915851  0.44215053  1
  Bi2+  Bi64  1  -0.01004121  0.08994515  0.29050956  1
  Bi2+  Bi65  1  -0.01787697  0.21520237  0.78760704  1
  Bi2+  Bi66  1  -0.03686621  0.35558209  0.29100686  1
  Bi2+  Bi67  1  0.07562128  0.39300554  0.81098260  1
  Bi2+  Bi68  1  0.01121350  0.61586044  0.28837176  1
  Bi2+  Bi69  1  -0.02318028  0.61776276  0.79924992  1
  Bi2+  Bi70  1  0.05164341  0.86716896  0.27899646  1
  Bi2+  Bi71  1  -0.00639871  0.89622618  0.80041528  1
  Bi2+  Bi72  1  0.25390714  0.11582686  0.28741887  1
  Bi2+  Bi73  1  0.28103893  0.20997204  0.78065272  1
  Bi2+  Bi74  1  0.33838646  0.37475622  0.28257742  1
  Bi2+  Bi75  1  0.27619646  0.40768716  0.80743123  1
  Bi2+  Bi76  1  0.21087158  0.63090605  0.29623758  1
  Bi2+  Bi77  1  0.23552941  0.60013590  0.77849182  1
  Bi2+  Bi78  1  0.23589372  0.81812221  0.32506100  1
  Bi2+  Bi79  1  0.24229862  0.92307234  0.78972908  1
  Bi2+  Bi80  1  0.51272755  0.10836471  0.29368426  1
  Bi2+  Bi81  1  0.52850663  0.11871632  0.78759162  1
  Bi2+  Bi82  1  0.50020966  0.29813066  0.32855721  1
  Bi2+  Bi83  1  0.53129136  0.34718268  0.79263937  1
  Bi2+  Bi84  1  0.43986836  0.62404705  0.28935457  1
  Bi2+  Bi85  1  0.50889971  0.59844848  0.78879122  1
  Bi2+  Bi86  1  0.41835651  0.87721286  0.29990125  1
  Bi2+  Bi87  1  0.52973143  0.88698663  0.78305131  1
  Bi2+  Bi88  1  0.73092516  0.10940771  0.28886015  1
  Bi2+  Bi89  1  0.79950360  0.12406067  0.79319585  1
  Bi2+  Bi90  1  0.66979715  0.36263490  0.29306166  1
  Bi2+  Bi91  1  0.77648587  0.41152200  0.79597382  1
  Bi2+  Bi92  1  0.72274369  0.61861227  0.29837643  1
  Bi2+  Bi93  1  0.70697852  0.63758800  0.78378027  1
  Bi2+  Bi94  1  0.70833003  0.87757397  0.27469619  1
  Bi2+  Bi95  1  0.72160392  0.84007242  0.77357598  1
  Bi2+  Bi96  1  0.16593952  -0.00570312  0.21980396  1
  Bi2+  Bi97  1  0.10320902  0.04065718  0.71754393  1
  Bi2+  Bi98  1  0.09578720  0.24424922  0.19526035  1
  Bi2+  Bi99  1  0.14571663  0.30257410  0.71196903  1
  Bi2+  Bi100  1  0.22097565  0.48851468  0.21286039  1
  Bi2+  Bi101  1  0.11918493  0.50247025  0.70352690  1
  Bi2+  Bi102  1  0.14993089  0.75422478  0.20050812  1
  Bi2+  Bi103  1  0.12036407  0.74859413  0.71372617  1
  Bi2+  Bi104  1  0.37423982  -0.02858961  0.20065216  1
  Bi2+  Bi105  1  0.36760403  0.07174010  0.71373362  1
  Bi2+  Bi106  1  0.40478556  0.23019049  0.21515927  1
  Bi2+  Bi107  1  0.43348036  0.25953198  0.70592095  1
  Bi2+  Bi108  1  0.38234611  0.57372691  0.17264541  1
  Bi2+  Bi109  1  0.36505613  0.48612459  0.71694437  1
  Bi2+  Bi110  1  0.34722549  0.75298194  0.21711083  1
  Bi2+  Bi111  1  0.36971334  0.75128935  0.70686440  1
  Bi2+  Bi112  1  0.58604155  -0.01937332  0.20378408  1
  Bi2+  Bi113  1  0.61426846  0.00593534  0.70940371  1
  Bi2+  Bi114  1  0.59311979  0.17505700  0.19294944  1
  Bi2+  Bi115  1  0.75032105  0.25904295  0.71455123  1
  Bi2+  Bi116  1  0.52486931  0.48079598  0.23117331  1
  Bi2+  Bi117  1  0.64369037  0.47984449  0.72060602  1
  Bi2+  Bi118  1  0.60211253  0.75729003  0.21177829  1
  Bi2+  Bi119  1  0.62104858  0.73229733  0.69249420  1
  Bi2+  Bi120  1  0.88044812  -0.04547223  0.24222225  1
  Bi2+  Bi121  1  0.85294535  -0.00656848  0.71699443  1
  Bi2+  Bi122  1  0.82304985  0.21706678  0.20931907  1
  Bi2+  Bi123  1  0.94957196  0.27748583  0.68182599  1
  Bi2+  Bi124  1  0.86022850  0.45740572  0.21150556  1
  Bi2+  Bi125  1  0.92177129  0.46406888  0.72702580  1
  Bi2+  Bi126  1  0.87876524  0.72916571  0.20671582  1
  Bi2+  Bi127  1  0.85867209  0.73151222  0.71184834  1
  S2-  S128  1  -0.04747096  0.15111174  0.16673877  1
  S2-  S129  1  -0.01421083  0.04319505  0.65148885  1
  S2-  S130  1  -0.00296257  0.37141812  0.16492342  1
  S2-  S131  1  -0.00905429  0.50266772  0.63330025  1
  S2-  S132  1  -0.03430517  0.58904675  0.18578218  1
  S2-  S133  1  0.00348388  0.72142524  0.64788654  1
  S2-  S134  1  0.00051647  0.78629643  0.14416533  1
  S2-  S135  1  0.13745331  0.89221181  0.66450503  1
  S2-  S136  1  0.14588146  0.10689256  0.13957181  1
  S2-  S137  1  0.22978686  0.11164724  0.65880118  1
  S2-  S138  1  0.23054221  0.34134950  0.15974166  1
  S2-  S139  1  0.25185323  0.41616499  0.64896355  1
  S2-  S140  1  0.15797965  0.61349264  0.14320059  1
  S2-  S141  1  0.24365953  0.70414826  0.64493610  1
  S2-  S142  1  0.23991081  0.89031241  0.14506297  1
  S2-  S143  1  0.37793948  0.87746351  0.64860201  1
  S2-  S144  1  0.38130364  0.11012697  0.13881558  1
  S2-  S145  1  0.50679593  0.12427759  0.65019685  1
  S2-  S146  1  0.48573740  0.36508988  0.16266565  1
  S2-  S147  1  0.49957878  0.41636061  0.66375600  1
  S2-  S148  1  0.58898683  0.63454457  0.14904229  1
  S2-  S149  1  0.48243033  0.66137623  0.65017727  1
  S2-  S150  1  0.50490987  0.85815334  0.14983333  1
  S2-  S151  1  0.62673065  0.87665622  0.63756725  1
  S2-  S152  1  0.73995204  0.09136304  0.15553225  1
  S2-  S153  1  0.74343231  0.10023707  0.66094598  1
  S2-  S154  1  0.74090581  0.36122971  0.16553986  1
  S2-  S155  1  0.73098208  0.38759925  0.64918565  1
  S2-  S156  1  0.76845665  0.58948792  0.19650997  1
  S2-  S157  1  0.76565264  0.64012033  0.65345792  1
  S2-  S158  1  0.75235858  0.79666814  0.14441510  1
  S2-  S159  1  0.84533774  0.87153265  0.64831108  1
  S2-  S160  1  0.12212613  0.06855071  0.35608523  1
  S2-  S161  1  0.10438828  0.02784790  0.82442299  1
  S2-  S162  1  0.11223874  0.29460075  0.29152667  1
  S2-  S163  1  0.13400388  0.23602403  0.84793022  1
  S2-  S164  1  0.03462946  0.48343593  0.35041027  1
  S2-  S165  1  0.12177661  0.61267341  0.85982623  1
  S2-  S166  1  0.01406666  0.75501491  0.35331265  1
  S2-  S167  1  0.12113272  0.84233199  0.85216742  1
  S2-  S168  1  0.36918745  0.03267662  0.34483414  1
  S2-  S169  1  0.36023155  0.00435526  0.83550960  1
  S2-  S170  1  0.28040735  0.24430107  0.35175822  1
  S2-  S171  1  0.38826914  0.28680681  0.85188101  1
  S2-  S172  1  0.32797200  0.51427670  0.34416206  1
  S2-  S173  1  0.37009314  0.58479947  0.85096388  1
  S2-  S174  1  0.48746670  0.74985602  0.35771071  1
  S2-  S175  1  0.31897213  0.78420216  0.80717372  1
  S2-  S176  1  0.62310564  -0.00620093  0.34045225  1
  S2-  S177  1  0.60818245  0.00088380  0.84537902  1
  S2-  S178  1  0.72877624  0.23282905  0.35546844  1
  S2-  S179  1  0.62002365  0.23530104  0.84430263  1
  S2-  S180  1  0.60897577  0.53743733  0.34670162  1
  S2-  S181  1  0.55455190  0.47737151  0.85658203  1
  S2-  S182  1  0.73457954  0.76875572  0.35183447  1
  S2-  S183  1  0.53321388  0.74812451  0.84815084  1
  S2-  S184  1  0.88181655  -0.01021851  0.34767817  1
  S2-  S185  1  0.87262445  -0.00330946  0.84687073  1
  S2-  S186  1  0.95105056  0.22198001  0.35137548  1
  S2-  S187  1  0.85086026  0.27096102  0.84821577  1
  S2-  S188  1  0.80814176  0.42906050  0.32511715  1
  S2-  S189  1  0.88650288  0.50847160  0.85655119  1
  S2-  S190  1  0.86753713  0.62230025  0.34411617  1
  S2-  S191  1  0.91256106  0.75641315  0.84081890  1
  S2-  S192  1  0.00084035  0.12497203  0.46055348  1
  S2-  S193  1  0.00757562  0.11958524  0.95424647  1
  S2-  S194  1  0.00390308  0.36521632  0.45321316  1
  S2-  S195  1  0.00509193  0.37710315  0.95829117  1
  S2-  S196  1  0.00170975  0.62327488  0.45395680  1
  S2-  S197  1  0.00393486  0.62238190  0.96528026  1
  S2-  S198  1  0.00069245  0.87882702  0.45163395  1
  S2-  S199  1  0.00371259  0.87094987  0.95260644  1
  S2-  S200  1  0.24438153  0.12803265  0.45736767  1
  S2-  S201  1  0.25445267  0.12127365  0.95067685  1
  S2-  S202  1  0.24442627  0.37199112  0.45039134  1
  S2-  S203  1  0.25556610  0.37604789  0.95413402  1
  S2-  S204  1  0.24827131  0.62697179  0.44930099  1
  S2-  S205  1  0.26218857  0.62158675  0.95551849  1
  S2-  S206  1  0.24776832  0.87496616  0.45663986  1
  S2-  S207  1  0.26252547  0.86644561  0.94221985  1
  S2-  S208  1  0.49765639  0.12552551  0.44921008  1
  S2-  S209  1  0.50145530  0.12580005  0.95790366  1
  S2-  S210  1  0.49817768  0.37509633  0.45803069  1
  S2-  S211  1  0.50201217  0.37025832  0.95951882  1
  S2-  S212  1  0.49537658  0.62072137  0.45248966  1
  S2-  S213  1  0.50280442  0.62345721  0.95558359  1
  S2-  S214  1  0.49497378  0.87612905  0.45760684  1
  S2-  S215  1  0.50040101  0.87152288  0.94655637  1
  S2-  S216  1  0.74850598  0.12099366  0.45624899  1
  S2-  S217  1  0.75549030  0.12315514  0.95405134  1
  S2-  S218  1  0.74689900  0.37722823  0.44965585  1
  S2-  S219  1  0.75563421  0.37363969  0.96042761  1
  S2-  S220  1  0.74678137  0.62019770  0.44840496  1
  S2-  S221  1  0.75174533  0.62310588  0.94515233  1
  S2-  S222  1  0.74914414  0.87548566  0.45783664  1
  S2-  S223  1  0.75338486  0.87190636  0.94912954  1
  S2-  S224  1  0.13048111  -0.00562250  0.03333816  1
  S2-  S225  1  0.12324143  -0.00011526  0.55058692  1
  S2-  S226  1  0.12846909  0.25263388  0.04793407  1
  S2-  S227  1  0.12346020  0.25039565  0.55881980  1
  S2-  S228  1  0.12754666  0.49826351  0.04446915  1
  S2-  S229  1  0.12706172  0.50020355  0.53994651  1
  S2-  S230  1  0.13320926  0.74802383  0.03935635  1
  S2-  S231  1  0.12186557  0.75234055  0.54123521  1
  S2-  S232  1  0.38254972  -0.00311080  0.03865914  1
  S2-  S233  1  0.37123713  0.00491283  0.54915936  1
  S2-  S234  1  0.38133287  0.25191883  0.04940855  1
  S2-  S235  1  0.36986512  0.24886901  0.54707082  1
  S2-  S236  1  0.38089465  0.49688308  0.04144906  1
  S2-  S237  1  0.37146319  0.50142109  0.54720578  1
  S2-  S238  1  0.37867989  0.74952487  0.05008540  1
  S2-  S239  1  0.37330125  0.74655596  0.53772889  1
  S2-  S240  1  0.62666477  -0.00029589  0.05025010  1
  S2-  S241  1  0.62039813  0.00397639  0.54519141  1
  S2-  S242  1  0.62702560  0.24856470  0.05162987  1
  S2-  S243  1  0.62382136  0.25044782  0.54608047  1
  S2-  S244  1  0.63440812  0.50021698  0.05327371  1
  S2-  S245  1  0.62286890  0.50111425  0.54732355  1
  S2-  S246  1  0.63056775  0.74715357  0.03861720  1
  S2-  S247  1  0.62100558  0.74613314  0.53767033  1
  S2-  S248  1  0.88189513  -0.00333320  0.05294953  1
  S2-  S249  1  0.87383940  0.00003712  0.54893327  1
  S2-  S250  1  0.88191179  0.24878108  0.05200629  1
  S2-  S251  1  0.87273149  0.25047773  0.54567866  1
  S2-  S252  1  0.87523009  0.50701314  0.06240307  1
  S2-  S253  1  0.87005013  0.49786410  0.53386934  1
  S2-  S254  1  0.87432582  0.74337314  0.04566475  1
  S2-  S255  1  0.87403015  0.75336559  0.53919479  1
