# generated using pymatgen
data_La6Ce6Pr19Nd20Sm13(BiS2)64
_symmetry_space_group_name_H-M   'P 1'
_cell_length_a   16.12634504
_cell_length_b   16.13029919
_cell_length_c   27.35400225
_cell_angle_alpha   90.12445172
_cell_angle_beta   90.04628444
_cell_angle_gamma   90.06739345
_symmetry_Int_Tables_number   1
_chemical_formula_structural   La6Ce6Pr19Nd20Sm13(BiS2)64
_chemical_formula_sum   'La6 Ce6 Pr19 Nd20 Sm13 Bi64 S128'
_cell_volume   7115.37480143
_cell_formula_units_Z   1
loop_
 _symmetry_equiv_pos_site_id
 _symmetry_equiv_pos_as_xyz
  1  'x, y, z'
loop_
 _atom_type_symbol
 _atom_type_oxidation_number
  La3+  3.0
  Ce3+  3.0
  Pr3+  3.0
  Nd3+  3.0
  Sm3+  3.0
  Bi2+  2.0
  S2-  -2.0
loop_
 _atom_site_type_symbol
 _atom_site_label
 _atom_site_symmetry_multiplicity
 _atom_site_fract_x
 _atom_site_fract_y
 _atom_site_fract_z
 _atom_site_occupancy
  La3+  La0  1  0.88357613  0.01618578  0.91143031  1
  La3+  La1  1  0.37695645  0.76326973  0.40452900  1
  La3+  La2  1  0.76078031  0.62390069  0.60816207  1
  La3+  La3  1  0.73112644  0.62878721  0.11539843  1
  La3+  La4  1  0.37737849  0.76291889  0.89637944  1
  La3+  La5  1  0.88969436  0.49532695  0.41804765  1
  Ce3+  Ce6  1  0.75073257  0.12846091  0.05797272  1
  Ce3+  Ce7  1  0.63241834  0.25521973  0.44084766  1
  Ce3+  Ce8  1  0.00159495  0.87943256  0.55700341  1
  Ce3+  Ce9  1  0.13419826  0.75732717  0.44179369  1
  Ce3+  Ce10  1  0.25147718  0.88351253  0.05717638  1
  Ce3+  Ce11  1  0.62550023  0.25635811  0.93988914  1
  Pr3+  Pr12  1  0.00056166  0.62948105  0.55285860  1
  Pr3+  Pr13  1  0.75878992  0.88537375  0.07261302  1
  Pr3+  Pr14  1  0.50704427  0.13534730  0.55987880  1
  Pr3+  Pr15  1  -0.00792968  0.63691858  0.06257659  1
  Pr3+  Pr16  1  0.75736830  0.88212819  0.57091806  1
  Pr3+  Pr17  1  0.88089419  0.00655274  0.44040027  1
  Pr3+  Pr18  1  0.62933707  0.75507310  0.45225000  1
  Pr3+  Pr19  1  0.14150153  0.50974765  0.42907055  1
  Pr3+  Pr20  1  0.38104695  0.25435714  0.43270317  1
  Pr3+  Pr21  1  0.25823245  0.88133118  0.56299201  1
  Pr3+  Pr22  1  0.25258524  0.38574496  0.06012994  1
  Pr3+  Pr23  1  0.50280732  0.88482062  0.06154715  1
  Pr3+  Pr24  1  0.62413041  0.51711197  0.94217399  1
  Pr3+  Pr25  1  0.50602949  0.62511072  0.57019268  1
  Pr3+  Pr26  1  0.50637316  0.88964037  0.57345337  1
  Pr3+  Pr27  1  0.50233276  0.38764803  0.05458967  1
  Pr3+  Pr28  1  0.74746732  0.38280302  0.06485806  1
  Pr3+  Pr29  1  0.25799447  0.38413407  0.55931738  1
  Pr3+  Pr30  1  0.49982954  0.13006588  0.06864280  1
  Nd3+  Nd31  1  0.62422316  0.01616074  0.92808931  1
  Nd3+  Nd32  1  0.01120009  0.13288630  0.57219765  1
  Nd3+  Nd33  1  0.00251593  0.38688183  0.55999199  1
  Nd3+  Nd34  1  0.87346204  0.76004915  0.93419102  1
  Nd3+  Nd35  1  0.49127788  0.64535520  0.07730284  1
  Nd3+  Nd36  1  0.37531233  0.25753652  0.94152856  1
  Nd3+  Nd37  1  0.63339410  0.00275817  0.44103927  1
  Nd3+  Nd38  1  -0.00081810  0.38403830  0.06506306  1
  Nd3+  Nd39  1  0.37569348  0.51556220  0.94102652  1
  Nd3+  Nd40  1  0.87988354  0.25394567  0.44562208  1
  Nd3+  Nd41  1  0.24974035  0.63846969  0.06511453  1
  Nd3+  Nd42  1  0.12985646  0.00643517  0.44300651  1
  Nd3+  Nd43  1  0.12538213  0.51098702  0.94658617  1
  Nd3+  Nd44  1  -0.00230270  0.88573086  0.05325815  1
  Nd3+  Nd45  1  0.62630084  0.76328863  0.94455997  1
  Nd3+  Nd46  1  0.25440720  0.13459245  0.56677928  1
  Nd3+  Nd47  1  -0.00215681  0.13194739  0.06144040  1
  Nd3+  Nd48  1  0.12602786  0.26053503  0.94569111  1
  Nd3+  Nd49  1  0.87616037  0.26172445  0.93978152  1
  Nd3+  Nd50  1  0.25863544  0.63358243  0.56075850  1
  Sm3+  Sm51  1  0.87679748  0.75460133  0.44032538  1
  Sm3+  Sm52  1  0.37605389  0.00625739  0.93913670  1
  Sm3+  Sm53  1  0.38188681  0.51019713  0.43569852  1
  Sm3+  Sm54  1  0.87382655  0.51087852  0.94757979  1
  Sm3+  Sm55  1  0.13186797  0.25470323  0.44606771  1
  Sm3+  Sm56  1  0.50776364  0.38403985  0.55019512  1
  Sm3+  Sm57  1  0.12493764  0.00916895  0.94221691  1
  Sm3+  Sm58  1  0.12903428  0.75688294  0.94135032  1
  Sm3+  Sm59  1  0.25165497  0.13328597  0.05390644  1
  Sm3+  Sm60  1  0.75586044  0.38321671  0.55437219  1
  Sm3+  Sm61  1  0.76542954  0.12541204  0.57610362  1
  Sm3+  Sm62  1  0.38186650  0.00427733  0.44064606  1
  Sm3+  Sm63  1  0.62951515  0.51076872  0.44042637  1
  Bi2+  Bi64  1  0.02299606  0.08883758  0.30993073  1
  Bi2+  Bi65  1  0.00919764  0.15886539  0.79251281  1
  Bi2+  Bi66  1  0.01426876  0.35074083  0.29105704  1
  Bi2+  Bi67  1  -0.02671375  0.35644322  0.81254638  1
  Bi2+  Bi68  1  0.01400738  0.62270906  0.28089158  1
  Bi2+  Bi69  1  0.02488564  0.58533046  0.79205608  1
  Bi2+  Bi70  1  0.01229362  0.89904498  0.28206104  1
  Bi2+  Bi71  1  0.02133319  0.80979027  0.79153702  1
  Bi2+  Bi72  1  0.31471886  0.12473087  0.29756903  1
  Bi2+  Bi73  1  0.27340654  0.09542908  0.78773906  1
  Bi2+  Bi74  1  0.22957944  0.37021313  0.26215023  1
  Bi2+  Bi75  1  0.29751153  0.37235335  0.78816093  1
  Bi2+  Bi76  1  0.21276388  0.62821239  0.28940605  1
  Bi2+  Bi77  1  0.23819064  0.61838223  0.78931853  1
  Bi2+  Bi78  1  0.20113885  0.88573508  0.24955215  1
  Bi2+  Bi79  1  0.21063572  0.83656542  0.76101359  1
  Bi2+  Bi80  1  0.51086689  0.12738887  0.28943532  1
  Bi2+  Bi81  1  0.47136078  0.14364063  0.78586640  1
  Bi2+  Bi82  1  0.48939254  0.32769838  0.29131092  1
  Bi2+  Bi83  1  0.48559254  0.33589319  0.75994396  1
  Bi2+  Bi84  1  0.44375289  0.53583405  0.30261768  1
  Bi2+  Bi85  1  0.51246139  0.59623326  0.79385063  1
  Bi2+  Bi86  1  0.49767267  0.87775934  0.29555811  1
  Bi2+  Bi87  1  0.46555063  0.91998008  0.77597764  1
  Bi2+  Bi88  1  0.77219510  0.14516981  0.27702280  1
  Bi2+  Bi89  1  0.73503245  0.17413387  0.78429515  1
  Bi2+  Bi90  1  0.75162217  0.36491400  0.29728122  1
  Bi2+  Bi91  1  0.77497306  0.36895286  0.79133481  1
  Bi2+  Bi92  1  0.72667440  0.64893896  0.32727634  1
  Bi2+  Bi93  1  0.75080977  0.60026552  0.81099401  1
  Bi2+  Bi94  1  0.73409675  0.89467601  0.30678463  1
  Bi2+  Bi95  1  0.72456746  0.85178451  0.80675158  1
  Bi2+  Bi96  1  0.08804189  0.01921139  0.19526226  1
  Bi2+  Bi97  1  0.10149916  -0.00320301  0.75794286  1
  Bi2+  Bi98  1  0.15030817  0.19068563  0.24377249  1
  Bi2+  Bi99  1  0.22626778  0.23463565  0.70838784  1
  Bi2+  Bi100  1  0.12616630  0.52288817  0.20264113  1
  Bi2+  Bi101  1  0.10203943  0.42538041  0.73218307  1
  Bi2+  Bi102  1  0.11242300  0.72578131  0.20088526  1
  Bi2+  Bi103  1  0.10653359  0.69421127  0.70800381  1
  Bi2+  Bi104  1  0.36632401  0.01817491  0.20455601  1
  Bi2+  Bi105  1  0.32612874  0.04164973  0.68282016  1
  Bi2+  Bi106  1  0.42761915  0.21542614  0.19896856  1
  Bi2+  Bi107  1  0.41369597  0.21792583  0.67205146  1
  Bi2+  Bi108  1  0.36606864  0.47717269  0.20885243  1
  Bi2+  Bi109  1  0.36609677  0.47292153  0.70090686  1
  Bi2+  Bi110  1  0.35733153  0.74697784  0.20935274  1
  Bi2+  Bi111  1  0.39312184  0.74089850  0.69294977  1
  Bi2+  Bi112  1  0.63084392  0.04395916  0.21006969  1
  Bi2+  Bi113  1  0.61689019  0.06949672  0.71384977  1
  Bi2+  Bi114  1  0.69730282  0.22415607  0.17553525  1
  Bi2+  Bi115  1  0.67573152  0.23938822  0.67199433  1
  Bi2+  Bi116  1  0.62228163  0.39069201  0.21405883  1
  Bi2+  Bi117  1  0.63926903  0.42102728  0.70841498  1
  Bi2+  Bi118  1  0.59137820  0.72814656  0.21792615  1
  Bi2+  Bi119  1  0.63247979  0.75488604  0.71990908  1
  Bi2+  Bi120  1  0.89147493  0.00920278  0.20524377  1
  Bi2+  Bi121  1  0.86865976  0.00016573  0.71140666  1
  Bi2+  Bi122  1  0.88302434  0.26813527  0.21476511  1
  Bi2+  Bi123  1  0.86981884  0.26089100  0.71132817  1
  Bi2+  Bi124  1  0.88485751  0.51095055  0.21488414  1
  Bi2+  Bi125  1  0.90563766  0.48483360  0.70850396  1
  Bi2+  Bi126  1  0.85568494  0.76899758  0.21350742  1
  Bi2+  Bi127  1  0.90362501  0.75865216  0.71009391  1
  S2-  S128  1  -0.03421226  0.15488133  0.15790168  1
  S2-  S129  1  -0.09937198  0.12375389  0.64923215  1
  S2-  S130  1  -0.00402611  0.41563298  0.16298284  1
  S2-  S131  1  -0.00248324  0.35723435  0.65794170  1
  S2-  S132  1  -0.09782037  0.64362017  0.14903826  1
  S2-  S133  1  -0.07278803  0.61769053  0.64414823  1
  S2-  S134  1  -0.08479700  0.87669653  0.14071786  1
  S2-  S135  1  -0.03273697  0.89176913  0.65252322  1
  S2-  S136  1  0.28863445  0.13968061  0.14865640  1
  S2-  S137  1  0.13994542  0.13651890  0.64337894  1
  S2-  S138  1  0.23182547  0.39216278  0.15879796  1
  S2-  S139  1  0.22372434  0.40968634  0.65638401  1
  S2-  S140  1  0.34620965  0.62326244  0.14817140  1
  S2-  S141  1  0.29921683  0.61550826  0.65695879  1
  S2-  S142  1  0.28220910  0.88088601  0.15329692  1
  S2-  S143  1  0.28000659  0.87331257  0.66301879  1
  S2-  S144  1  0.50966112  0.00561408  0.13995942  1
  S2-  S145  1  0.49343058  0.03702514  0.64204651  1
  S2-  S146  1  0.47328603  0.37458745  0.15263520  1
  S2-  S147  1  0.50833124  0.45302334  0.63905667  1
  S2-  S148  1  0.57470496  0.59881056  0.16157654  1
  S2-  S149  1  0.52818384  0.65089251  0.67038496  1
  S2-  S150  1  0.48927034  0.78707496  0.15030647  1
  S2-  S151  1  0.52055264  0.85316480  0.67382295  1
  S2-  S152  1  0.75670356  0.02581982  0.13730297  1
  S2-  S153  1  0.74202984  0.00129356  0.64870835  1
  S2-  S154  1  0.75742518  0.46299570  0.15479228  1
  S2-  S155  1  0.77291923  0.45643717  0.64202286  1
  S2-  S156  1  0.74393709  0.64041906  0.23130578  1
  S2-  S157  1  0.72642456  0.61225052  0.71668481  1
  S2-  S158  1  0.71923367  0.79540983  0.15804648  1
  S2-  S159  1  0.76473912  0.78355772  0.65523659  1
  S2-  S160  1  0.13768304  -0.02293497  0.34546747  1
  S2-  S161  1  0.04383797  0.01892925  0.85665724  1
  S2-  S162  1  0.10232482  0.23669139  0.35034739  1
  S2-  S163  1  0.10921380  0.26672809  0.84742936  1
  S2-  S164  1  0.03410952  0.49071868  0.35011127  1
  S2-  S165  1  0.15539030  0.51558869  0.84934460  1
  S2-  S166  1  0.21649070  0.75205881  0.35702301  1
  S2-  S167  1  0.21472755  0.74981965  0.85594818  1
  S2-  S168  1  0.37994177  -0.08106489  0.35501293  1
  S2-  S169  1  0.36577190  -0.06955707  0.85108853  1
  S2-  S170  1  0.33514682  0.28934703  0.33783223  1
  S2-  S171  1  0.34874520  0.23533175  0.84451851  1
  S2-  S172  1  0.27581843  0.51281777  0.35878154  1
  S2-  S173  1  0.38100277  0.59285728  0.85244629  1
  S2-  S174  1  0.42733860  0.71206674  0.30878083  1
  S2-  S175  1  0.43922346  0.76087783  0.79551027  1
  S2-  S176  1  0.59716978  -0.00757797  0.34331116  1
  S2-  S177  1  0.60272701  -0.05383449  0.83689242  1
  S2-  S178  1  0.67515729  0.23324385  0.34798122  1
  S2-  S179  1  0.60986063  0.16365803  0.85863248  1
  S2-  S180  1  0.59737019  0.53124095  0.34374005  1
  S2-  S181  1  0.60909909  0.49568868  0.84164406  1
  S2-  S182  1  0.61666089  0.78443684  0.35214695  1
  S2-  S183  1  0.62723865  0.71196575  0.84679912  1
  S2-  S184  1  0.81238154  0.01692992  0.34881190  1
  S2-  S185  1  0.83600407  -0.03318909  0.81406638  1
  S2-  S186  1  0.88935359  0.32322775  0.35499326  1
  S2-  S187  1  0.87354849  0.16869726  0.85578038  1
  S2-  S188  1  0.82060809  0.51676710  0.32484646  1
  S2-  S189  1  0.88833754  0.51217968  0.84995451  1
  S2-  S190  1  0.84500448  0.78050185  0.34401151  1
  S2-  S191  1  0.85182320  0.73517918  0.83556000  1
  S2-  S192  1  0.00628475  0.13242425  0.46064190  1
  S2-  S193  1  0.00456860  0.13796440  0.95726998  1
  S2-  S194  1  0.01238718  0.37663022  0.45582914  1
  S2-  S195  1  0.00085975  0.38589757  0.95836616  1
  S2-  S196  1  0.00609111  0.63506393  0.44631727  1
  S2-  S197  1  0.00081474  0.63522378  0.95358246  1
  S2-  S198  1  0.00409563  0.87888246  0.44950869  1
  S2-  S199  1  0.00446098  0.88049116  0.94790066  1
  S2-  S200  1  0.25567356  0.12958564  0.45520113  1
  S2-  S201  1  0.24958517  0.13119397  0.94940166  1
  S2-  S202  1  0.25638851  0.37789629  0.45336490  1
  S2-  S203  1  0.25237673  0.38565323  0.95310542  1
  S2-  S204  1  0.26416435  0.63826911  0.45699257  1
  S2-  S205  1  0.24935247  0.63411157  0.95995421  1
  S2-  S206  1  0.25695120  0.88338520  0.45737568  1
  S2-  S207  1  0.24700077  0.88568693  0.95218758  1
  S2-  S208  1  0.50566184  0.12889535  0.45067200  1
  S2-  S209  1  0.49455040  0.13178910  0.95906166  1
  S2-  S210  1  0.50527949  0.38411027  0.44552870  1
  S2-  S211  1  0.49859879  0.38453288  0.94741976  1
  S2-  S212  1  0.50022789  0.63358773  0.45400492  1
  S2-  S213  1  0.49767974  0.64096329  0.95616770  1
  S2-  S214  1  0.50313885  0.88232895  0.46198223  1
  S2-  S215  1  0.49768486  0.88311819  0.95132394  1
  S2-  S216  1  0.75593600  0.13079312  0.46262092  1
  S2-  S217  1  0.75198401  0.13554938  0.95357630  1
  S2-  S218  1  0.75215857  0.38385514  0.45068136  1
  S2-  S219  1  0.74980349  0.38539606  0.95428594  1
  S2-  S220  1  0.75705441  0.62909034  0.44289867  1
  S2-  S221  1  0.75396910  0.63393322  0.94971274  1
  S2-  S222  1  0.75707160  0.88040081  0.46032960  1
  S2-  S223  1  0.75289456  0.88869846  0.94238026  1
  S2-  S224  1  0.12585670  0.01075846  0.04696428  1
  S2-  S225  1  0.13012154  0.00344821  0.54850799  1
  S2-  S226  1  0.12626806  0.25753257  0.05282663  1
  S2-  S227  1  0.13028134  0.26228885  0.54837020  1
  S2-  S228  1  0.12315230  0.51164023  0.05220610  1
  S2-  S229  1  0.13195657  0.50911105  0.54225256  1
  S2-  S230  1  0.12259177  0.75956574  0.04702466  1
  S2-  S231  1  0.12982618  0.75528564  0.55012053  1
  S2-  S232  1  0.37218217  0.00992101  0.04233451  1
  S2-  S233  1  0.37648424  0.01077661  0.54333556  1
  S2-  S234  1  0.37573481  0.25785641  0.04636256  1
  S2-  S235  1  0.38156956  0.25970134  0.54021416  1
  S2-  S236  1  0.37618034  0.51110230  0.04588957  1
  S2-  S237  1  0.38113850  0.50651906  0.53928317  1
  S2-  S238  1  0.37060591  0.76212133  0.04507276  1
  S2-  S239  1  0.38517966  0.75707811  0.55826985  1
  S2-  S240  1  0.62789962  0.00738004  0.03588867  1
  S2-  S241  1  0.63387248  0.01094754  0.54580165  1
  S2-  S242  1  0.62250043  0.25656396  0.04539513  1
  S2-  S243  1  0.63122519  0.26021174  0.54592125  1
  S2-  S244  1  0.62649948  0.51327192  0.04849021  1
  S2-  S245  1  0.63521266  0.50919133  0.54394393  1
  S2-  S246  1  0.62856619  0.75708274  0.04866070  1
  S2-  S247  1  0.63128147  0.75220677  0.55716907  1
  S2-  S248  1  0.87936821  0.01026564  0.03316487  1
  S2-  S249  1  0.88384374  0.00767595  0.54554146  1
  S2-  S250  1  0.87529085  0.25997076  0.04712841  1
  S2-  S251  1  0.87936442  0.25867778  0.55047687  1
  S2-  S252  1  0.87513534  0.50574872  0.04913503  1
  S2-  S253  1  0.87929198  0.50408634  0.53376565  1
  S2-  S254  1  0.87505775  0.76241699  0.03859495  1
  S2-  S255  1  0.87624912  0.75291522  0.54405038  1
