# generated using pymatgen
data_La6Ce6Pr19Nd20Sm13(BiS2)64
_symmetry_space_group_name_H-M   'P 1'
_cell_length_a   16.09723622
_cell_length_b   16.15213161
_cell_length_c   27.42698553
_cell_angle_alpha   90.00667344
_cell_angle_beta   89.55732294
_cell_angle_gamma   90.08971454
_symmetry_Int_Tables_number   1
_chemical_formula_structural   La6Ce6Pr19Nd20Sm13(BiS2)64
_chemical_formula_sum   'La6 Ce6 Pr19 Nd20 Sm13 Bi64 S128'
_cell_volume   7130.92291797
_cell_formula_units_Z   1
loop_
 _symmetry_equiv_pos_site_id
 _symmetry_equiv_pos_as_xyz
  1  'x, y, z'
loop_
 _atom_type_symbol
 _atom_type_oxidation_number
  La3+  3.0
  Ce3+  3.0
  Pr3+  3.0
  Nd3+  3.0
  Sm3+  3.0
  Bi2+  2.0
  S2-  -2.0
loop_
 _atom_site_type_symbol
 _atom_site_label
 _atom_site_symmetry_multiplicity
 _atom_site_fract_x
 _atom_site_fract_y
 _atom_site_fract_z
 _atom_site_occupancy
  La3+  La0  1  0.75166863  0.89043284  0.07609257  1
  La3+  La1  1  0.23944315  0.37673566  0.06664905  1
  La3+  La2  1  0.62992339  0.74882338  0.39586587  1
  La3+  La3  1  0.24471027  0.88059654  0.05864225  1
  La3+  La4  1  0.63200010  0.24969192  0.43988421  1
  La3+  La5  1  0.51654972  0.37631547  0.61104866  1
  Ce3+  Ce6  1  0.87725325  0.74787386  0.44150866  1
  Ce3+  Ce7  1  -0.00393095  0.12665634  0.05033588  1
  Ce3+  Ce8  1  0.25561821  0.37253268  0.56525540  1
  Ce3+  Ce9  1  0.49156931  0.37544512  0.05340822  1
  Ce3+  Ce10  1  0.00833789  0.12176348  0.56303870  1
  Ce3+  Ce11  1  -0.00352866  0.37744638  0.06122166  1
  Pr3+  Pr12  1  0.49673484  0.62862053  0.06001425  1
  Pr3+  Pr13  1  0.13439251  -0.00284179  0.92177226  1
  Pr3+  Pr14  1  0.37264776  0.50225728  0.93686806  1
  Pr3+  Pr15  1  0.36719200  0.25893060  0.91615268  1
  Pr3+  Pr16  1  0.63063701  0.25323170  0.93014024  1
  Pr3+  Pr17  1  0.63728823  0.49920244  0.42753154  1
  Pr3+  Pr18  1  0.62786024  0.75616421  0.94589167  1
  Pr3+  Pr19  1  0.01203595  0.62093128  0.56620837  1
  Pr3+  Pr20  1  0.75231723  0.62132010  0.55958997  1
  Pr3+  Pr21  1  0.38333958  0.00936121  0.92528477  1
  Pr3+  Pr22  1  0.74617434  0.62973507  0.06914362  1
  Pr3+  Pr23  1  0.13668022  -0.00163946  0.43899507  1
  Pr3+  Pr24  1  0.24938072  0.12190347  0.57391817  1
  Pr3+  Pr25  1  0.13234998  0.74259077  0.91572719  1
  Pr3+  Pr26  1  0.24287663  0.12844466  0.05550500  1
  Pr3+  Pr27  1  0.25987792  0.61832646  0.55939733  1
  Pr3+  Pr28  1  0.49826702  0.88459932  0.06509381  1
  Pr3+  Pr29  1  0.13299118  0.74621500  0.44001485  1
  Pr3+  Pr30  1  0.73753486  0.13506925  0.07155033  1
  Nd3+  Nd31  1  0.88120237  -0.00193098  0.44600075  1
  Nd3+  Nd32  1  0.75319502  0.87070559  0.55852029  1
  Nd3+  Nd33  1  0.01069768  0.37368060  0.56597691  1
  Nd3+  Nd34  1  0.24520259  0.62780311  0.06146527  1
  Nd3+  Nd35  1  0.48580419  0.13931786  0.06486079  1
  Nd3+  Nd36  1  0.12024224  0.25377676  0.93266965  1
  Nd3+  Nd37  1  0.38218863  0.49784918  0.43578579  1
  Nd3+  Nd38  1  -0.00070867  0.87748389  0.04479044  1
  Nd3+  Nd39  1  0.62788263  0.00673108  0.93734843  1
  Nd3+  Nd40  1  0.38716636  0.74902896  0.44710427  1
  Nd3+  Nd41  1  -0.00370881  0.63218611  0.06083741  1
  Nd3+  Nd42  1  0.88573562  0.49965037  0.43851430  1
  Nd3+  Nd43  1  0.13777403  0.24736606  0.43709846  1
  Nd3+  Nd44  1  0.87290476  0.75309578  0.94154708  1
  Nd3+  Nd45  1  0.37604632  0.75362989  0.94379056  1
  Nd3+  Nd46  1  0.13287683  0.49100515  0.42323817  1
  Nd3+  Nd47  1  0.63375416  -0.00101462  0.43704461  1
  Nd3+  Nd48  1  0.62654563  0.50258443  0.94904438  1
  Nd3+  Nd49  1  0.75310938  0.12449901  0.56222579  1
  Nd3+  Nd50  1  0.25656704  0.87030773  0.56129337  1
  Sm3+  Sm51  1  0.87105617  0.00333123  0.93527068  1
  Sm3+  Sm52  1  0.88472263  0.24734205  0.44977542  1
  Sm3+  Sm53  1  0.75450818  0.37263786  0.56045734  1
  Sm3+  Sm54  1  0.50888647  0.61666356  0.55513403  1
  Sm3+  Sm55  1  0.12130999  0.50450009  0.94043228  1
  Sm3+  Sm56  1  0.50699606  0.87632601  0.56083279  1
  Sm3+  Sm57  1  0.00571608  0.87142156  0.55470503  1
  Sm3+  Sm58  1  0.74518631  0.37486082  0.06603399  1
  Sm3+  Sm59  1  0.87340604  0.50502412  0.95015687  1
  Sm3+  Sm60  1  0.87320785  0.25421422  0.93672554  1
  Sm3+  Sm61  1  0.38410852  0.24974294  0.45087380  1
  Sm3+  Sm62  1  0.50377100  0.11802059  0.56965494  1
  Sm3+  Sm63  1  0.38533899  -0.00153205  0.44578130  1
  Bi2+  Bi64  1  0.02810740  0.13702257  0.29650805  1
  Bi2+  Bi65  1  -0.04549315  0.12596172  0.79822408  1
  Bi2+  Bi66  1  0.02149412  0.41396584  0.28194323  1
  Bi2+  Bi67  1  -0.00558032  0.31110662  0.82740226  1
  Bi2+  Bi68  1  -0.04669035  0.60205865  0.26676367  1
  Bi2+  Bi69  1  -0.05119922  0.58440286  0.76741768  1
  Bi2+  Bi70  1  -0.00556745  0.87953580  0.24552898  1
  Bi2+  Bi71  1  -0.05292432  0.85895645  0.77613977  1
  Bi2+  Bi72  1  0.22405567  0.16969638  0.28865723  1
  Bi2+  Bi73  1  0.24580262  0.09825775  0.79558672  1
  Bi2+  Bi74  1  0.26088431  0.37034283  0.29608145  1
  Bi2+  Bi75  1  0.25652434  0.34917486  0.77166617  1
  Bi2+  Bi76  1  0.20926225  0.61954893  0.28502133  1
  Bi2+  Bi77  1  0.24691893  0.61689454  0.78479210  1
  Bi2+  Bi78  1  0.21330408  0.89679378  0.29276500  1
  Bi2+  Bi79  1  0.24221782  0.82888733  0.78677358  1
  Bi2+  Bi80  1  0.47340261  0.21469829  0.27856063  1
  Bi2+  Bi81  1  0.52042225  0.09079093  0.78829567  1
  Bi2+  Bi82  1  0.52003011  0.41440168  0.28061398  1
  Bi2+  Bi83  1  0.51339433  0.39830944  0.81180517  1
  Bi2+  Bi84  1  0.45862622  0.60667146  0.29580513  1
  Bi2+  Bi85  1  0.52094294  0.61863048  0.73807373  1
  Bi2+  Bi86  1  0.46807479  0.90676693  0.29219881  1
  Bi2+  Bi87  1  0.50502187  0.84272514  0.76232764  1
  Bi2+  Bi88  1  0.75873494  0.12208176  0.31176151  1
  Bi2+  Bi89  1  0.76075669  0.12129848  0.79213041  1
  Bi2+  Bi90  1  0.71300151  0.35396284  0.30259075  1
  Bi2+  Bi91  1  0.82222921  0.37815378  0.78593277  1
  Bi2+  Bi92  1  0.75529492  0.58436759  0.28319106  1
  Bi2+  Bi93  1  0.73532507  0.64131795  0.82087207  1
  Bi2+  Bi94  1  0.76526843  0.88927161  0.30032464  1
  Bi2+  Bi95  1  0.69324489  0.86889623  0.80187675  1
  Bi2+  Bi96  1  0.19004074  0.03100509  0.19468469  1
  Bi2+  Bi97  1  0.06293441  -0.01027494  0.71652865  1
  Bi2+  Bi98  1  0.10212591  0.24525314  0.20727115  1
  Bi2+  Bi99  1  0.11919537  0.25520584  0.70750216  1
  Bi2+  Bi100  1  0.15483880  0.51637506  0.19592671  1
  Bi2+  Bi101  1  0.09107937  0.45201707  0.76756498  1
  Bi2+  Bi102  1  0.11905516  0.76234797  0.18405598  1
  Bi2+  Bi103  1  0.11488950  0.72956638  0.69870194  1
  Bi2+  Bi104  1  0.37636761  0.05436638  0.23817088  1
  Bi2+  Bi105  1  0.38485001  -0.02904334  0.70684794  1
  Bi2+  Bi106  1  0.34039039  0.26372036  0.19503684  1
  Bi2+  Bi107  1  0.38430429  0.24445723  0.71266809  1
  Bi2+  Bi108  1  0.42114422  0.51337147  0.20324135  1
  Bi2+  Bi109  1  0.33258649  0.54495921  0.69128709  1
  Bi2+  Bi110  1  0.34555303  0.75837908  0.26417308  1
  Bi2+  Bi111  1  0.37198635  0.73819252  0.70066381  1
  Bi2+  Bi112  1  0.64536872  -0.00656648  0.20095761  1
  Bi2+  Bi113  1  0.64400498  0.00473405  0.71346387  1
  Bi2+  Bi114  1  0.61952098  0.25040318  0.20038477  1
  Bi2+  Bi115  1  0.64776260  0.25679123  0.71347779  1
  Bi2+  Bi116  1  0.67703902  0.45590056  0.20342958  1
  Bi2+  Bi117  1  0.69611181  0.51579181  0.74068097  1
  Bi2+  Bi118  1  0.60662560  0.74873513  0.20323452  1
  Bi2+  Bi119  1  0.64721239  0.75672673  0.69883354  1
  Bi2+  Bi120  1  0.91499400  0.05187139  0.21664145  1
  Bi2+  Bi121  1  0.86398252  -0.00253559  0.71463490  1
  Bi2+  Bi122  1  0.89094661  0.25656819  0.24565617  1
  Bi2+  Bi123  1  0.91927735  0.25001208  0.70774588  1
  Bi2+  Bi124  1  0.87655281  0.44741931  0.20472374  1
  Bi2+  Bi125  1  0.93212415  0.43866672  0.68973554  1
  Bi2+  Bi126  1  0.87066035  0.74634064  0.20159395  1
  Bi2+  Bi127  1  0.84124201  0.72935126  0.71082295  1
  S2-  S128  1  0.05261628  0.11042092  0.14220950  1
  S2-  S129  1  0.10548434  0.11264958  0.64324527  1
  S2-  S130  1  0.09548158  0.37459118  0.14042288  1
  S2-  S131  1  0.13066531  0.37375613  0.63723237  1
  S2-  S132  1  0.02358147  0.61845632  0.15828741  1
  S2-  S133  1  -0.01740065  0.65371946  0.66397056  1
  S2-  S134  1  -0.01724212  0.86024092  0.14344548  1
  S2-  S135  1  0.03661403  0.86726136  0.65091726  1
  S2-  S136  1  0.34002194  0.11659952  0.13887450  1
  S2-  S137  1  0.31945139  0.10541186  0.66744549  1
  S2-  S138  1  0.29617092  0.42555864  0.15809254  1
  S2-  S139  1  0.34785545  0.38144570  0.64790687  1
  S2-  S140  1  0.24095130  0.65613667  0.15889344  1
  S2-  S141  1  0.17925090  0.60668757  0.64856207  1
  S2-  S142  1  0.24119034  0.88420930  0.15876708  1
  S2-  S143  1  0.26479086  0.86302814  0.65986161  1
  S2-  S144  1  0.59078761  0.10638759  0.14290130  1
  S2-  S145  1  0.51673144  0.20830136  0.65231791  1
  S2-  S146  1  0.48318115  0.28694123  0.13581781  1
  S2-  S147  1  0.51306261  0.36576892  0.71985813  1
  S2-  S148  1  0.48875581  0.65326526  0.15831438  1
  S2-  S149  1  0.50604997  0.54709533  0.64435893  1
  S2-  S150  1  0.52258501  0.88917609  0.16471454  1
  S2-  S151  1  0.51458126  0.98129221  0.63916450  1
  S2-  S152  1  0.79224766  0.02990253  0.14707309  1
  S2-  S153  1  0.72409685  0.12766384  0.65941191  1
  S2-  S154  1  0.75070891  0.26566606  0.14121866  1
  S2-  S155  1  0.68593859  0.37244440  0.64988375  1
  S2-  S156  1  0.74118917  0.64722257  0.16841695  1
  S2-  S157  1  0.74610321  0.60528426  0.66050596  1
  S2-  S158  1  0.73851072  0.84795357  0.17488900  1
  S2-  S159  1  0.77301497  0.87013925  0.65662996  1
  S2-  S160  1  0.10750624  -0.00487912  0.34108810  1
  S2-  S161  1  0.09168704  0.03940798  0.82602066  1
  S2-  S162  1  0.12550293  0.34904941  0.35732116  1
  S2-  S163  1  0.21482925  0.24184274  0.84973646  1
  S2-  S164  1  -0.00278372  0.52499205  0.36014572  1
  S2-  S165  1  0.12998899  0.59335081  0.85753167  1
  S2-  S166  1  0.15171397  0.75128815  0.34088027  1
  S2-  S167  1  0.09002562  0.80697693  0.82436989  1
  S2-  S168  1  0.36372879  -0.00992436  0.34895253  1
  S2-  S169  1  0.27050207  -0.04109280  0.85128092  1
  S2-  S170  1  0.34693829  0.24978737  0.35461284  1
  S2-  S171  1  0.38091174  0.13181989  0.84564796  1
  S2-  S172  1  0.27321255  0.50502944  0.35611629  1
  S2-  S173  1  0.35948547  0.40932553  0.85233499  1
  S2-  S174  1  0.44728131  0.75933401  0.35544617  1
  S2-  S175  1  0.33170175  0.72002470  0.85078882  1
  S2-  S176  1  0.64304857  0.00216515  0.33778600  1
  S2-  S177  1  0.52158516  -0.01814484  0.85800537  1
  S2-  S178  1  0.61795614  0.21355654  0.34244793  1
  S2-  S179  1  0.55321866  0.24751095  0.83802159  1
  S2-  S180  1  0.61708566  0.60073026  0.34319453  1
  S2-  S181  1  0.63888814  0.50367503  0.85101401  1
  S2-  S182  1  0.62191754  0.80664243  0.29637148  1
  S2-  S183  1  0.59820038  0.74649170  0.84755645  1
  S2-  S184  1  0.86559425  0.00509097  0.34816396  1
  S2-  S185  1  0.75321277  0.00207886  0.86290115  1
  S2-  S186  1  0.86017171  0.24811983  0.35299541  1
  S2-  S187  1  0.76728561  0.26218483  0.85938781  1
  S2-  S188  1  0.77645932  0.47734324  0.35998766  1
  S2-  S189  1  0.86885227  0.53947602  0.85391908  1
  S2-  S190  1  0.80151768  0.75435963  0.35427257  1
  S2-  S191  1  0.83400527  0.78350564  0.84745003  1
  S2-  S192  1  0.00854952  0.12292369  0.45523069  1
  S2-  S193  1  -0.00392586  0.12644613  0.94419748  1
  S2-  S194  1  0.00444542  0.36998625  0.45985571  1
  S2-  S195  1  -0.00338121  0.38258427  0.95543841  1
  S2-  S196  1  0.00498730  0.62843526  0.45942729  1
  S2-  S197  1  -0.00317765  0.62958914  0.95494500  1
  S2-  S198  1  0.00675742  0.87325408  0.44986842  1
  S2-  S199  1  -0.00172314  0.87820027  0.94009281  1
  S2-  S200  1  0.26093863  0.12198270  0.45755564  1
  S2-  S201  1  0.24626546  0.12742118  0.95049183  1
  S2-  S202  1  0.25999315  0.37085229  0.45836479  1
  S2-  S203  1  0.23981613  0.38249373  0.95497312  1
  S2-  S204  1  0.26013095  0.62727361  0.45378820  1
  S2-  S205  1  0.25044376  0.62556734  0.95739787  1
  S2-  S206  1  0.26119794  0.87274346  0.45449141  1
  S2-  S207  1  0.24588032  0.86678116  0.95295519  1
  S2-  S208  1  0.50554023  0.12168729  0.45684329  1
  S2-  S209  1  0.50338962  0.13441113  0.95628448  1
  S2-  S210  1  0.50552215  0.37393666  0.43738764  1
  S2-  S211  1  0.50065785  0.37865486  0.94978204  1
  S2-  S212  1  0.50966865  0.62389284  0.45237302  1
  S2-  S213  1  0.50028875  0.62690185  0.95314394  1
  S2-  S214  1  0.51095993  0.87551893  0.45656170  1
  S2-  S215  1  0.49898877  0.87518740  0.95877642  1
  S2-  S216  1  0.75881344  0.12356578  0.45692972  1
  S2-  S217  1  0.75502130  0.13068285  0.96120239  1
  S2-  S218  1  0.76085451  0.36849669  0.45906380  1
  S2-  S219  1  0.75334143  0.38204434  0.96170034  1
  S2-  S220  1  0.75356110  0.62684070  0.45479380  1
  S2-  S221  1  0.75006202  0.62805881  0.96252340  1
  S2-  S222  1  0.75241320  0.87342951  0.45384763  1
  S2-  S223  1  0.75223059  0.87837098  0.96395378  1
  S2-  S224  1  0.12126131  0.00243847  0.03340182  1
  S2-  S225  1  0.13150960  -0.00832594  0.54461965  1
  S2-  S226  1  0.11833304  0.25160672  0.03805164  1
  S2-  S227  1  0.13042843  0.24437175  0.54087200  1
  S2-  S228  1  0.11893683  0.50780819  0.04352126  1
  S2-  S229  1  0.13141621  0.49937765  0.53530439  1
  S2-  S230  1  0.12184989  0.75104468  0.03984021  1
  S2-  S231  1  0.13200050  0.74894879  0.54566559  1
  S2-  S232  1  0.37272710  0.00323473  0.03783287  1
  S2-  S233  1  0.37789832  -0.00288576  0.54803959  1
  S2-  S234  1  0.36283482  0.25789205  0.03228309  1
  S2-  S235  1  0.37984603  0.23996943  0.55171724  1
  S2-  S236  1  0.37043806  0.50480152  0.04385852  1
  S2-  S237  1  0.38468648  0.49638800  0.53978990  1
  S2-  S238  1  0.37237896  0.75449749  0.05073516  1
  S2-  S239  1  0.38673056  0.74704408  0.55223870  1
  S2-  S240  1  0.62220634  0.00441694  0.04266134  1
  S2-  S241  1  0.63327681  -0.00112968  0.54330673  1
  S2-  S242  1  0.62088034  0.26020958  0.03771753  1
  S2-  S243  1  0.62934568  0.24797883  0.54690712  1
  S2-  S244  1  0.62236293  0.50044772  0.05509308  1
  S2-  S245  1  0.63132416  0.49337886  0.54007839  1
  S2-  S246  1  0.62386421  0.75655362  0.05338535  1
  S2-  S247  1  0.62544522  0.74870605  0.55550558  1
  S2-  S248  1  0.87736434  0.00272079  0.03795169  1
  S2-  S249  1  0.88068518  -0.00338053  0.55222922  1
  S2-  S250  1  0.87527781  0.25485128  0.04201207  1
  S2-  S251  1  0.88145701  0.24886997  0.55507536  1
  S2-  S252  1  0.87099600  0.50278618  0.05513747  1
  S2-  S253  1  0.88107137  0.49693741  0.54940834  1
  S2-  S254  1  0.87029104  0.75469122  0.04859395  1
  S2-  S255  1  0.88156428  0.74763294  0.54884775  1
