# generated using pymatgen
data_La6Ce6Pr19Nd20Sm13(BiS2)64
_symmetry_space_group_name_H-M   'P 1'
_cell_length_a   16.17092738
_cell_length_b   16.17533907
_cell_length_c   27.17512055
_cell_angle_alpha   90.12368904
_cell_angle_beta   89.99761899
_cell_angle_gamma   89.95271503
_symmetry_Int_Tables_number   1
_chemical_formula_structural   La6Ce6Pr19Nd20Sm13(BiS2)64
_chemical_formula_sum   'La6 Ce6 Pr19 Nd20 Sm13 Bi64 S128'
_cell_volume   7108.18363346
_cell_formula_units_Z   1
loop_
 _symmetry_equiv_pos_site_id
 _symmetry_equiv_pos_as_xyz
  1  'x, y, z'
loop_
 _atom_type_symbol
 _atom_type_oxidation_number
  La3+  3.0
  Ce3+  3.0
  Pr3+  3.0
  Nd3+  3.0
  Sm3+  3.0
  Bi2+  2.0
  S2-  -2.0
loop_
 _atom_site_type_symbol
 _atom_site_label
 _atom_site_symmetry_multiplicity
 _atom_site_fract_x
 _atom_site_fract_y
 _atom_site_fract_z
 _atom_site_occupancy
  La3+  La0  1  0.14443202  0.00428282  0.88362065  1
  La3+  La1  1  0.37727351  0.01392712  0.39065819  1
  La3+  La2  1  0.36447637  0.51389644  0.91793885  1
  La3+  La3  1  0.11247147  0.48056743  0.40135190  1
  La3+  La4  1  0.62741214  0.51117318  0.90718530  1
  La3+  La5  1  0.38034450  0.74404763  0.40794098  1
  Ce3+  Ce6  1  0.37350019  -0.00088488  0.94744441  1
  Ce3+  Ce7  1  0.24999393  0.37887195  0.05380260  1
  Ce3+  Ce8  1  0.62478792  0.25053856  0.93379694  1
  Ce3+  Ce9  1  -0.00234760  0.87290939  0.55298155  1
  Ce3+  Ce10  1  0.62504573  -0.00224019  0.94579202  1
  Ce3+  Ce11  1  0.12236885  0.24882201  0.94043716  1
  Pr3+  Pr12  1  0.00148428  0.12345603  0.05829141  1
  Pr3+  Pr13  1  0.24707424  0.37284916  0.55876143  1
  Pr3+  Pr14  1  0.74681485  0.37160152  0.56877155  1
  Pr3+  Pr15  1  0.74971390  0.62300547  0.06413287  1
  Pr3+  Pr16  1  0.74484489  0.62415361  0.56347981  1
  Pr3+  Pr17  1  0.48097549  0.63327886  0.57098974  1
  Pr3+  Pr18  1  0.87837679  -0.00478860  0.93288472  1
  Pr3+  Pr19  1  0.49747963  0.87302369  0.06137114  1
  Pr3+  Pr20  1  0.25198062  0.61477307  0.07898507  1
  Pr3+  Pr21  1  0.87333510  -0.00248994  0.42685742  1
  Pr3+  Pr22  1  0.87636995  0.49876797  0.93666601  1
  Pr3+  Pr23  1  0.74545356  0.37567658  0.06015710  1
  Pr3+  Pr24  1  0.12295600  0.24383115  0.44516748  1
  Pr3+  Pr25  1  0.12589723  0.75596029  0.94843721  1
  Pr3+  Pr26  1  0.87007883  0.74397600  0.43163772  1
  Pr3+  Pr27  1  0.37166880  0.25169036  0.93093237  1
  Pr3+  Pr28  1  0.24752169  0.11628938  0.56573496  1
  Pr3+  Pr29  1  -0.00015921  0.62347072  0.55485502  1
  Pr3+  Pr30  1  0.24963298  0.12892246  0.06317405  1
  Nd3+  Nd31  1  0.12166132  -0.00413904  0.42942671  1
  Nd3+  Nd32  1  0.11685824  0.74345545  0.42264610  1
  Nd3+  Nd33  1  0.24749413  0.88010486  0.07486781  1
  Nd3+  Nd34  1  0.74819594  0.87496507  0.06343088  1
  Nd3+  Nd35  1  -0.00938456  0.37338091  0.07537445  1
  Nd3+  Nd36  1  0.74917295  0.12356059  0.05528781  1
  Nd3+  Nd37  1  0.37221114  0.74812515  0.95055474  1
  Nd3+  Nd38  1  0.61956921  0.49555095  0.45008340  1
  Nd3+  Nd39  1  -0.00203385  0.37306309  0.56548978  1
  Nd3+  Nd40  1  0.12145269  0.50079533  0.94296331  1
  Nd3+  Nd41  1  0.37452427  0.49626939  0.43430558  1
  Nd3+  Nd42  1  0.87188916  0.49397713  0.44227188  1
  Nd3+  Nd43  1  0.87555150  0.25083861  0.94042921  1
  Nd3+  Nd44  1  0.24985805  0.87371991  0.54186025  1
  Nd3+  Nd45  1  0.49942796  0.37825303  0.04487361  1
  Nd3+  Nd46  1  0.74760047  0.87409287  0.55342818  1
  Nd3+  Nd47  1  0.62164777  0.74593681  0.43840676  1
  Nd3+  Nd48  1  0.49245038  0.87296491  0.54842289  1
  Nd3+  Nd49  1  0.00126214  0.87647468  0.06740789  1
  Nd3+  Nd50  1  0.49475719  0.37621286  0.57166443  1
  Sm3+  Sm51  1  0.49879180  0.12750638  0.05459778  1
  Sm3+  Sm52  1  0.62508067  0.74758054  0.94705043  1
  Sm3+  Sm53  1  0.49562103  0.12029061  0.56116346  1
  Sm3+  Sm54  1  0.00239649  0.62507641  0.06135316  1
  Sm3+  Sm55  1  -0.00423500  0.11935750  0.55887620  1
  Sm3+  Sm56  1  0.87059704  0.24680068  0.44793454  1
  Sm3+  Sm57  1  0.62071651  -0.00024053  0.44209718  1
  Sm3+  Sm58  1  0.74637244  0.12100842  0.56009213  1
  Sm3+  Sm59  1  0.37240696  0.24603319  0.44718491  1
  Sm3+  Sm60  1  0.24612078  0.62231621  0.54338622  1
  Sm3+  Sm61  1  0.87437681  0.74951577  0.95340708  1
  Sm3+  Sm62  1  0.62092418  0.24782287  0.45142728  1
  Sm3+  Sm63  1  0.49809063  0.62179437  0.06163268  1
  Bi2+  Bi64  1  -0.06076201  0.13151224  0.29017204  1
  Bi2+  Bi65  1  -0.04762703  0.11902832  0.77196617  1
  Bi2+  Bi66  1  -0.00757530  0.34949894  0.28976707  1
  Bi2+  Bi67  1  0.01099678  0.40710421  0.84347691  1
  Bi2+  Bi68  1  -0.06326070  0.61172295  0.28156645  1
  Bi2+  Bi69  1  0.01519727  0.60064421  0.80616622  1
  Bi2+  Bi70  1  -0.04802819  0.87566317  0.29102213  1
  Bi2+  Bi71  1  -0.03004591  0.86073376  0.78363512  1
  Bi2+  Bi72  1  0.23495946  0.16407874  0.28615328  1
  Bi2+  Bi73  1  0.28627112  0.12501666  0.78435026  1
  Bi2+  Bi74  1  0.27812615  0.36687363  0.28452718  1
  Bi2+  Bi75  1  0.21294562  0.41698140  0.79091968  1
  Bi2+  Bi76  1  0.28215445  0.64068334  0.28453996  1
  Bi2+  Bi77  1  0.22917251  0.65626531  0.77806211  1
  Bi2+  Bi78  1  0.23662467  0.89158292  0.28018917  1
  Bi2+  Bi79  1  0.26458039  0.85975999  0.79198021  1
  Bi2+  Bi80  1  0.49997185  0.19921761  0.28230930  1
  Bi2+  Bi81  1  0.51001556  0.08704387  0.75103785  1
  Bi2+  Bi82  1  0.47123696  0.38767482  0.30784018  1
  Bi2+  Bi83  1  0.49138528  0.34354015  0.78548685  1
  Bi2+  Bi84  1  0.57350259  0.62890069  0.28328098  1
  Bi2+  Bi85  1  0.48864502  0.63343899  0.79090013  1
  Bi2+  Bi86  1  0.57371607  0.89701860  0.28739493  1
  Bi2+  Bi87  1  0.47358904  0.88972454  0.77761368  1
  Bi2+  Bi88  1  0.75998771  0.05698125  0.31856532  1
  Bi2+  Bi89  1  0.75376847  0.09066143  0.79691106  1
  Bi2+  Bi90  1  0.70978375  0.37935399  0.29983514  1
  Bi2+  Bi91  1  0.83333552  0.36602472  0.79319981  1
  Bi2+  Bi92  1  0.75714905  0.65771035  0.32190027  1
  Bi2+  Bi93  1  0.82589310  0.63603149  0.79621046  1
  Bi2+  Bi94  1  0.76267736  0.85597716  0.32558139  1
  Bi2+  Bi95  1  0.74748396  0.90192603  0.81639286  1
  Bi2+  Bi96  1  0.08829706  0.05335194  0.20852038  1
  Bi2+  Bi97  1  0.11538052  0.01090044  0.68251402  1
  Bi2+  Bi98  1  0.13687374  0.26165344  0.20893672  1
  Bi2+  Bi99  1  0.09027298  0.27410666  0.77398520  1
  Bi2+  Bi100  1  0.13585152  0.51884672  0.20319385  1
  Bi2+  Bi101  1  0.12237928  0.53643000  0.71054112  1
  Bi2+  Bi102  1  0.10634693  0.76310260  0.20266113  1
  Bi2+  Bi103  1  0.07795580  0.73540963  0.71923154  1
  Bi2+  Bi104  1  0.38762083  0.00533536  0.18951300  1
  Bi2+  Bi105  1  0.38047619  -0.03533730  0.68181824  1
  Bi2+  Bi106  1  0.34792187  0.24145605  0.20126549  1
  Bi2+  Bi107  1  0.33594904  0.25588708  0.69807275  1
  Bi2+  Bi108  1  0.40118313  0.44856252  0.20572850  1
  Bi2+  Bi109  1  0.38591497  0.50198755  0.68925744  1
  Bi2+  Bi110  1  0.40741922  0.75878381  0.20156323  1
  Bi2+  Bi111  1  0.36609416  0.74727372  0.71208569  1
  Bi2+  Bi112  1  0.64485478  0.04924360  0.22407448  1
  Bi2+  Bi113  1  0.63247870  -0.03971847  0.71204296  1
  Bi2+  Bi114  1  0.65197581  0.25023617  0.21563341  1
  Bi2+  Bi115  1  0.68187460  0.23837473  0.73406380  1
  Bi2+  Bi116  1  0.61818129  0.46835098  0.20851190  1
  Bi2+  Bi117  1  0.66209188  0.51055275  0.71619959  1
  Bi2+  Bi118  1  0.65948120  0.75007506  0.21252080  1
  Bi2+  Bi119  1  0.63056092  0.76597129  0.76611662  1
  Bi2+  Bi120  1  0.84120881  0.00948674  0.21418318  1
  Bi2+  Bi121  1  0.85738066  -0.04045127  0.71103158  1
  Bi2+  Bi122  1  0.84517298  0.27351374  0.22288218  1
  Bi2+  Bi123  1  0.87178170  0.24190843  0.69456204  1
  Bi2+  Bi124  1  0.81376990  0.49101323  0.22384889  1
  Bi2+  Bi125  1  0.92077042  0.49142967  0.72040640  1
  Bi2+  Bi126  1  0.85406639  0.75593396  0.22081104  1
  Bi2+  Bi127  1  0.83005908  0.75784770  0.71000912  1
  S2-  S128  1  0.00852179  0.16525920  0.15730616  1
  S2-  S129  1  -0.00527087  0.13174161  0.65721369  1
  S2-  S130  1  0.04952028  0.39898792  0.16942951  1
  S2-  S131  1  -0.01793832  0.36238136  0.66446711  1
  S2-  S132  1  0.02154378  0.63345395  0.15917962  1
  S2-  S133  1  -0.00506831  0.62411270  0.65546227  1
  S2-  S134  1  0.03201429  0.89257583  0.16622279  1
  S2-  S135  1  -0.00603069  0.90196579  0.64930942  1
  S2-  S136  1  0.23085840  0.05744830  0.15480493  1
  S2-  S137  1  0.22540895  0.14965660  0.66510971  1
  S2-  S138  1  0.26125222  0.46355759  0.13939884  1
  S2-  S139  1  0.25694455  0.38691873  0.65923120  1
  S2-  S140  1  0.23866713  0.65878488  0.17854944  1
  S2-  S141  1  0.32489113  0.63346246  0.63119772  1
  S2-  S142  1  0.26367020  0.85629825  0.17477607  1
  S2-  S143  1  0.23910684  0.91043604  0.64090313  1
  S2-  S144  1  0.47148018  0.13712249  0.15120828  1
  S2-  S145  1  0.46063036  0.12386402  0.65819231  1
  S2-  S146  1  0.52130724  0.37673220  0.14442735  1
  S2-  S147  1  0.47533859  0.35785250  0.67149165  1
  S2-  S148  1  0.46192815  0.62656979  0.15832543  1
  S2-  S149  1  0.52537669  0.57119428  0.66319958  1
  S2-  S150  1  0.50328098  0.87887385  0.16209692  1
  S2-  S151  1  0.46883021  0.82379895  0.64233987  1
  S2-  S152  1  0.75743961  0.13150029  0.15422287  1
  S2-  S153  1  0.73849385  0.13581322  0.65719388  1
  S2-  S154  1  0.84636113  0.38066871  0.14223249  1
  S2-  S155  1  0.70797239  0.38079570  0.66666775  1
  S2-  S156  1  0.71859246  0.60701105  0.16217851  1
  S2-  S157  1  0.75181580  0.61373743  0.66360997  1
  S2-  S158  1  0.75835795  0.87470130  0.16209952  1
  S2-  S159  1  0.73034877  0.86102016  0.65167629  1
  S2-  S160  1  0.21495016  0.02139325  0.34622025  1
  S2-  S161  1  0.15983879  -0.00336328  0.77433770  1
  S2-  S162  1  0.10950403  0.31734266  0.35430447  1
  S2-  S163  1  0.14706733  0.17621464  0.85110517  1
  S2-  S164  1  0.17140041  0.51529768  0.30710231  1
  S2-  S165  1  0.20962808  0.54445881  0.86049977  1
  S2-  S166  1  0.17131784  0.75161367  0.32588907  1
  S2-  S167  1  0.14557307  0.83069144  0.85826394  1
  S2-  S168  1  0.38261096  -0.01625529  0.28299767  1
  S2-  S169  1  0.31981082  0.00174625  0.85539308  1
  S2-  S170  1  0.37355527  0.18089071  0.35630620  1
  S2-  S171  1  0.39212982  0.21534488  0.83175063  1
  S2-  S172  1  0.38330038  0.59177942  0.35271344  1
  S2-  S173  1  0.37327073  0.42800646  0.82621192  1
  S2-  S174  1  0.36138817  0.78916008  0.30549705  1
  S2-  S175  1  0.38350359  0.66961334  0.86137802  1
  S2-  S176  1  0.54893696  0.01465107  0.35382094  1
  S2-  S177  1  0.61824193  0.01196543  0.84897935  1
  S2-  S178  1  0.62003005  0.25564226  0.35353706  1
  S2-  S179  1  0.62576624  0.26915917  0.83619161  1
  S2-  S180  1  0.58804259  0.49070363  0.35201089  1
  S2-  S181  1  0.57553288  0.48012826  0.80917830  1
  S2-  S182  1  0.54284253  0.75419376  0.35042692  1
  S2-  S183  1  0.62136692  0.67623786  0.85754204  1
  S2-  S184  1  0.99946487  -0.00001936  0.35528902  1
  S2-  S185  1  0.97713887  -0.00308010  0.84958918  1
  S2-  S186  1  0.87637623  0.26277509  0.35067347  1
  S2-  S187  1  0.86392802  0.21180250  0.84296467  1
  S2-  S188  1  0.95412600  0.48381787  0.35389777  1
  S2-  S189  1  0.77781863  0.49963792  0.85282993  1
  S2-  S190  1  0.97753537  0.73749181  0.35235535  1
  S2-  S191  1  0.87715482  0.77582068  0.85633903  1
  S2-  S192  1  -0.00638644  0.12545271  0.45415069  1
  S2-  S193  1  -0.00158644  0.12453894  0.95225076  1
  S2-  S194  1  -0.00540739  0.36886486  0.46026862  1
  S2-  S195  1  -0.00216095  0.37310588  0.96544419  1
  S2-  S196  1  0.00028165  0.61381726  0.45024054  1
  S2-  S197  1  -0.00070827  0.62837368  0.95598270  1
  S2-  S198  1  -0.00394115  0.86932182  0.45041688  1
  S2-  S199  1  -0.00548083  0.87131588  0.96196426  1
  S2-  S200  1  0.24996335  0.12240054  0.45730671  1
  S2-  S201  1  0.24984095  0.12390783  0.95618440  1
  S2-  S202  1  0.24957280  0.37181002  0.45028686  1
  S2-  S203  1  0.24690324  0.37530206  0.94780764  1
  S2-  S204  1  0.23518677  0.61106829  0.44091442  1
  S2-  S205  1  0.24526482  0.62901966  0.96940927  1
  S2-  S206  1  0.24789494  0.86914420  0.43642130  1
  S2-  S207  1  0.25452186  0.87520368  0.96619530  1
  S2-  S208  1  0.49877709  0.12570383  0.45801546  1
  S2-  S209  1  0.49909694  0.12534833  0.94909321  1
  S2-  S210  1  0.49587954  0.36931622  0.46220367  1
  S2-  S211  1  0.49991396  0.37985160  0.93934575  1
  S2-  S212  1  0.49995213  0.62136958  0.45919928  1
  S2-  S213  1  0.50358707  0.62357871  0.95809061  1
  S2-  S214  1  0.49397022  0.87972897  0.44487470  1
  S2-  S215  1  0.50044732  0.86988556  0.95257492  1
  S2-  S216  1  0.74535972  0.12408762  0.45491654  1
  S2-  S217  1  0.75153881  0.12249057  0.94963592  1
  S2-  S218  1  0.74671491  0.37070937  0.45996833  1
  S2-  S219  1  0.74756409  0.37422680  0.95292658  1
  S2-  S220  1  0.74607704  0.61853341  0.45600925  1
  S2-  S221  1  0.75097193  0.62684973  0.95794355  1
  S2-  S222  1  0.74534231  0.87446716  0.44900618  1
  S2-  S223  1  0.74889879  0.87194520  0.95752942  1
  S2-  S224  1  0.12366617  -0.00118445  0.05313292  1
  S2-  S225  1  0.11955778  -0.00080950  0.53730090  1
  S2-  S226  1  0.12389590  0.25394352  0.04965031  1
  S2-  S227  1  0.11973947  0.24505331  0.55260354  1
  S2-  S228  1  0.11782248  0.49880733  0.04850461  1
  S2-  S229  1  0.12369313  0.49759863  0.55157917  1
  S2-  S230  1  0.12602365  0.75027771  0.05677300  1
  S2-  S231  1  0.12546562  0.74752882  0.53922947  1
  S2-  S232  1  0.37570593  0.00162901  0.05228197  1
  S2-  S233  1  0.37409319  -0.00067958  0.54467239  1
  S2-  S234  1  0.37571193  0.25176162  0.04053329  1
  S2-  S235  1  0.37323459  0.24614540  0.55190698  1
  S2-  S236  1  0.37750584  0.50113510  0.03671816  1
  S2-  S237  1  0.37221454  0.49574119  0.54072235  1
  S2-  S238  1  0.37214330  0.74761792  0.05636295  1
  S2-  S239  1  0.36677643  0.74876750  0.52546381  1
  S2-  S240  1  0.62221894  0.00089454  0.05344381  1
  S2-  S241  1  0.62056450  -0.00157594  0.54884259  1
  S2-  S242  1  0.62359801  0.24796209  0.04331714  1
  S2-  S243  1  0.61934231  0.24583383  0.55704225  1
  S2-  S244  1  0.62334014  0.50189323  0.04695013  1
  S2-  S245  1  0.61977154  0.49744348  0.55489131  1
  S2-  S246  1  0.62315280  0.74753603  0.05287743  1
  S2-  S247  1  0.62056763  0.74885159  0.54611867  1
  S2-  S248  1  0.87376755  -0.00182860  0.04796609  1
  S2-  S249  1  0.87017896  0.00010061  0.54169938  1
  S2-  S250  1  0.87208189  0.24684726  0.04658118  1
  S2-  S251  1  0.87175886  0.24496750  0.55233140  1
  S2-  S252  1  0.87706212  0.50407288  0.04525617  1
  S2-  S253  1  0.87177108  0.49719853  0.55091821  1
  S2-  S254  1  0.87582234  0.74944794  0.05887629  1
  S2-  S255  1  0.87090048  0.74740347  0.54317689  1
