# generated using pymatgen
data_La6Ce6Pr19Nd20Sm13(BiS2)64
_symmetry_space_group_name_H-M   'P 1'
_cell_length_a   16.08101851
_cell_length_b   16.08269818
_cell_length_c   27.47882544
_cell_angle_alpha   90.00430682
_cell_angle_beta   90.02718008
_cell_angle_gamma   90.06012803
_symmetry_Int_Tables_number   1
_chemical_formula_structural   La6Ce6Pr19Nd20Sm13(BiS2)64
_chemical_formula_sum   'La6 Ce6 Pr19 Nd20 Sm13 Bi64 S128'
_cell_volume   7106.73856640
_cell_formula_units_Z   1
loop_
 _symmetry_equiv_pos_site_id
 _symmetry_equiv_pos_as_xyz
  1  'x, y, z'
loop_
 _atom_type_symbol
 _atom_type_oxidation_number
  La3+  3.0
  Ce3+  3.0
  Pr3+  3.0
  Nd3+  3.0
  Sm3+  3.0
  Bi2+  2.0
  S2-  -2.0
loop_
 _atom_site_type_symbol
 _atom_site_label
 _atom_site_symmetry_multiplicity
 _atom_site_fract_x
 _atom_site_fract_y
 _atom_site_fract_z
 _atom_site_occupancy
  La3+  La0  1  0.86548647  0.50853913  0.38772425  1
  La3+  La1  1  -0.00264390  0.36851900  0.09640008  1
  La3+  La2  1  0.36759946  0.74860318  0.44128060  1
  La3+  La3  1  0.74076028  0.11046023  0.07260561  1
  La3+  La4  1  0.10969617  0.73767843  0.92723905  1
  La3+  La5  1  -0.01343861  0.61651793  0.06454426  1
  Ce3+  Ce6  1  0.11186799  -0.01476788  0.93912962  1
  Ce3+  Ce7  1  0.23864333  0.62279308  0.57033806  1
  Ce3+  Ce8  1  0.49186200  0.86309709  0.05533089  1
  Ce3+  Ce9  1  0.49245939  0.10683199  0.06609289  1
  Ce3+  Ce10  1  0.74567081  0.87572049  0.55897911  1
  Ce3+  Ce11  1  0.62302387  0.25089774  0.44111728  1
  Pr3+  Pr12  1  0.11765960  0.00177169  0.44649220  1
  Pr3+  Pr13  1  0.49573175  0.62258716  0.56529773  1
  Pr3+  Pr14  1  0.24382259  0.37002913  0.57142531  1
  Pr3+  Pr15  1  0.11965129  0.25008879  0.43343536  1
  Pr3+  Pr16  1  0.23639920  0.85870861  0.06969079  1
  Pr3+  Pr17  1  0.23600842  0.61183129  0.06859797  1
  Pr3+  Pr18  1  -0.00645497  0.13276749  0.57032587  1
  Pr3+  Pr19  1  0.24247182  0.35377318  0.06946064  1
  Pr3+  Pr20  1  0.11797616  0.50088001  0.43676470  1
  Pr3+  Pr21  1  0.61982842  -0.00003193  0.44128010  1
  Pr3+  Pr22  1  0.86436615  -0.01144141  0.93129561  1
  Pr3+  Pr23  1  0.36309776  0.23367501  0.94047010  1
  Pr3+  Pr24  1  0.36659702  0.25156927  0.43387140  1
  Pr3+  Pr25  1  0.74257876  0.36284681  0.05731000  1
  Pr3+  Pr26  1  0.11366325  0.23591138  0.94180291  1
  Pr3+  Pr27  1  0.61223969  0.73532185  0.92814352  1
  Pr3+  Pr28  1  0.74064868  0.61166846  0.05678621  1
  Pr3+  Pr29  1  0.61088621  -0.00776933  0.92668367  1
  Pr3+  Pr30  1  0.62092781  0.74609006  0.43831974  1
  Nd3+  Nd31  1  -0.01325620  0.11015978  0.06809623  1
  Nd3+  Nd32  1  0.86615105  0.23695021  0.94410012  1
  Nd3+  Nd33  1  0.23310011  0.10633884  0.07625543  1
  Nd3+  Nd34  1  0.87031927  0.00259588  0.43418283  1
  Nd3+  Nd35  1  0.61252808  0.48482293  0.93801171  1
  Nd3+  Nd36  1  0.87208310  0.24971045  0.41393542  1
  Nd3+  Nd37  1  -0.01430306  0.87646176  0.57091430  1
  Nd3+  Nd38  1  0.49694630  0.12101332  0.55797398  1
  Nd3+  Nd39  1  0.11478399  0.74701933  0.45019890  1
  Nd3+  Nd40  1  0.11461091  0.48664865  0.94146771  1
  Nd3+  Nd41  1  0.86618282  0.48583975  0.93349377  1
  Nd3+  Nd42  1  0.36871423  -0.00075141  0.45214089  1
  Nd3+  Nd43  1  0.85670562  0.73495190  0.92443669  1
  Nd3+  Nd44  1  0.74938662  0.12623270  0.56473026  1
  Nd3+  Nd45  1  0.24132740  0.12537426  0.57333615  1
  Nd3+  Nd46  1  0.49445199  0.36989177  0.56264098  1
  Nd3+  Nd47  1  0.87097346  0.74933270  0.43810686  1
  Nd3+  Nd48  1  -0.00611470  0.37474445  0.55276590  1
  Nd3+  Nd49  1  -0.01451621  0.62438117  0.57095710  1
  Nd3+  Nd50  1  0.62035459  0.49741114  0.43649863  1
  Sm3+  Sm51  1  0.73970674  0.86174024  0.05074047  1
  Sm3+  Sm52  1  0.36203451  0.73463426  0.95067768  1
  Sm3+  Sm53  1  -0.01438438  0.85909738  0.05695231  1
  Sm3+  Sm54  1  0.49239699  0.61103550  0.05567999  1
  Sm3+  Sm55  1  0.36458024  0.49833053  0.44501644  1
  Sm3+  Sm56  1  0.49479674  0.86547495  0.57119346  1
  Sm3+  Sm57  1  0.49019639  0.36051118  0.05414463  1
  Sm3+  Sm58  1  0.35666975  -0.01772720  0.93617614  1
  Sm3+  Sm59  1  0.61382277  0.23510463  0.94480143  1
  Sm3+  Sm60  1  0.74650498  0.62136430  0.55700462  1
  Sm3+  Sm61  1  0.24062756  0.87297362  0.56360819  1
  Sm3+  Sm62  1  0.74787270  0.37448225  0.55179303  1
  Sm3+  Sm63  1  0.36131357  0.48643898  0.95064910  1
  Bi2+  Bi64  1  -0.00109653  0.08185067  0.29018736  1
  Bi2+  Bi65  1  0.00591494  0.15037465  0.79610149  1
  Bi2+  Bi66  1  -0.00115794  0.36766371  0.29003610  1
  Bi2+  Bi67  1  0.00493695  0.36818106  0.80978891  1
  Bi2+  Bi68  1  0.00371603  0.64609064  0.28860384  1
  Bi2+  Bi69  1  0.01518699  0.62774848  0.79908825  1
  Bi2+  Bi70  1  -0.08537298  0.90597869  0.31449050  1
  Bi2+  Bi71  1  0.07791303  0.88505021  0.80761216  1
  Bi2+  Bi72  1  0.26970002  0.10241886  0.29446258  1
  Bi2+  Bi73  1  0.27750445  0.11678606  0.76380927  1
  Bi2+  Bi74  1  0.24664807  0.37975381  0.30070895  1
  Bi2+  Bi75  1  0.27839825  0.35406981  0.79454157  1
  Bi2+  Bi76  1  0.25403683  0.64332197  0.29761242  1
  Bi2+  Bi77  1  0.28635700  0.62214066  0.80525734  1
  Bi2+  Bi78  1  0.18636956  0.87234525  0.29308515  1
  Bi2+  Bi79  1  0.32383249  0.92572027  0.78252686  1
  Bi2+  Bi80  1  0.45262806  0.18694213  0.28581093  1
  Bi2+  Bi81  1  0.49180189  0.18458046  0.77607381  1
  Bi2+  Bi82  1  0.45201647  0.39076525  0.33666976  1
  Bi2+  Bi83  1  0.54730398  0.36882149  0.79959956  1
  Bi2+  Bi84  1  0.48085017  0.57993350  0.29776156  1
  Bi2+  Bi85  1  0.58680126  0.64469754  0.80378519  1
  Bi2+  Bi86  1  0.46635191  0.89226644  0.30103361  1
  Bi2+  Bi87  1  0.55538658  0.92181390  0.79262023  1
  Bi2+  Bi88  1  0.72887689  0.10552569  0.28570494  1
  Bi2+  Bi89  1  0.73615522  0.11766756  0.78778878  1
  Bi2+  Bi90  1  0.64047810  0.37390606  0.28932862  1
  Bi2+  Bi91  1  0.71279728  0.35453306  0.74136857  1
  Bi2+  Bi92  1  0.72791805  0.64705148  0.28800129  1
  Bi2+  Bi93  1  0.76130825  0.61893020  0.72976137  1
  Bi2+  Bi94  1  0.73407908  0.90617126  0.27763807  1
  Bi2+  Bi95  1  0.73953699  0.86042773  0.77989752  1
  Bi2+  Bi96  1  0.10915524  -0.02283381  0.20437903  1
  Bi2+  Bi97  1  0.16330115  -0.01326281  0.71143693  1
  Bi2+  Bi98  1  0.14992852  0.24747667  0.20384748  1
  Bi2+  Bi99  1  0.13354418  0.25996985  0.69697141  1
  Bi2+  Bi100  1  0.17344550  0.58466861  0.19976910  1
  Bi2+  Bi101  1  0.19572209  0.49636876  0.73310091  1
  Bi2+  Bi102  1  0.08398561  0.77240408  0.21225658  1
  Bi2+  Bi103  1  0.17229342  0.74374820  0.69890632  1
  Bi2+  Bi104  1  0.36430770  0.08751427  0.19632908  1
  Bi2+  Bi105  1  0.42815749  0.03492170  0.70669923  1
  Bi2+  Bi106  1  0.38050692  0.35580734  0.22658654  1
  Bi2+  Bi107  1  0.39694376  0.34416551  0.70243760  1
  Bi2+  Bi108  1  0.36502719  0.55377358  0.20333000  1
  Bi2+  Bi109  1  0.43327052  0.51981230  0.75276083  1
  Bi2+  Bi110  1  0.33914682  0.81241737  0.23147008  1
  Bi2+  Bi111  1  0.44827048  0.76881966  0.76294644  1
  Bi2+  Bi112  1  0.53752026  0.00952829  0.21810245  1
  Bi2+  Bi113  1  0.70819861  -0.01740589  0.68834334  1
  Bi2+  Bi114  1  0.59006018  0.24358709  0.20815253  1
  Bi2+  Bi115  1  0.65294836  0.17567419  0.68992904  1
  Bi2+  Bi116  1  0.57766830  0.50226702  0.20930186  1
  Bi2+  Bi117  1  0.58711118  0.57545626  0.68440108  1
  Bi2+  Bi118  1  0.52740331  0.75949252  0.22461765  1
  Bi2+  Bi119  1  0.63682663  0.77049121  0.69213629  1
  Bi2+  Bi120  1  0.90572639  -0.03340680  0.20330293  1
  Bi2+  Bi121  1  0.89265643  0.03805587  0.73566908  1
  Bi2+  Bi122  1  0.83260428  0.22213302  0.22076890  1
  Bi2+  Bi123  1  0.87418888  0.25017498  0.70344128  1
  Bi2+  Bi124  1  0.81778988  0.47533968  0.18679333  1
  Bi2+  Bi125  1  0.88343656  0.46156965  0.73926711  1
  Bi2+  Bi126  1  0.83241941  0.77237350  0.19705227  1
  Bi2+  Bi127  1  0.92468213  0.76014716  0.69667220  1
  S2-  S128  1  0.09462165  0.12494303  0.14835374  1
  S2-  S129  1  0.11491736  0.10652921  0.64721861  1
  S2-  S130  1  -0.03446645  0.30356507  0.19340644  1
  S2-  S131  1  -0.00317164  0.27994692  0.63762927  1
  S2-  S132  1  -0.03948974  0.51641242  0.14728388  1
  S2-  S133  1  0.04710535  0.64359123  0.66705261  1
  S2-  S134  1  -0.02835965  0.75092145  0.13474589  1
  S2-  S135  1  0.05136606  0.86541249  0.66551782  1
  S2-  S136  1  0.28117165  0.22837329  0.14626108  1
  S2-  S137  1  0.27319357  0.24767000  0.64522091  1
  S2-  S138  1  0.14961818  0.39031278  0.15216611  1
  S2-  S139  1  0.14860871  0.41929229  0.65534920  1
  S2-  S140  1  0.21821254  0.73030969  0.14269409  1
  S2-  S141  1  0.27225829  0.62656347  0.66712152  1
  S2-  S142  1  0.25629152  0.97353226  0.14576240  1
  S2-  S143  1  0.27193504  0.86809458  0.65914233  1
  S2-  S144  1  0.60874933  0.10659023  0.14219079  1
  S2-  S145  1  0.49449726  0.17853480  0.65038913  1
  S2-  S146  1  0.50785687  0.36640118  0.15084019  1
  S2-  S147  1  0.53223365  0.41266824  0.65526637  1
  S2-  S148  1  0.51995042  0.63060778  0.15078211  1
  S2-  S149  1  0.49062630  0.73603862  0.64193906  1
  S2-  S150  1  0.51291831  0.87953948  0.15120573  1
  S2-  S151  1  0.54350823  0.94470721  0.65483222  1
  S2-  S152  1  0.86458857  0.10785630  0.14420755  1
  S2-  S153  1  0.86493509  0.11105517  0.64112753  1
  S2-  S154  1  0.74129236  0.31949088  0.15468969  1
  S2-  S155  1  0.77837135  0.37325396  0.64911154  1
  S2-  S156  1  0.75407152  0.62609372  0.15630572  1
  S2-  S157  1  0.84189469  0.63656502  0.63933889  1
  S2-  S158  1  0.75683832  0.89095050  0.14715617  1
  S2-  S159  1  0.84560236  0.87007389  0.63887599  1
  S2-  S160  1  0.12796242  0.02023057  0.34702799  1
  S2-  S161  1  0.22161493  -0.04023668  0.86407110  1
  S2-  S162  1  0.02421512  0.24127990  0.34654487  1
  S2-  S163  1  0.12446401  0.26841827  0.84208641  1
  S2-  S164  1  0.03079810  0.51008653  0.34708737  1
  S2-  S165  1  0.10975191  0.50531865  0.84199863  1
  S2-  S166  1  0.12402920  0.73348071  0.35151964  1
  S2-  S167  1  0.15506412  0.72980805  0.82752260  1
  S2-  S168  1  0.36444727  -0.00594491  0.35399574  1
  S2-  S169  1  0.47174474  0.00014035  0.86294027  1
  S2-  S170  1  0.24682939  0.23851948  0.36035966  1
  S2-  S171  1  0.35416376  0.21259912  0.84163955  1
  S2-  S172  1  0.25419728  0.50833430  0.36707845  1
  S2-  S173  1  0.35652312  0.47671607  0.85378822  1
  S2-  S174  1  0.39198098  0.70038229  0.34679682  1
  S2-  S175  1  0.37253735  0.73854775  0.85361500  1
  S2-  S176  1  0.62895005  -0.00819398  0.34176744  1
  S2-  S177  1  0.74425687  -0.00562014  0.85529494  1
  S2-  S178  1  0.67600121  0.23855892  0.34952962  1
  S2-  S179  1  0.61698996  0.20524469  0.84918703  1
  S2-  S180  1  0.69690888  0.51510606  0.34795436  1
  S2-  S181  1  0.64654647  0.49036672  0.84137946  1
  S2-  S182  1  0.63814958  0.74559603  0.33867170  1
  S2-  S183  1  0.72777486  0.73375212  0.85145493  1
  S2-  S184  1  0.86006783  0.10571263  0.35386839  1
  S2-  S185  1  0.99591913  -0.00235818  0.85876344  1
  S2-  S186  1  0.85898531  0.35757290  0.33453535  1
  S2-  S187  1  0.88986805  0.24929364  0.84455823  1
  S2-  S188  1  0.86969381  0.53755867  0.26715541  1
  S2-  S189  1  0.88708261  0.52814563  0.83794904  1
  S2-  S190  1  0.86787077  0.67929904  0.34795206  1
  S2-  S191  1  0.96226355  0.76146983  0.84585249  1
  S2-  S192  1  -0.00663086  0.12523382  0.45772830  1
  S2-  S193  1  -0.01155835  0.11487356  0.96031013  1
  S2-  S194  1  -0.00819903  0.37508519  0.44928391  1
  S2-  S195  1  -0.00968748  0.36343506  0.94823053  1
  S2-  S196  1  -0.00907664  0.62473712  0.45932290  1
  S2-  S197  1  -0.01218917  0.61092816  0.95167808  1
  S2-  S198  1  -0.00705343  0.87513427  0.45736560  1
  S2-  S199  1  -0.01505100  0.85916394  0.95516287  1
  S2-  S200  1  0.24654491  0.12141943  0.46477016  1
  S2-  S201  1  0.23896540  0.10996138  0.95944291  1
  S2-  S202  1  0.24562753  0.37559062  0.46325126  1
  S2-  S203  1  0.24066764  0.36195205  0.95818974  1
  S2-  S204  1  0.24350396  0.62682252  0.46420331  1
  S2-  S205  1  0.23977407  0.61148055  0.95860485  1
  S2-  S206  1  0.24218476  0.87400354  0.45719633  1
  S2-  S207  1  0.24047409  0.85472896  0.96274680  1
  S2-  S208  1  0.49331328  0.12593194  0.45065066  1
  S2-  S209  1  0.48931797  0.11465671  0.96072670  1
  S2-  S210  1  0.49406329  0.37576172  0.45707270  1
  S2-  S211  1  0.48792235  0.36108948  0.95006860  1
  S2-  S212  1  0.49412587  0.61986212  0.45723481  1
  S2-  S213  1  0.48724202  0.60914474  0.95140634  1
  S2-  S214  1  0.49553929  0.87258888  0.45979070  1
  S2-  S215  1  0.48714329  0.85702803  0.95142873  1
  S2-  S216  1  0.74379348  0.12401312  0.45836731  1
  S2-  S217  1  0.73967275  0.11658623  0.96013498  1
  S2-  S218  1  0.74697941  0.37595785  0.44856206  1
  S2-  S219  1  0.73781601  0.36053120  0.94926913  1
  S2-  S220  1  0.74693075  0.62190316  0.45434653  1
  S2-  S221  1  0.73780681  0.60674085  0.95071565  1
  S2-  S222  1  0.74523925  0.87419555  0.44973704  1
  S2-  S223  1  0.73527488  0.86247681  0.94912629  1
  S2-  S224  1  0.10897719  -0.01870238  0.04596483  1
  S2-  S225  1  0.11735011  -0.00679031  0.55078838  1
  S2-  S226  1  0.11049774  0.23956925  0.04746410  1
  S2-  S227  1  0.12313970  0.24879843  0.54002723  1
  S2-  S228  1  0.11438530  0.48729833  0.04558478  1
  S2-  S229  1  0.11429835  0.50403001  0.54564485  1
  S2-  S230  1  0.11191200  0.73626778  0.03669391  1
  S2-  S231  1  0.11471298  0.75145783  0.55443123  1
  S2-  S232  1  0.36689823  -0.01429173  0.04225030  1
  S2-  S233  1  0.36988871  -0.00483449  0.55700840  1
  S2-  S234  1  0.37219888  0.23392740  0.04496508  1
  S2-  S235  1  0.37336865  0.24630820  0.54084929  1
  S2-  S236  1  0.36560613  0.48659546  0.05484102  1
  S2-  S237  1  0.36910995  0.49781354  0.55231787  1
  S2-  S238  1  0.36940769  0.73370288  0.05360830  1
  S2-  S239  1  0.36399386  0.74926697  0.54756971  1
  S2-  S240  1  0.61683855  -0.01565742  0.03710436  1
  S2-  S241  1  0.62184742  -0.00052207  0.54636315  1
  S2-  S242  1  0.61445818  0.24007171  0.04670037  1
  S2-  S243  1  0.62215674  0.24935331  0.54693414  1
  S2-  S244  1  0.61319792  0.48576148  0.04479029  1
  S2-  S245  1  0.62203451  0.49790792  0.54327102  1
  S2-  S246  1  0.61536284  0.73581574  0.03940556  1
  S2-  S247  1  0.62425788  0.74740227  0.54445597  1
  S2-  S248  1  0.86492614  -0.01744870  0.03955181  1
  S2-  S249  1  0.86925461  -0.00026960  0.53842903  1
  S2-  S250  1  0.87300808  0.24560983  0.04865131  1
  S2-  S251  1  0.86553775  0.25147270  0.53720225  1
  S2-  S252  1  0.86584913  0.48492900  0.03986601  1
  S2-  S253  1  0.86858642  0.49664809  0.54825127  1
  S2-  S254  1  0.85854238  0.73856172  0.03266849  1
  S2-  S255  1  0.86743964  0.74931029  0.54023673  1
