# generated using pymatgen
data_La6Ce6Pr19Nd20Sm13(BiS2)64
_symmetry_space_group_name_H-M   'P 1'
_cell_length_a   16.12932632
_cell_length_b   16.08878238
_cell_length_c   27.23015338
_cell_angle_alpha   89.90143025
_cell_angle_beta   90.03062370
_cell_angle_gamma   89.88503243
_symmetry_Int_Tables_number   1
_chemical_formula_structural   La6Ce6Pr19Nd20Sm13(BiS2)64
_chemical_formula_sum   'La6 Ce6 Pr19 Nd20 Sm13 Bi64 S128'
_cell_volume   7066.23234831
_cell_formula_units_Z   1
loop_
 _symmetry_equiv_pos_site_id
 _symmetry_equiv_pos_as_xyz
  1  'x, y, z'
loop_
 _atom_type_symbol
 _atom_type_oxidation_number
  La3+  3.0
  Ce3+  3.0
  Pr3+  3.0
  Nd3+  3.0
  Sm3+  3.0
  Bi2+  2.0
  S2-  -2.0
loop_
 _atom_site_type_symbol
 _atom_site_label
 _atom_site_symmetry_multiplicity
 _atom_site_fract_x
 _atom_site_fract_y
 _atom_site_fract_z
 _atom_site_occupancy
  La3+  La0  1  0.38404053  -0.01632287  0.90100492  1
  La3+  La1  1  0.39091556  0.50438344  0.42710254  1
  La3+  La2  1  0.87291340  0.74277312  0.92826613  1
  La3+  La3  1  0.12941574  0.25204330  0.42038051  1
  La3+  La4  1  0.12532707  0.00317915  0.89813605  1
  La3+  La5  1  0.50909391  0.61402381  0.09844742  1
  Ce3+  Ce6  1  0.50623657  0.12993472  0.55561122  1
  Ce3+  Ce7  1  0.25104404  0.61887860  0.06161908  1
  Ce3+  Ce8  1  0.75366039  0.12102481  0.05802658  1
  Ce3+  Ce9  1  0.25744382  0.37958757  0.55950433  1
  Ce3+  Ce10  1  0.38737315  0.75283141  0.44220287  1
  Ce3+  Ce11  1  0.75287604  0.37262089  0.05953182  1
  Pr3+  Pr12  1  -0.00397625  0.87045545  0.06446877  1
  Pr3+  Pr13  1  0.87366803  0.49679869  0.93297446  1
  Pr3+  Pr14  1  0.12791695  0.75528116  0.94044668  1
  Pr3+  Pr15  1  0.50769943  0.38478840  0.57011165  1
  Pr3+  Pr16  1  0.25181769  0.87112393  0.06527776  1
  Pr3+  Pr17  1  0.38297155  -0.00023483  0.43637330  1
  Pr3+  Pr18  1  0.61855850  0.49642187  0.94510858  1
  Pr3+  Pr19  1  0.25742511  0.12982949  0.56152799  1
  Pr3+  Pr20  1  0.62109627  0.74557093  0.94636237  1
  Pr3+  Pr21  1  0.13165874  -0.00613886  0.44040946  1
  Pr3+  Pr22  1  0.88229592  0.76146695  0.42526261  1
  Pr3+  Pr23  1  0.37110116  0.24002031  0.94247663  1
  Pr3+  Pr24  1  0.12642105  0.49457329  0.93544313  1
  Pr3+  Pr25  1  0.50812846  0.87112587  0.07752712  1
  Pr3+  Pr26  1  0.51145383  0.62645498  0.55484197  1
  Pr3+  Pr27  1  0.87833310  0.24612220  0.93794736  1
  Pr3+  Pr28  1  0.49244263  0.37137640  0.07498555  1
  Pr3+  Pr29  1  0.63499657  0.00271894  0.43487779  1
  Pr3+  Pr30  1  0.76332637  0.38822077  0.57252882  1
  Nd3+  Nd31  1  0.49883412  0.11923192  0.06384276  1
  Nd3+  Nd32  1  0.75813446  0.13096961  0.55650658  1
  Nd3+  Nd33  1  0.01408607  0.38021355  0.56210158  1
  Nd3+  Nd34  1  0.36834213  0.49241748  0.93524306  1
  Nd3+  Nd35  1  0.63805832  0.75678327  0.40348740  1
  Nd3+  Nd36  1  0.13228836  0.75592036  0.44327237  1
  Nd3+  Nd37  1  0.24480310  0.37533081  0.07672266  1
  Nd3+  Nd38  1  0.88104181  0.50498230  0.43137587  1
  Nd3+  Nd39  1  0.00184378  0.37099688  0.06849066  1
  Nd3+  Nd40  1  0.25852431  0.87735285  0.57033362  1
  Nd3+  Nd41  1  0.62273027  0.24563478  0.95145450  1
  Nd3+  Nd42  1  0.75810647  0.63017787  0.55111033  1
  Nd3+  Nd43  1  0.37899671  0.25453014  0.42731261  1
  Nd3+  Nd44  1  0.00037850  0.87075349  0.57905225  1
  Nd3+  Nd45  1  0.75231218  0.86992046  0.06415781  1
  Nd3+  Nd46  1  0.75668061  0.87801628  0.56497739  1
  Nd3+  Nd47  1  0.62591619  -0.00550463  0.94217587  1
  Nd3+  Nd48  1  0.88525938  0.25422635  0.43758143  1
  Nd3+  Nd49  1  0.25158350  0.11094695  0.06798992  1
  Nd3+  Nd50  1  0.63156800  0.25271304  0.44012080  1
  Sm3+  Sm51  1  0.13847145  0.50336228  0.42883130  1
  Sm3+  Sm52  1  0.00764986  0.63027899  0.54779188  1
  Sm3+  Sm53  1  0.12907812  0.24163653  0.94787000  1
  Sm3+  Sm54  1  0.87857189  -0.00833443  0.93144490  1
  Sm3+  Sm55  1  0.50921563  0.87767832  0.55578680  1
  Sm3+  Sm56  1  0.63760786  0.49299140  0.42501073  1
  Sm3+  Sm57  1  0.00249332  0.11742626  0.05653814  1
  Sm3+  Sm58  1  0.88313584  -0.00154927  0.44674805  1
  Sm3+  Sm59  1  -0.00292530  0.62103535  0.05795524  1
  Sm3+  Sm60  1  0.75573900  0.61959730  0.06892269  1
  Sm3+  Sm61  1  0.37664850  0.75258960  0.95395514  1
  Sm3+  Sm62  1  0.25750390  0.62821990  0.55331368  1
  Sm3+  Sm63  1  0.00888148  0.12846738  0.56103877  1
  Bi2+  Bi64  1  -0.00834631  0.09407385  0.29393949  1
  Bi2+  Bi65  1  -0.04096054  0.14028821  0.76127553  1
  Bi2+  Bi66  1  -0.02270381  0.37825977  0.29283685  1
  Bi2+  Bi67  1  -0.00509166  0.40223406  0.83999281  1
  Bi2+  Bi68  1  0.00940523  0.59451019  0.30719251  1
  Bi2+  Bi69  1  0.07450232  0.57804507  0.80263542  1
  Bi2+  Bi70  1  0.00367764  0.79835481  0.29961711  1
  Bi2+  Bi71  1  0.00545237  0.89572273  0.78457047  1
  Bi2+  Bi72  1  0.20664502  0.16248470  0.26035434  1
  Bi2+  Bi73  1  0.26532273  0.13723504  0.78860589  1
  Bi2+  Bi74  1  0.25470341  0.38392543  0.29128246  1
  Bi2+  Bi75  1  0.25804193  0.38974600  0.79380760  1
  Bi2+  Bi76  1  0.17605822  0.67642481  0.26595242  1
  Bi2+  Bi77  1  0.27052547  0.64575807  0.75880652  1
  Bi2+  Bi78  1  0.21998961  0.94539684  0.29322665  1
  Bi2+  Bi79  1  0.25882513  0.85862709  0.78090237  1
  Bi2+  Bi80  1  0.60963404  0.09958837  0.31014753  1
  Bi2+  Bi81  1  0.51811295  0.17087288  0.78166433  1
  Bi2+  Bi82  1  0.52403542  0.37660688  0.28599966  1
  Bi2+  Bi83  1  0.51718821  0.40230460  0.80719704  1
  Bi2+  Bi84  1  0.42216061  0.62552013  0.29622527  1
  Bi2+  Bi85  1  0.45809330  0.58217273  0.77497603  1
  Bi2+  Bi86  1  0.47190599  0.87290931  0.30859054  1
  Bi2+  Bi87  1  0.51172512  0.84576991  0.79850923  1
  Bi2+  Bi88  1  0.80007651  0.12877760  0.31182089  1
  Bi2+  Bi89  1  0.69538040  0.07272125  0.78823299  1
  Bi2+  Bi90  1  0.78780187  0.33355865  0.30549578  1
  Bi2+  Bi91  1  0.78111936  0.34992134  0.80846063  1
  Bi2+  Bi92  1  0.81591052  0.59165041  0.27382948  1
  Bi2+  Bi93  1  0.72622331  0.62466782  0.79492291  1
  Bi2+  Bi94  1  0.78034113  0.87943432  0.28971926  1
  Bi2+  Bi95  1  0.74709411  0.88041170  0.79006816  1
  Bi2+  Bi96  1  0.06359727  -0.04144102  0.21467959  1
  Bi2+  Bi97  1  0.14561377  0.01908418  0.68500310  1
  Bi2+  Bi98  1  0.05066781  0.24992066  0.21004984  1
  Bi2+  Bi99  1  0.09967537  0.28237242  0.77118173  1
  Bi2+  Bi100  1  0.09677235  0.52368107  0.20846339  1
  Bi2+  Bi101  1  0.06895325  0.46645134  0.70933337  1
  Bi2+  Bi102  1  0.07269699  0.76438734  0.17504580  1
  Bi2+  Bi103  1  0.10027921  0.70604693  0.71065802  1
  Bi2+  Bi104  1  0.38285269  0.01228200  0.20882270  1
  Bi2+  Bi105  1  0.39655551  0.02497876  0.68792913  1
  Bi2+  Bi106  1  0.37856863  0.23426934  0.22221364  1
  Bi2+  Bi107  1  0.40216319  0.30863734  0.73098318  1
  Bi2+  Bi108  1  0.37289673  0.49642504  0.20677486  1
  Bi2+  Bi109  1  0.33822723  0.50571851  0.68844036  1
  Bi2+  Bi110  1  0.25259788  0.82366818  0.20184232  1
  Bi2+  Bi111  1  0.45835175  0.73926405  0.70747232  1
  Bi2+  Bi112  1  0.63048435  0.00689654  0.21120534  1
  Bi2+  Bi113  1  0.64360412  -0.04688856  0.69792846  1
  Bi2+  Bi114  1  0.67266171  0.22254918  0.22853600  1
  Bi2+  Bi115  1  0.66758084  0.25214952  0.72321225  1
  Bi2+  Bi116  1  0.65895322  0.50972502  0.22367979  1
  Bi2+  Bi117  1  0.62612442  0.50189232  0.70252018  1
  Bi2+  Bi118  1  0.57931947  0.76129155  0.21167723  1
  Bi2+  Bi119  1  0.65632001  0.74704645  0.70832196  1
  Bi2+  Bi120  1  0.87046146  0.00069826  0.21211177  1
  Bi2+  Bi121  1  0.83100560  0.01399107  0.70713704  1
  Bi2+  Bi122  1  0.85708481  0.27811002  0.19610264  1
  Bi2+  Bi123  1  0.86218823  0.28780004  0.70874533  1
  Bi2+  Bi124  1  0.91100008  0.46776691  0.18540416  1
  Bi2+  Bi125  1  0.88745240  0.49380510  0.75931819  1
  Bi2+  Bi126  1  0.88236018  0.74589056  0.21175756  1
  Bi2+  Bi127  1  0.84219110  0.70335050  0.69026973  1
  S2-  S128  1  0.00263431  0.09984559  0.15554520  1
  S2-  S129  1  0.02628575  0.13481458  0.65938626  1
  S2-  S130  1  0.11134514  0.37254263  0.14699147  1
  S2-  S131  1  -0.09843869  0.39461871  0.63849510  1
  S2-  S132  1  -0.11308217  0.62028109  0.13512055  1
  S2-  S133  1  -0.01384497  0.64724081  0.64549280  1
  S2-  S134  1  -0.12788257  0.87400447  0.13831334  1
  S2-  S135  1  0.06326884  0.86598410  0.67448998  1
  S2-  S136  1  0.25010846  0.18592580  0.16292579  1
  S2-  S137  1  0.26809775  0.13460903  0.66402603  1
  S2-  S138  1  0.36504780  0.35589206  0.14911700  1
  S2-  S139  1  0.13961606  0.38707685  0.63359278  1
  S2-  S140  1  0.24413760  0.53992230  0.14792793  1
  S2-  S141  1  0.24193716  0.64776467  0.65105767  1
  S2-  S142  1  0.25367186  0.97835057  0.14737415  1
  S2-  S143  1  0.27281767  0.89995418  0.66924895  1
  S2-  S144  1  0.48484045  0.12940336  0.16464768  1
  S2-  S145  1  0.50780815  0.12893779  0.65315605  1
  S2-  S146  1  0.52865456  0.46719084  0.16136026  1
  S2-  S147  1  0.37373836  0.35708943  0.63586729  1
  S2-  S148  1  0.43767157  0.65900880  0.19024032  1
  S2-  S149  1  0.49934075  0.53505001  0.64091466  1
  S2-  S150  1  0.45552850  0.87733552  0.17703780  1
  S2-  S151  1  0.49040274  0.88929877  0.65320322  1
  S2-  S152  1  0.74156454  0.08448721  0.15426783  1
  S2-  S153  1  0.76612412  0.15321190  0.65472593  1
  S2-  S154  1  0.74724146  0.41383599  0.15396640  1
  S2-  S155  1  0.63484101  0.36974055  0.64502448  1
  S2-  S156  1  0.66245685  0.63819311  0.15593936  1
  S2-  S157  1  0.75580406  0.56399766  0.64397955  1
  S2-  S158  1  0.64996773  0.86870032  0.14972348  1
  S2-  S159  1  0.85944415  0.85680532  0.64456151  1
  S2-  S160  1  0.13417856  0.07009870  0.34862813  1
  S2-  S161  1  0.15444531  -0.00144370  0.78860360  1
  S2-  S162  1  0.25740142  0.24175555  0.35085170  1
  S2-  S163  1  0.14204248  0.17613735  0.85617301  1
  S2-  S164  1  0.12060772  0.40059432  0.35042099  1
  S2-  S165  1  0.24425989  0.51647618  0.86094082  1
  S2-  S166  1  0.13185592  0.85806920  0.36360369  1
  S2-  S167  1  0.12691050  0.83328424  0.84994424  1
  S2-  S168  1  0.38100064  0.00417243  0.33407070  1
  S2-  S169  1  0.35863181  -0.01455630  0.78956230  1
  S2-  S170  1  0.45264586  0.25931334  0.33171457  1
  S2-  S171  1  0.38040062  0.14485062  0.85589462  1
  S2-  S172  1  0.29205864  0.51875700  0.34078652  1
  S2-  S173  1  0.38104361  0.36156507  0.86546203  1
  S2-  S174  1  0.35749502  0.76702471  0.34530875  1
  S2-  S175  1  0.37036302  0.81017183  0.86003819  1
  S2-  S176  1  0.63248896  -0.09181864  0.34941946  1
  S2-  S177  1  0.54437651  -0.02259789  0.85502940  1
  S2-  S178  1  0.64100691  0.34703259  0.35743566  1
  S2-  S179  1  0.59589206  0.25833722  0.85369690  1
  S2-  S180  1  0.51487176  0.51222573  0.35196926  1
  S2-  S181  1  0.65352897  0.49721711  0.84564962  1
  S2-  S182  1  0.56337848  0.71299261  0.31258541  1
  S2-  S183  1  0.63932629  0.75838961  0.84600739  1
  S2-  S184  1  0.90038868  -0.09110054  0.36221100  1
  S2-  S185  1  0.96946573  0.01638876  0.84798804  1
  S2-  S186  1  0.98673701  0.23761189  0.35598420  1
  S2-  S187  1  0.86148669  0.21006563  0.83883883  1
  S2-  S188  1  0.76815777  0.50184345  0.35504783  1
  S2-  S189  1  0.85722235  0.61300095  0.85619167  1
  S2-  S190  1  0.77854389  0.73506950  0.34239875  1
  S2-  S191  1  0.88808624  0.83264473  0.84019517  1
  S2-  S192  1  0.00502572  0.11955763  0.45684299  1
  S2-  S193  1  0.00255244  0.12005581  0.95287021  1
  S2-  S194  1  0.00555245  0.38412208  0.45433211  1
  S2-  S195  1  0.00374996  0.36736386  0.96112582  1
  S2-  S196  1  0.00866623  0.62968636  0.44326133  1
  S2-  S197  1  0.00543371  0.62262155  0.95310840  1
  S2-  S198  1  0.00549994  0.87639862  0.46919382  1
  S2-  S199  1  -0.00007022  0.87550287  0.95605939  1
  S2-  S200  1  0.25814032  0.12178766  0.45467851  1
  S2-  S201  1  0.24680682  0.11159793  0.95845522  1
  S2-  S202  1  0.25828534  0.38214428  0.45211129  1
  S2-  S203  1  0.24517914  0.36780231  0.96560285  1
  S2-  S204  1  0.25622328  0.63205704  0.44845705  1
  S2-  S205  1  0.25196300  0.62983865  0.95752513  1
  S2-  S206  1  0.26267151  0.87517186  0.46226538  1
  S2-  S207  1  0.25281657  0.87926353  0.95774370  1
  S2-  S208  1  0.50715105  0.12689916  0.44775480  1
  S2-  S209  1  0.50261123  0.11765955  0.95861535  1
  S2-  S210  1  0.50715913  0.37442245  0.45641354  1
  S2-  S211  1  0.49908495  0.36944474  0.96672400  1
  S2-  S212  1  0.51959815  0.63919982  0.44894956  1
  S2-  S213  1  0.49181914  0.62245782  0.94223204  1
  S2-  S214  1  0.51267812  0.87495588  0.45235041  1
  S2-  S215  1  0.50000582  0.87261071  0.96491371  1
  S2-  S216  1  0.76142948  0.12652282  0.45071227  1
  S2-  S217  1  0.75182022  0.11964267  0.95028737  1
  S2-  S218  1  0.76305719  0.37512792  0.46113673  1
  S2-  S219  1  0.74964566  0.37057176  0.95294601  1
  S2-  S220  1  0.75258275  0.63306567  0.44810527  1
  S2-  S221  1  0.74533093  0.61876340  0.96163738  1
  S2-  S222  1  0.75456987  0.87674361  0.45865269  1
  S2-  S223  1  0.75084222  0.87215414  0.95342105  1
  S2-  S224  1  0.12030063  -0.00667978  0.05193115  1
  S2-  S225  1  0.13069685  0.00020581  0.55281011  1
  S2-  S226  1  0.12506586  0.24030970  0.05076410  1
  S2-  S227  1  0.13059046  0.24833823  0.53780348  1
  S2-  S228  1  0.12099257  0.49949506  0.04270105  1
  S2-  S229  1  0.13271679  0.51229270  0.53436764  1
  S2-  S230  1  0.12400554  0.74414760  0.04766401  1
  S2-  S231  1  0.13303101  0.75412101  0.54901309  1
  S2-  S232  1  0.38276421  -0.00725600  0.05438670  1
  S2-  S233  1  0.38327228  0.00049307  0.54535392  1
  S2-  S234  1  0.37245879  0.24107942  0.04934537  1
  S2-  S235  1  0.38190925  0.25003318  0.53643202  1
  S2-  S236  1  0.38055229  0.50335583  0.04559126  1
  S2-  S237  1  0.37954949  0.50883536  0.53574424  1
  S2-  S238  1  0.38021921  0.74336240  0.05899532  1
  S2-  S239  1  0.38362409  0.75277958  0.55027204  1
  S2-  S240  1  0.62832865  -0.00189148  0.04811888  1
  S2-  S241  1  0.63325754  0.00295097  0.54512892  1
  S2-  S242  1  0.62480841  0.24725046  0.05839180  1
  S2-  S243  1  0.63293165  0.25172434  0.54469022  1
  S2-  S244  1  0.62784007  0.49767756  0.05035626  1
  S2-  S245  1  0.63513299  0.50275937  0.53449223  1
  S2-  S246  1  0.62606097  0.74012924  0.05070469  1
  S2-  S247  1  0.63277452  0.75527270  0.55899596  1
  S2-  S248  1  0.87599573  -0.00053691  0.03791950  1
  S2-  S249  1  0.88342108  0.00490723  0.55059378  1
  S2-  S250  1  0.87924956  0.24559071  0.04719637  1
  S2-  S251  1  0.88611175  0.25006088  0.54393600  1
  S2-  S252  1  0.87886561  0.49315716  0.03917402  1
  S2-  S253  1  0.88639503  0.51059039  0.53611428  1
  S2-  S254  1  0.87415219  0.74406995  0.03688898  1
  S2-  S255  1  0.88224787  0.75173040  0.53628239  1
