# generated using pymatgen
data_La6Ce6Pr19Nd20Sm13(BiS2)64
_symmetry_space_group_name_H-M   'P 1'
_cell_length_a   16.12209506
_cell_length_b   16.03139312
_cell_length_c   27.44223131
_cell_angle_alpha   89.83381594
_cell_angle_beta   89.97085903
_cell_angle_gamma   89.99447502
_symmetry_Int_Tables_number   1
_chemical_formula_structural   La6Ce6Pr19Nd20Sm13(BiS2)64
_chemical_formula_sum   'La6 Ce6 Pr19 Nd20 Sm13 Bi64 S128'
_cell_volume   7092.67854569
_cell_formula_units_Z   1
loop_
 _symmetry_equiv_pos_site_id
 _symmetry_equiv_pos_as_xyz
  1  'x, y, z'
loop_
 _atom_type_symbol
 _atom_type_oxidation_number
  La3+  3.0
  Ce3+  3.0
  Pr3+  3.0
  Nd3+  3.0
  Sm3+  3.0
  Bi2+  2.0
  S2-  -2.0
loop_
 _atom_site_type_symbol
 _atom_site_label
 _atom_site_symmetry_multiplicity
 _atom_site_fract_x
 _atom_site_fract_y
 _atom_site_fract_z
 _atom_site_occupancy
  La3+  La0  1  0.49768193  0.10174159  0.07740801  1
  La3+  La1  1  0.00609991  0.36619005  0.06330374  1
  La3+  La2  1  0.75183688  0.10907189  0.07851965  1
  La3+  La3  1  0.12712505  -0.00134308  0.88695030  1
  La3+  La4  1  0.23943035  0.10604040  0.09512022  1
  La3+  La5  1  0.13317931  0.48667468  0.91730359  1
  Ce3+  Ce6  1  0.75815145  0.86037906  0.57602014  1
  Ce3+  Ce7  1  0.63251950  -0.01074090  0.44269032  1
  Ce3+  Ce8  1  0.25539406  0.61011311  0.55607669  1
  Ce3+  Ce9  1  0.50328610  0.85933721  0.05786685  1
  Ce3+  Ce10  1  0.38285907  -0.01533574  0.43386320  1
  Ce3+  Ce11  1  0.25417947  0.35587584  0.55966114  1
  Pr3+  Pr12  1  0.37774765  0.23121993  0.94099897  1
  Pr3+  Pr13  1  0.38184850  0.73723130  0.43428935  1
  Pr3+  Pr14  1  0.87862364  -0.01637512  0.44211761  1
  Pr3+  Pr15  1  0.75186110  0.60732748  0.06665163  1
  Pr3+  Pr16  1  0.62666323  -0.01284455  0.93735457  1
  Pr3+  Pr17  1  0.13228343  0.22479181  0.42991515  1
  Pr3+  Pr18  1  0.00440923  0.60873766  0.04897285  1
  Pr3+  Pr19  1  0.37602550  -0.01306034  0.93403818  1
  Pr3+  Pr20  1  0.25400854  0.60707100  0.05772183  1
  Pr3+  Pr21  1  0.87901005  -0.01501955  0.93247869  1
  Pr3+  Pr22  1  0.63408284  0.73195472  0.44672004  1
  Pr3+  Pr23  1  0.50561974  0.35647827  0.55770282  1
  Pr3+  Pr24  1  0.87719634  0.23512946  0.93748529  1
  Pr3+  Pr25  1  0.00760051  0.86291334  0.05030007  1
  Pr3+  Pr26  1  0.37410948  0.23995154  0.39093452  1
  Pr3+  Pr27  1  0.38073744  0.48593708  0.93187838  1
  Pr3+  Pr28  1  0.63842904  0.24622751  0.40680795  1
  Pr3+  Pr29  1  0.88000391  0.73645018  0.44041433  1
  Pr3+  Pr30  1  0.00962177  0.61136414  0.56704742  1
  Nd3+  Nd31  1  0.38107516  0.47916467  0.44161618  1
  Nd3+  Nd32  1  0.75321276  0.35862757  0.06630762  1
  Nd3+  Nd33  1  0.13563442  0.24163012  0.92921477  1
  Nd3+  Nd34  1  0.25119984  0.86301340  0.05082830  1
  Nd3+  Nd35  1  0.26250681  0.85936313  0.57506740  1
  Nd3+  Nd36  1  0.50027030  0.35687278  0.06407679  1
  Nd3+  Nd37  1  0.62422424  0.23239021  0.94296015  1
  Nd3+  Nd38  1  0.62797676  0.48517866  0.93773542  1
  Nd3+  Nd39  1  0.87992748  0.22503004  0.43953070  1
  Nd3+  Nd40  1  0.75727993  0.61006922  0.57598222  1
  Nd3+  Nd41  1  0.13557940  -0.01996939  0.44074344  1
  Nd3+  Nd42  1  0.62765663  0.73661165  0.93292138  1
  Nd3+  Nd43  1  0.00844334  0.35503854  0.55899672  1
  Nd3+  Nd44  1  0.12967681  0.48281161  0.44072088  1
  Nd3+  Nd45  1  0.75655853  0.85648133  0.06514495  1
  Nd3+  Nd46  1  0.13592025  0.73805489  0.90183184  1
  Nd3+  Nd47  1  0.50644357  0.85998465  0.56088104  1
  Nd3+  Nd48  1  0.50492955  0.11362504  0.54864415  1
  Nd3+  Nd49  1  0.75569655  0.10996785  0.57074100  1
  Nd3+  Nd50  1  0.25291648  0.36060029  0.06336367  1
  Sm3+  Sm51  1  0.25748301  0.10774975  0.55763580  1
  Sm3+  Sm52  1  0.00939725  0.10746849  0.56514247  1
  Sm3+  Sm53  1  0.13203751  0.73851427  0.44271358  1
  Sm3+  Sm54  1  0.37856094  0.73817243  0.93035139  1
  Sm3+  Sm55  1  0.50246088  0.61079945  0.05567078  1
  Sm3+  Sm56  1  0.87878853  0.47903088  0.93114059  1
  Sm3+  Sm57  1  0.63400512  0.48059654  0.44638653  1
  Sm3+  Sm58  1  0.88035993  0.48093856  0.45076297  1
  Sm3+  Sm59  1  0.75635172  0.35766780  0.57298878  1
  Sm3+  Sm60  1  0.88182111  0.73339445  0.93382332  1
  Sm3+  Sm61  1  0.00920293  0.11058097  0.04664520  1
  Sm3+  Sm62  1  0.00769877  0.86000906  0.56622632  1
  Sm3+  Sm63  1  0.50491460  0.60731200  0.55522797  1
  Bi2+  Bi64  1  0.01024595  0.11723023  0.23766255  1
  Bi2+  Bi65  1  -0.10451758  0.19931694  0.79817390  1
  Bi2+  Bi66  1  0.00320022  0.42464809  0.28286322  1
  Bi2+  Bi67  1  -0.03250772  0.41302130  0.79087303  1
  Bi2+  Bi68  1  0.06810693  0.66749904  0.31922019  1
  Bi2+  Bi69  1  -0.01995849  0.63686760  0.77670618  1
  Bi2+  Bi70  1  0.00385657  0.85249161  0.29794692  1
  Bi2+  Bi71  1  -0.02465772  0.88978315  0.77218504  1
  Bi2+  Bi72  1  0.22581228  0.12078905  0.29333097  1
  Bi2+  Bi73  1  0.28727971  0.12430921  0.78238052  1
  Bi2+  Bi74  1  0.27790453  0.47556278  0.27946203  1
  Bi2+  Bi75  1  0.22206795  0.35863064  0.78565010  1
  Bi2+  Bi76  1  0.31880826  0.66181232  0.31491259  1
  Bi2+  Bi77  1  0.21901391  0.65040734  0.75788456  1
  Bi2+  Bi78  1  0.26329420  0.85368272  0.29186035  1
  Bi2+  Bi79  1  0.26069849  0.86023860  0.77549395  1
  Bi2+  Bi80  1  0.51402425  0.09275708  0.29563148  1
  Bi2+  Bi81  1  0.53961828  0.11978105  0.79040807  1
  Bi2+  Bi82  1  0.50461647  0.48252877  0.28864963  1
  Bi2+  Bi83  1  0.46421422  0.35270156  0.79899540  1
  Bi2+  Bi84  1  0.51804071  0.67429873  0.31740869  1
  Bi2+  Bi85  1  0.48908297  0.60763800  0.79088368  1
  Bi2+  Bi86  1  0.50410059  0.85442756  0.25898765  1
  Bi2+  Bi87  1  0.51446301  0.87787396  0.78757542  1
  Bi2+  Bi88  1  0.77167470  0.12023024  0.30428887  1
  Bi2+  Bi89  1  0.73704888  0.12505086  0.84991929  1
  Bi2+  Bi90  1  0.76291996  0.40590536  0.29593673  1
  Bi2+  Bi91  1  0.66420150  0.37745055  0.79786536  1
  Bi2+  Bi92  1  0.79425038  0.64576332  0.32686020  1
  Bi2+  Bi93  1  0.67326897  0.66728495  0.80966217  1
  Bi2+  Bi94  1  0.77990521  0.83232363  0.28070025  1
  Bi2+  Bi95  1  0.72316996  0.93177788  0.82107806  1
  Bi2+  Bi96  1  0.10281026  -0.04769479  0.19966178  1
  Bi2+  Bi97  1  0.11843186  0.02466867  0.70341126  1
  Bi2+  Bi98  1  0.12531827  0.29964806  0.22795668  1
  Bi2+  Bi99  1  0.08823025  0.25818628  0.70003229  1
  Bi2+  Bi100  1  0.12783337  0.51674912  0.20425911  1
  Bi2+  Bi101  1  0.13838984  0.51843916  0.68737906  1
  Bi2+  Bi102  1  0.18167569  0.70710390  0.22438736  1
  Bi2+  Bi103  1  0.05851631  0.74480806  0.68983966  1
  Bi2+  Bi104  1  0.37074685  -0.02291733  0.21021079  1
  Bi2+  Bi105  1  0.36829275  0.00884585  0.68996198  1
  Bi2+  Bi106  1  0.37514350  0.27994462  0.20147651  1
  Bi2+  Bi107  1  0.43353656  0.22800513  0.71239621  1
  Bi2+  Bi108  1  0.40037554  0.52940095  0.19266111  1
  Bi2+  Bi109  1  0.34132228  0.49262747  0.74771490  1
  Bi2+  Bi110  1  0.37683860  0.72395461  0.20369805  1
  Bi2+  Bi111  1  0.43257273  0.74486317  0.71533742  1
  Bi2+  Bi112  1  0.63202218  -0.01154808  0.20949933  1
  Bi2+  Bi113  1  0.62154622  -0.02313030  0.70992870  1
  Bi2+  Bi114  1  0.65370960  0.26665609  0.20401903  1
  Bi2+  Bi115  1  0.63716682  0.24418250  0.71728400  1
  Bi2+  Bi116  1  0.66977055  0.56810847  0.24841974  1
  Bi2+  Bi117  1  0.58495209  0.48850109  0.69948343  1
  Bi2+  Bi118  1  0.64558448  0.74999913  0.20141454  1
  Bi2+  Bi119  1  0.62701480  0.76558961  0.70148395  1
  Bi2+  Bi120  1  0.88878823  -0.03488448  0.21624615  1
  Bi2+  Bi121  1  0.79880945  0.05503468  0.74161324  1
  Bi2+  Bi122  1  0.89636487  0.27910188  0.23165295  1
  Bi2+  Bi123  1  0.83709171  0.32706811  0.71898969  1
  Bi2+  Bi124  1  0.86073991  0.52216276  0.19808035  1
  Bi2+  Bi125  1  0.75932779  0.52585339  0.74724429  1
  Bi2+  Bi126  1  0.92215443  0.69265000  0.24225780  1
  Bi2+  Bi127  1  0.80097349  0.78568496  0.75386253  1
  S2-  S128  1  0.07363106  0.09184709  0.14021247  1
  S2-  S129  1  -0.00161431  0.13263830  0.66303328  1
  S2-  S130  1  0.00623252  0.30157698  0.15842093  1
  S2-  S131  1  -0.01636873  0.35798591  0.65796735  1
  S2-  S132  1  0.00044492  0.51338968  0.13334325  1
  S2-  S133  1  -0.01976044  0.59342925  0.66646586  1
  S2-  S134  1  -0.01588226  0.86415564  0.15193313  1
  S2-  S135  1  -0.01876465  0.88845489  0.66334856  1
  S2-  S136  1  0.38250711  0.12265075  0.15824539  1
  S2-  S137  1  0.23544136  0.11875175  0.65644220  1
  S2-  S138  1  0.22745715  0.26379593  0.14911064  1
  S2-  S139  1  0.20820491  0.36318109  0.65420654  1
  S2-  S140  1  0.25598332  0.49135882  0.13540536  1
  S2-  S141  1  0.24165717  0.64397734  0.65026623  1
  S2-  S142  1  0.24947153  0.93947128  0.14330340  1
  S2-  S143  1  0.20682654  0.89396938  0.67224023  1
  S2-  S144  1  0.61450276  0.12739595  0.15541168  1
  S2-  S145  1  0.49238325  0.08412785  0.64811092  1
  S2-  S146  1  0.52066421  0.35165397  0.16409120  1
  S2-  S147  1  0.48785342  0.36729786  0.65764424  1
  S2-  S148  1  0.51847454  0.64456551  0.15166333  1
  S2-  S149  1  0.49622328  0.61240175  0.65211987  1
  S2-  S150  1  0.50313934  0.94022296  0.14339536  1
  S2-  S151  1  0.40280169  0.86311819  0.64021994  1
  S2-  S152  1  0.78122068  0.24663740  0.14629933  1
  S2-  S153  1  0.75863718  0.23387155  0.64497189  1
  S2-  S154  1  0.73780329  0.47825325  0.14106328  1
  S2-  S155  1  0.74560960  0.48238959  0.64552474  1
  S2-  S156  1  0.76790044  0.73220847  0.13883921  1
  S2-  S157  1  0.77100581  0.73543740  0.64708150  1
  S2-  S158  1  0.76138428  0.96917721  0.14355380  1
  S2-  S159  1  0.75876683  0.98892536  0.64629766  1
  S2-  S160  1  0.12013560  0.08454848  0.35901063  1
  S2-  S161  1  0.12963513  0.10306075  0.79707180  1
  S2-  S162  1  0.21752874  0.25964944  0.34249815  1
  S2-  S163  1  0.09292405  0.35171116  0.85070593  1
  S2-  S164  1  0.13013822  0.49503263  0.34241811  1
  S2-  S165  1  0.10585864  0.60551848  0.83744135  1
  S2-  S166  1  0.14020254  0.85392037  0.36750230  1
  S2-  S167  1  0.11730274  0.85436949  0.82579400  1
  S2-  S168  1  0.36447871  0.07414274  0.34948732  1
  S2-  S169  1  0.29178574  -0.02038738  0.84064148  1
  S2-  S170  1  0.41918479  0.23383126  0.28735556  1
  S2-  S171  1  0.27762758  0.24407157  0.85333378  1
  S2-  S172  1  0.38326989  0.40917172  0.35204487  1
  S2-  S173  1  0.27728073  0.47934061  0.84890327  1
  S2-  S174  1  0.38182293  0.86170229  0.36203461  1
  S2-  S175  1  0.28721936  0.73435836  0.84459567  1
  S2-  S176  1  0.65186943  0.01524209  0.34649115  1
  S2-  S177  1  0.50619404  -0.00277457  0.86108854  1
  S2-  S178  1  0.62009007  0.21562286  0.30340216  1
  S2-  S179  1  0.50567295  0.23063296  0.86620279  1
  S2-  S180  1  0.62945157  0.41157537  0.35729337  1
  S2-  S181  1  0.51408113  0.48365247  0.86178386  1
  S2-  S182  1  0.66056537  0.76777324  0.35039923  1
  S2-  S183  1  0.50720956  0.74667171  0.85885124  1
  S2-  S184  1  0.89123954  0.09631516  0.36346793  1
  S2-  S185  1  0.95915744  -0.00460441  0.84263619  1
  S2-  S186  1  0.79431249  0.27153489  0.35695050  1
  S2-  S187  1  0.86606994  0.34740807  0.85922539  1
  S2-  S188  1  0.88287571  0.49528841  0.35301785  1
  S2-  S189  1  0.88377662  0.54642014  0.83737982  1
  S2-  S190  1  0.87726916  0.86099591  0.36695139  1
  S2-  S191  1  0.91221649  0.76235321  0.83793090  1
  S2-  S192  1  0.00937782  0.10499833  0.46356384  1
  S2-  S193  1  0.00791724  0.11401422  0.94290779  1
  S2-  S194  1  0.00556497  0.35570980  0.45060990  1
  S2-  S195  1  0.00255188  0.36198144  0.95595954  1
  S2-  S196  1  0.00579374  0.60959842  0.45798739  1
  S2-  S197  1  0.00166939  0.61026784  0.94476337  1
  S2-  S198  1  0.00788073  0.85811479  0.46374412  1
  S2-  S199  1  0.00790611  0.85459975  0.94480143  1
  S2-  S200  1  0.26173314  0.11089953  0.45549869  1
  S2-  S201  1  0.24651529  0.10680997  0.94155417  1
  S2-  S202  1  0.25459534  0.35652877  0.45409670  1
  S2-  S203  1  0.25705631  0.36280533  0.95718158  1
  S2-  S204  1  0.25434565  0.60915048  0.45003892  1
  S2-  S205  1  0.25369444  0.61817358  0.95170763  1
  S2-  S206  1  0.25846451  0.85660880  0.46744915  1
  S2-  S207  1  0.25072378  0.85718933  0.94724748  1
  S2-  S208  1  0.51016967  0.12158780  0.44326837  1
  S2-  S209  1  0.50391888  0.10808659  0.96737330  1
  S2-  S210  1  0.50739217  0.35451859  0.45232356  1
  S2-  S211  1  0.50390780  0.36015172  0.96055738  1
  S2-  S212  1  0.50667708  0.60397776  0.45083448  1
  S2-  S213  1  0.50320943  0.61453283  0.95468359  1
  S2-  S214  1  0.51189504  0.85940016  0.45673711  1
  S2-  S215  1  0.50234046  0.85955086  0.95644531  1
  S2-  S216  1  0.74807070  0.11552414  0.46193411  1
  S2-  S217  1  0.75385829  0.10901065  0.96379947  1
  S2-  S218  1  0.75668988  0.36028786  0.46642347  1
  S2-  S219  1  0.74680123  0.35997648  0.95831118  1
  S2-  S220  1  0.75802618  0.60464178  0.46477334  1
  S2-  S221  1  0.75374140  0.60976711  0.95003489  1
  S2-  S222  1  0.75235610  0.85993188  0.46714615  1
  S2-  S223  1  0.75580251  0.85693176  0.95194004  1
  S2-  S224  1  0.12991614  -0.01307701  0.03919847  1
  S2-  S225  1  0.13273561  -0.01739913  0.55098370  1
  S2-  S226  1  0.12975243  0.23410437  0.03774203  1
  S2-  S227  1  0.13131635  0.22975232  0.54321918  1
  S2-  S228  1  0.13118872  0.48640281  0.03118063  1
  S2-  S229  1  0.13016734  0.48365820  0.54604314  1
  S2-  S230  1  0.12958869  0.73286521  0.05800231  1
  S2-  S231  1  0.13269323  0.73842895  0.54757240  1
  S2-  S232  1  0.37383658  -0.01566450  0.04107606  1
  S2-  S233  1  0.38110285  -0.01310631  0.54058383  1
  S2-  S234  1  0.37491724  0.23384700  0.04837374  1
  S2-  S235  1  0.37750532  0.23292129  0.55567231  1
  S2-  S236  1  0.38427821  0.48648395  0.03967021  1
  S2-  S237  1  0.37930938  0.48417821  0.54817880  1
  S2-  S238  1  0.37791655  0.73475022  0.04348186  1
  S2-  S239  1  0.38341840  0.73081814  0.54185881  1
  S2-  S240  1  0.63133353  -0.02081581  0.04301516  1
  S2-  S241  1  0.62781338  -0.01468587  0.54815581  1
  S2-  S242  1  0.62618772  0.23638086  0.04748392  1
  S2-  S243  1  0.63041864  0.23537773  0.55187084  1
  S2-  S244  1  0.62176870  0.48629777  0.04211338  1
  S2-  S245  1  0.62899365  0.48500083  0.54806252  1
  S2-  S246  1  0.62748006  0.73348899  0.03937309  1
  S2-  S247  1  0.62760774  0.73102378  0.55186353  1
  S2-  S248  1  0.88275560  -0.01279523  0.03981711  1
  S2-  S249  1  0.88679498  -0.01463836  0.54913448  1
  S2-  S250  1  0.88370535  0.23333578  0.04262128  1
  S2-  S251  1  0.88581052  0.23177363  0.54671340  1
  S2-  S252  1  0.87290630  0.48538814  0.03561202  1
  S2-  S253  1  0.88538221  0.48285989  0.55281014  1
  S2-  S254  1  0.88091901  0.73387934  0.03746708  1
  S2-  S255  1  0.88641268  0.73535093  0.54724882  1
