# generated using pymatgen
data_La6Ce6Pr19Nd20Sm13(BiS2)64
_symmetry_space_group_name_H-M   'P 1'
_cell_length_a   16.12026911
_cell_length_b   16.12789404
_cell_length_c   27.36890342
_cell_angle_alpha   89.73992639
_cell_angle_beta   89.97604095
_cell_angle_gamma   90.01277847
_symmetry_Int_Tables_number   1
_chemical_formula_structural   La6Ce6Pr19Nd20Sm13(BiS2)64
_chemical_formula_sum   'La6 Ce6 Pr19 Nd20 Sm13 Bi64 S128'
_cell_volume   7115.45740432
_cell_formula_units_Z   1
loop_
 _symmetry_equiv_pos_site_id
 _symmetry_equiv_pos_as_xyz
  1  'x, y, z'
loop_
 _atom_type_symbol
 _atom_type_oxidation_number
  La3+  3.0
  Ce3+  3.0
  Pr3+  3.0
  Nd3+  3.0
  Sm3+  3.0
  Bi2+  2.0
  S2-  -2.0
loop_
 _atom_site_type_symbol
 _atom_site_label
 _atom_site_symmetry_multiplicity
 _atom_site_fract_x
 _atom_site_fract_y
 _atom_site_fract_z
 _atom_site_occupancy
  La3+  La0  1  0.11396417  0.02211856  0.90738931  1
  La3+  La1  1  0.62606544  0.51467717  0.90620492  1
  La3+  La2  1  0.35394052  0.51450365  0.91166702  1
  La3+  La3  1  0.25356086  0.13978947  0.61787661  1
  La3+  La4  1  0.26628179  0.63846318  0.09833504  1
  La3+  La5  1  0.50444888  0.62742721  0.60141172  1
  Ce3+  Ce6  1  0.10841037  0.26749972  0.93244359  1
  Ce3+  Ce7  1  0.49206679  0.13027537  0.56421151  1
  Ce3+  Ce8  1  0.49252887  0.37982881  0.55411728  1
  Ce3+  Ce9  1  0.11787456  0.76156159  0.94972896  1
  Ce3+  Ce10  1  0.87085159  0.50904270  0.43974382  1
  Ce3+  Ce11  1  0.36121017  0.50662537  0.44394665  1
  Pr3+  Pr12  1  0.11189503  0.48768343  0.38574587  1
  Pr3+  Pr13  1  0.24675650  0.38847377  0.57364967  1
  Pr3+  Pr14  1  0.85762738  0.76229676  0.40855674  1
  Pr3+  Pr15  1  0.73687413  0.38062086  0.06645352  1
  Pr3+  Pr16  1  -0.01243354  0.38557743  0.05974244  1
  Pr3+  Pr17  1  0.36112885  0.25972103  0.93578541  1
  Pr3+  Pr18  1  -0.00476660  0.12786438  0.56610668  1
  Pr3+  Pr19  1  0.86140829  0.26958583  0.93168773  1
  Pr3+  Pr20  1  0.36623703  0.75368248  0.44072432  1
  Pr3+  Pr21  1  0.62038893  0.25722852  0.44366140  1
  Pr3+  Pr22  1  0.61634682  0.26230011  0.92953491  1
  Pr3+  Pr23  1  0.86855838  0.52212779  0.93542062  1
  Pr3+  Pr24  1  0.74684085  0.12809125  0.56969706  1
  Pr3+  Pr25  1  -0.00683169  0.63146895  0.55512816  1
  Pr3+  Pr26  1  0.49091878  0.39090291  0.04354935  1
  Pr3+  Pr27  1  0.86529383  0.01259866  0.93228174  1
  Pr3+  Pr28  1  0.86783008  0.00829099  0.43774166  1
  Pr3+  Pr29  1  -0.00672357  0.88655069  0.06055252  1
  Pr3+  Pr30  1  0.24138998  0.63017057  0.56405527  1
  Nd3+  Nd31  1  0.11807690  0.00233442  0.43372081  1
  Nd3+  Nd32  1  0.11600706  0.75282144  0.42978495  1
  Nd3+  Nd33  1  0.74151852  0.63521065  0.06330077  1
  Nd3+  Nd34  1  0.61694180  0.75491267  0.43826713  1
  Nd3+  Nd35  1  0.87120081  0.25926640  0.44488089  1
  Nd3+  Nd36  1  -0.00853478  0.87838789  0.55771847  1
  Nd3+  Nd37  1  0.36748694  0.00780688  0.44321924  1
  Nd3+  Nd38  1  0.49101137  0.87623751  0.56083139  1
  Nd3+  Nd39  1  0.74234374  0.38161589  0.56426960  1
  Nd3+  Nd40  1  0.11878671  0.51690620  0.95114492  1
  Nd3+  Nd41  1  0.36104465  0.76170129  0.92927138  1
  Nd3+  Nd42  1  0.24028735  0.13798155  0.06556875  1
  Nd3+  Nd43  1  -0.01251417  0.63698872  0.07442633  1
  Nd3+  Nd44  1  0.36584020  0.01173029  0.94465899  1
  Nd3+  Nd45  1  0.86937860  0.76480347  0.93766939  1
  Nd3+  Nd46  1  0.12258920  0.25665720  0.45105256  1
  Nd3+  Nd47  1  0.61701524  0.76053610  0.93321387  1
  Nd3+  Nd48  1  0.24233592  0.38239440  0.06391125  1
  Nd3+  Nd49  1  0.49171733  0.13566193  0.05774908  1
  Nd3+  Nd50  1  0.74126979  0.88351022  0.05604502  1
  Sm3+  Sm51  1  0.24091805  0.88699786  0.55850896  1
  Sm3+  Sm52  1  0.74129335  0.13665325  0.05620559  1
  Sm3+  Sm53  1  0.74008707  0.87496192  0.55809434  1
  Sm3+  Sm54  1  0.36415156  0.25502015  0.44897362  1
  Sm3+  Sm55  1  0.49032004  0.63367668  0.04345999  1
  Sm3+  Sm56  1  0.74304801  0.62909536  0.55823229  1
  Sm3+  Sm57  1  0.48986900  0.88185607  0.05338926  1
  Sm3+  Sm58  1  0.24178208  0.88402639  0.05467650  1
  Sm3+  Sm59  1  0.61823850  0.00807018  0.45123262  1
  Sm3+  Sm60  1  0.61370849  0.01024691  0.94541611  1
  Sm3+  Sm61  1  -0.00746344  0.13506758  0.05174541  1
  Sm3+  Sm62  1  0.61861082  0.50670923  0.44319089  1
  Sm3+  Sm63  1  -0.00334040  0.38092957  0.56102922  1
  Bi2+  Bi64  1  0.04604736  0.08667418  0.31912088  1
  Bi2+  Bi65  1  -0.04432646  0.14103467  0.77920292  1
  Bi2+  Bi66  1  -0.01801245  0.26476042  0.29069355  1
  Bi2+  Bi67  1  0.01590635  0.39248275  0.77875460  1
  Bi2+  Bi68  1  0.00495266  0.60933610  0.27817079  1
  Bi2+  Bi69  1  0.01395349  0.58364087  0.80692304  1
  Bi2+  Bi70  1  0.00009439  0.89094081  0.28975237  1
  Bi2+  Bi71  1  -0.09545326  0.85810763  0.80594544  1
  Bi2+  Bi72  1  0.24236757  0.14283848  0.29342924  1
  Bi2+  Bi73  1  0.28848510  0.10827555  0.81488732  1
  Bi2+  Bi74  1  0.24142738  0.35676789  0.29070042  1
  Bi2+  Bi75  1  0.23514064  0.35345694  0.81379991  1
  Bi2+  Bi76  1  0.28087934  0.63270214  0.30006225  1
  Bi2+  Bi77  1  0.23282013  0.62609269  0.78701717  1
  Bi2+  Bi78  1  0.25681468  0.88383928  0.28768298  1
  Bi2+  Bi79  1  0.28714730  0.84463957  0.80191014  1
  Bi2+  Bi80  1  0.47551612  0.04179829  0.28642234  1
  Bi2+  Bi81  1  0.53034264  0.11025975  0.79465232  1
  Bi2+  Bi82  1  0.47215414  0.31938568  0.28231413  1
  Bi2+  Bi83  1  0.59611231  0.29579839  0.79512871  1
  Bi2+  Bi84  1  0.53662298  0.59353299  0.25746292  1
  Bi2+  Bi85  1  0.50593696  0.62953977  0.78590272  1
  Bi2+  Bi86  1  0.54438075  0.86335291  0.25451549  1
  Bi2+  Bi87  1  0.50883661  0.82720640  0.78837803  1
  Bi2+  Bi88  1  0.71428822  0.13575293  0.30037877  1
  Bi2+  Bi89  1  0.77313963  0.09617848  0.78512520  1
  Bi2+  Bi90  1  0.71127114  0.36246313  0.29952648  1
  Bi2+  Bi91  1  0.81372140  0.36305088  0.78521252  1
  Bi2+  Bi92  1  0.73471171  0.62761183  0.28599232  1
  Bi2+  Bi93  1  0.77439354  0.61696106  0.78744182  1
  Bi2+  Bi94  1  0.72646992  0.89825210  0.28971237  1
  Bi2+  Bi95  1  0.71030571  0.87706098  0.80369302  1
  Bi2+  Bi96  1  0.14018094  0.02667834  0.21769932  1
  Bi2+  Bi97  1  0.12866839  -0.00582129  0.71394373  1
  Bi2+  Bi98  1  0.10264205  0.22254623  0.19759253  1
  Bi2+  Bi99  1  0.11891128  0.25983508  0.71261303  1
  Bi2+  Bi100  1  0.13273935  0.48216980  0.18389363  1
  Bi2+  Bi101  1  0.12387495  0.52371965  0.71218199  1
  Bi2+  Bi102  1  0.13226936  0.77103740  0.20437959  1
  Bi2+  Bi103  1  0.09655752  0.76326524  0.75879285  1
  Bi2+  Bi104  1  0.33233542  0.00966291  0.20461254  1
  Bi2+  Bi105  1  0.42735568  -0.02629365  0.72256047  1
  Bi2+  Bi106  1  0.36950438  0.20094266  0.20660291  1
  Bi2+  Bi107  1  0.49852592  0.24091872  0.70374055  1
  Bi2+  Bi108  1  0.41080233  0.46406821  0.21764702  1
  Bi2+  Bi109  1  0.36149133  0.43884789  0.71016864  1
  Bi2+  Bi110  1  0.40536256  0.76183974  0.20011308  1
  Bi2+  Bi111  1  0.35823368  0.79137318  0.70591078  1
  Bi2+  Bi112  1  0.62445010  0.03861918  0.21427870  1
  Bi2+  Bi113  1  0.61315848  -0.05627299  0.70008391  1
  Bi2+  Bi114  1  0.60803995  0.28175136  0.20109317  1
  Bi2+  Bi115  1  0.66372512  0.14180731  0.69074467  1
  Bi2+  Bi116  1  0.66064990  0.48938000  0.18982742  1
  Bi2+  Bi117  1  0.62673064  0.48249432  0.70845058  1
  Bi2+  Bi118  1  0.65796284  0.70627779  0.19083987  1
  Bi2+  Bi119  1  0.69476964  0.74695018  0.71768280  1
  Bi2+  Bi120  1  0.87402076  0.04080046  0.25782710  1
  Bi2+  Bi121  1  0.88254945  -0.01873031  0.71330354  1
  Bi2+  Bi122  1  0.85951089  0.21425667  0.20691032  1
  Bi2+  Bi123  1  0.84950537  0.25712632  0.69605663  1
  Bi2+  Bi124  1  0.84353169  0.47605107  0.24870005  1
  Bi2+  Bi125  1  0.90911324  0.56078791  0.70717631  1
  Bi2+  Bi126  1  0.86513430  0.77177376  0.20026516  1
  Bi2+  Bi127  1  0.92059226  0.75526538  0.70656024  1
  S2-  S128  1  -0.02640622  0.13097731  0.14905871  1
  S2-  S129  1  0.08584724  0.12590413  0.65245327  1
  S2-  S130  1  0.02872078  0.36396876  0.15662172  1
  S2-  S131  1  -0.01004508  0.34630833  0.65708616  1
  S2-  S132  1  0.04689546  0.63454435  0.17058917  1
  S2-  S133  1  0.04239126  0.64425096  0.65197758  1
  S2-  S134  1  -0.00755275  0.86107572  0.15999227  1
  S2-  S135  1  0.00917911  0.90267528  0.65624753  1
  S2-  S136  1  0.24591427  0.25409302  0.13977599  1
  S2-  S137  1  0.23598834  0.13185769  0.72571761  1
  S2-  S138  1  0.29098249  0.47341095  0.14373083  1
  S2-  S139  1  0.26259871  0.30550764  0.66335770  1
  S2-  S140  1  0.23740406  0.63988630  0.20594320  1
  S2-  S141  1  0.25917457  0.52229731  0.64455213  1
  S2-  S142  1  0.26055295  0.80934807  0.14189655  1
  S2-  S143  1  0.23704871  0.96221376  0.64673694  1
  S2-  S144  1  0.52029761  0.14466875  0.15509003  1
  S2-  S145  1  0.42053117  0.11018424  0.65259116  1
  S2-  S146  1  0.51225828  0.38713463  0.14444695  1
  S2-  S147  1  0.50475463  0.40089069  0.65093661  1
  S2-  S148  1  0.43426457  0.64515660  0.13623656  1
  S2-  S149  1  0.45790862  0.58101969  0.69855308  1
  S2-  S150  1  0.49486467  0.87934562  0.15037636  1
  S2-  S151  1  0.49465817  0.78593223  0.64603033  1
  S2-  S152  1  0.73903181  0.23759405  0.13457988  1
  S2-  S153  1  0.87107082  0.11320378  0.64110743  1
  S2-  S154  1  0.81220376  0.43312761  0.15555370  1
  S2-  S155  1  0.73854766  0.39499226  0.66404530  1
  S2-  S156  1  0.84925417  0.64705283  0.14124958  1
  S2-  S157  1  0.66581882  0.62159925  0.64711081  1
  S2-  S158  1  0.74448023  0.85696710  0.15369400  1
  S2-  S159  1  0.75458708  0.88656918  0.65556504  1
  S2-  S160  1  0.12762691  -0.11851766  0.35798107  1
  S2-  S161  1  0.17773937  -0.03085166  0.81635386  1
  S2-  S162  1  0.11655801  0.31686161  0.35738493  1
  S2-  S163  1  0.15202534  0.17718392  0.85475687  1
  S2-  S164  1  0.11930402  0.46888967  0.27848945  1
  S2-  S165  1  0.18831309  0.50285376  0.85957859  1
  S2-  S166  1  0.13153649  0.65248049  0.34656507  1
  S2-  S167  1  0.15009215  0.75281113  0.85410209  1
  S2-  S168  1  0.33702816  0.00624156  0.34523415  1
  S2-  S169  1  0.41830898  0.00821812  0.85024413  1
  S2-  S170  1  0.35067856  0.25403676  0.35081708  1
  S2-  S171  1  0.37089323  0.25668031  0.83522549  1
  S2-  S172  1  0.28835844  0.48658717  0.35616159  1
  S2-  S173  1  0.36322861  0.45257006  0.80941133  1
  S2-  S174  1  0.35638173  0.76687613  0.33968967  1
  S2-  S175  1  0.36861260  0.65869503  0.84822716  1
  S2-  S176  1  0.63283231  0.00605531  0.35474645  1
  S2-  S177  1  0.65189854  0.02713274  0.85113183  1
  S2-  S178  1  0.59660845  0.24342803  0.34538135  1
  S2-  S179  1  0.73818313  0.25846898  0.85622692  1
  S2-  S180  1  0.66386613  0.49796277  0.34917215  1
  S2-  S181  1  0.57410905  0.46586756  0.81027232  1
  S2-  S182  1  0.70511049  0.75629523  0.35286207  1
  S2-  S183  1  0.63926889  0.66607069  0.85071220  1
  S2-  S184  1  0.86188683  -0.08317529  0.35337809  1
  S2-  S185  1  0.96626112  0.01313851  0.84963148  1
  S2-  S186  1  0.83688604  0.25754944  0.34799957  1
  S2-  S187  1  0.96829954  0.27564406  0.85006199  1
  S2-  S188  1  0.94207164  0.50006394  0.35109901  1
  S2-  S189  1  0.77825713  0.47768799  0.85177320  1
  S2-  S190  1  0.93783177  0.73579076  0.31773275  1
  S2-  S191  1  0.89065958  0.65647883  0.86195470  1
  S2-  S192  1  -0.00653792  0.13281103  0.45646494  1
  S2-  S193  1  -0.01193862  0.13764598  0.95027744  1
  S2-  S194  1  -0.00447353  0.38364050  0.45648778  1
  S2-  S195  1  -0.01014620  0.39580470  0.95250749  1
  S2-  S196  1  -0.01948782  0.64413587  0.45012818  1
  S2-  S197  1  -0.00463580  0.64021334  0.96630800  1
  S2-  S198  1  -0.01244780  0.87633769  0.45254066  1
  S2-  S199  1  -0.00498369  0.89049346  0.95341357  1
  S2-  S200  1  0.24191208  0.12922717  0.44922556  1
  S2-  S201  1  0.23988081  0.13256996  0.96004417  1
  S2-  S202  1  0.24599381  0.37912359  0.46574442  1
  S2-  S203  1  0.23898159  0.38347638  0.95691513  1
  S2-  S204  1  0.24052118  0.63268714  0.45820628  1
  S2-  S205  1  0.24210059  0.64028476  0.95521387  1
  S2-  S206  1  0.24559728  0.88090041  0.45575267  1
  S2-  S207  1  0.23836964  0.89232388  0.95027841  1
  S2-  S208  1  0.49280353  0.13225132  0.45573289  1
  S2-  S209  1  0.49271489  0.13534496  0.95182258  1
  S2-  S210  1  0.49213756  0.38175526  0.44767291  1
  S2-  S211  1  0.48948116  0.38968497  0.93692497  1
  S2-  S212  1  0.49515312  0.62837727  0.43718376  1
  S2-  S213  1  0.49351063  0.63418592  0.94293473  1
  S2-  S214  1  0.49455015  0.88179577  0.45279503  1
  S2-  S215  1  0.49170338  0.88401732  0.94873122  1
  S2-  S216  1  0.74409271  0.13142436  0.46048977  1
  S2-  S217  1  0.73920152  0.13224725  0.95455940  1
  S2-  S218  1  0.74468584  0.38378758  0.45766313  1
  S2-  S219  1  0.73443397  0.39080115  0.95868894  1
  S2-  S220  1  0.74309010  0.63106889  0.45454874  1
  S2-  S221  1  0.74120003  0.64163985  0.95827068  1
  S2-  S222  1  0.73939387  0.88175287  0.45589628  1
  S2-  S223  1  0.74056538  0.88652195  0.95017798  1
  S2-  S224  1  0.11929959  0.01134313  0.05541489  1
  S2-  S225  1  0.11285478  0.00022969  0.53824528  1
  S2-  S226  1  0.11239966  0.25893807  0.04021027  1
  S2-  S227  1  0.12089853  0.25782146  0.55452876  1
  S2-  S228  1  0.11791277  0.51236016  0.05559165  1
  S2-  S229  1  0.11412966  0.50503448  0.55241639  1
  S2-  S230  1  0.11891412  0.75834346  0.05354176  1
  S2-  S231  1  0.12099406  0.75907142  0.54471055  1
  S2-  S232  1  0.36613091  0.00889606  0.05118194  1
  S2-  S233  1  0.37049350  0.00263745  0.54728084  1
  S2-  S234  1  0.37073856  0.25932502  0.04212136  1
  S2-  S235  1  0.36739439  0.25423169  0.55299407  1
  S2-  S236  1  0.36693727  0.51355547  0.03222508  1
  S2-  S237  1  0.38322322  0.51820258  0.54779698  1
  S2-  S238  1  0.36742552  0.76304110  0.03501543  1
  S2-  S239  1  0.36427481  0.75676666  0.54748375  1
  S2-  S240  1  0.61656284  0.00921302  0.04986078  1
  S2-  S241  1  0.61793042  0.00229175  0.55490040  1
  S2-  S242  1  0.61295860  0.25724586  0.03592605  1
  S2-  S243  1  0.62019115  0.25488471  0.55138848  1
  S2-  S244  1  0.61649501  0.51527672  0.04675670  1
  S2-  S245  1  0.61682447  0.50693281  0.54639095  1
  S2-  S246  1  0.61427184  0.76094259  0.04106716  1
  S2-  S247  1  0.61691000  0.74973652  0.54342330  1
  S2-  S248  1  0.86453512  0.01214002  0.04406824  1
  S2-  S249  1  0.86398863  -0.00231232  0.54285992  1
  S2-  S250  1  0.86823082  0.25724201  0.03837043  1
  S2-  S251  1  0.86890400  0.25933322  0.54918811  1
  S2-  S252  1  0.86511415  0.51146462  0.04216105  1
  S2-  S253  1  0.86783521  0.50463206  0.54960128  1
  S2-  S254  1  0.86734389  0.76445464  0.04180422  1
  S2-  S255  1  0.86219918  0.75380772  0.55643323  1
