# generated using pymatgen
data_La6Ce6Pr19Nd20Sm13(BiS2)64
_symmetry_space_group_name_H-M   'P 1'
_cell_length_a   16.12341369
_cell_length_b   16.08275325
_cell_length_c   27.51747998
_cell_angle_alpha   89.93059049
_cell_angle_beta   90.18660669
_cell_angle_gamma   90.03424319
_symmetry_Int_Tables_number   1
_chemical_formula_structural   La6Ce6Pr19Nd20Sm13(BiS2)64
_chemical_formula_sum   'La6 Ce6 Pr19 Nd20 Sm13 Bi64 S128'
_cell_volume   7135.48268571
_cell_formula_units_Z   1
loop_
 _symmetry_equiv_pos_site_id
 _symmetry_equiv_pos_as_xyz
  1  'x, y, z'
loop_
 _atom_type_symbol
 _atom_type_oxidation_number
  La3+  3.0
  Ce3+  3.0
  Pr3+  3.0
  Nd3+  3.0
  Sm3+  3.0
  Bi2+  2.0
  S2-  -2.0
loop_
 _atom_site_type_symbol
 _atom_site_label
 _atom_site_symmetry_multiplicity
 _atom_site_fract_x
 _atom_site_fract_y
 _atom_site_fract_z
 _atom_site_occupancy
  La3+  La0  1  -0.01033340  0.37835702  0.61094843  1
  La3+  La1  1  0.50702021  0.62316930  0.07964658  1
  La3+  La2  1  0.50442704  0.13255270  0.09674627  1
  La3+  La3  1  0.86683854  -0.01312983  0.42895476  1
  La3+  La4  1  0.62066473  0.25004246  0.38928693  1
  La3+  La5  1  0.23866656  0.37383789  0.11038222  1
  Ce3+  Ce6  1  -0.00035544  0.37968224  0.05430935  1
  Ce3+  Ce7  1  0.74621094  0.35722598  0.56019254  1
  Ce3+  Ce8  1  0.11248205  0.48619135  0.44092588  1
  Ce3+  Ce9  1  0.50005094  0.87855091  0.06212027  1
  Ce3+  Ce10  1  0.86389243  0.23217166  0.43686752  1
  Ce3+  Ce11  1  0.49676425  0.37850610  0.06875895  1
  Pr3+  Pr12  1  0.25192963  0.87592864  0.06734449  1
  Pr3+  Pr13  1  0.23981243  0.86028512  0.55805275  1
  Pr3+  Pr14  1  0.61604175  0.73812397  0.44775355  1
  Pr3+  Pr15  1  0.86416184  0.48393670  0.43764287  1
  Pr3+  Pr16  1  0.86885588  0.50440448  0.93158162  1
  Pr3+  Pr17  1  0.76366597  0.12653002  0.08411679  1
  Pr3+  Pr18  1  0.23839154  0.61024752  0.55881567  1
  Pr3+  Pr19  1  0.62169031  0.00730093  0.94298914  1
  Pr3+  Pr20  1  0.36574879  0.23905357  0.43141819  1
  Pr3+  Pr21  1  0.11865086  0.73632854  0.43037807  1
  Pr3+  Pr22  1  0.24120238  0.11535100  0.55775260  1
  Pr3+  Pr23  1  0.11771367  0.23670198  0.43191635  1
  Pr3+  Pr24  1  0.37293712  0.00534052  0.95081918  1
  Pr3+  Pr25  1  0.12302299  0.75487099  0.94106082  1
  Pr3+  Pr26  1  0.61339897  0.50388252  0.93338547  1
  Pr3+  Pr27  1  0.74230370  0.87970158  0.07119267  1
  Pr3+  Pr28  1  0.74766668  0.37688292  0.05236121  1
  Pr3+  Pr29  1  0.48639166  0.86329255  0.56785904  1
  Pr3+  Pr30  1  0.87062935  0.00505057  0.93834579  1
  Nd3+  Nd31  1  0.86773222  0.75472814  0.94110470  1
  Nd3+  Nd32  1  0.87269328  0.25260246  0.93337507  1
  Nd3+  Nd33  1  0.49602669  0.11225814  0.55856534  1
  Nd3+  Nd34  1  -0.00828042  0.11840393  0.56435057  1
  Nd3+  Nd35  1  0.12321461  0.50506784  0.93158643  1
  Nd3+  Nd36  1  0.11604330  -0.01472529  0.44746945  1
  Nd3+  Nd37  1  0.36827416  0.73718308  0.44091127  1
  Nd3+  Nd38  1  -0.00125778  0.62681976  0.05246473  1
  Nd3+  Nd39  1  0.37033719  0.25524208  0.94702425  1
  Nd3+  Nd40  1  0.37310046  0.75289697  0.94507840  1
  Nd3+  Nd41  1  -0.00064632  0.87840383  0.05832614  1
  Nd3+  Nd42  1  0.74514097  0.61166817  0.55803099  1
  Nd3+  Nd43  1  0.49480154  0.35614153  0.55967425  1
  Nd3+  Nd44  1  0.61960815  0.25239115  0.94395169  1
  Nd3+  Nd45  1  0.87305863  0.73187381  0.39974077  1
  Nd3+  Nd46  1  0.49285077  0.61044639  0.55844498  1
  Nd3+  Nd47  1  0.74502459  0.10549397  0.56548963  1
  Nd3+  Nd48  1  0.23820505  0.35897794  0.56282498  1
  Nd3+  Nd49  1  0.61633247  -0.00816172  0.43717067  1
  Nd3+  Nd50  1  -0.01049271  0.61470369  0.55594612  1
  Sm3+  Sm51  1  0.36637786  0.48445869  0.44584284  1
  Sm3+  Sm52  1  0.74345358  0.86365680  0.55435541  1
  Sm3+  Sm53  1  0.37110713  0.50168429  0.95195244  1
  Sm3+  Sm54  1  0.12347405  0.25565394  0.93918375  1
  Sm3+  Sm55  1  0.24840515  0.13125143  0.05773579  1
  Sm3+  Sm56  1  0.74865274  0.62788762  0.05437923  1
  Sm3+  Sm57  1  0.61684449  0.48582947  0.44693465  1
  Sm3+  Sm58  1  0.24730895  0.62223858  0.06115368  1
  Sm3+  Sm59  1  -0.00967671  0.86168248  0.55283300  1
  Sm3+  Sm60  1  0.00090664  0.13106364  0.05522975  1
  Sm3+  Sm61  1  0.36832762  -0.00930327  0.43997096  1
  Sm3+  Sm62  1  0.12245321  0.00322794  0.94626734  1
  Sm3+  Sm63  1  0.61902866  0.75285736  0.94205855  1
  Bi2+  Bi64  1  0.02660575  0.18554646  0.30923191  1
  Bi2+  Bi65  1  0.00218293  0.09623447  0.80364659  1
  Bi2+  Bi66  1  0.03004893  0.38657673  0.30314424  1
  Bi2+  Bi67  1  -0.00915829  0.36056793  0.81217525  1
  Bi2+  Bi68  1  -0.06119243  0.65570850  0.26551314  1
  Bi2+  Bi69  1  0.00825214  0.61699521  0.80823458  1
  Bi2+  Bi70  1  0.02440353  0.90157156  0.29893918  1
  Bi2+  Bi71  1  0.08157133  0.84323206  0.78706419  1
  Bi2+  Bi72  1  0.23772538  0.11111992  0.29453426  1
  Bi2+  Bi73  1  0.30027633  0.13203320  0.78904230  1
  Bi2+  Bi74  1  0.23226440  0.39523443  0.30065044  1
  Bi2+  Bi75  1  0.27033139  0.32781752  0.78351846  1
  Bi2+  Bi76  1  0.22384175  0.64289032  0.23938733  1
  Bi2+  Bi77  1  0.26230790  0.63431344  0.75210691  1
  Bi2+  Bi78  1  0.19356294  0.79924113  0.30720453  1
  Bi2+  Bi79  1  0.30427583  0.86977859  0.79424964  1
  Bi2+  Bi80  1  0.49971855  0.11216138  0.29060293  1
  Bi2+  Bi81  1  0.50992809  0.11272338  0.81286535  1
  Bi2+  Bi82  1  0.47447945  0.40098039  0.29175052  1
  Bi2+  Bi83  1  0.55342250  0.38139417  0.80004895  1
  Bi2+  Bi84  1  0.48041856  0.66013980  0.29720297  1
  Bi2+  Bi85  1  0.52726397  0.58598987  0.80695203  1
  Bi2+  Bi86  1  0.57250643  0.86956297  0.28856245  1
  Bi2+  Bi87  1  0.52287033  0.81624258  0.78329708  1
  Bi2+  Bi88  1  0.77144893  0.13925749  0.29126132  1
  Bi2+  Bi89  1  0.75582459  0.11869406  0.81102281  1
  Bi2+  Bi90  1  0.83651328  0.39671304  0.28058550  1
  Bi2+  Bi91  1  0.71245089  0.39825444  0.73083629  1
  Bi2+  Bi92  1  0.74203048  0.64694523  0.28711583  1
  Bi2+  Bi93  1  0.76701687  0.68564791  0.79031436  1
  Bi2+  Bi94  1  0.76985263  0.86180737  0.26088282  1
  Bi2+  Bi95  1  0.80571068  0.89138057  0.73278118  1
  Bi2+  Bi96  1  0.12072314  0.02833575  0.21688741  1
  Bi2+  Bi97  1  0.15603729  0.01955083  0.73995466  1
  Bi2+  Bi98  1  0.10594126  0.24167863  0.21318458  1
  Bi2+  Bi99  1  0.13297635  0.22500274  0.71034017  1
  Bi2+  Bi100  1  0.08103323  0.51316379  0.20991311  1
  Bi2+  Bi101  1  0.13276915  0.49324870  0.71543473  1
  Bi2+  Bi102  1  0.13090751  0.80587080  0.19870443  1
  Bi2+  Bi103  1  0.19288122  0.78648203  0.69079987  1
  Bi2+  Bi104  1  0.39907041  -0.06601057  0.24699068  1
  Bi2+  Bi105  1  0.43738923  -0.01923868  0.73729949  1
  Bi2+  Bi106  1  0.35924408  0.22130518  0.21702252  1
  Bi2+  Bi107  1  0.37644897  0.27040903  0.69459333  1
  Bi2+  Bi108  1  0.40566783  0.59469120  0.19908407  1
  Bi2+  Bi109  1  0.38668877  0.47670492  0.75228402  1
  Bi2+  Bi110  1  0.35455350  0.78885111  0.17646505  1
  Bi2+  Bi111  1  0.39572857  0.75205741  0.70068472  1
  Bi2+  Bi112  1  0.64960931  -0.00482526  0.20859037  1
  Bi2+  Bi113  1  0.65202572  0.01312034  0.70401424  1
  Bi2+  Bi114  1  0.63834082  0.31134465  0.19518507  1
  Bi2+  Bi115  1  0.59260579  0.24982792  0.70593583  1
  Bi2+  Bi116  1  0.63297398  0.49033053  0.26001257  1
  Bi2+  Bi117  1  0.62009960  0.56661436  0.70495691  1
  Bi2+  Bi118  1  0.54882539  0.73780941  0.19688053  1
  Bi2+  Bi119  1  0.66009002  0.76365937  0.70588856  1
  Bi2+  Bi120  1  0.92703818  -0.00415702  0.21125241  1
  Bi2+  Bi121  1  0.97579481  -0.01104581  0.69269827  1
  Bi2+  Bi122  1  0.89794973  0.24005117  0.22195159  1
  Bi2+  Bi123  1  0.87471471  0.14992052  0.72043628  1
  Bi2+  Bi124  1  0.86689753  0.51696997  0.19240090  1
  Bi2+  Bi125  1  0.87106095  0.52238497  0.70495308  1
  Bi2+  Bi126  1  0.79992995  0.71621363  0.18311743  1
  Bi2+  Bi127  1  0.94192243  0.75249630  0.72418742  1
  S2-  S128  1  -0.08077935  0.14540907  0.14005083  1
  S2-  S129  1  -0.00603795  0.21041755  0.64886456  1
  S2-  S130  1  0.06898634  0.37256698  0.14367664  1
  S2-  S131  1  -0.01424216  0.39544071  0.71856867  1
  S2-  S132  1  -0.00478014  0.62178452  0.15009746  1
  S2-  S133  1  0.00453846  0.56208573  0.65010417  1
  S2-  S134  1  -0.01753554  0.86574308  0.15569520  1
  S2-  S135  1  0.02438549  0.83048483  0.64725699  1
  S2-  S136  1  0.23541120  0.20017335  0.14610589  1
  S2-  S137  1  0.24711054  0.16122117  0.65339427  1
  S2-  S138  1  0.30276304  0.37287660  0.21040303  1
  S2-  S139  1  0.15674329  0.36627989  0.64965439  1
  S2-  S140  1  0.22116717  0.54377751  0.14651171  1
  S2-  S141  1  0.24172807  0.57289785  0.65616658  1
  S2-  S142  1  0.22833425  0.94141370  0.15907603  1
  S2-  S143  1  0.31142978  0.88641701  0.64683408  1
  S2-  S144  1  0.43955672  0.06281366  0.18784538  1
  S2-  S145  1  0.47941974  0.15558355  0.65448337  1
  S2-  S146  1  0.48242031  0.27919217  0.15212771  1
  S2-  S147  1  0.49942472  0.37591501  0.65779968  1
  S2-  S148  1  0.50520539  0.48946409  0.14528854  1
  S2-  S149  1  0.47907125  0.62485501  0.65528749  1
  S2-  S150  1  0.60170502  0.87699567  0.14023558  1
  S2-  S151  1  0.53144563  0.94474252  0.65300580  1
  S2-  S152  1  0.64866742  0.14729456  0.15763279  1
  S2-  S153  1  0.73082936  0.16152877  0.66104374  1
  S2-  S154  1  0.78221977  0.37822546  0.14990654  1
  S2-  S155  1  0.81938097  0.38428417  0.64698448  1
  S2-  S156  1  0.66518528  0.63396862  0.13938137  1
  S2-  S157  1  0.76357367  0.63770193  0.65504708  1
  S2-  S158  1  0.78448201  0.98435249  0.14835052  1
  S2-  S159  1  0.76124020  0.95509912  0.63566905  1
  S2-  S160  1  0.11766912  0.01504980  0.35075124  1
  S2-  S161  1  0.11634957  -0.01399742  0.85058274  1
  S2-  S162  1  0.23918327  0.24743117  0.35647575  1
  S2-  S163  1  0.09390959  0.23395026  0.84375791  1
  S2-  S164  1  0.13083701  0.51440919  0.34600947  1
  S2-  S165  1  0.11442514  0.48580944  0.83289663  1
  S2-  S166  1  0.02322334  0.73130971  0.34574042  1
  S2-  S167  1  0.14216432  0.71692606  0.84538097  1
  S2-  S168  1  0.37089350  0.01584374  0.34325109  1
  S2-  S169  1  0.37525658  0.00400416  0.85171299  1
  S2-  S170  1  0.45856605  0.24896487  0.34617199  1
  S2-  S171  1  0.38793782  0.24675355  0.84779139  1
  S2-  S172  1  0.36662718  0.48041744  0.34761208  1
  S2-  S173  1  0.39478957  0.51502229  0.85597202  1
  S2-  S174  1  0.35436160  0.74301772  0.34316789  1
  S2-  S175  1  0.38948258  0.75751425  0.84730541  1
  S2-  S176  1  0.63269263  0.07719049  0.35166443  1
  S2-  S177  1  0.63131193  0.00889257  0.84219538  1
  S2-  S178  1  0.62054958  0.23084396  0.27724553  1
  S2-  S179  1  0.62496425  0.23101323  0.84524036  1
  S2-  S180  1  0.61209311  0.42649282  0.35532568  1
  S2-  S181  1  0.67003886  0.48988915  0.83993396  1
  S2-  S182  1  0.61921189  0.72882643  0.34924615  1
  S2-  S183  1  0.65621650  0.76489405  0.84736380  1
  S2-  S184  1  0.88488404  0.10966655  0.35785692  1
  S2-  S185  1  0.86615819  0.00118242  0.83907825  1
  S2-  S186  1  0.78411663  0.28177266  0.35156596  1
  S2-  S187  1  0.85475488  0.26521240  0.83574032  1
  S2-  S188  1  0.85967356  0.57696075  0.35197552  1
  S2-  S189  1  0.89540147  0.50560624  0.83291198  1
  S2-  S190  1  0.85228651  0.87886202  0.34682167  1
  S2-  S191  1  0.89563540  0.74638365  0.84462125  1
  S2-  S192  1  -0.00230674  0.11192982  0.45925782  1
  S2-  S193  1  0.00029712  0.12877403  0.95183540  1
  S2-  S194  1  -0.01003456  0.35997263  0.43965102  1
  S2-  S195  1  -0.00196378  0.37922669  0.94778974  1
  S2-  S196  1  -0.01169233  0.61554650  0.45209207  1
  S2-  S197  1  -0.00425031  0.62969898  0.94821037  1
  S2-  S198  1  -0.00839069  0.85797288  0.45053954  1
  S2-  S199  1  -0.00312579  0.87898088  0.95203555  1
  S2-  S200  1  0.24274591  0.10855401  0.45340595  1
  S2-  S201  1  0.24353763  0.12898884  0.95278857  1
  S2-  S202  1  0.24115329  0.36624393  0.45754399  1
  S2-  S203  1  0.24630698  0.38000761  0.94120057  1
  S2-  S204  1  0.24375433  0.61156506  0.45228515  1
  S2-  S205  1  0.24889436  0.62729219  0.95527761  1
  S2-  S206  1  0.24510562  0.86358754  0.45159268  1
  S2-  S207  1  0.24747594  0.87932789  0.95895191  1
  S2-  S208  1  0.49079905  0.11294020  0.45280514  1
  S2-  S209  1  0.49522129  0.13097693  0.95686242  1
  S2-  S210  1  0.49201508  0.36454743  0.45559854  1
  S2-  S211  1  0.49507680  0.37823754  0.95809272  1
  S2-  S212  1  0.49108472  0.60886637  0.45301328  1
  S2-  S213  1  0.49539461  0.62903572  0.96124670  1
  S2-  S214  1  0.48998570  0.86510176  0.45514224  1
  S2-  S215  1  0.49817186  0.87792634  0.95498678  1
  S2-  S216  1  0.73973859  0.11115643  0.45827015  1
  S2-  S217  1  0.74881692  0.13154477  0.95406628  1
  S2-  S218  1  0.73723046  0.36290961  0.45704970  1
  S2-  S219  1  0.74620703  0.37705252  0.94633864  1
  S2-  S220  1  0.74030239  0.61369229  0.45334404  1
  S2-  S221  1  0.74385347  0.62895320  0.94999327  1
  S2-  S222  1  0.74050877  0.86080807  0.45196222  1
  S2-  S223  1  0.74453470  0.87797675  0.95657352  1
  S2-  S224  1  0.12303786  0.00578860  0.05023095  1
  S2-  S225  1  0.11556093  -0.01238724  0.55309745  1
  S2-  S226  1  0.12451297  0.25453495  0.04239278  1
  S2-  S227  1  0.11661215  0.23830497  0.53998592  1
  S2-  S228  1  0.12277017  0.50354906  0.03778422  1
  S2-  S229  1  0.11121727  0.48504782  0.54569331  1
  S2-  S230  1  0.12587477  0.75108717  0.04861960  1
  S2-  S231  1  0.11577406  0.73700001  0.53903219  1
  S2-  S232  1  0.37476791  0.00837251  0.05652276  1
  S2-  S233  1  0.36747449  -0.00948530  0.54412911  1
  S2-  S234  1  0.36611200  0.25608779  0.05057542  1
  S2-  S235  1  0.36694669  0.23859251  0.54178604  1
  S2-  S236  1  0.36354997  0.49581821  0.05310776  1
  S2-  S237  1  0.36747531  0.48491152  0.55045257  1
  S2-  S238  1  0.37570307  0.74640532  0.05039808  1
  S2-  S239  1  0.36674833  0.73471790  0.54656237  1
  S2-  S240  1  0.62351216  0.01179363  0.04844660  1
  S2-  S241  1  0.61552027  -0.01514998  0.54106292  1
  S2-  S242  1  0.62477771  0.25158207  0.04817044  1
  S2-  S243  1  0.61974451  0.23494805  0.55349426  1
  S2-  S244  1  0.62684742  0.50238064  0.03918228  1
  S2-  S245  1  0.61891323  0.48670161  0.55134013  1
  S2-  S246  1  0.62391264  0.75252198  0.04240592  1
  S2-  S247  1  0.61718815  0.73990297  0.55350883  1
  S2-  S248  1  0.87902841  0.00331263  0.04253948  1
  S2-  S249  1  0.87343460  -0.01359257  0.53864372  1
  S2-  S250  1  0.87581741  0.25377385  0.03938238  1
  S2-  S251  1  0.86633651  0.23429728  0.54421988  1
  S2-  S252  1  0.87272163  0.50501919  0.03910757  1
  S2-  S253  1  0.86998495  0.48740796  0.54335849  1
  S2-  S254  1  0.87156020  0.75436325  0.04645281  1
  S2-  S255  1  0.86572829  0.74132344  0.55240992  1
