# generated using pymatgen
data_La6Ce6Pr19Nd20Sm13(BiS2)64
_symmetry_space_group_name_H-M   'P 1'
_cell_length_a   16.14926503
_cell_length_b   16.16661067
_cell_length_c   27.20360314
_cell_angle_alpha   89.97741716
_cell_angle_beta   89.94516632
_cell_angle_gamma   89.98800651
_symmetry_Int_Tables_number   1
_chemical_formula_structural   La6Ce6Pr19Nd20Sm13(BiS2)64
_chemical_formula_sum   'La6 Ce6 Pr19 Nd20 Sm13 Bi64 S128'
_cell_volume   7102.28229032
_cell_formula_units_Z   1
loop_
 _symmetry_equiv_pos_site_id
 _symmetry_equiv_pos_as_xyz
  1  'x, y, z'
loop_
 _atom_type_symbol
 _atom_type_oxidation_number
  La3+  3.0
  Ce3+  3.0
  Pr3+  3.0
  Nd3+  3.0
  Sm3+  3.0
  Bi2+  2.0
  S2-  -2.0
loop_
 _atom_site_type_symbol
 _atom_site_label
 _atom_site_symmetry_multiplicity
 _atom_site_fract_x
 _atom_site_fract_y
 _atom_site_fract_z
 _atom_site_occupancy
  La3+  La0  1  0.73817635  0.85966823  0.07464297  1
  La3+  La1  1  0.25431936  0.37471865  0.60854213  1
  La3+  La2  1  0.23056427  0.87492101  0.08912406  1
  La3+  La3  1  0.23622029  0.60935605  0.09310929  1
  La3+  La4  1  0.62111324  -0.01849468  0.89352087  1
  La3+  La5  1  0.11064091  0.49086033  0.91290200  1
  Ce3+  Ce6  1  0.74263194  0.61510062  0.06461515  1
  Ce3+  Ce7  1  0.37881920  0.26093018  0.44159574  1
  Ce3+  Ce8  1  0.23810780  0.11748367  0.06225821  1
  Ce3+  Ce9  1  0.36151284  0.49319127  0.94179486  1
  Ce3+  Ce10  1  0.63216055  0.76016039  0.43995376  1
  Ce3+  Ce11  1  0.25582919  0.87583422  0.55111195  1
  Pr3+  Pr12  1  0.74952739  0.12524447  0.09867665  1
  Pr3+  Pr13  1  0.11769691  -0.00767871  0.93085921  1
  Pr3+  Pr14  1  0.01076724  0.13616523  0.56339868  1
  Pr3+  Pr15  1  0.39017736  0.76090722  0.42229255  1
  Pr3+  Pr16  1  0.37849291  0.51010309  0.43619533  1
  Pr3+  Pr17  1  0.86451196  0.74122705  0.94553041  1
  Pr3+  Pr18  1  0.61612091  0.23847373  0.94052954  1
  Pr3+  Pr19  1  0.49080304  0.36581001  0.05798180  1
  Pr3+  Pr20  1  0.50426930  0.63519034  0.56000411  1
  Pr3+  Pr21  1  0.75207349  0.13612058  0.56686214  1
  Pr3+  Pr22  1  0.12097665  0.75491083  0.42079879  1
  Pr3+  Pr23  1  -0.00662382  0.61193159  0.06901787  1
  Pr3+  Pr24  1  0.00683498  0.63527084  0.56296630  1
  Pr3+  Pr25  1  0.64426792  0.01842790  0.40468502  1
  Pr3+  Pr26  1  0.23702571  0.36449077  0.06387144  1
  Pr3+  Pr27  1  0.36457939  -0.01052437  0.93523266  1
  Pr3+  Pr28  1  0.85855355  0.23693961  0.94053070  1
  Pr3+  Pr29  1  0.49023788  0.86938101  0.06297615  1
  Pr3+  Pr30  1  0.88223842  0.25924711  0.44385603  1
  Nd3+  Nd31  1  0.36077795  0.74211635  0.95142490  1
  Nd3+  Nd32  1  0.85984445  -0.00932183  0.94667284  1
  Nd3+  Nd33  1  0.36576429  0.24140871  0.94496113  1
  Nd3+  Nd34  1  0.26168335  0.63787779  0.57206197  1
  Nd3+  Nd35  1  0.75414249  0.63538919  0.56115633  1
  Nd3+  Nd36  1  0.61159713  0.74132947  0.93649799  1
  Nd3+  Nd37  1  -0.00795636  0.11464092  0.06036289  1
  Nd3+  Nd38  1  0.11661024  0.73993792  0.94622032  1
  Nd3+  Nd39  1  0.87770570  0.76024212  0.43902741  1
  Nd3+  Nd40  1  0.13185840  0.00628682  0.43925238  1
  Nd3+  Nd41  1  0.88050190  0.50860321  0.44397458  1
  Nd3+  Nd42  1  0.25709785  0.13199340  0.55507045  1
  Nd3+  Nd43  1  0.48754395  0.61782509  0.06269876  1
  Nd3+  Nd44  1  0.62717838  0.26075815  0.43734060  1
  Nd3+  Nd45  1  0.11302050  0.24251489  0.93402125  1
  Nd3+  Nd46  1  0.50706709  0.88600680  0.55301760  1
  Nd3+  Nd47  1  0.00764618  0.88252538  0.55665954  1
  Nd3+  Nd48  1  0.38189397  0.00755737  0.43688831  1
  Nd3+  Nd49  1  0.75403570  0.38293405  0.55546164  1
  Nd3+  Nd50  1  0.49522601  0.11227742  0.05716679  1
  Sm3+  Sm51  1  0.50475315  0.13313024  0.55209257  1
  Sm3+  Sm52  1  -0.00678508  0.86696312  0.05511098  1
  Sm3+  Sm53  1  0.13235250  0.25997318  0.44306719  1
  Sm3+  Sm54  1  0.74137577  0.36594084  0.05747782  1
  Sm3+  Sm55  1  0.50099758  0.38501942  0.56008378  1
  Sm3+  Sm56  1  0.61442852  0.49329516  0.94849631  1
  Sm3+  Sm57  1  0.13407364  0.51160999  0.44259416  1
  Sm3+  Sm58  1  0.75422201  0.88772717  0.55589612  1
  Sm3+  Sm59  1  0.62922275  0.50900761  0.44538162  1
  Sm3+  Sm60  1  0.86368426  0.49346116  0.93814264  1
  Sm3+  Sm61  1  0.87985008  0.01376246  0.44428850  1
  Sm3+  Sm62  1  -0.00938970  0.36785575  0.05077529  1
  Sm3+  Sm63  1  0.01132121  0.38706324  0.55504878  1
  Bi2+  Bi64  1  0.02281463  0.18433559  0.26959933  1
  Bi2+  Bi65  1  0.02206058  0.08225959  0.81754625  1
  Bi2+  Bi66  1  -0.02861143  0.37385145  0.29138749  1
  Bi2+  Bi67  1  0.00319318  0.31741058  0.77953096  1
  Bi2+  Bi68  1  -0.01572995  0.57380637  0.27383088  1
  Bi2+  Bi69  1  0.01502053  0.66716520  0.81356941  1
  Bi2+  Bi70  1  -0.00165468  0.92785823  0.28135618  1
  Bi2+  Bi71  1  0.01717438  0.89454702  0.79316664  1
  Bi2+  Bi72  1  0.23230136  0.14809166  0.28118245  1
  Bi2+  Bi73  1  0.20474682  0.10872560  0.78140855  1
  Bi2+  Bi74  1  0.22733129  0.35289230  0.27345816  1
  Bi2+  Bi75  1  0.28190931  0.36134190  0.80376067  1
  Bi2+  Bi76  1  0.24249711  0.62100478  0.29672796  1
  Bi2+  Bi77  1  0.28213632  0.63992648  0.80298709  1
  Bi2+  Bi78  1  0.23614119  0.89573707  0.28317070  1
  Bi2+  Bi79  1  0.22300063  0.87941288  0.78312272  1
  Bi2+  Bi80  1  0.50854791  0.17719813  0.27882709  1
  Bi2+  Bi81  1  0.47195678  0.11259160  0.79376410  1
  Bi2+  Bi82  1  0.47610581  0.39434437  0.30075686  1
  Bi2+  Bi83  1  0.49692279  0.35208856  0.73711876  1
  Bi2+  Bi84  1  0.58301381  0.60773906  0.28507696  1
  Bi2+  Bi85  1  0.53446959  0.62050561  0.77345477  1
  Bi2+  Bi86  1  0.47742562  0.86767651  0.29777921  1
  Bi2+  Bi87  1  0.48979401  0.83092794  0.78749625  1
  Bi2+  Bi88  1  0.77704338  0.13903591  0.29507581  1
  Bi2+  Bi89  1  0.75348692  0.14758347  0.81040112  1
  Bi2+  Bi90  1  0.77269957  0.36720441  0.28536569  1
  Bi2+  Bi91  1  0.71814309  0.39869920  0.80779238  1
  Bi2+  Bi92  1  0.77438309  0.63056270  0.30248625  1
  Bi2+  Bi93  1  0.73194445  0.60058958  0.79964116  1
  Bi2+  Bi94  1  0.83649776  0.81608862  0.30800426  1
  Bi2+  Bi95  1  0.71149729  0.82214791  0.75152202  1
  Bi2+  Bi96  1  0.10481049  0.05012282  0.19601716  1
  Bi2+  Bi97  1  0.10565510  -0.01037653  0.69381891  1
  Bi2+  Bi98  1  0.16312789  0.23680961  0.17614078  1
  Bi2+  Bi99  1  0.09473078  0.23388998  0.69667521  1
  Bi2+  Bi100  1  0.11522452  0.47127780  0.21090685  1
  Bi2+  Bi101  1  0.11424929  0.50078969  0.71307128  1
  Bi2+  Bi102  1  0.08701512  0.77507188  0.21258164  1
  Bi2+  Bi103  1  0.10566753  0.76427227  0.70441225  1
  Bi2+  Bi104  1  0.37775650  0.06579256  0.21935504  1
  Bi2+  Bi105  1  0.30928134  -0.00270170  0.70355969  1
  Bi2+  Bi106  1  0.35398476  0.26277041  0.20367546  1
  Bi2+  Bi107  1  0.38180723  0.18680993  0.70835113  1
  Bi2+  Bi108  1  0.39588165  0.50100969  0.20362475  1
  Bi2+  Bi109  1  0.39090894  0.53180625  0.71076796  1
  Bi2+  Bi110  1  0.41058196  0.74636834  0.21190246  1
  Bi2+  Bi111  1  0.37147397  0.79765137  0.69965294  1
  Bi2+  Bi112  1  0.60675649  -0.01119547  0.20532352  1
  Bi2+  Bi113  1  0.62428244  -0.00967964  0.69073075  1
  Bi2+  Bi114  1  0.61459748  0.31925736  0.22247970  1
  Bi2+  Bi115  1  0.63932214  0.23433636  0.69744357  1
  Bi2+  Bi116  1  0.69479529  0.50082976  0.20894456  1
  Bi2+  Bi117  1  0.62736925  0.49058915  0.70313799  1
  Bi2+  Bi118  1  0.68126441  0.76094844  0.23358349  1
  Bi2+  Bi119  1  0.64267677  0.68251064  0.68027193  1
  Bi2+  Bi120  1  0.87231189  0.00361967  0.21413476  1
  Bi2+  Bi121  1  0.86438397  0.00527284  0.76439839  1
  Bi2+  Bi122  1  0.88330120  0.28916895  0.19946722  1
  Bi2+  Bi123  1  0.82756936  0.29367260  0.72847408  1
  Bi2+  Bi124  1  0.87416377  0.53403378  0.17456110  1
  Bi2+  Bi125  1  0.88318528  0.48118208  0.76415635  1
  Bi2+  Bi126  1  0.89427117  0.71934868  0.20682512  1
  Bi2+  Bi127  1  0.86728839  0.70614402  0.73776156  1
  S2-  S128  1  -0.09204553  0.12919498  0.14713040  1
  S2-  S129  1  -0.00644685  0.11551157  0.66263865  1
  S2-  S130  1  -0.00701241  0.39772501  0.14803025  1
  S2-  S131  1  0.03166846  0.38638298  0.65188837  1
  S2-  S132  1  0.09258813  0.62992818  0.15261170  1
  S2-  S133  1  0.04024935  0.63013270  0.66191954  1
  S2-  S134  1  0.06149144  0.89120765  0.14414123  1
  S2-  S135  1  -0.00158554  0.86758871  0.65535204  1
  S2-  S136  1  0.25407270  0.02519921  0.14470700  1
  S2-  S137  1  0.24758226  0.20314734  0.64459241  1
  S2-  S138  1  0.25165270  0.45586886  0.14889265  1
  S2-  S139  1  0.22126828  0.36611276  0.71505109  1
  S2-  S140  1  0.29379397  0.62970786  0.19403227  1
  S2-  S141  1  0.24278744  0.53467085  0.65350314  1
  S2-  S142  1  0.26092766  0.82659248  0.18827677  1
  S2-  S143  1  0.23849122  0.78097966  0.63296262  1
  S2-  S144  1  0.50637241  0.11039575  0.15754997  1
  S2-  S145  1  0.52223209  0.12705633  0.65023592  1
  S2-  S146  1  0.48197108  0.36776897  0.15786491  1
  S2-  S147  1  0.42053439  0.38733077  0.64695099  1
  S2-  S148  1  0.49565869  0.61477617  0.16249148  1
  S2-  S149  1  0.41015862  0.65219553  0.64388206  1
  S2-  S150  1  0.49998667  0.85995844  0.16382863  1
  S2-  S151  1  0.50303115  0.88538424  0.65276464  1
  S2-  S152  1  0.71079978  0.10894775  0.20016201  1
  S2-  S153  1  0.74390593  0.11240878  0.66638908  1
  S2-  S154  1  0.73598991  0.28894746  0.14411950  1
  S2-  S155  1  0.73298013  0.37256614  0.65323701  1
  S2-  S156  1  0.72113182  0.71314875  0.14302739  1
  S2-  S157  1  0.80595019  0.62731370  0.65514431  1
  S2-  S158  1  0.75388935  0.91502550  0.17170198  1
  S2-  S159  1  0.74167335  0.89246940  0.65393504  1
  S2-  S160  1  0.12272181  -0.01228530  0.34085808  1
  S2-  S161  1  0.24240764  -0.00675325  0.85928130  1
  S2-  S162  1  0.13921516  0.25731617  0.34494957  1
  S2-  S163  1  0.13007536  0.34118525  0.85270753  1
  S2-  S164  1  0.11761816  0.54807463  0.34649691  1
  S2-  S165  1  0.15370399  0.54476809  0.81403999  1
  S2-  S166  1  0.16686480  0.76510425  0.32126528  1
  S2-  S167  1  0.16591589  0.74804252  0.84971138  1
  S2-  S168  1  0.36524528  -0.02653429  0.33998439  1
  S2-  S169  1  0.45921988  -0.02511218  0.84854820  1
  S2-  S170  1  0.41042356  0.24661598  0.34639663  1
  S2-  S171  1  0.36450701  0.23096935  0.84584877  1
  S2-  S172  1  0.36403020  0.50475274  0.33447484  1
  S2-  S173  1  0.35932267  0.50091504  0.84344792  1
  S2-  S174  1  0.36222385  0.73380250  0.32235898  1
  S2-  S175  1  0.40157643  0.74140335  0.85320294  1
  S2-  S176  1  0.60309376  -0.03379727  0.30854159  1
  S2-  S177  1  0.61909317  0.04395385  0.79105543  1
  S2-  S178  1  0.64020093  0.17324275  0.35229594  1
  S2-  S179  1  0.62947979  0.25602470  0.84040293  1
  S2-  S180  1  0.60855269  0.47246027  0.35052361  1
  S2-  S181  1  0.60049372  0.51326490  0.85163378  1
  S2-  S182  1  0.55782132  0.74325086  0.35387243  1
  S2-  S183  1  0.63206334  0.82253395  0.84819405  1
  S2-  S184  1  0.80279868  0.01135988  0.35650687  1
  S2-  S185  1  0.79132452  -0.01345542  0.85481344  1
  S2-  S186  1  0.90429090  0.20715455  0.34938427  1
  S2-  S187  1  0.89854846  0.23631591  0.84298816  1
  S2-  S188  1  0.86905893  0.49034131  0.34574780  1
  S2-  S189  1  0.95616524  0.51187049  0.85642997  1
  S2-  S190  1  0.97180340  0.75174481  0.35701401  1
  S2-  S191  1  0.88381526  0.74858121  0.84517894  1
  S2-  S192  1  0.00941412  0.13311276  0.45573782  1
  S2-  S193  1  -0.01142828  0.11579157  0.95402313  1
  S2-  S194  1  0.00959035  0.38565166  0.44973182  1
  S2-  S195  1  -0.01541243  0.36578438  0.94874614  1
  S2-  S196  1  0.00326177  0.62906096  0.45588444  1
  S2-  S197  1  -0.00931265  0.61629462  0.96047338  1
  S2-  S198  1  0.00051332  0.88939460  0.45065004  1
  S2-  S199  1  -0.00940537  0.86815387  0.95048294  1
  S2-  S200  1  0.25499327  0.13318881  0.44811773  1
  S2-  S201  1  0.23812560  0.12260893  0.95555728  1
  S2-  S202  1  0.25206976  0.38426317  0.44325488  1
  S2-  S203  1  0.23992953  0.36622229  0.95655821  1
  S2-  S204  1  0.25575151  0.63802179  0.44608941  1
  S2-  S205  1  0.23787424  0.61436717  0.95217096  1
  S2-  S206  1  0.25590657  0.87978487  0.44471250  1
  S2-  S207  1  0.23870513  0.86473345  0.96179215  1
  S2-  S208  1  0.50638986  0.13080325  0.44851842  1
  S2-  S209  1  0.49223979  0.11452819  0.95053908  1
  S2-  S210  1  0.50494048  0.38499353  0.45559796  1
  S2-  S211  1  0.49163675  0.36838957  0.95081019  1
  S2-  S212  1  0.50748057  0.63071023  0.45325624  1
  S2-  S213  1  0.48994376  0.61613554  0.95584515  1
  S2-  S214  1  0.51412367  0.89262370  0.44607526  1
  S2-  S215  1  0.49343402  0.86651168  0.95656324  1
  S2-  S216  1  0.75596670  0.13721106  0.45978188  1
  S2-  S217  1  0.73412784  0.11110737  0.95114239  1
  S2-  S218  1  0.75358955  0.38345063  0.44956387  1
  S2-  S219  1  0.73973301  0.37054844  0.95255898  1
  S2-  S220  1  0.75405372  0.63188162  0.45297709  1
  S2-  S221  1  0.73902511  0.61581618  0.95513364  1
  S2-  S222  1  0.75477049  0.88762128  0.45127169  1
  S2-  S223  1  0.73819017  0.86474979  0.96106666  1
  S2-  S224  1  0.11423719  -0.00659204  0.03881116  1
  S2-  S225  1  0.13330358  0.00657674  0.54657271  1
  S2-  S226  1  0.11048976  0.24230179  0.04104512  1
  S2-  S227  1  0.13452005  0.26519802  0.54687361  1
  S2-  S228  1  0.11456261  0.48876561  0.04357323  1
  S2-  S229  1  0.13359348  0.50990578  0.54677418  1
  S2-  S230  1  0.11821306  0.74320665  0.05087717  1
  S2-  S231  1  0.12644292  0.75706542  0.53273254  1
  S2-  S232  1  0.36634675  -0.00803632  0.04458904  1
  S2-  S233  1  0.38036125  0.00837409  0.54466434  1
  S2-  S234  1  0.36676967  0.23929040  0.05169635  1
  S2-  S235  1  0.38119736  0.25813989  0.54663682  1
  S2-  S236  1  0.36533675  0.49285673  0.04826603  1
  S2-  S237  1  0.37898840  0.50849132  0.54330662  1
  S2-  S238  1  0.35931091  0.74152728  0.05910999  1
  S2-  S239  1  0.38535315  0.76119927  0.53168348  1
  S2-  S240  1  0.62209822  -0.00503904  0.06455043  1
  S2-  S241  1  0.63110611  0.01101775  0.54597579  1
  S2-  S242  1  0.61755384  0.24004963  0.04784058  1
  S2-  S243  1  0.62520662  0.26064066  0.54485071  1
  S2-  S244  1  0.61700395  0.49110698  0.05381639  1
  S2-  S245  1  0.62867688  0.50722836  0.55066869  1
  S2-  S246  1  0.61021280  0.73908761  0.04318609  1
  S2-  S247  1  0.63242190  0.76168629  0.54594389  1
  S2-  S248  1  0.86693401  -0.01109778  0.05236795  1
  S2-  S249  1  0.88085522  0.01028053  0.54980667  1
  S2-  S250  1  0.86575997  0.24337310  0.04493132  1
  S2-  S251  1  0.88352539  0.26196839  0.55210007  1
  S2-  S252  1  0.86439621  0.48887037  0.04251765  1
  S2-  S253  1  0.88106375  0.50610611  0.54989257  1
  S2-  S254  1  0.87284456  0.74096418  0.05174337  1
  S2-  S255  1  0.87773457  0.76137856  0.54633437  1
