# generated using pymatgen
data_La6Ce6Pr19Nd20Sm13(BiS2)64
_symmetry_space_group_name_H-M   'P 1'
_cell_length_a   16.06928351
_cell_length_b   16.12917393
_cell_length_c   27.29195800
_cell_angle_alpha   90.31322442
_cell_angle_beta   89.96163597
_cell_angle_gamma   90.09333485
_symmetry_Int_Tables_number   1
_chemical_formula_structural   La6Ce6Pr19Nd20Sm13(BiS2)64
_chemical_formula_sum   'La6 Ce6 Pr19 Nd20 Sm13 Bi64 S128'
_cell_volume   7073.52954386
_cell_formula_units_Z   1
loop_
 _symmetry_equiv_pos_site_id
 _symmetry_equiv_pos_as_xyz
  1  'x, y, z'
loop_
 _atom_type_symbol
 _atom_type_oxidation_number
  La3+  3.0
  Ce3+  3.0
  Pr3+  3.0
  Nd3+  3.0
  Sm3+  3.0
  Bi2+  2.0
  S2-  -2.0
loop_
 _atom_site_type_symbol
 _atom_site_label
 _atom_site_symmetry_multiplicity
 _atom_site_fract_x
 _atom_site_fract_y
 _atom_site_fract_z
 _atom_site_occupancy
  La3+  La0  1  0.87061628  0.73732553  0.90720391  1
  La3+  La1  1  0.38331277  -0.00706457  0.39559162  1
  La3+  La2  1  0.12359825  0.24865234  0.40559937  1
  La3+  La3  1  0.60861506  0.48911967  0.91078593  1
  La3+  La4  1  0.48340714  0.12034985  0.57241863  1
  La3+  La5  1  -0.02152630  0.37444111  0.10429251  1
  Ce3+  Ce6  1  0.61259032  0.24281046  0.44952467  1
  Ce3+  Ce7  1  0.49646567  0.62173975  0.57251560  1
  Ce3+  Ce8  1  0.86656057  0.74714842  0.45027237  1
  Ce3+  Ce9  1  0.48549870  0.37735778  0.59076335  1
  Ce3+  Ce10  1  0.60683130  0.24152528  0.93691640  1
  Ce3+  Ce11  1  0.10768955  0.49567416  0.43152724  1
  Pr3+  Pr12  1  0.48156415  0.87395275  0.56727222  1
  Pr3+  Pr13  1  0.60503589  -0.00689944  0.92466418  1
  Pr3+  Pr14  1  0.36759811  0.49137595  0.43673926  1
  Pr3+  Pr15  1  0.48760670  0.36825392  0.06520642  1
  Pr3+  Pr16  1  0.12050649  -0.00307572  0.43370870  1
  Pr3+  Pr17  1  0.11029222  -0.00782508  0.93029080  1
  Pr3+  Pr18  1  0.36544795  0.74251904  0.93892219  1
  Pr3+  Pr19  1  0.24374080  0.62079663  0.54970641  1
  Pr3+  Pr20  1  0.36094826  0.49034284  0.93053531  1
  Pr3+  Pr21  1  0.73991135  0.86923176  0.04657810  1
  Pr3+  Pr22  1  0.22904250  0.86950560  0.06833499  1
  Pr3+  Pr23  1  0.87091239  -0.01127320  0.42803913  1
  Pr3+  Pr24  1  0.23394694  0.11688361  0.06791079  1
  Pr3+  Pr25  1  0.23945690  0.36761944  0.06906903  1
  Pr3+  Pr26  1  -0.01120643  0.87949239  0.57302189  1
  Pr3+  Pr27  1  0.86720674  0.48994629  0.93041999  1
  Pr3+  Pr28  1  -0.00897340  0.61566253  0.06062628  1
  Pr3+  Pr29  1  -0.00954940  0.62851355  0.57869441  1
  Pr3+  Pr30  1  0.86534993  0.49893179  0.43592735  1
  Nd3+  Nd31  1  0.73976656  0.11978987  0.04776166  1
  Nd3+  Nd32  1  0.49060363  0.61697973  0.05365102  1
  Nd3+  Nd33  1  0.11487060  0.24309460  0.94445902  1
  Nd3+  Nd34  1  -0.01464186  0.86882690  0.05962787  1
  Nd3+  Nd35  1  0.11587789  0.74921681  0.44133594  1
  Nd3+  Nd36  1  0.61570909  0.74698060  0.44836883  1
  Nd3+  Nd37  1  0.61634746  -0.00145178  0.44386408  1
  Nd3+  Nd38  1  0.74072059  0.61464782  0.05145106  1
  Nd3+  Nd39  1  0.74157708  0.61906784  0.57378421  1
  Nd3+  Nd40  1  0.74016010  0.12394937  0.55891459  1
  Nd3+  Nd41  1  0.24052237  0.61643770  0.06097993  1
  Nd3+  Nd42  1  -0.01368534  0.12073616  0.05896360  1
  Nd3+  Nd43  1  0.24046369  0.37436447  0.56411765  1
  Nd3+  Nd44  1  -0.00897417  0.37854598  0.56437253  1
  Nd3+  Nd45  1  0.11513157  0.74182100  0.93547860  1
  Nd3+  Nd46  1  -0.00827502  0.12112820  0.56226745  1
  Nd3+  Nd47  1  0.24021179  0.12360644  0.56167739  1
  Nd3+  Nd48  1  0.37787164  0.74482494  0.42918390  1
  Nd3+  Nd49  1  0.61256603  0.49465579  0.43910859  1
  Nd3+  Nd50  1  0.48588022  0.87090333  0.06313061  1
  Sm3+  Sm51  1  0.35902002  0.24103618  0.93987052  1
  Sm3+  Sm52  1  0.87092716  0.24641287  0.44620795  1
  Sm3+  Sm53  1  0.11764775  0.49036772  0.94222579  1
  Sm3+  Sm54  1  0.36391815  0.24456517  0.44766850  1
  Sm3+  Sm55  1  0.35569495  -0.00977038  0.93583938  1
  Sm3+  Sm56  1  0.73880638  0.37309149  0.55981598  1
  Sm3+  Sm57  1  0.61596429  0.74450365  0.94094404  1
  Sm3+  Sm58  1  0.48939260  0.11600108  0.05862574  1
  Sm3+  Sm59  1  0.24450659  0.87371376  0.55301226  1
  Sm3+  Sm60  1  0.86767294  -0.00610606  0.93111311  1
  Sm3+  Sm61  1  0.86502616  0.25026676  0.93649435  1
  Sm3+  Sm62  1  0.73869944  0.87664287  0.56432000  1
  Sm3+  Sm63  1  0.73840697  0.36934205  0.05168677  1
  Bi2+  Bi64  1  -0.05800318  0.13533012  0.29684521  1
  Bi2+  Bi65  1  0.03416653  0.19932429  0.80926589  1
  Bi2+  Bi66  1  -0.02322552  0.39611922  0.29451142  1
  Bi2+  Bi67  1  0.02119636  0.39924649  0.79667006  1
  Bi2+  Bi68  1  -0.04675586  0.63331573  0.27292389  1
  Bi2+  Bi69  1  0.01581950  0.60157898  0.78788924  1
  Bi2+  Bi70  1  -0.02397421  0.88274726  0.28873136  1
  Bi2+  Bi71  1  0.09237028  0.88445125  0.79870098  1
  Bi2+  Bi72  1  0.26949002  0.13664707  0.28135802  1
  Bi2+  Bi73  1  0.22698979  0.09569815  0.78419680  1
  Bi2+  Bi74  1  0.28940721  0.40638918  0.30351149  1
  Bi2+  Bi75  1  0.22250594  0.36472858  0.78545236  1
  Bi2+  Bi76  1  0.25686385  0.59740059  0.30074673  1
  Bi2+  Bi77  1  0.20401832  0.63564232  0.81593347  1
  Bi2+  Bi78  1  0.23087418  0.88211065  0.28492015  1
  Bi2+  Bi79  1  0.25973390  0.89108873  0.73462822  1
  Bi2+  Bi80  1  0.55791312  0.15018825  0.24978663  1
  Bi2+  Bi81  1  0.54211459  0.12125200  0.80203147  1
  Bi2+  Bi82  1  0.54536815  0.35202793  0.30566378  1
  Bi2+  Bi83  1  0.49637492  0.34004842  0.78823477  1
  Bi2+  Bi84  1  0.54569347  0.60065256  0.29051978  1
  Bi2+  Bi85  1  0.39789487  0.63079580  0.79913006  1
  Bi2+  Bi86  1  0.51716481  0.84177714  0.28869442  1
  Bi2+  Bi87  1  0.50596643  0.86832807  0.79947827  1
  Bi2+  Bi88  1  0.74799205  0.14880701  0.30601932  1
  Bi2+  Bi89  1  0.84059374  0.16441006  0.78613804  1
  Bi2+  Bi90  1  0.72815237  0.41396401  0.28109735  1
  Bi2+  Bi91  1  0.79453068  0.37067511  0.77224447  1
  Bi2+  Bi92  1  0.79193069  0.67494488  0.33197675  1
  Bi2+  Bi93  1  0.73629144  0.64930819  0.79132565  1
  Bi2+  Bi94  1  0.72670679  0.95470338  0.30980848  1
  Bi2+  Bi95  1  0.78556935  0.94228715  0.76639407  1
  Bi2+  Bi96  1  0.14734776  -0.00955586  0.19229561  1
  Bi2+  Bi97  1  0.14053698  0.04666625  0.68511940  1
  Bi2+  Bi98  1  0.10556220  0.22960202  0.20428038  1
  Bi2+  Bi99  1  0.13680951  0.24407134  0.66346583  1
  Bi2+  Bi100  1  0.12120757  0.52257295  0.20654549  1
  Bi2+  Bi101  1  0.14207659  0.49638509  0.71102153  1
  Bi2+  Bi102  1  0.13227456  0.72459099  0.24654902  1
  Bi2+  Bi103  1  0.15518298  0.72090076  0.71652062  1
  Bi2+  Bi104  1  0.40924606  -0.01221911  0.19982414  1
  Bi2+  Bi105  1  0.42846718  -0.00848971  0.69986248  1
  Bi2+  Bi106  1  0.40512196  0.30697901  0.23028123  1
  Bi2+  Bi107  1  0.31449495  0.23184589  0.71692680  1
  Bi2+  Bi108  1  0.36190741  0.51390724  0.20859063  1
  Bi2+  Bi109  1  0.34544541  0.49772391  0.71728038  1
  Bi2+  Bi110  1  0.39675781  0.70079386  0.24455403  1
  Bi2+  Bi111  1  0.37483493  0.72858074  0.69953058  1
  Bi2+  Bi112  1  0.66210022  0.00248798  0.19418807  1
  Bi2+  Bi113  1  0.67255185  0.01134759  0.68886563  1
  Bi2+  Bi114  1  0.59292379  0.33911711  0.18466873  1
  Bi2+  Bi115  1  0.69617536  0.24095514  0.71451706  1
  Bi2+  Bi116  1  0.58536924  0.53297527  0.18750910  1
  Bi2+  Bi117  1  0.62098896  0.49643412  0.70643152  1
  Bi2+  Bi118  1  0.69521921  0.77109018  0.25648149  1
  Bi2+  Bi119  1  0.56677704  0.74749259  0.72460492  1
  Bi2+  Bi120  1  0.85664134  -0.01012044  0.21825554  1
  Bi2+  Bi121  1  0.97005108  0.01447195  0.75012683  1
  Bi2+  Bi122  1  0.77644570  0.26198191  0.21066841  1
  Bi2+  Bi123  1  0.95984904  0.27147858  0.70829176  1
  Bi2+  Bi124  1  0.82181319  0.52970855  0.20774817  1
  Bi2+  Bi125  1  0.87814867  0.51435195  0.70931295  1
  Bi2+  Bi126  1  0.87965193  0.78409627  0.20629959  1
  Bi2+  Bi127  1  0.89498523  0.77330822  0.71486470  1
  S2-  S128  1  0.02710890  0.09702284  0.15478611  1
  S2-  S129  1  -0.01535245  0.01306338  0.64134971  1
  S2-  S130  1  -0.03695919  0.30354033  0.20324267  1
  S2-  S131  1  0.00875868  0.48965259  0.64274188  1
  S2-  S132  1  -0.02310970  0.53350296  0.14930117  1
  S2-  S133  1  -0.14421252  0.64301328  0.65069799  1
  S2-  S134  1  0.08872491  0.87131620  0.13981261  1
  S2-  S135  1  0.01917233  0.76972371  0.65334347  1
  S2-  S136  1  0.24873345  0.13248679  0.16924422  1
  S2-  S137  1  0.34577013  0.10794102  0.64494968  1
  S2-  S138  1  0.13965985  0.37002197  0.15332667  1
  S2-  S139  1  0.33658131  0.36383260  0.64918521  1
  S2-  S140  1  0.17393006  0.64549408  0.15146882  1
  S2-  S141  1  0.25129389  0.61085690  0.65038037  1
  S2-  S142  1  0.30426865  0.88846929  0.16056758  1
  S2-  S143  1  0.33974302  0.86663432  0.63660159  1
  S2-  S144  1  0.48579470  0.12727658  0.15656292  1
  S2-  S145  1  0.54580891  0.11109212  0.67029811  1
  S2-  S146  1  0.36727859  0.37978411  0.14010540  1
  S2-  S147  1  0.55550204  0.33810998  0.68424448  1
  S2-  S148  1  0.45621102  0.64116563  0.15002710  1
  S2-  S149  1  0.47521136  0.52036940  0.65163891  1
  S2-  S150  1  0.52787588  0.89571048  0.15872168  1
  S2-  S151  1  0.56056753  0.88454245  0.65970989  1
  S2-  S152  1  0.75997253  0.12257752  0.14591782  1
  S2-  S153  1  0.78088065  0.13763365  0.65554619  1
  S2-  S154  1  0.80656761  0.38827157  0.14069692  1
  S2-  S155  1  0.75183380  0.42384842  0.65382499  1
  S2-  S156  1  0.72236949  0.62522051  0.15091191  1
  S2-  S157  1  0.63168134  0.63478647  0.65203772  1
  S2-  S158  1  0.77443754  0.88358061  0.14459668  1
  S2-  S159  1  0.79273608  0.87884048  0.65840266  1
  S2-  S160  1  0.22457271  0.01641702  0.35014609  1
  S2-  S161  1  0.23684588  -0.01529324  0.85951955  1
  S2-  S162  1  0.09796881  0.18666075  0.30705266  1
  S2-  S163  1  0.19632167  0.22923472  0.85608184  1
  S2-  S164  1  0.12550187  0.39286267  0.34828970  1
  S2-  S165  1  0.22574889  0.47793072  0.86310402  1
  S2-  S166  1  0.10760830  0.79662288  0.34525593  1
  S2-  S167  1  0.02535149  0.75481571  0.85011573  1
  S2-  S168  1  0.41147249  0.06938326  0.29829717  1
  S2-  S169  1  0.46083134  0.00423252  0.85684466  1
  S2-  S170  1  0.29676338  0.25044246  0.35618586  1
  S2-  S171  1  0.42050077  0.23511700  0.84638126  1
  S2-  S172  1  0.48964755  0.49014934  0.36182128  1
  S2-  S173  1  0.46613604  0.47374096  0.84937284  1
  S2-  S174  1  0.35374399  0.84074537  0.34448370  1
  S2-  S175  1  0.37277007  0.79243017  0.84287950  1
  S2-  S176  1  0.55593444  -0.03907292  0.35307866  1
  S2-  S177  1  0.66131578  0.02054554  0.82949034  1
  S2-  S178  1  0.59852834  0.20051394  0.35414438  1
  S2-  S179  1  0.62523709  0.27040615  0.84048739  1
  S2-  S180  1  0.73603547  0.51174813  0.36450208  1
  S2-  S181  1  0.66548692  0.50912040  0.81277594  1
  S2-  S182  1  0.52435742  0.72271295  0.36417724  1
  S2-  S183  1  0.61170694  0.74346897  0.84334941  1
  S2-  S184  1  0.99717026  0.00831515  0.35781305  1
  S2-  S185  1  0.98406041  -0.01202536  0.85756624  1
  S2-  S186  1  0.90561607  0.28700072  0.35191801  1
  S2-  S187  1  0.87029976  0.36027771  0.85829245  1
  S2-  S188  1  0.98340682  0.52891085  0.35999452  1
  S2-  S189  1  0.86397512  0.59317252  0.84609495  1
  S2-  S190  1  0.86953199  0.83212082  0.36481218  1
  S2-  S191  1  0.82463069  0.80367451  0.81442705  1
  S2-  S192  1  -0.00398077  0.12985234  0.45605847  1
  S2-  S193  1  -0.01634136  0.12421996  0.95238414  1
  S2-  S194  1  -0.00733175  0.36857661  0.45908588  1
  S2-  S195  1  -0.00344061  0.36833941  0.95161334  1
  S2-  S196  1  -0.00927276  0.62763683  0.46580209  1
  S2-  S197  1  -0.00531128  0.61410285  0.95247842  1
  S2-  S198  1  -0.00555706  0.87144755  0.46444885  1
  S2-  S199  1  -0.01653384  0.86416060  0.95518207  1
  S2-  S200  1  0.23448645  0.13118393  0.45732010  1
  S2-  S201  1  0.23925328  0.11676135  0.96061489  1
  S2-  S202  1  0.23943968  0.37150635  0.45839079  1
  S2-  S203  1  0.24087443  0.36385305  0.96207913  1
  S2-  S204  1  0.24273087  0.62255926  0.44314905  1
  S2-  S205  1  0.23911092  0.61993334  0.95577649  1
  S2-  S206  1  0.24551766  0.86912899  0.45128093  1
  S2-  S207  1  0.23786271  0.86416460  0.95931452  1
  S2-  S208  1  0.48402801  0.11752483  0.45531098  1
  S2-  S209  1  0.48359170  0.11806763  0.95565316  1
  S2-  S210  1  0.48985692  0.36505632  0.45974257  1
  S2-  S211  1  0.48554576  0.36482208  0.95727678  1
  S2-  S212  1  0.49161300  0.61741642  0.46514966  1
  S2-  S213  1  0.49371975  0.61916709  0.94788584  1
  S2-  S214  1  0.49097375  0.87413322  0.45927673  1
  S2-  S215  1  0.48941347  0.86696227  0.95575819  1
  S2-  S216  1  0.74652185  0.12074333  0.45252561  1
  S2-  S217  1  0.74377428  0.12055272  0.94155558  1
  S2-  S218  1  0.74078898  0.36492525  0.45552215  1
  S2-  S219  1  0.73209264  0.36898099  0.94874184  1
  S2-  S220  1  0.73838304  0.62509346  0.46742392  1
  S2-  S221  1  0.73454707  0.61730301  0.94546345  1
  S2-  S222  1  0.73734148  0.87353992  0.45903216  1
  S2-  S223  1  0.74232642  0.86971336  0.93993616  1
  S2-  S224  1  0.10903936  -0.00343516  0.03802252  1
  S2-  S225  1  0.12063450  -0.00405430  0.54259679  1
  S2-  S226  1  0.10912620  0.24415878  0.05076732  1
  S2-  S227  1  0.11292224  0.24999285  0.55241194  1
  S2-  S228  1  0.11532744  0.49173604  0.04535951  1
  S2-  S229  1  0.11774216  0.49808733  0.54053752  1
  S2-  S230  1  0.11201517  0.74104900  0.04061858  1
  S2-  S231  1  0.12169336  0.74934498  0.54786891  1
  S2-  S232  1  0.36349105  -0.00532999  0.04532879  1
  S2-  S233  1  0.36164388  -0.00081387  0.54060535  1
  S2-  S234  1  0.36438386  0.23625437  0.04669057  1
  S2-  S235  1  0.36655828  0.25061198  0.54901846  1
  S2-  S236  1  0.36486841  0.49685713  0.03935365  1
  S2-  S237  1  0.36685210  0.49510248  0.54291471  1
  S2-  S238  1  0.36339143  0.74445086  0.04714334  1
  S2-  S239  1  0.36805576  0.74322668  0.53823151  1
  S2-  S240  1  0.61337371  -0.00514255  0.03739046  1
  S2-  S241  1  0.61482178  -0.00033356  0.54954352  1
  S2-  S242  1  0.61337881  0.24235043  0.04527145  1
  S2-  S243  1  0.61397315  0.24849678  0.55625164  1
  S2-  S244  1  0.61356364  0.49134467  0.04202102  1
  S2-  S245  1  0.61563571  0.49183241  0.54752057  1
  S2-  S246  1  0.61395956  0.74432931  0.04652977  1
  S2-  S247  1  0.61701480  0.75418156  0.55251738  1
  S2-  S248  1  0.86516350  -0.00500694  0.03699485  1
  S2-  S249  1  0.86137990  -0.00036233  0.53936265  1
  S2-  S250  1  0.86482464  0.24770344  0.04166117  1
  S2-  S251  1  0.86709450  0.25008356  0.55123041  1
  S2-  S252  1  0.86442278  0.49148631  0.03756090  1
  S2-  S253  1  0.86291663  0.49563057  0.54379056  1
  S2-  S254  1  0.86436804  0.74108760  0.04485077  1
  S2-  S255  1  0.86283463  0.75513768  0.55208756  1
