# generated using pymatgen
data_La6Ce6Pr19Nd20Sm13(BiS2)64
_symmetry_space_group_name_H-M   'P 1'
_cell_length_a   16.05466420
_cell_length_b   16.03739365
_cell_length_c   27.22046215
_cell_angle_alpha   89.78808051
_cell_angle_beta   89.68303100
_cell_angle_gamma   89.81039952
_symmetry_Int_Tables_number   1
_chemical_formula_structural   La6Ce6Pr19Nd20Sm13(BiS2)64
_chemical_formula_sum   'La6 Ce6 Pr19 Nd20 Sm13 Bi64 S128'
_cell_volume   7008.39457917
_cell_formula_units_Z   1
loop_
 _symmetry_equiv_pos_site_id
 _symmetry_equiv_pos_as_xyz
  1  'x, y, z'
loop_
 _atom_type_symbol
 _atom_type_oxidation_number
  La3+  3.0
  Ce3+  3.0
  Pr3+  3.0
  Nd3+  3.0
  Sm3+  3.0
  Bi2+  2.0
  S2-  -2.0
loop_
 _atom_site_type_symbol
 _atom_site_label
 _atom_site_symmetry_multiplicity
 _atom_site_fract_x
 _atom_site_fract_y
 _atom_site_fract_z
 _atom_site_occupancy
  La3+  La0  1  0.37501458  0.04273090  0.41716388  1
  La3+  La1  1  0.11323186  0.78167694  0.42240457  1
  La3+  La2  1  0.00042584  0.89544233  0.08474416  1
  La3+  La3  1  0.63558992  0.27431342  0.91334475  1
  La3+  La4  1  -0.00209831  0.39404087  0.05972987  1
  La3+  La5  1  0.25193974  0.63561792  0.11031188  1
  Ce3+  Ce6  1  -0.00133997  0.90406331  0.56950967  1
  Ce3+  Ce7  1  0.49064072  0.66841501  0.56739158  1
  Ce3+  Ce8  1  0.62429004  0.76767101  0.93349897  1
  Ce3+  Ce9  1  0.74193858  0.90989403  0.55553159  1
  Ce3+  Ce10  1  0.87498573  0.03486546  0.45087743  1
  Ce3+  Ce11  1  0.75137503  0.38817405  0.05705125  1
  Pr3+  Pr12  1  0.49885021  0.89260192  0.07783589  1
  Pr3+  Pr13  1  0.49373778  0.91532885  0.56178317  1
  Pr3+  Pr14  1  0.62892679  0.52143437  0.93270379  1
  Pr3+  Pr15  1  -0.00163938  0.64379653  0.07620851  1
  Pr3+  Pr16  1  0.62368464  0.01240195  0.93169947  1
  Pr3+  Pr17  1  -0.00629506  0.16469460  0.57310951  1
  Pr3+  Pr18  1  0.75034257  0.64084805  0.06671140  1
  Pr3+  Pr19  1  0.75106494  0.14105149  0.04796389  1
  Pr3+  Pr20  1  0.24351314  0.40858827  0.55677780  1
  Pr3+  Pr21  1  0.49168811  0.40951664  0.56688011  1
  Pr3+  Pr22  1  0.62239978  0.04250326  0.42456166  1
  Pr3+  Pr23  1  0.36981369  0.54430932  0.43005341  1
  Pr3+  Pr24  1  -0.00100419  0.65914203  0.57622588  1
  Pr3+  Pr25  1  0.23817115  0.15480465  0.55818243  1
  Pr3+  Pr26  1  0.62010875  0.53752974  0.43954908  1
  Pr3+  Pr27  1  0.37424465  0.76809800  0.94335028  1
  Pr3+  Pr28  1  0.74352278  0.66848715  0.57219564  1
  Pr3+  Pr29  1  0.88003510  0.76462734  0.93950680  1
  Pr3+  Pr30  1  0.87130588  0.28987766  0.44378419  1
  Nd3+  Nd31  1  0.74918558  0.88926611  0.06133289  1
  Nd3+  Nd32  1  0.24380411  0.39002973  0.07054066  1
  Nd3+  Nd33  1  0.24773300  0.14077382  0.05674537  1
  Nd3+  Nd34  1  0.25328837  0.88967065  0.07760501  1
  Nd3+  Nd35  1  0.11863640  0.53669030  0.43837620  1
  Nd3+  Nd36  1  0.37445865  0.51229168  0.94253715  1
  Nd3+  Nd37  1  0.12546706  0.26752359  0.92725355  1
  Nd3+  Nd38  1  0.74050600  0.41261485  0.57257664  1
  Nd3+  Nd39  1  0.87879186  0.52309695  0.92983233  1
  Nd3+  Nd40  1  0.87096782  0.53749074  0.44955968  1
  Nd3+  Nd41  1  0.24108128  0.91288243  0.54874236  1
  Nd3+  Nd42  1  0.50742364  0.38845333  0.06185264  1
  Nd3+  Nd43  1  0.24965116  0.65913401  0.56557824  1
  Nd3+  Nd44  1  -0.00539124  0.41234423  0.57475670  1
  Nd3+  Nd45  1  0.49854602  0.63862722  0.06279119  1
  Nd3+  Nd46  1  0.12855741  0.76620708  0.94884464  1
  Nd3+  Nd47  1  0.50418631  0.14085300  0.05960404  1
  Nd3+  Nd48  1  0.10974083  0.03737999  0.41886844  1
  Nd3+  Nd49  1  0.88130469  0.00823249  0.93099982  1
  Nd3+  Nd50  1  -0.00045760  0.13843590  0.05757934  1
  Sm3+  Sm51  1  0.11667561  0.29060583  0.43264198  1
  Sm3+  Sm52  1  0.88315107  0.26640424  0.92543978  1
  Sm3+  Sm53  1  0.12820370  0.00831710  0.93929712  1
  Sm3+  Sm54  1  0.62045976  0.29042891  0.43629957  1
  Sm3+  Sm55  1  0.12719327  0.52380875  0.93929263  1
  Sm3+  Sm56  1  0.36735880  0.79008052  0.43861791  1
  Sm3+  Sm57  1  0.37590801  0.26616486  0.94576951  1
  Sm3+  Sm58  1  0.37028871  0.28601673  0.43968027  1
  Sm3+  Sm59  1  0.48662967  0.15786118  0.56761878  1
  Sm3+  Sm60  1  0.37577855  0.01464448  0.94743000  1
  Sm3+  Sm61  1  0.61869468  0.78399108  0.43463850  1
  Sm3+  Sm62  1  0.73883161  0.15959283  0.55872672  1
  Sm3+  Sm63  1  0.87089726  0.78394626  0.44062304  1
  Bi2+  Bi64  1  0.00267441  0.14763042  0.28367919  1
  Bi2+  Bi65  1  -0.00684879  0.07864665  0.81718266  1
  Bi2+  Bi66  1  -0.01025124  0.34890501  0.28847596  1
  Bi2+  Bi67  1  0.01804522  0.30974358  0.75001141  1
  Bi2+  Bi68  1  -0.00176989  0.58024439  0.31532930  1
  Bi2+  Bi69  1  -0.00331155  0.58044436  0.80036589  1
  Bi2+  Bi70  1  -0.03715281  0.89255452  0.30166522  1
  Bi2+  Bi71  1  0.01646956  0.87261182  0.79102467  1
  Bi2+  Bi72  1  0.25994442  0.12431334  0.29328839  1
  Bi2+  Bi73  1  0.18889393  0.09612932  0.80101505  1
  Bi2+  Bi74  1  0.26179520  0.31353715  0.25576516  1
  Bi2+  Bi75  1  0.20091241  0.30309317  0.80059748  1
  Bi2+  Bi76  1  0.28111613  0.59121179  0.29334511  1
  Bi2+  Bi77  1  0.25090513  0.61338585  0.81393675  1
  Bi2+  Bi78  1  0.25543766  0.83219736  0.29369771  1
  Bi2+  Bi79  1  0.26713900  0.88676817  0.79860159  1
  Bi2+  Bi80  1  0.51339429  0.18548026  0.28294993  1
  Bi2+  Bi81  1  0.53878009  0.03024585  0.77305718  1
  Bi2+  Bi82  1  0.51013582  0.40694859  0.29188673  1
  Bi2+  Bi83  1  0.45962881  0.34659247  0.79609651  1
  Bi2+  Bi84  1  0.53903075  0.60178023  0.27591602  1
  Bi2+  Bi85  1  0.50596065  0.58897999  0.73158657  1
  Bi2+  Bi86  1  0.55721595  0.86633840  0.30155157  1
  Bi2+  Bi87  1  0.48474191  0.84557123  0.79860935  1
  Bi2+  Bi88  1  0.72690129  0.07460363  0.29212496  1
  Bi2+  Bi89  1  0.80103069  0.07899932  0.79745295  1
  Bi2+  Bi90  1  0.72670882  0.36482595  0.27637863  1
  Bi2+  Bi91  1  0.69892522  0.31846476  0.77178814  1
  Bi2+  Bi92  1  0.74026228  0.64259763  0.28617626  1
  Bi2+  Bi93  1  0.74972227  0.55959525  0.80558137  1
  Bi2+  Bi94  1  0.75540783  0.87741379  0.30081685  1
  Bi2+  Bi95  1  0.77416212  0.87963652  0.77808547  1
  Bi2+  Bi96  1  0.12375557  0.00678598  0.21725222  1
  Bi2+  Bi97  1  0.10802560  0.00941028  0.70787481  1
  Bi2+  Bi98  1  0.13466408  0.21258866  0.19590150  1
  Bi2+  Bi99  1  0.23509151  0.23913126  0.69278453  1
  Bi2+  Bi100  1  0.14088377  0.46092845  0.21805420  1
  Bi2+  Bi101  1  0.12791750  0.47359699  0.73788702  1
  Bi2+  Bi102  1  0.09097109  0.73065459  0.22437044  1
  Bi2+  Bi103  1  0.10881585  0.75768211  0.71988015  1
  Bi2+  Bi104  1  0.39954319  0.08493847  0.20867710  1
  Bi2+  Bi105  1  0.35963068  -0.07509227  0.68989204  1
  Bi2+  Bi106  1  0.42104388  0.27948368  0.18878098  1
  Bi2+  Bi107  1  0.36383579  0.10848955  0.73904828  1
  Bi2+  Bi108  1  0.48008049  0.47871985  0.18639266  1
  Bi2+  Bi109  1  0.35012566  0.46630637  0.73620044  1
  Bi2+  Bi110  1  0.46324778  0.78107422  0.21081249  1
  Bi2+  Bi111  1  0.35400774  0.73491931  0.69738505  1
  Bi2+  Bi112  1  0.63428472  -0.03418539  0.21185041  1
  Bi2+  Bi113  1  0.64748294  -0.06517149  0.69427020  1
  Bi2+  Bi114  1  0.64542377  0.23955430  0.19970975  1
  Bi2+  Bi115  1  0.59312470  0.16996723  0.69979081  1
  Bi2+  Bi116  1  0.65788060  0.57517826  0.18488220  1
  Bi2+  Bi117  1  0.57093869  0.41595125  0.69639634  1
  Bi2+  Bi118  1  0.64288753  0.77762299  0.16002388  1
  Bi2+  Bi119  1  0.63531587  0.72880670  0.75905165  1
  Bi2+  Bi120  1  0.86812842  0.03276002  0.21045550  1
  Bi2+  Bi121  1  0.91389949  -0.02976243  0.70349751  1
  Bi2+  Bi122  1  0.86874190  0.26439078  0.20946928  1
  Bi2+  Bi123  1  0.89560876  0.16908868  0.70958554  1
  Bi2+  Bi124  1  0.84729440  0.48760286  0.21826442  1
  Bi2+  Bi125  1  0.87264468  0.48200402  0.70983406  1
  Bi2+  Bi126  1  0.83136134  0.75894353  0.20474147  1
  Bi2+  Bi127  1  0.84259579  0.72994252  0.70752120  1
  S2-  S128  1  0.00224373  0.04957956  0.14512799  1
  S2-  S129  1  0.12657287  0.13843873  0.64124019  1
  S2-  S130  1  0.10480432  0.35487378  0.13935188  1
  S2-  S131  1  -0.01771869  0.29343152  0.64915196  1
  S2-  S132  1  0.09384186  0.59692198  0.16141038  1
  S2-  S133  1  -0.00568824  0.53116728  0.65221725  1
  S2-  S134  1  -0.01773518  0.76842753  0.15582310  1
  S2-  S135  1  -0.01442977  0.78561557  0.64831391  1
  S2-  S136  1  0.24747529  0.09012094  0.15289220  1
  S2-  S137  1  0.34787253  0.13703787  0.63867128  1
  S2-  S138  1  0.27299735  0.47744903  0.15745632  1
  S2-  S139  1  0.23707660  0.41214652  0.65834325  1
  S2-  S140  1  0.25110808  0.70915229  0.21287098  1
  S2-  S141  1  0.19018180  0.66350783  0.66073670  1
  S2-  S142  1  0.14386749  0.88249455  0.15872853  1
  S2-  S143  1  0.20440015  0.89869053  0.64805837  1
  S2-  S144  1  0.52731166  0.04082438  0.14268062  1
  S2-  S145  1  0.54093172  0.03401146  0.63579838  1
  S2-  S146  1  0.63491297  0.36510434  0.13227586  1
  S2-  S147  1  0.49910128  0.28713789  0.64268371  1
  S2-  S148  1  0.42110758  0.63731887  0.15311124  1
  S2-  S149  1  0.40250427  0.59954577  0.64256241  1
  S2-  S150  1  0.37762857  0.88122196  0.15340445  1
  S2-  S151  1  0.48177534  0.79745209  0.64105328  1
  S2-  S152  1  0.77548715  0.14913278  0.14817677  1
  S2-  S153  1  0.74001760  0.14906712  0.65801944  1
  S2-  S154  1  0.86930405  0.38292858  0.13426030  1
  S2-  S155  1  0.74878604  0.37781587  0.67193367  1
  S2-  S156  1  0.85968494  0.61098811  0.14738411  1
  S2-  S157  1  0.76831709  0.59655858  0.66716747  1
  S2-  S158  1  0.83698470  0.90985153  0.14801760  1
  S2-  S159  1  0.73800498  0.81325098  0.63851954  1
  S2-  S160  1  0.12020867  -0.09717658  0.34451690  1
  S2-  S161  1  0.14189075  -0.11439565  0.86790207  1
  S2-  S162  1  0.12174629  0.17790447  0.35582738  1
  S2-  S163  1  0.00643176  0.25452693  0.85280688  1
  S2-  S164  1  0.08537721  0.42031842  0.36217999  1
  S2-  S165  1  0.14500257  0.45932636  0.84527034  1
  S2-  S166  1  0.14199841  0.64158266  0.35352426  1
  S2-  S167  1  0.11681341  0.66300190  0.86206159  1
  S2-  S168  1  0.31713479  -0.03444435  0.32619005  1
  S2-  S169  1  0.38051784  -0.02696863  0.85207356  1
  S2-  S170  1  0.37899791  0.19648803  0.35521844  1
  S2-  S171  1  0.35150839  0.25349203  0.84887337  1
  S2-  S172  1  0.35390806  0.46825520  0.33874184  1
  S2-  S173  1  0.38442816  0.50286892  0.84100781  1
  S2-  S174  1  0.35729705  0.71624622  0.34867423  1
  S2-  S175  1  0.34946945  0.73937184  0.84189906  1
  S2-  S176  1  0.51330261  0.00667518  0.34846428  1
  S2-  S177  1  0.61432600  -0.11235925  0.86034461  1
  S2-  S178  1  0.63461805  0.18302031  0.35653285  1
  S2-  S179  1  0.56919977  0.22719250  0.82155428  1
  S2-  S180  1  0.63150035  0.41556848  0.36268108  1
  S2-  S181  1  0.64299262  0.43193897  0.84408779  1
  S2-  S182  1  0.62254345  0.66008163  0.36283317  1
  S2-  S183  1  0.62973325  0.65314632  0.85695532  1
  S2-  S184  1  0.95023989  0.03765162  0.36249617  1
  S2-  S185  1  0.88812839  -0.11960678  0.86033262  1
  S2-  S186  1  0.85185194  0.29878632  0.34335505  1
  S2-  S187  1  0.77876804  0.24892291  0.84474649  1
  S2-  S188  1  0.85247409  0.54341395  0.34885922  1
  S2-  S189  1  0.88769598  0.46023949  0.83043737  1
  S2-  S190  1  0.95733563  0.75517548  0.35485438  1
  S2-  S191  1  0.87326949  0.65449736  0.85519388  1
  S2-  S192  1  -0.00611879  0.16547302  0.46223044  1
  S2-  S193  1  0.00489152  0.13363525  0.95235569  1
  S2-  S194  1  -0.00728630  0.41298090  0.46715428  1
  S2-  S195  1  0.00368316  0.39439355  0.94998607  1
  S2-  S196  1  -0.00671389  0.65907314  0.46484012  1
  S2-  S197  1  0.00331593  0.64083763  0.96470359  1
  S2-  S198  1  -0.00703206  0.90558797  0.46065463  1
  S2-  S199  1  0.00513551  0.89113544  0.96670446  1
  S2-  S200  1  0.24156439  0.16445228  0.45241870  1
  S2-  S201  1  0.25027593  0.13855556  0.94985330  1
  S2-  S202  1  0.24666569  0.40946642  0.44990011  1
  S2-  S203  1  0.24964490  0.38749971  0.95701467  1
  S2-  S204  1  0.24518649  0.66387027  0.45822276  1
  S2-  S205  1  0.25534401  0.63798033  0.95399766  1
  S2-  S206  1  0.24325925  0.91229338  0.44473646  1
  S2-  S207  1  0.25515802  0.89381416  0.96799136  1
  S2-  S208  1  0.49811888  0.16742443  0.45960467  1
  S2-  S209  1  0.49880197  0.13967984  0.94932155  1
  S2-  S210  1  0.49123306  0.41104463  0.45755155  1
  S2-  S211  1  0.50107408  0.38734334  0.95180906  1
  S2-  S212  1  0.49179982  0.66575289  0.45848205  1
  S2-  S213  1  0.49677766  0.63921348  0.95531210  1
  S2-  S214  1  0.49557680  0.90471722  0.45251980  1
  S2-  S215  1  0.49731831  0.89259275  0.96477716  1
  S2-  S216  1  0.75083685  0.16247289  0.45485204  1
  S2-  S217  1  0.75431482  0.13323121  0.94253794  1
  S2-  S218  1  0.74539053  0.41409546  0.46449167  1
  S2-  S219  1  0.76060929  0.39192239  0.94920230  1
  S2-  S220  1  0.74742982  0.66376175  0.46180169  1
  S2-  S221  1  0.75025478  0.64445216  0.95978726  1
  S2-  S222  1  0.74562777  0.90847805  0.44680551  1
  S2-  S223  1  0.75089737  0.89136402  0.95637967  1
  S2-  S224  1  0.12845154  0.01558239  0.04348485  1
  S2-  S225  1  0.11094332  0.03096033  0.53685886  1
  S2-  S226  1  0.12382047  0.26074033  0.03425135  1
  S2-  S227  1  0.11730071  0.28832785  0.54112285  1
  S2-  S228  1  0.13006954  0.51775968  0.04605908  1
  S2-  S229  1  0.12213248  0.53592085  0.54666471  1
  S2-  S230  1  0.13660680  0.75799723  0.05568495  1
  S2-  S231  1  0.12205662  0.78228210  0.54209123  1
  S2-  S232  1  0.37616593  0.02008490  0.04944279  1
  S2-  S233  1  0.36940726  0.03346518  0.53183964  1
  S2-  S234  1  0.37546500  0.26528706  0.05062696  1
  S2-  S235  1  0.36717047  0.28440382  0.54260471  1
  S2-  S236  1  0.37747821  0.50906911  0.04757824  1
  S2-  S237  1  0.36853291  0.53208717  0.53682745  1
  S2-  S238  1  0.37240531  0.76027904  0.05095107  1
  S2-  S239  1  0.36448247  0.78814626  0.54171934  1
  S2-  S240  1  0.62657227  0.01486902  0.03855495  1
  S2-  S241  1  0.62500836  0.03605219  0.53210629  1
  S2-  S242  1  0.62473779  0.26155422  0.02799011  1
  S2-  S243  1  0.62141717  0.28566833  0.54375729  1
  S2-  S244  1  0.62556063  0.51622560  0.04093400  1
  S2-  S245  1  0.61626800  0.53876226  0.55351536  1
  S2-  S246  1  0.62154211  0.76593405  0.04252366  1
  S2-  S247  1  0.61812378  0.78753369  0.53778704  1
  S2-  S248  1  0.87501921  0.01551067  0.03790051  1
  S2-  S249  1  0.86833020  0.03469475  0.55686458  1
  S2-  S250  1  0.87845301  0.26076570  0.03178509  1
  S2-  S251  1  0.86074180  0.28595584  0.55096241  1
  S2-  S252  1  0.87280450  0.51755818  0.03683889  1
  S2-  S253  1  0.86506960  0.53630820  0.55399359  1
  S2-  S254  1  0.87286985  0.76725158  0.04615416  1
  S2-  S255  1  0.87123838  0.78614878  0.54331101  1
