# generated using pymatgen
data_La6Ce6Pr19Nd20Sm13(BiS2)64
_symmetry_space_group_name_H-M   'P 1'
_cell_length_a   16.08871733
_cell_length_b   16.09106851
_cell_length_c   27.35151780
_cell_angle_alpha   89.75368225
_cell_angle_beta   89.75161389
_cell_angle_gamma   89.95765732
_symmetry_Int_Tables_number   1
_chemical_formula_structural   La6Ce6Pr19Nd20Sm13(BiS2)64
_chemical_formula_sum   'La6 Ce6 Pr19 Nd20 Sm13 Bi64 S128'
_cell_volume   7080.75437850
_cell_formula_units_Z   1
loop_
 _symmetry_equiv_pos_site_id
 _symmetry_equiv_pos_as_xyz
  1  'x, y, z'
loop_
 _atom_type_symbol
 _atom_type_oxidation_number
  La3+  3.0
  Ce3+  3.0
  Pr3+  3.0
  Nd3+  3.0
  Sm3+  3.0
  Bi2+  2.0
  S2-  -2.0
loop_
 _atom_site_type_symbol
 _atom_site_label
 _atom_site_symmetry_multiplicity
 _atom_site_fract_x
 _atom_site_fract_y
 _atom_site_fract_z
 _atom_site_occupancy
  La3+  La0  1  0.23915922  0.86393650  0.12074643  1
  La3+  La1  1  0.49712369  0.37178031  0.61086748  1
  La3+  La2  1  0.73732601  0.36379205  0.07853547  1
  La3+  La3  1  0.63201090  0.74752143  0.92869867  1
  La3+  La4  1  -0.00072305  0.61560939  0.07984620  1
  La3+  La5  1  0.49556219  0.11825872  0.59130886  1
  Ce3+  Ce6  1  0.62530711  0.49371384  0.93656477  1
  Ce3+  Ce7  1  0.87509097  0.49148631  0.94791349  1
  Ce3+  Ce8  1  0.50430536  0.62400208  0.56423370  1
  Ce3+  Ce9  1  0.87870833  0.24845963  0.94476584  1
  Ce3+  Ce10  1  -0.00491712  0.38984628  0.57127890  1
  Ce3+  Ce11  1  0.38078072  0.25267951  0.44459087  1
  Pr3+  Pr12  1  0.75056929  0.62621932  0.54978122  1
  Pr3+  Pr13  1  0.38198381  0.75223246  0.43166865  1
  Pr3+  Pr14  1  0.38095470  0.50272377  0.44445896  1
  Pr3+  Pr15  1  0.12798481  0.50459701  0.44201011  1
  Pr3+  Pr16  1  0.25358308  0.87473574  0.55921086  1
  Pr3+  Pr17  1  0.12708584  0.25330795  0.44763232  1
  Pr3+  Pr18  1  0.74808785  0.86554417  0.06873963  1
  Pr3+  Pr19  1  0.24951793  0.61397422  0.07114866  1
  Pr3+  Pr20  1  0.12513443  0.74256025  0.95112692  1
  Pr3+  Pr21  1  0.36448116  0.50810972  0.91402109  1
  Pr3+  Pr22  1  0.74687342  0.11951609  0.06169772  1
  Pr3+  Pr23  1  0.62717906  0.75579238  0.42796280  1
  Pr3+  Pr24  1  0.25309091  0.12666743  0.56305287  1
  Pr3+  Pr25  1  0.75039772  0.12545660  0.56169600  1
  Pr3+  Pr26  1  0.37803146  -0.00765781  0.93045167  1
  Pr3+  Pr27  1  0.75037637  0.37573784  0.56633227  1
  Pr3+  Pr28  1  0.87594457  -0.00831975  0.94043871  1
  Pr3+  Pr29  1  0.00484608  0.11679943  0.05771422  1
  Pr3+  Pr30  1  0.63036836  0.50038826  0.43726763  1
  Nd3+  Nd31  1  0.63692269  0.24619560  0.92312465  1
  Nd3+  Nd32  1  0.49406858  0.86801321  0.06138186  1
  Nd3+  Nd33  1  0.62827924  0.25319688  0.44787338  1
  Nd3+  Nd34  1  0.74580823  0.61477170  0.06215812  1
  Nd3+  Nd35  1  0.12258153  0.49349199  0.94037407  1
  Nd3+  Nd36  1  0.12637078  -0.01085146  0.94335209  1
  Nd3+  Nd37  1  0.87855035  0.24964482  0.43389774  1
  Nd3+  Nd38  1  0.38021197  0.00599426  0.43835514  1
  Nd3+  Nd39  1  0.88265466  0.00374030  0.42860181  1
  Nd3+  Nd40  1  0.12583349  0.24575975  0.93718215  1
  Nd3+  Nd41  1  0.13381481  0.75239904  0.42733885  1
  Nd3+  Nd42  1  0.25408712  0.62701103  0.56498325  1
  Nd3+  Nd43  1  0.49694277  0.11828737  0.04714912  1
  Nd3+  Nd44  1  0.12890396  0.00247573  0.43993091  1
  Nd3+  Nd45  1  0.36967251  0.24542005  0.92301367  1
  Nd3+  Nd46  1  0.00023026  0.12454863  0.56551984  1
  Nd3+  Nd47  1  0.00266422  0.36707184  0.07343562  1
  Nd3+  Nd48  1  0.49568420  0.61678646  0.05352315  1
  Nd3+  Nd49  1  -0.00515499  0.86706523  0.07362726  1
  Nd3+  Nd50  1  0.88192719  0.49520867  0.42495111  1
  Sm3+  Sm51  1  0.62879484  0.00477557  0.44087161  1
  Sm3+  Sm52  1  0.25295789  0.36894377  0.05920920  1
  Sm3+  Sm53  1  0.00211895  0.63523756  0.56155588  1
  Sm3+  Sm54  1  0.37252286  0.74314924  0.94709282  1
  Sm3+  Sm55  1  0.49764587  0.36616993  0.04527254  1
  Sm3+  Sm56  1  0.25576114  0.37673770  0.56153489  1
  Sm3+  Sm57  1  0.50221019  0.87433698  0.55945958  1
  Sm3+  Sm58  1  0.62678946  -0.00550514  0.94243941  1
  Sm3+  Sm59  1  0.00028494  0.87663696  0.56105550  1
  Sm3+  Sm60  1  0.25258999  0.11309774  0.05682999  1
  Sm3+  Sm61  1  0.87937692  0.73105657  0.93879873  1
  Sm3+  Sm62  1  0.88295471  0.75218143  0.43431159  1
  Sm3+  Sm63  1  0.75079514  0.87860348  0.54929619  1
  Bi2+  Bi64  1  0.00935556  0.14086788  0.29856305  1
  Bi2+  Bi65  1  0.02833065  0.16176690  0.80695577  1
  Bi2+  Bi66  1  0.00911156  0.33486136  0.26428783  1
  Bi2+  Bi67  1  0.01033577  0.35362384  0.84289765  1
  Bi2+  Bi68  1  -0.02161361  0.63543057  0.30771862  1
  Bi2+  Bi69  1  -0.00249919  0.60051788  0.78762768  1
  Bi2+  Bi70  1  -0.07709457  0.95434653  0.29680682  1
  Bi2+  Bi71  1  0.08779498  0.85343509  0.78193269  1
  Bi2+  Bi72  1  0.24869746  0.16501579  0.27535200  1
  Bi2+  Bi73  1  0.22583512  0.08390106  0.79752079  1
  Bi2+  Bi74  1  0.21722388  0.38870708  0.26584782  1
  Bi2+  Bi75  1  0.19107451  0.35781204  0.78944476  1
  Bi2+  Bi76  1  0.22877259  0.60823443  0.30162726  1
  Bi2+  Bi77  1  0.20693419  0.63781375  0.79770081  1
  Bi2+  Bi78  1  0.23656544  0.91572889  0.31558718  1
  Bi2+  Bi79  1  0.27795899  0.80801421  0.74027689  1
  Bi2+  Bi80  1  0.44749365  0.15560319  0.28367453  1
  Bi2+  Bi81  1  0.51151322  0.08032233  0.80269507  1
  Bi2+  Bi82  1  0.49169940  0.34342768  0.26575049  1
  Bi2+  Bi83  1  0.53719586  0.36037439  0.80940061  1
  Bi2+  Bi84  1  0.49897124  0.60501598  0.29649741  1
  Bi2+  Bi85  1  0.46393678  0.64059473  0.78236458  1
  Bi2+  Bi86  1  0.51332853  0.88371858  0.28479729  1
  Bi2+  Bi87  1  0.54259936  0.87675926  0.73504091  1
  Bi2+  Bi88  1  0.72143115  0.13225177  0.29885057  1
  Bi2+  Bi89  1  0.83743321  0.13577620  0.79185718  1
  Bi2+  Bi90  1  0.75650619  0.40002389  0.30369421  1
  Bi2+  Bi91  1  0.83944400  0.36680269  0.78653915  1
  Bi2+  Bi92  1  0.66977526  0.66217954  0.25251160  1
  Bi2+  Bi93  1  0.73451597  0.62205296  0.81059328  1
  Bi2+  Bi94  1  0.70425628  0.84094712  0.30072072  1
  Bi2+  Bi95  1  0.77114885  0.86485327  0.78138727  1
  Bi2+  Bi96  1  0.12328196  0.06638967  0.20867238  1
  Bi2+  Bi97  1  0.11135499  0.02441813  0.71087858  1
  Bi2+  Bi98  1  0.13679939  0.27918687  0.18051573  1
  Bi2+  Bi99  1  0.13164299  0.22024425  0.70529514  1
  Bi2+  Bi100  1  0.14861117  0.54901359  0.20562298  1
  Bi2+  Bi101  1  0.06656962  0.43564165  0.71989387  1
  Bi2+  Bi102  1  0.10226582  0.77946991  0.22719426  1
  Bi2+  Bi103  1  0.13724145  0.69936124  0.69371907  1
  Bi2+  Bi104  1  0.40164201  0.01737718  0.20685255  1
  Bi2+  Bi105  1  0.35995789  -0.01492492  0.70942306  1
  Bi2+  Bi106  1  0.33629034  0.27694107  0.18940260  1
  Bi2+  Bi107  1  0.37956784  0.23712994  0.72276830  1
  Bi2+  Bi108  1  0.38068084  0.47177645  0.21171006  1
  Bi2+  Bi109  1  0.35533366  0.49173963  0.71512602  1
  Bi2+  Bi110  1  0.47650739  0.73353262  0.20744128  1
  Bi2+  Bi111  1  0.44092664  0.73703093  0.67865229  1
  Bi2+  Bi112  1  0.63589350  0.03347064  0.19725001  1
  Bi2+  Bi113  1  0.69528502  -0.00187146  0.70831919  1
  Bi2+  Bi114  1  0.61202655  0.23389198  0.20619985  1
  Bi2+  Bi115  1  0.67307511  0.24385031  0.72024617  1
  Bi2+  Bi116  1  0.62795115  0.49233478  0.19280649  1
  Bi2+  Bi117  1  0.64174115  0.52816010  0.70724043  1
  Bi2+  Bi118  1  0.63247122  0.84038003  0.18163408  1
  Bi2+  Bi119  1  0.64250524  0.72082324  0.69550750  1
  Bi2+  Bi120  1  0.83199781  0.02402504  0.20536765  1
  Bi2+  Bi121  1  0.89366257  -0.03078430  0.71597310  1
  Bi2+  Bi122  1  0.87541913  0.21972157  0.21744763  1
  Bi2+  Bi123  1  0.93857950  0.24646822  0.70749610  1
  Bi2+  Bi124  1  0.87763685  0.54843876  0.20524683  1
  Bi2+  Bi125  1  0.87380965  0.50570002  0.70730033  1
  Bi2+  Bi126  1  0.86678688  0.80308660  0.23257992  1
  Bi2+  Bi127  1  0.93186081  0.76483815  0.73458745  1
  S2-  S128  1  -0.01872423  0.11924853  0.15696739  1
  S2-  S129  1  -0.00510673  -0.00152328  0.63497011  1
  S2-  S130  1  0.00606458  0.48104401  0.14997753  1
  S2-  S131  1  -0.12688995  0.36508639  0.64059907  1
  S2-  S132  1  -0.02982832  0.69359884  0.17210850  1
  S2-  S133  1  0.00450889  0.52718404  0.63779932  1
  S2-  S134  1  0.07893756  0.89925603  0.16054495  1
  S2-  S135  1  0.00286632  0.75825032  0.63459620  1
  S2-  S136  1  0.25916552  0.04171808  0.14686614  1
  S2-  S137  1  0.34099754  0.12344363  0.64973681  1
  S2-  S138  1  0.26278990  0.47729818  0.13694222  1
  S2-  S139  1  0.32398483  0.35649409  0.65108940  1
  S2-  S140  1  0.21490028  0.69249416  0.16113926  1
  S2-  S141  1  0.24908141  0.56943167  0.65968008  1
  S2-  S142  1  0.24983173  0.85719934  0.22952538  1
  S2-  S143  1  0.23167632  0.92486628  0.65397222  1
  S2-  S144  1  0.50253309  0.12144308  0.14631912  1
  S2-  S145  1  0.53445296  0.18864778  0.68170893  1
  S2-  S146  1  0.57517970  0.36450723  0.13412313  1
  S2-  S147  1  0.48273951  0.36790185  0.71892513  1
  S2-  S148  1  0.48829212  0.58471720  0.15153662  1
  S2-  S149  1  0.49529618  0.53756535  0.65042065  1
  S2-  S150  1  0.41160231  0.87911625  0.14876159  1
  S2-  S151  1  0.49988464  0.96190664  0.64462013  1
  S2-  S152  1  0.74766927  0.22115077  0.14317084  1
  S2-  S153  1  0.75998846  0.14795189  0.66133498  1
  S2-  S154  1  0.78436095  0.42863875  0.17458124  1
  S2-  S155  1  0.65907133  0.38172278  0.65447789  1
  S2-  S156  1  0.74441845  0.63522657  0.16132210  1
  S2-  S157  1  0.76539134  0.61873245  0.65014854  1
  S2-  S158  1  0.86338380  0.88072897  0.14367997  1
  S2-  S159  1  0.77535426  0.89044889  0.64574184  1
  S2-  S160  1  0.08047995  -0.00967959  0.34498878  1
  S2-  S161  1  0.09403222  -0.01286680  0.84551403  1
  S2-  S162  1  0.09268093  0.26186605  0.34975221  1
  S2-  S163  1  0.23020815  0.23510911  0.85731708  1
  S2-  S164  1  0.08630578  0.52293675  0.34496572  1
  S2-  S165  1  0.21463593  0.49770449  0.85539361  1
  S2-  S166  1  0.06650885  0.76235305  0.33382024  1
  S2-  S167  1  0.07722681  0.72010808  0.85482469  1
  S2-  S168  1  0.38491923  -0.03045252  0.34139873  1
  S2-  S169  1  0.35770246  -0.00431289  0.82990003  1
  S2-  S170  1  0.34378397  0.24128525  0.34973097  1
  S2-  S171  1  0.42284012  0.23212541  0.82554955  1
  S2-  S172  1  0.35771980  0.53389520  0.34619395  1
  S2-  S173  1  0.42119690  0.47397454  0.81908789  1
  S2-  S174  1  0.26852589  0.75449226  0.35412873  1
  S2-  S175  1  0.34962101  0.67605202  0.85757793  1
  S2-  S176  1  0.63315287  -0.00722098  0.34298659  1
  S2-  S177  1  0.59490295  -0.03618121  0.84898536  1
  S2-  S178  1  0.66843556  0.26266140  0.34970710  1
  S2-  S179  1  0.61805053  0.19616435  0.82378112  1
  S2-  S180  1  0.61620322  0.49722606  0.33663956  1
  S2-  S181  1  0.66325976  0.47759147  0.84092703  1
  S2-  S182  1  0.50359904  0.75223781  0.35643245  1
  S2-  S183  1  0.58392662  0.70007997  0.83389753  1
  S2-  S184  1  0.86158274  0.12910746  0.35956671  1
  S2-  S185  1  0.84455263  -0.00817738  0.84214088  1
  S2-  S186  1  0.88677804  0.35976474  0.35664220  1
  S2-  S187  1  0.78877146  0.26426200  0.86262963  1
  S2-  S188  1  0.83130005  0.53776302  0.32829959  1
  S2-  S189  1  0.88179964  0.58758896  0.86506562  1
  S2-  S190  1  0.85153006  0.75114179  0.33800221  1
  S2-  S191  1  0.77568217  0.76741931  0.86376980  1
  S2-  S192  1  0.00473517  0.12482416  0.45957927  1
  S2-  S193  1  0.00248494  0.11890593  0.95133125  1
  S2-  S194  1  0.00483987  0.37915486  0.46168904  1
  S2-  S195  1  0.00254068  0.36881599  0.96662778  1
  S2-  S196  1  0.00170736  0.63077460  0.45368749  1
  S2-  S197  1  0.00118534  0.61436160  0.96843202  1
  S2-  S198  1  0.00300856  0.87640481  0.45369043  1
  S2-  S199  1  -0.00429833  0.86470844  0.95855889  1
  S2-  S200  1  0.25245077  0.12712570  0.45534998  1
  S2-  S201  1  0.25053184  0.11438804  0.95361313  1
  S2-  S202  1  0.25288972  0.37851628  0.45465283  1
  S2-  S203  1  0.25138642  0.37085302  0.95555174  1
  S2-  S204  1  0.25440639  0.62774079  0.45794044  1
  S2-  S205  1  0.24756401  0.61890312  0.96322193  1
  S2-  S206  1  0.25544670  0.88056445  0.45309304  1
  S2-  S207  1  0.25172190  0.86580342  0.93845765  1
  S2-  S208  1  0.50559432  0.12681483  0.44657373  1
  S2-  S209  1  0.50257682  0.12193354  0.94216428  1
  S2-  S210  1  0.50394068  0.37649238  0.44188640  1
  S2-  S211  1  0.49842706  0.36729793  0.94075737  1
  S2-  S212  1  0.50683472  0.62656729  0.45690003  1
  S2-  S213  1  0.49930684  0.61945000  0.94846848  1
  S2-  S214  1  0.50538050  0.88282335  0.45534815  1
  S2-  S215  1  0.49979302  0.86525566  0.95315234  1
  S2-  S216  1  0.74954574  0.12445050  0.45686911  1
  S2-  S217  1  0.74954566  0.11663305  0.95453843  1
  S2-  S218  1  0.75418373  0.37650977  0.45857407  1
  S2-  S219  1  0.74916817  0.37163852  0.96310548  1
  S2-  S220  1  0.75452331  0.63156660  0.44349770  1
  S2-  S221  1  0.74780096  0.61630023  0.95884628  1
  S2-  S222  1  0.75546919  0.87925269  0.44494122  1
  S2-  S223  1  0.74936944  0.87318930  0.96281355  1
  S2-  S224  1  0.12830395  -0.01064581  0.04758077  1
  S2-  S225  1  0.12950531  0.00115115  0.54387853  1
  S2-  S226  1  0.13086280  0.24299407  0.04488522  1
  S2-  S227  1  0.12569717  0.25419058  0.55573193  1
  S2-  S228  1  0.12529333  0.48812404  0.04580725  1
  S2-  S229  1  0.13372178  0.50288739  0.54708134  1
  S2-  S230  1  0.12290272  0.74676245  0.05670158  1
  S2-  S231  1  0.13090332  0.75169673  0.53702239  1
  S2-  S232  1  0.37564862  -0.00594057  0.03703138  1
  S2-  S233  1  0.37855281  0.00025193  0.54337720  1
  S2-  S234  1  0.37264194  0.24294657  0.03768351  1
  S2-  S235  1  0.38244264  0.25209946  0.54875067  1
  S2-  S236  1  0.37803884  0.48910129  0.03530628  1
  S2-  S237  1  0.37737391  0.49852637  0.54951771  1
  S2-  S238  1  0.37063425  0.74282328  0.05015423  1
  S2-  S239  1  0.37934675  0.75131157  0.54224958  1
  S2-  S240  1  0.62210378  -0.00734688  0.04774292  1
  S2-  S241  1  0.62528175  0.00090923  0.54557855  1
  S2-  S242  1  0.62078329  0.24062210  0.03219315  1
  S2-  S243  1  0.61905946  0.24715548  0.55409487  1
  S2-  S244  1  0.62035531  0.49363330  0.04176184  1
  S2-  S245  1  0.62479626  0.49952987  0.54402356  1
  S2-  S246  1  0.62157327  0.74193430  0.04539844  1
  S2-  S247  1  0.62658847  0.75503916  0.54003116  1
  S2-  S248  1  0.87463835  -0.00210783  0.04638203  1
  S2-  S249  1  0.87490373  0.00042853  0.53608568  1
  S2-  S250  1  0.87930829  0.24424765  0.04962742  1
  S2-  S251  1  0.87801944  0.24645761  0.54250673  1
  S2-  S252  1  0.87033574  0.48876793  0.05309576  1
  S2-  S253  1  0.87729870  0.50933934  0.53513034  1
  S2-  S254  1  0.87127871  0.73899794  0.04582279  1
  S2-  S255  1  0.87346448  0.75580815  0.53868882  1
