# generated using pymatgen
data_La6Ce6Pr19Nd20Sm13(BiS2)64
_symmetry_space_group_name_H-M   'P 1'
_cell_length_a   16.09867197
_cell_length_b   16.05311096
_cell_length_c   27.36264134
_cell_angle_alpha   90.00462751
_cell_angle_beta   90.24993227
_cell_angle_gamma   90.10343038
_symmetry_Int_Tables_number   1
_chemical_formula_structural   La6Ce6Pr19Nd20Sm13(BiS2)64
_chemical_formula_sum   'La6 Ce6 Pr19 Nd20 Sm13 Bi64 S128'
_cell_volume   7071.35166089
_cell_formula_units_Z   1
loop_
 _symmetry_equiv_pos_site_id
 _symmetry_equiv_pos_as_xyz
  1  'x, y, z'
loop_
 _atom_type_symbol
 _atom_type_oxidation_number
  La3+  3.0
  Ce3+  3.0
  Pr3+  3.0
  Nd3+  3.0
  Sm3+  3.0
  Bi2+  2.0
  S2-  -2.0
loop_
 _atom_site_type_symbol
 _atom_site_label
 _atom_site_symmetry_multiplicity
 _atom_site_fract_x
 _atom_site_fract_y
 _atom_site_fract_z
 _atom_site_occupancy
  La3+  La0  1  0.11943265  0.02140082  0.91655800  1
  La3+  La1  1  0.36665085  0.00452820  0.43627884  1
  La3+  La2  1  0.60818918  0.25318466  0.43021966  1
  La3+  La3  1  0.38658601  0.27252575  0.90203289  1
  La3+  La4  1  0.62982153  0.75078135  0.38669541  1
  La3+  La5  1  -0.00360447  0.89391035  0.61467977  1
  Ce3+  Ce6  1  0.37762616  0.51667865  0.93833494  1
  Ce3+  Ce7  1  0.86806802  0.50373535  0.44078116  1
  Ce3+  Ce8  1  0.50434389  0.14622216  0.06083182  1
  Ce3+  Ce9  1  0.62555423  0.01589608  0.94398732  1
  Ce3+  Ce10  1  0.00787989  0.89064916  0.05408608  1
  Ce3+  Ce11  1  0.36908352  0.50242621  0.45132001  1
  Pr3+  Pr12  1  0.24758104  0.87876270  0.56573101  1
  Pr3+  Pr13  1  0.23916701  0.37659972  0.58005696  1
  Pr3+  Pr14  1  0.01174950  0.38040367  0.08470647  1
  Pr3+  Pr15  1  0.74690352  0.37638035  0.55628511  1
  Pr3+  Pr16  1  0.24301541  0.63399787  0.56481580  1
  Pr3+  Pr17  1  0.87698523  0.51261041  0.95273630  1
  Pr3+  Pr18  1  0.75448987  0.64814099  0.07283746  1
  Pr3+  Pr19  1  0.11976867  0.75253685  0.43599552  1
  Pr3+  Pr20  1  0.11732709  0.50217235  0.45262529  1
  Pr3+  Pr21  1  0.12008947  0.00331525  0.43630060  1
  Pr3+  Pr22  1  0.63036205  0.27407046  0.93574027  1
  Pr3+  Pr23  1  0.61169194  -0.00171758  0.42675094  1
  Pr3+  Pr24  1  0.25429011  0.64158576  0.05640264  1
  Pr3+  Pr25  1  0.12148873  0.25656582  0.43871917  1
  Pr3+  Pr26  1  0.50297276  0.39414318  0.58278730  1
  Pr3+  Pr27  1  0.87876967  0.75758240  0.93622575  1
  Pr3+  Pr28  1  0.50095807  0.13697024  0.57706668  1
  Pr3+  Pr29  1  0.61880109  0.50044571  0.43204018  1
  Pr3+  Pr30  1  0.75629679  0.40113758  0.09301292  1
  Nd3+  Nd31  1  0.87740350  0.01564429  0.94295039  1
  Nd3+  Nd32  1  0.12260941  0.26517591  0.92910498  1
  Nd3+  Nd33  1  0.01768043  0.13455877  0.06858975  1
  Nd3+  Nd34  1  0.74421916  0.63405258  0.55123145  1
  Nd3+  Nd35  1  0.74334153  0.12857891  0.54495989  1
  Nd3+  Nd36  1  0.50027380  0.89375224  0.06450404  1
  Nd3+  Nd37  1  0.36877734  0.25749825  0.45195255  1
  Nd3+  Nd38  1  0.12932700  0.76777533  0.92560468  1
  Nd3+  Nd39  1  0.75389716  0.14346905  0.06104360  1
  Nd3+  Nd40  1  -0.00881255  0.37588965  0.56752460  1
  Nd3+  Nd41  1  0.49652758  0.63164532  0.55323690  1
  Nd3+  Nd42  1  0.49290669  0.88016921  0.56053862  1
  Nd3+  Nd43  1  0.87654541  0.25421413  0.41564489  1
  Nd3+  Nd44  1  0.74282603  0.88191565  0.56071736  1
  Nd3+  Nd45  1  0.12729895  0.51187117  0.94163201  1
  Nd3+  Nd46  1  0.37008793  0.75247330  0.42929285  1
  Nd3+  Nd47  1  0.00733163  0.64268990  0.06399367  1
  Nd3+  Nd48  1  -0.00873935  0.63748481  0.56484240  1
  Nd3+  Nd49  1  0.86812190  0.75660577  0.43844344  1
  Nd3+  Nd50  1  0.24210607  0.12671273  0.56537369  1
  Sm3+  Sm51  1  0.37870573  0.01726140  0.93989807  1
  Sm3+  Sm52  1  0.50466335  0.39307076  0.06192717  1
  Sm3+  Sm53  1  0.50502963  0.64547866  0.06154246  1
  Sm3+  Sm54  1  0.62894032  0.51666900  0.94276851  1
  Sm3+  Sm55  1  0.25445745  0.14161601  0.04728077  1
  Sm3+  Sm56  1  0.62855893  0.76193484  0.93572292  1
  Sm3+  Sm57  1  -0.00776811  0.12483293  0.55320159  1
  Sm3+  Sm58  1  0.75497943  0.88928954  0.06044385  1
  Sm3+  Sm59  1  0.25238988  0.38798940  0.05565427  1
  Sm3+  Sm60  1  0.87773158  0.26925459  0.95389774  1
  Sm3+  Sm61  1  0.86566680  0.00081850  0.43730080  1
  Sm3+  Sm62  1  0.37947068  0.76699556  0.94021289  1
  Sm3+  Sm63  1  0.25003488  0.89262925  0.05322964  1
  Bi2+  Bi64  1  0.09754921  0.10945479  0.30750663  1
  Bi2+  Bi65  1  -0.08508563  0.15485312  0.72498534  1
  Bi2+  Bi66  1  0.07244453  0.37994199  0.28663738  1
  Bi2+  Bi67  1  0.00781518  0.38362368  0.80890214  1
  Bi2+  Bi68  1  0.01774259  0.66360159  0.31148039  1
  Bi2+  Bi69  1  -0.02106210  0.60486695  0.77814083  1
  Bi2+  Bi70  1  0.03722407  0.86153761  0.29476712  1
  Bi2+  Bi71  1  -0.02953097  0.86608090  0.81799240  1
  Bi2+  Bi72  1  0.28794619  0.15087085  0.32061651  1
  Bi2+  Bi73  1  0.24659321  0.08148614  0.79298891  1
  Bi2+  Bi74  1  0.24686116  0.34120520  0.33181770  1
  Bi2+  Bi75  1  0.20838315  0.35047974  0.79793557  1
  Bi2+  Bi76  1  0.21357015  0.62353023  0.29215853  1
  Bi2+  Bi77  1  0.28651957  0.64747110  0.76052627  1
  Bi2+  Bi78  1  0.23359607  0.85728149  0.27697017  1
  Bi2+  Bi79  1  0.28608209  0.84102130  0.80361044  1
  Bi2+  Bi80  1  0.53434803  0.12428426  0.29199834  1
  Bi2+  Bi81  1  0.55359394  0.05689893  0.75048375  1
  Bi2+  Bi82  1  0.46527345  0.36536331  0.29582228  1
  Bi2+  Bi83  1  0.54043574  0.36971984  0.79658141  1
  Bi2+  Bi84  1  0.40745756  0.63773140  0.27452797  1
  Bi2+  Bi85  1  0.55522124  0.57425017  0.77523185  1
  Bi2+  Bi86  1  0.51510647  0.88841374  0.28346801  1
  Bi2+  Bi87  1  0.52403203  0.76836796  0.80869127  1
  Bi2+  Bi88  1  0.75881929  0.10012111  0.28976934  1
  Bi2+  Bi89  1  0.72055671  0.15868174  0.78709068  1
  Bi2+  Bi90  1  0.73245730  0.37464872  0.30004758  1
  Bi2+  Bi91  1  0.79117721  0.34283700  0.80274716  1
  Bi2+  Bi92  1  0.79245305  0.61196331  0.29076305  1
  Bi2+  Bi93  1  0.76497625  0.63091105  0.79555013  1
  Bi2+  Bi94  1  0.81502081  0.93074325  0.18780433  1
  Bi2+  Bi95  1  0.68622698  0.87470342  0.79028859  1
  Bi2+  Bi96  1  0.19396490  0.00049791  0.20052390  1
  Bi2+  Bi97  1  0.12958131  0.02260282  0.71398714  1
  Bi2+  Bi98  1  0.13364390  0.23956381  0.21028615  1
  Bi2+  Bi99  1  0.08420572  0.25561142  0.73054843  1
  Bi2+  Bi100  1  0.14422336  0.51663054  0.20095373  1
  Bi2+  Bi101  1  0.10502189  0.47519166  0.71969521  1
  Bi2+  Bi102  1  0.08419917  0.77046192  0.19015760  1
  Bi2+  Bi103  1  0.11441295  0.75805974  0.71729184  1
  Bi2+  Bi104  1  0.37987965  0.07520196  0.22524013  1
  Bi2+  Bi105  1  0.42943201  -0.10673568  0.73296910  1
  Bi2+  Bi106  1  0.32999656  0.26791862  0.22209174  1
  Bi2+  Bi107  1  0.37161167  0.22898748  0.70214282  1
  Bi2+  Bi108  1  0.33052015  0.47122521  0.23097204  1
  Bi2+  Bi109  1  0.38464984  0.47572994  0.74816996  1
  Bi2+  Bi110  1  0.35238388  0.77000289  0.19848408  1
  Bi2+  Bi111  1  0.40367396  0.69051706  0.67297463  1
  Bi2+  Bi112  1  0.63944530  -0.00469043  0.21915819  1
  Bi2+  Bi113  1  0.60799371  -0.09948153  0.67843094  1
  Bi2+  Bi114  1  0.60860029  0.21947830  0.19280552  1
  Bi2+  Bi115  1  0.67034933  0.24796618  0.68891931  1
  Bi2+  Bi116  1  0.59452987  0.48294895  0.20272281  1
  Bi2+  Bi117  1  0.73683898  0.47485978  0.72411682  1
  Bi2+  Bi118  1  0.61509155  0.70332859  0.19475058  1
  Bi2+  Bi119  1  0.59563031  0.70204893  0.68868889  1
  Bi2+  Bi120  1  0.95559350  0.02858405  0.24536205  1
  Bi2+  Bi121  1  0.78216087  0.00636847  0.72213123  1
  Bi2+  Bi122  1  0.87060798  0.26918522  0.20975397  1
  Bi2+  Bi123  1  0.85851688  0.31301603  0.66777546  1
  Bi2+  Bi124  1  0.95583520  0.51677059  0.23701367  1
  Bi2+  Bi125  1  0.92130566  0.49868498  0.68227485  1
  Bi2+  Bi126  1  0.88319062  0.76766605  0.24026269  1
  Bi2+  Bi127  1  0.84293234  0.74382758  0.70927178  1
  S2-  S128  1  -0.00676294  0.23199500  0.15104951  1
  S2-  S129  1  -0.00466695  0.06798058  0.64597243  1
  S2-  S130  1  -0.10056350  0.41541036  0.16032588  1
  S2-  S131  1  0.10229495  0.35086800  0.64611175  1
  S2-  S132  1  -0.04616014  0.67485380  0.15626714  1
  S2-  S133  1  -0.00752292  0.72342314  0.65210591  1
  S2-  S134  1  0.06389562  0.92540538  0.14308303  1
  S2-  S135  1  0.00497737  0.89432375  0.72645046  1
  S2-  S136  1  0.16784798  0.12673465  0.13161291  1
  S2-  S137  1  0.23461978  0.12805446  0.66562037  1
  S2-  S138  1  0.16393743  0.37818653  0.14013078  1
  S2-  S139  1  0.32214786  0.38507406  0.67107307  1
  S2-  S140  1  0.22192037  0.67309111  0.15250411  1
  S2-  S141  1  0.21176304  0.64357955  0.66390497  1
  S2-  S142  1  0.30804868  0.90670672  0.14537269  1
  S2-  S143  1  0.16324334  0.88449235  0.65505556  1
  S2-  S144  1  0.50936763  0.08210107  0.15156978  1
  S2-  S145  1  0.45434565  0.08349720  0.67275800  1
  S2-  S146  1  0.50988831  0.34896389  0.15775642  1
  S2-  S147  1  0.50349656  0.26765578  0.65222567  1
  S2-  S148  1  0.49204935  0.59075116  0.15451456  1
  S2-  S149  1  0.49766535  0.55146742  0.64195642  1
  S2-  S150  1  0.50533063  0.81576700  0.15308709  1
  S2-  S151  1  0.37819193  0.85973067  0.63770330  1
  S2-  S152  1  0.76407203  0.15800876  0.15993489  1
  S2-  S153  1  0.71378801  0.10569869  0.64198090  1
  S2-  S154  1  0.71306227  0.35195611  0.19234354  1
  S2-  S155  1  0.65844856  0.40741324  0.64174103  1
  S2-  S156  1  0.71969304  0.55294914  0.15632436  1
  S2-  S157  1  0.75194247  0.65060756  0.65116528  1
  S2-  S158  1  0.73812465  0.78516165  0.13878402  1
  S2-  S159  1  0.82860954  0.88217297  0.64895554  1
  S2-  S160  1  0.23729246  0.00030954  0.35963190  1
  S2-  S161  1  0.14738412  -0.10852094  0.84820459  1
  S2-  S162  1  0.02710007  0.25311039  0.35491989  1
  S2-  S163  1  0.12869076  0.15665390  0.85027733  1
  S2-  S164  1  0.10510461  0.52129815  0.35354808  1
  S2-  S165  1  0.14922315  0.48827268  0.84424079  1
  S2-  S166  1  0.23830893  0.75692238  0.35986575  1
  S2-  S167  1  0.05562950  0.71058286  0.83899017  1
  S2-  S168  1  0.47485452  0.00460375  0.35554474  1
  S2-  S169  1  0.36743535  -0.01129212  0.84340106  1
  S2-  S170  1  0.45941419  0.24901064  0.36599580  1
  S2-  S171  1  0.33592089  0.21961144  0.80645935  1
  S2-  S172  1  0.36117826  0.46890648  0.35692713  1
  S2-  S173  1  0.39723314  0.43567839  0.85318372  1
  S2-  S174  1  0.46559830  0.75483506  0.34378432  1
  S2-  S175  1  0.37059028  0.69706076  0.85091169  1
  S2-  S176  1  0.64838222  -0.09482494  0.33995407  1
  S2-  S177  1  0.61858497  0.00181682  0.84695729  1
  S2-  S178  1  0.65734485  0.23986627  0.33186305  1
  S2-  S179  1  0.53587902  0.23634476  0.85088731  1
  S2-  S180  1  0.59975308  0.46263479  0.33414898  1
  S2-  S181  1  0.66067172  0.40741881  0.86656005  1
  S2-  S182  1  0.63556597  0.67285623  0.28866859  1
  S2-  S183  1  0.63013958  0.63567223  0.86707376  1
  S2-  S184  1  0.86924656  0.01357952  0.33834087  1
  S2-  S185  1  0.95631687  0.01475304  0.85606717  1
  S2-  S186  1  0.84660032  0.24388437  0.31435897  1
  S2-  S187  1  0.91382685  0.26536939  0.85750532  1
  S2-  S188  1  0.86001244  0.47080145  0.34576087  1
  S2-  S189  1  0.87376433  0.54479840  0.85342394  1
  S2-  S190  1  0.80247650  0.75241131  0.34630449  1
  S2-  S191  1  0.81597706  0.78747697  0.84397839  1
  S2-  S192  1  -0.00997247  0.12456959  0.44950592  1
  S2-  S193  1  -0.00137798  0.14353841  0.96172036  1
  S2-  S194  1  -0.00920015  0.37795195  0.45890240  1
  S2-  S195  1  0.00456892  0.38896258  0.96067845  1
  S2-  S196  1  -0.00823758  0.63027595  0.45752282  1
  S2-  S197  1  0.00666148  0.63795111  0.95680746  1
  S2-  S198  1  -0.00726312  0.87989639  0.43829785  1
  S2-  S199  1  0.00089233  0.88546064  0.95103440  1
  S2-  S200  1  0.24282483  0.13323456  0.45976824  1
  S2-  S201  1  0.26340610  0.14733239  0.94493856  1
  S2-  S202  1  0.24241376  0.37918349  0.46986992  1
  S2-  S203  1  0.25460384  0.38553855  0.95162311  1
  S2-  S204  1  0.24362054  0.62586416  0.45794900  1
  S2-  S205  1  0.25110842  0.64073493  0.95004197  1
  S2-  S206  1  0.24330314  0.87729533  0.46013534  1
  S2-  S207  1  0.25926975  0.88972758  0.95087333  1
  S2-  S208  1  0.49184842  0.12804011  0.46498044  1
  S2-  S209  1  0.50082870  0.14215685  0.95583617  1
  S2-  S210  1  0.49392383  0.38281027  0.46636534  1
  S2-  S211  1  0.50078959  0.39132236  0.95916608  1
  S2-  S212  1  0.49791399  0.62770722  0.44627717  1
  S2-  S213  1  0.49975149  0.64056485  0.95854164  1
  S2-  S214  1  0.49316784  0.87360750  0.45507880  1
  S2-  S215  1  0.50259125  0.88860063  0.95374900  1
  S2-  S216  1  0.74370733  0.12759914  0.43948790  1
  S2-  S217  1  0.75318335  0.14267468  0.95335632  1
  S2-  S218  1  0.74666595  0.37266871  0.44758735  1
  S2-  S219  1  0.75562820  0.39138787  0.97256147  1
  S2-  S220  1  0.73994245  0.63051415  0.44572894  1
  S2-  S221  1  0.75270161  0.64084542  0.96490785  1
  S2-  S222  1  0.74195589  0.87815361  0.45332286  1
  S2-  S223  1  0.75055814  0.88837321  0.95574966  1
  S2-  S224  1  0.13328631  0.01369868  0.02822345  1
  S2-  S225  1  0.11570840  0.00285402  0.54373059  1
  S2-  S226  1  0.13079990  0.26420325  0.03553605  1
  S2-  S227  1  0.11427617  0.24809483  0.54503104  1
  S2-  S228  1  0.12840072  0.51524336  0.04684523  1
  S2-  S229  1  0.11397051  0.50732100  0.55805916  1
  S2-  S230  1  0.13117210  0.76677262  0.03729873  1
  S2-  S231  1  0.11660321  0.75632810  0.54391708  1
  S2-  S232  1  0.37698698  0.01770780  0.04420656  1
  S2-  S233  1  0.36990861  0.01021685  0.54739890  1
  S2-  S234  1  0.37526322  0.26730187  0.05687527  1
  S2-  S235  1  0.36612419  0.25492521  0.55658426  1
  S2-  S236  1  0.37747218  0.51362276  0.04748833  1
  S2-  S237  1  0.36343348  0.50364467  0.55447555  1
  S2-  S238  1  0.37831392  0.76721418  0.04383225  1
  S2-  S239  1  0.36976906  0.75020026  0.53619621  1
  S2-  S240  1  0.63105820  0.01326659  0.05049770  1
  S2-  S241  1  0.61653114  0.00437495  0.53952813  1
  S2-  S242  1  0.63042360  0.26993003  0.05035827  1
  S2-  S243  1  0.62086896  0.25541464  0.54044778  1
  S2-  S244  1  0.62451127  0.51783807  0.04778903  1
  S2-  S245  1  0.62471151  0.50868019  0.53769035  1
  S2-  S246  1  0.62282610  0.76882215  0.03923189  1
  S2-  S247  1  0.61862093  0.75613531  0.55030439  1
  S2-  S248  1  0.87942764  0.01619327  0.05005696  1
  S2-  S249  1  0.86919250  0.00331244  0.54133645  1
  S2-  S250  1  0.87830623  0.26662595  0.05508265  1
  S2-  S251  1  0.87156692  0.24951383  0.53437407  1
  S2-  S252  1  0.88252370  0.51922399  0.05681547  1
  S2-  S253  1  0.86990096  0.50647463  0.54659594  1
  S2-  S254  1  0.88212950  0.76856831  0.04302706  1
  S2-  S255  1  0.86877779  0.75911272  0.54288421  1
