# generated using pymatgen
data_La6Ce6Pr19Nd20Sm13(BiS2)64
_symmetry_space_group_name_H-M   'P 1'
_cell_length_a   16.09568767
_cell_length_b   16.11328767
_cell_length_c   27.44062507
_cell_angle_alpha   90.04971439
_cell_angle_beta   90.24442797
_cell_angle_gamma   89.94811097
_symmetry_Int_Tables_number   1
_chemical_formula_structural   La6Ce6Pr19Nd20Sm13(BiS2)64
_chemical_formula_sum   'La6 Ce6 Pr19 Nd20 Sm13 Bi64 S128'
_cell_volume   7116.77777107
_cell_formula_units_Z   1
loop_
 _symmetry_equiv_pos_site_id
 _symmetry_equiv_pos_as_xyz
  1  'x, y, z'
loop_
 _atom_type_symbol
 _atom_type_oxidation_number
  La3+  3.0
  Ce3+  3.0
  Pr3+  3.0
  Nd3+  3.0
  Sm3+  3.0
  Bi2+  2.0
  S2-  -2.0
loop_
 _atom_site_type_symbol
 _atom_site_label
 _atom_site_symmetry_multiplicity
 _atom_site_fract_x
 _atom_site_fract_y
 _atom_site_fract_z
 _atom_site_occupancy
  La3+  La0  1  0.12050106  0.75088984  0.38375362  1
  La3+  La1  1  0.25552092  0.63841659  0.57067550  1
  La3+  La2  1  -0.00632078  0.62780950  0.06926095  1
  La3+  La3  1  0.75234589  0.12416606  0.10952465  1
  La3+  La4  1  0.74479159  0.61784264  0.61821455  1
  La3+  La5  1  0.00261299  0.13085184  0.06068772  1
  Ce3+  Ce6  1  0.51062917  0.38564393  0.56150703  1
  Ce3+  Ce7  1  0.12827867  0.51230068  0.44289574  1
  Ce3+  Ce8  1  0.25187276  0.88625656  0.56995342  1
  Ce3+  Ce9  1  0.86721265  0.25266392  0.93624645  1
  Ce3+  Ce10  1  0.74416517  0.88156836  0.05968499  1
  Ce3+  Ce11  1  0.75678494  0.12928667  0.56580648  1
  Pr3+  Pr12  1  0.62911832  0.76135849  0.91585377  1
  Pr3+  Pr13  1  0.49890543  0.63501403  0.05932680  1
  Pr3+  Pr14  1  0.00306167  0.38332103  0.55382683  1
  Pr3+  Pr15  1  0.50884586  0.13579572  0.57153470  1
  Pr3+  Pr16  1  0.61174538  0.25178670  0.92897637  1
  Pr3+  Pr17  1  0.11906031  0.00360048  0.93491765  1
  Pr3+  Pr18  1  0.49362167  0.38858059  0.06634649  1
  Pr3+  Pr19  1  0.49856579  0.13043719  0.06680099  1
  Pr3+  Pr20  1  0.24564304  0.37936227  0.06447347  1
  Pr3+  Pr21  1  0.51033342  0.63689429  0.55402564  1
  Pr3+  Pr22  1  0.74916209  0.63129891  0.06614345  1
  Pr3+  Pr23  1  0.13179475  0.00906224  0.43093315  1
  Pr3+  Pr24  1  0.62310405  0.25802200  0.43321545  1
  Pr3+  Pr25  1  0.12175812  0.50557011  0.93840174  1
  Pr3+  Pr26  1  0.61963481  0.00933271  0.93471143  1
  Pr3+  Pr27  1  0.87064822  0.26048968  0.42891359  1
  Pr3+  Pr28  1  0.37122054  0.76129595  0.43337901  1
  Pr3+  Pr29  1  0.87424080  0.75704685  0.93507412  1
  Pr3+  Pr30  1  0.37636368  0.51039457  0.44033298  1
  Nd3+  Nd31  1  0.63221385  0.51233811  0.44335170  1
  Nd3+  Nd32  1  0.74395319  0.37010779  0.05581340  1
  Nd3+  Nd33  1  0.87886089  0.00689267  0.43821324  1
  Nd3+  Nd34  1  0.75914746  0.88373523  0.57319434  1
  Nd3+  Nd35  1  0.36838472  0.00426170  0.93962457  1
  Nd3+  Nd36  1  0.36707292  0.25569092  0.93820299  1
  Nd3+  Nd37  1  0.86777153  0.50420415  0.93829285  1
  Nd3+  Nd38  1  0.62801125  0.00852121  0.44315209  1
  Nd3+  Nd39  1  -0.00475576  0.37653043  0.05021057  1
  Nd3+  Nd40  1  0.37684714  0.00858517  0.45376591  1
  Nd3+  Nd41  1  0.49857258  0.87816644  0.05127254  1
  Nd3+  Nd42  1  0.24165111  0.62223871  0.08978100  1
  Nd3+  Nd43  1  0.50701045  0.88157132  0.55949222  1
  Nd3+  Nd44  1  0.61912497  0.50593679  0.94357320  1
  Nd3+  Nd45  1  0.00714584  0.88598242  0.55550815  1
  Nd3+  Nd46  1  0.12424158  0.25428993  0.92928834  1
  Nd3+  Nd47  1  0.75684833  0.37993790  0.56404068  1
  Nd3+  Nd48  1  -0.00256956  0.88055213  0.06306544  1
  Nd3+  Nd49  1  0.36960848  0.75181201  0.93913382  1
  Nd3+  Nd50  1  0.25441679  0.38662790  0.56639467  1
  Sm3+  Sm51  1  0.36995477  0.50821847  0.94135112  1
  Sm3+  Sm52  1  0.87895140  0.75914629  0.44483288  1
  Sm3+  Sm53  1  0.38098018  0.25871676  0.44609689  1
  Sm3+  Sm54  1  0.12761308  0.25591051  0.43541734  1
  Sm3+  Sm55  1  -0.00237324  0.63679988  0.56326444  1
  Sm3+  Sm56  1  0.24704577  0.87439218  0.05429293  1
  Sm3+  Sm57  1  0.87864563  0.51318854  0.44470615  1
  Sm3+  Sm58  1  0.63224674  0.75950140  0.44070405  1
  Sm3+  Sm59  1  0.11626411  0.75193670  0.94037549  1
  Sm3+  Sm60  1  0.86797027  0.00863325  0.94430596  1
  Sm3+  Sm61  1  0.24756385  0.12590698  0.06326317  1
  Sm3+  Sm62  1  0.25182685  0.13508960  0.57073423  1
  Sm3+  Sm63  1  0.00435766  0.13491102  0.55185191  1
  Bi2+  Bi64  1  0.02863699  0.11619252  0.29729114  1
  Bi2+  Bi65  1  0.04564616  0.07700696  0.77791616  1
  Bi2+  Bi66  1  0.02124852  0.38922569  0.26793529  1
  Bi2+  Bi67  1  0.02619508  0.26736554  0.80714071  1
  Bi2+  Bi68  1  -0.01791816  0.61208512  0.29836989  1
  Bi2+  Bi69  1  -0.01061632  0.62844878  0.74124025  1
  Bi2+  Bi70  1  -0.00064404  0.87591650  0.28747115  1
  Bi2+  Bi71  1  -0.00087364  0.87603546  0.79821886  1
  Bi2+  Bi72  1  0.29367716  0.11162622  0.28785111  1
  Bi2+  Bi73  1  0.23520547  0.12868731  0.74265187  1
  Bi2+  Bi74  1  0.21474912  0.37080854  0.29949665  1
  Bi2+  Bi75  1  0.19880670  0.37917459  0.80922916  1
  Bi2+  Bi76  1  0.35711670  0.62958008  0.29002792  1
  Bi2+  Bi77  1  0.15160695  0.67141154  0.81238839  1
  Bi2+  Bi78  1  0.30071894  0.92783254  0.24137274  1
  Bi2+  Bi79  1  0.20412137  0.86613040  0.79720317  1
  Bi2+  Bi80  1  0.52302848  0.11050441  0.30785591  1
  Bi2+  Bi81  1  0.48864377  0.14713770  0.79452579  1
  Bi2+  Bi82  1  0.49852318  0.39701506  0.30111406  1
  Bi2+  Bi83  1  0.57942364  0.34670521  0.78540244  1
  Bi2+  Bi84  1  0.53828090  0.69988852  0.30622105  1
  Bi2+  Bi85  1  0.45739766  0.60211378  0.80263923  1
  Bi2+  Bi86  1  0.46603504  0.88152539  0.29723528  1
  Bi2+  Bi87  1  0.48635263  0.91345581  0.78469261  1
  Bi2+  Bi88  1  0.78558638  0.13250850  0.32014043  1
  Bi2+  Bi89  1  0.73206590  0.14291590  0.77384754  1
  Bi2+  Bi90  1  0.72501705  0.38133958  0.23518204  1
  Bi2+  Bi91  1  0.77074693  0.35088914  0.80668439  1
  Bi2+  Bi92  1  0.73718755  0.59394165  0.30266785  1
  Bi2+  Bi93  1  0.72141141  0.59179215  0.82071264  1
  Bi2+  Bi94  1  0.67588104  0.84425832  0.26258219  1
  Bi2+  Bi95  1  0.75829106  0.88977704  0.79153981  1
  Bi2+  Bi96  1  0.14218891  0.03840140  0.21739685  1
  Bi2+  Bi97  1  0.10250325  -0.09280661  0.69688282  1
  Bi2+  Bi98  1  0.14396543  0.26854798  0.20869946  1
  Bi2+  Bi99  1  0.09553740  0.25003266  0.69680491  1
  Bi2+  Bi100  1  0.15861644  0.50804875  0.22543264  1
  Bi2+  Bi101  1  0.13637737  0.50323722  0.71238383  1
  Bi2+  Bi102  1  0.13599122  0.77839622  0.18305892  1
  Bi2+  Bi103  1  0.15264898  0.71183286  0.69813127  1
  Bi2+  Bi104  1  0.36551495  0.08678259  0.17826292  1
  Bi2+  Bi105  1  0.33235392  -0.03596478  0.72080125  1
  Bi2+  Bi106  1  0.34241717  0.27060147  0.21797911  1
  Bi2+  Bi107  1  0.32416564  0.29714491  0.72932383  1
  Bi2+  Bi108  1  0.40580956  0.46758852  0.21170245  1
  Bi2+  Bi109  1  0.33325761  0.49441320  0.73783191  1
  Bi2+  Bi110  1  0.46111848  0.71478823  0.19721167  1
  Bi2+  Bi111  1  0.35635972  0.76603322  0.73569802  1
  Bi2+  Bi112  1  0.53810465  -0.00238628  0.21201007  1
  Bi2+  Bi113  1  0.60641470  -0.00266226  0.70521446  1
  Bi2+  Bi114  1  0.57221841  0.25144504  0.23427137  1
  Bi2+  Bi115  1  0.59544797  0.23460072  0.68832143  1
  Bi2+  Bi116  1  0.67140411  0.55695225  0.19448889  1
  Bi2+  Bi117  1  0.60559428  0.48471217  0.70549877  1
  Bi2+  Bi118  1  0.65148431  0.74908405  0.16045317  1
  Bi2+  Bi119  1  0.61181371  0.74571264  0.71762435  1
  Bi2+  Bi120  1  0.87698594  -0.01355451  0.20833563  1
  Bi2+  Bi121  1  0.87618225  0.06987783  0.71081657  1
  Bi2+  Bi122  1  0.88712074  0.25192681  0.20719903  1
  Bi2+  Bi123  1  0.79291575  0.24307740  0.67549642  1
  Bi2+  Bi124  1  0.87761162  0.48766421  0.20149622  1
  Bi2+  Bi125  1  0.91428113  0.36352925  0.73033983  1
  Bi2+  Bi126  1  0.81396699  0.72141581  0.22506998  1
  Bi2+  Bi127  1  0.88070292  0.78788066  0.71801562  1
  S2-  S128  1  -0.08016854  0.12280508  0.14978401  1
  S2-  S129  1  0.00362869  0.13225535  0.65007345  1
  S2-  S130  1  -0.01750817  0.37554171  0.14876253  1
  S2-  S131  1  0.02487441  0.40044288  0.65297558  1
  S2-  S132  1  0.09778214  0.62094775  0.15140093  1
  S2-  S133  1  -0.08356682  0.63294742  0.65080843  1
  S2-  S134  1  -0.01750713  0.86956511  0.16200263  1
  S2-  S135  1  -0.05030161  0.89046716  0.65067476  1
  S2-  S136  1  0.13354798  0.14587562  0.13571422  1
  S2-  S137  1  0.22590830  0.01245966  0.64246165  1
  S2-  S138  1  0.26119451  0.47549260  0.14833423  1
  S2-  S139  1  0.24974787  0.26451718  0.63896978  1
  S2-  S140  1  0.29041010  0.71784922  0.16749275  1
  S2-  S141  1  0.25967725  0.50800210  0.64151516  1
  S2-  S142  1  0.21849917  0.92214469  0.14657588  1
  S2-  S143  1  0.29555779  0.76655514  0.64252664  1
  S2-  S144  1  0.59138492  0.13080665  0.15181129  1
  S2-  S145  1  0.48219120  0.10805394  0.67007835  1
  S2-  S146  1  0.48880211  0.33188285  0.16084883  1
  S2-  S147  1  0.49183040  0.37588530  0.65686567  1
  S2-  S148  1  0.49748335  0.54699929  0.14600820  1
  S2-  S149  1  0.55898914  0.62801557  0.65041564  1
  S2-  S150  1  0.48348830  0.86742931  0.14963283  1
  S2-  S151  1  0.53215665  0.86884055  0.65779212  1
  S2-  S152  1  0.77204037  0.12395158  0.22539449  1
  S2-  S153  1  0.74959204  0.01613701  0.64267932  1
  S2-  S154  1  0.75131630  0.29434796  0.14475704  1
  S2-  S155  1  0.74423175  0.45087220  0.65442908  1
  S2-  S156  1  0.87147650  0.63201588  0.14295890  1
  S2-  S157  1  0.72286727  0.61186191  0.72597278  1
  S2-  S158  1  0.75467770  0.95608188  0.14790548  1
  S2-  S159  1  0.73885730  0.78389260  0.65494236  1
  S2-  S160  1  0.12394341  -0.08442809  0.34450641  1
  S2-  S161  1  0.17086551  0.02507574  0.84106927  1
  S2-  S162  1  0.15604354  0.14479823  0.36221236  1
  S2-  S163  1  0.25002169  0.24716573  0.86130940  1
  S2-  S164  1  0.11293910  0.57721666  0.35370697  1
  S2-  S165  1  0.09373457  0.51836225  0.83983457  1
  S2-  S166  1  0.09892664  0.73896385  0.27414262  1
  S2-  S167  1  0.00562609  0.74432021  0.86395745  1
  S2-  S168  1  0.38647935  0.00900092  0.35493727  1
  S2-  S169  1  0.40268248  0.02775454  0.84339076  1
  S2-  S170  1  0.48124914  0.25562506  0.36583336  1
  S2-  S171  1  0.47544947  0.27318924  0.85989120  1
  S2-  S172  1  0.34907828  0.47426998  0.34353391  1
  S2-  S173  1  0.34024833  0.48641585  0.84551122  1
  S2-  S174  1  0.28872068  0.74729434  0.34551669  1
  S2-  S175  1  0.36811158  0.73416424  0.84116789  1
  S2-  S176  1  0.65287432  0.02321779  0.34564365  1
  S2-  S177  1  0.62267365  -0.09415286  0.85145655  1
  S2-  S178  1  0.73707667  0.27126675  0.35750349  1
  S2-  S179  1  0.62239489  0.12497245  0.85352304  1
  S2-  S180  1  0.61540296  0.48673109  0.34566681  1
  S2-  S181  1  0.57913088  0.49271443  0.84702350  1
  S2-  S182  1  0.69846966  0.76205265  0.34923466  1
  S2-  S183  1  0.58022054  0.70482119  0.82013499  1
  S2-  S184  1  0.89730892  -0.00535695  0.33853760  1
  S2-  S185  1  0.87024960  -0.03158491  0.84764124  1
  S2-  S186  1  0.94785291  0.23906006  0.33647628  1
  S2-  S187  1  0.85776470  0.21084306  0.84170722  1
  S2-  S188  1  0.86565867  0.50810914  0.34676767  1
  S2-  S189  1  0.85788571  0.49979350  0.83961206  1
  S2-  S190  1  0.94277942  0.75257714  0.35307870  1
  S2-  S191  1  0.77689293  0.74730148  0.85132116  1
  S2-  S192  1  0.00101652  0.13548283  0.44978189  1
  S2-  S193  1  -0.00238998  0.13001896  0.94873190  1
  S2-  S194  1  0.00404511  0.38268442  0.44632869  1
  S2-  S195  1  -0.00436020  0.37834061  0.94473520  1
  S2-  S196  1  0.00165268  0.63519873  0.45914521  1
  S2-  S197  1  -0.00639311  0.62462147  0.96079299  1
  S2-  S198  1  0.00336939  0.88298755  0.45192840  1
  S2-  S199  1  -0.00378789  0.88366321  0.95713789  1
  S2-  S200  1  0.26020581  0.13886198  0.46540327  1
  S2-  S201  1  0.24474522  0.12577745  0.96009764  1
  S2-  S202  1  0.25286848  0.37945952  0.45637540  1
  S2-  S203  1  0.24800378  0.38437699  0.95869670  1
  S2-  S204  1  0.25214462  0.63432890  0.45831265  1
  S2-  S205  1  0.24318191  0.63162669  0.94806150  1
  S2-  S206  1  0.25354118  0.88653831  0.46051115  1
  S2-  S207  1  0.24319066  0.87553217  0.94892893  1
  S2-  S208  1  0.50282392  0.13167630  0.46438025  1
  S2-  S209  1  0.48827820  0.12793566  0.95954350  1
  S2-  S210  1  0.50435208  0.38853235  0.45763371  1
  S2-  S211  1  0.49060690  0.38700735  0.95948293  1
  S2-  S212  1  0.50416816  0.63712885  0.44745665  1
  S2-  S213  1  0.49640041  0.63143375  0.95167555  1
  S2-  S214  1  0.50479780  0.88168071  0.45210153  1
  S2-  S215  1  0.49208343  0.87767029  0.94695442  1
  S2-  S216  1  0.75233570  0.13133588  0.45794747  1
  S2-  S217  1  0.74696932  0.13062983  0.95084320  1
  S2-  S218  1  0.75446058  0.38928757  0.45775822  1
  S2-  S219  1  0.74136477  0.37773348  0.94956435  1
  S2-  S220  1  0.75642091  0.63597619  0.45001357  1
  S2-  S221  1  0.74580434  0.62874527  0.95670517  1
  S2-  S222  1  0.75451850  0.88421919  0.45633277  1
  S2-  S223  1  0.74872669  0.88360847  0.95497042  1
  S2-  S224  1  0.12503473  0.00016939  0.04104060  1
  S2-  S225  1  0.12665029  0.01523774  0.53874168  1
  S2-  S226  1  0.12523143  0.25798310  0.03537032  1
  S2-  S227  1  0.12757259  0.25780510  0.53902144  1
  S2-  S228  1  0.12042445  0.50226152  0.04518693  1
  S2-  S229  1  0.12409349  0.51191161  0.54668397  1
  S2-  S230  1  0.12375932  0.75301296  0.04467410  1
  S2-  S231  1  0.12386479  0.75813853  0.55878155  1
  S2-  S232  1  0.36919991  0.00077763  0.04542464  1
  S2-  S233  1  0.38276941  0.01044106  0.55760002  1
  S2-  S234  1  0.36813739  0.25362630  0.04991035  1
  S2-  S235  1  0.38381054  0.26023971  0.54856631  1
  S2-  S236  1  0.36677761  0.51294629  0.04448890  1
  S2-  S237  1  0.38486237  0.50986941  0.54597838  1
  S2-  S238  1  0.36843539  0.75260268  0.04502118  1
  S2-  S239  1  0.38439969  0.76024949  0.53955356  1
  S2-  S240  1  0.61992270  0.00441619  0.04356514  1
  S2-  S241  1  0.62764432  0.00681181  0.54752776  1
  S2-  S242  1  0.61144777  0.26016500  0.04007852  1
  S2-  S243  1  0.63208822  0.25808552  0.54495074  1
  S2-  S244  1  0.62624064  0.50523130  0.04794785  1
  S2-  S245  1  0.63569171  0.51134682  0.54805321  1
  S2-  S246  1  0.62335554  0.75522606  0.03423214  1
  S2-  S247  1  0.63405988  0.76151274  0.54366914  1
  S2-  S248  1  0.87352184  0.00498672  0.04641152  1
  S2-  S249  1  0.88202106  0.01071566  0.54295040  1
  S2-  S250  1  0.87209714  0.25113312  0.04168951  1
  S2-  S251  1  0.87997253  0.25680557  0.54041330  1
  S2-  S252  1  0.86737087  0.49762945  0.04399372  1
  S2-  S253  1  0.87735369  0.50879149  0.54866668  1
  S2-  S254  1  0.87149818  0.75991822  0.04367085  1
  S2-  S255  1  0.88117405  0.76300843  0.54631902  1
