# generated using pymatgen
data_La6Ce6Pr19Nd20Sm13(BiS2)64
_symmetry_space_group_name_H-M   'P 1'
_cell_length_a   16.07322411
_cell_length_b   16.06595169
_cell_length_c   27.60329715
_cell_angle_alpha   90.17412438
_cell_angle_beta   89.80015355
_cell_angle_gamma   90.08717829
_symmetry_Int_Tables_number   1
_chemical_formula_structural   La6Ce6Pr19Nd20Sm13(BiS2)64
_chemical_formula_sum   'La6 Ce6 Pr19 Nd20 Sm13 Bi64 S128'
_cell_volume   7127.96033674
_cell_formula_units_Z   1
loop_
 _symmetry_equiv_pos_site_id
 _symmetry_equiv_pos_as_xyz
  1  'x, y, z'
loop_
 _atom_type_symbol
 _atom_type_oxidation_number
  La3+  3.0
  Ce3+  3.0
  Pr3+  3.0
  Nd3+  3.0
  Sm3+  3.0
  Bi2+  2.0
  S2-  -2.0
loop_
 _atom_site_type_symbol
 _atom_site_label
 _atom_site_symmetry_multiplicity
 _atom_site_fract_x
 _atom_site_fract_y
 _atom_site_fract_z
 _atom_site_occupancy
  La3+  La0  1  0.02984382  0.87970720  0.12088093  1
  La3+  La1  1  0.48354460  0.89054735  0.60912707  1
  La3+  La2  1  0.61690604  0.23701976  0.38449950  1
  La3+  La3  1  0.47245823  0.11990609  0.10435946  1
  La3+  La4  1  0.87433462  0.25166326  0.90123958  1
  La3+  La5  1  -0.01463916  0.89593077  0.58244367  1
  Ce3+  Ce6  1  -0.01409661  0.37071542  0.06206588  1
  Ce3+  Ce7  1  0.24061980  0.13964271  0.55446036  1
  Ce3+  Ce8  1  0.61733947  0.76999782  0.45204360  1
  Ce3+  Ce9  1  0.73973681  0.89954904  0.57440918  1
  Ce3+  Ce10  1  0.61443192  0.24402575  0.93400608  1
  Ce3+  Ce11  1  0.49366094  0.64233517  0.56439671  1
  Pr3+  Pr12  1  0.60874234  0.74612871  0.91655439  1
  Pr3+  Pr13  1  0.86513808  -0.00779988  0.92580805  1
  Pr3+  Pr14  1  0.36970902  -0.00167580  0.93424120  1
  Pr3+  Pr15  1  0.86163875  0.74269643  0.93605504  1
  Pr3+  Pr16  1  -0.00644920  0.38959820  0.57082809  1
  Pr3+  Pr17  1  0.49647580  0.87052101  0.05891726  1
  Pr3+  Pr18  1  0.24229571  0.64297445  0.55953079  1
  Pr3+  Pr19  1  0.49044156  0.38615630  0.56589447  1
  Pr3+  Pr20  1  -0.01651283  0.11551759  0.05294343  1
  Pr3+  Pr21  1  0.11427140  0.51833036  0.43958642  1
  Pr3+  Pr22  1  0.61729368  0.50676171  0.43901755  1
  Pr3+  Pr23  1  0.23593269  0.11592553  0.05927390  1
  Pr3+  Pr24  1  0.73990641  0.64263751  0.56184780  1
  Pr3+  Pr25  1  0.23810573  0.37120975  0.06366605  1
  Pr3+  Pr26  1  0.74620955  0.87134252  0.05988373  1
  Pr3+  Pr27  1  0.11684018  0.00599950  0.43494433  1
  Pr3+  Pr28  1  0.36718436  0.26642679  0.42687971  1
  Pr3+  Pr29  1  0.86763153  0.26682336  0.43981333  1
  Pr3+  Pr30  1  0.36441818  0.49258562  0.94014919  1
  Nd3+  Nd31  1  0.24053760  0.38871612  0.55467493  1
  Nd3+  Nd32  1  0.61810864  -0.00161269  0.93215761  1
  Nd3+  Nd33  1  0.49015834  0.14456231  0.56561148  1
  Nd3+  Nd34  1  0.11458982  0.24419747  0.94003574  1
  Nd3+  Nd35  1  0.36759625  0.51705824  0.44610476  1
  Nd3+  Nd36  1  0.11280354  0.74535626  0.93514818  1
  Nd3+  Nd37  1  0.24342058  0.87152916  0.04666567  1
  Nd3+  Nd38  1  0.60891657  0.49028018  0.92397570  1
  Nd3+  Nd39  1  0.86054839  0.77066934  0.43692084  1
  Nd3+  Nd40  1  0.73742829  0.12197780  0.05025468  1
  Nd3+  Nd41  1  0.86340677  0.49206545  0.94131995  1
  Nd3+  Nd42  1  0.49476922  0.61796431  0.06310239  1
  Nd3+  Nd43  1  0.11235618  -0.00640466  0.93602320  1
  Nd3+  Nd44  1  0.73612110  0.36933859  0.05648895  1
  Nd3+  Nd45  1  0.36747173  0.24311454  0.94714823  1
  Nd3+  Nd46  1  0.37213281  0.74507836  0.94091725  1
  Nd3+  Nd47  1  0.73974343  0.14410424  0.56548014  1
  Nd3+  Nd48  1  -0.01086427  0.64202891  0.56276552  1
  Nd3+  Nd49  1  -0.01434907  0.62940827  0.06309705  1
  Nd3+  Nd50  1  0.11429184  0.49416838  0.94771018  1
  Sm3+  Sm51  1  0.11784581  0.26255352  0.43312654  1
  Sm3+  Sm52  1  0.86812126  0.51463600  0.44972957  1
  Sm3+  Sm53  1  0.86587317  0.01892891  0.44530031  1
  Sm3+  Sm54  1  0.37078862  0.76779028  0.44667999  1
  Sm3+  Sm55  1  0.49020258  0.37217991  0.06516543  1
  Sm3+  Sm56  1  0.73599945  0.62075939  0.05204637  1
  Sm3+  Sm57  1  0.24054996  0.89209727  0.56301629  1
  Sm3+  Sm58  1  0.61661024  0.01646484  0.45015882  1
  Sm3+  Sm59  1  0.37115178  0.01724301  0.44824328  1
  Sm3+  Sm60  1  0.23849421  0.62431932  0.05376625  1
  Sm3+  Sm61  1  0.74056054  0.38441820  0.56422509  1
  Sm3+  Sm62  1  -0.00604681  0.14265571  0.56771638  1
  Sm3+  Sm63  1  0.11357611  0.76935533  0.44875072  1
  Bi2+  Bi64  1  -0.02829807  0.15413235  0.27703474  1
  Bi2+  Bi65  1  -0.01319627  0.11249111  0.79293586  1
  Bi2+  Bi66  1  -0.00836129  0.33760972  0.31704028  1
  Bi2+  Bi67  1  -0.00439546  0.44100012  0.79108502  1
  Bi2+  Bi68  1  0.04529742  0.61119412  0.29001948  1
  Bi2+  Bi69  1  -0.02799864  0.63578414  0.79078580  1
  Bi2+  Bi70  1  -0.00870628  0.91724623  0.31486366  1
  Bi2+  Bi71  1  0.01093472  0.87007295  0.80266329  1
  Bi2+  Bi72  1  0.23377397  0.07836911  0.29373340  1
  Bi2+  Bi73  1  0.26248279  0.13391937  0.78881453  1
  Bi2+  Bi74  1  0.26259175  0.40408456  0.29443883  1
  Bi2+  Bi75  1  0.27896978  0.40092438  0.82219068  1
  Bi2+  Bi76  1  0.33058542  0.62472117  0.29932275  1
  Bi2+  Bi77  1  0.24504525  0.57128781  0.77144237  1
  Bi2+  Bi78  1  0.25642412  0.86297042  0.29897388  1
  Bi2+  Bi79  1  0.24352156  0.86426823  0.74397589  1
  Bi2+  Bi80  1  0.47534493  0.09444618  0.29200620  1
  Bi2+  Bi81  1  0.48126412  0.09424722  0.79651652  1
  Bi2+  Bi82  1  0.53226311  0.47500961  0.28123847  1
  Bi2+  Bi83  1  0.47109217  0.35080119  0.79524385  1
  Bi2+  Bi84  1  0.60132582  0.65553990  0.29723567  1
  Bi2+  Bi85  1  0.51796096  0.58598055  0.77629144  1
  Bi2+  Bi86  1  0.51469567  0.83742416  0.28608170  1
  Bi2+  Bi87  1  0.51078525  0.84559346  0.78884097  1
  Bi2+  Bi88  1  0.74173533  0.10506891  0.28852197  1
  Bi2+  Bi89  1  0.67153850  0.20316049  0.77001327  1
  Bi2+  Bi90  1  0.78860186  0.38791036  0.30565515  1
  Bi2+  Bi91  1  0.72546309  0.41666671  0.78021340  1
  Bi2+  Bi92  1  0.78402596  0.59558159  0.27136764  1
  Bi2+  Bi93  1  0.77781990  0.60702530  0.79373895  1
  Bi2+  Bi94  1  0.78358860  0.84663382  0.28966003  1
  Bi2+  Bi95  1  0.73221005  0.80331015  0.77783289  1
  Bi2+  Bi96  1  0.16382451  0.01650125  0.20020342  1
  Bi2+  Bi97  1  0.14348862  0.02945663  0.71570574  1
  Bi2+  Bi98  1  0.14552178  0.25264627  0.26102994  1
  Bi2+  Bi99  1  0.14843328  0.28824340  0.76793201  1
  Bi2+  Bi100  1  0.16095207  0.50490544  0.20475831  1
  Bi2+  Bi101  1  0.08430479  0.42387764  0.69112673  1
  Bi2+  Bi102  1  0.18663359  0.70499572  0.23911204  1
  Bi2+  Bi103  1  0.12776760  0.69097633  0.70953668  1
  Bi2+  Bi104  1  0.37424588  -0.11283514  0.20948329  1
  Bi2+  Bi105  1  0.36466135  0.01061921  0.71600563  1
  Bi2+  Bi106  1  0.34413583  0.24937842  0.21127259  1
  Bi2+  Bi107  1  0.33705424  0.24432033  0.69876523  1
  Bi2+  Bi108  1  0.38562724  0.51676232  0.20803479  1
  Bi2+  Bi109  1  0.37660519  0.45440926  0.71019167  1
  Bi2+  Bi110  1  0.45353574  0.70509084  0.19989580  1
  Bi2+  Bi111  1  0.37183118  0.70803460  0.72920504  1
  Bi2+  Bi112  1  0.65086192  -0.10538419  0.21217273  1
  Bi2+  Bi113  1  0.62691737  0.03251649  0.72143889  1
  Bi2+  Bi114  1  0.64051824  0.23671727  0.18409892  1
  Bi2+  Bi115  1  0.61672450  0.33659484  0.69275841  1
  Bi2+  Bi116  1  0.65814137  0.51068129  0.19556659  1
  Bi2+  Bi117  1  0.55363377  0.51724762  0.66868454  1
  Bi2+  Bi118  1  0.61905444  0.74744054  0.14317693  1
  Bi2+  Bi119  1  0.65314032  0.68127843  0.70341627  1
  Bi2+  Bi120  1  0.86862152  0.02450744  0.19888736  1
  Bi2+  Bi121  1  0.87203512  -0.01037766  0.71169989  1
  Bi2+  Bi122  1  0.88122698  0.29772168  0.21712520  1
  Bi2+  Bi123  1  0.88389707  0.27227856  0.70931439  1
  Bi2+  Bi124  1  0.96702795  0.48395685  0.21704602  1
  Bi2+  Bi125  1  0.85731269  0.46300850  0.70164596  1
  Bi2+  Bi126  1  0.86309173  0.73548282  0.20284832  1
  Bi2+  Bi127  1  0.91724532  0.72795114  0.69874970  1
  S2-  S128  1  0.02085050  0.06209645  0.14532142  1
  S2-  S129  1  -0.01154625  0.03501001  0.64985316  1
  S2-  S130  1  0.01233983  0.34647018  0.15601554  1
  S2-  S131  1  0.00231619  0.26094311  0.64111729  1
  S2-  S132  1  0.00115418  0.70955825  0.14984799  1
  S2-  S133  1  0.02515749  0.56494452  0.64860129  1
  S2-  S134  1  0.04246211  0.90068183  0.22704576  1
  S2-  S135  1  0.05023656  0.81910159  0.66742174  1
  S2-  S136  1  0.30570467  0.11942288  0.15138053  1
  S2-  S137  1  0.21881128  0.13398621  0.65078491  1
  S2-  S138  1  0.25986750  0.36271098  0.16182088  1
  S2-  S139  1  0.24744669  0.37847202  0.65269165  1
  S2-  S140  1  0.24435320  0.62476384  0.15034005  1
  S2-  S141  1  0.26581540  0.63124614  0.65717257  1
  S2-  S142  1  0.20728809  0.88207812  0.14250630  1
  S2-  S143  1  0.31448525  0.87778635  0.65022134  1
  S2-  S144  1  0.53762412  0.11348414  0.20382990  1
  S2-  S145  1  0.49410141  0.05335102  0.65263789  1
  S2-  S146  1  0.48204933  0.28354690  0.15058929  1
  S2-  S147  1  0.47107006  0.26584030  0.64174384  1
  S2-  S148  1  0.50515587  0.49805045  0.13652948  1
  S2-  S149  1  0.47900477  0.72146954  0.64998900  1
  S2-  S150  1  0.47612751  0.95533718  0.14452611  1
  S2-  S151  1  0.59842505  0.88083314  0.69125844  1
  S2-  S152  1  0.75783935  0.11307566  0.15047363  1
  S2-  S153  1  0.74996237  0.03822914  0.64679935  1
  S2-  S154  1  0.74434362  0.37833404  0.15588207  1
  S2-  S155  1  0.75495150  0.26955224  0.64057876  1
  S2-  S156  1  0.77694356  0.61573816  0.14769097  1
  S2-  S157  1  0.79169714  0.61783357  0.65579085  1
  S2-  S158  1  0.85402381  0.88872440  0.14154661  1
  S2-  S159  1  0.84057152  0.85496033  0.64981165  1
  S2-  S160  1  0.07373219  0.07000499  0.34467967  1
  S2-  S161  1  0.10248592  0.00135214  0.83808452  1
  S2-  S162  1  0.22999313  0.27047738  0.35797757  1
  S2-  S163  1  0.04016295  0.24604671  0.85147060  1
  S2-  S164  1  0.13952191  0.50410258  0.34217255  1
  S2-  S165  1  0.14530255  0.50596878  0.85181532  1
  S2-  S166  1  0.12996360  0.85858739  0.36669651  1
  S2-  S167  1  0.11827084  0.76665882  0.83699091  1
  S2-  S168  1  0.35312595  0.00591317  0.35085260  1
  S2-  S169  1  0.40130067  -0.04281500  0.83858921  1
  S2-  S170  1  0.45641959  0.23411342  0.34076249  1
  S2-  S171  1  0.38624423  0.22138260  0.84951751  1
  S2-  S172  1  0.39388879  0.47801539  0.35132712  1
  S2-  S173  1  0.45375577  0.49259445  0.85484307  1
  S2-  S174  1  0.38328242  0.76357731  0.34914791  1
  S2-  S175  1  0.45764002  0.74073760  0.85505592  1
  S2-  S176  1  0.61298702  0.06038224  0.35352093  1
  S2-  S177  1  0.61893368  0.11746262  0.85600684  1
  S2-  S178  1  0.64687995  0.24124059  0.27738248  1
  S2-  S179  1  0.61478160  0.35571698  0.85637065  1
  S2-  S180  1  0.63345457  0.40952555  0.35655651  1
  S2-  S181  1  0.63461474  0.61171537  0.85038163  1
  S2-  S182  1  0.66884528  0.78572107  0.36051067  1
  S2-  S183  1  0.63427076  0.88487593  0.85023238  1
  S2-  S184  1  0.83763527  -0.00986119  0.34940176  1
  S2-  S185  1  0.87746430  -0.00420922  0.82317000  1
  S2-  S186  1  0.79138941  0.22621648  0.35415361  1
  S2-  S187  1  0.83642534  0.20264211  0.80484264  1
  S2-  S188  1  0.85715669  0.52127574  0.35280409  1
  S2-  S189  1  0.86567196  0.41016548  0.85389906  1
  S2-  S190  1  0.91247058  0.76930090  0.34256683  1
  S2-  S191  1  0.86810262  0.78054048  0.83781918  1
  S2-  S192  1  -0.00640994  0.14126193  0.45550149  1
  S2-  S193  1  -0.01218794  0.12024074  0.94760868  1
  S2-  S194  1  -0.00570847  0.39092668  0.45785427  1
  S2-  S195  1  -0.00968756  0.36844777  0.95695006  1
  S2-  S196  1  -0.01051537  0.64502905  0.45551987  1
  S2-  S197  1  -0.01019825  0.61866358  0.95268235  1
  S2-  S198  1  -0.01390422  0.88977497  0.46143225  1
  S2-  S199  1  -0.00984983  0.86835213  0.94111057  1
  S2-  S200  1  0.23987089  0.13573539  0.45108785  1
  S2-  S201  1  0.23811533  0.11871354  0.95109033  1
  S2-  S202  1  0.23942111  0.39463780  0.45232796  1
  S2-  S203  1  0.23807703  0.36770682  0.95787399  1
  S2-  S204  1  0.24084747  0.64659212  0.45253322  1
  S2-  S205  1  0.24150257  0.62292221  0.94982510  1
  S2-  S206  1  0.24852233  0.88907804  0.46151109  1
  S2-  S207  1  0.24280822  0.86875517  0.94142546  1
  S2-  S208  1  0.49340575  0.14046219  0.45599658  1
  S2-  S209  1  0.49037477  0.12001436  0.95429308  1
  S2-  S210  1  0.48666097  0.39114345  0.45886335  1
  S2-  S211  1  0.48766065  0.36776161  0.96104649  1
  S2-  S212  1  0.49439612  0.64072062  0.45596600  1
  S2-  S213  1  0.48967813  0.61707910  0.95850359  1
  S2-  S214  1  0.49220169  0.89272648  0.44872235  1
  S2-  S215  1  0.49178432  0.87416707  0.95392210  1
  S2-  S216  1  0.73948322  0.13869536  0.45988665  1
  S2-  S217  1  0.75259317  0.12909296  0.94538519  1
  S2-  S218  1  0.74907169  0.39319453  0.46238822  1
  S2-  S219  1  0.74526324  0.36300606  0.95322865  1
  S2-  S220  1  0.74220358  0.63754809  0.45532726  1
  S2-  S221  1  0.73922310  0.61487520  0.94944196  1
  S2-  S222  1  0.74289219  0.89625730  0.46473385  1
  S2-  S223  1  0.74098181  0.86953445  0.95114753  1
  S2-  S224  1  0.11193036  -0.01125444  0.04004498  1
  S2-  S225  1  0.11640106  0.01306424  0.54519347  1
  S2-  S226  1  0.11344492  0.24352037  0.04673843  1
  S2-  S227  1  0.11742958  0.26543091  0.53733893  1
  S2-  S228  1  0.11248003  0.50054276  0.05253855  1
  S2-  S229  1  0.11723466  0.51552430  0.54403863  1
  S2-  S230  1  0.11577673  0.74807689  0.04132459  1
  S2-  S231  1  0.11580961  0.76758072  0.55083042  1
  S2-  S232  1  0.36526454  -0.00238549  0.04081765  1
  S2-  S233  1  0.36597120  0.01310234  0.55072719  1
  S2-  S234  1  0.36230065  0.24431362  0.04984683  1
  S2-  S235  1  0.36163805  0.26419396  0.53696234  1
  S2-  S236  1  0.35997523  0.49854844  0.04600816  1
  S2-  S237  1  0.36624269  0.51587929  0.55085602  1
  S2-  S238  1  0.36716102  0.74412228  0.04660841  1
  S2-  S239  1  0.36810197  0.76953218  0.54803848  1
  S2-  S240  1  0.61819945  -0.00420112  0.04199396  1
  S2-  S241  1  0.60911812  0.01342956  0.55129185  1
  S2-  S242  1  0.60986773  0.24540153  0.04625002  1
  S2-  S243  1  0.61657164  0.26631141  0.54765361  1
  S2-  S244  1  0.61697220  0.49429902  0.03553595  1
  S2-  S245  1  0.61964524  0.51113555  0.54571658  1
  S2-  S246  1  0.61672172  0.74376186  0.03046813  1
  S2-  S247  1  0.61606961  0.77177304  0.55640363  1
  S2-  S248  1  0.85954773  -0.00065259  0.03220937  1
  S2-  S249  1  0.86931823  0.02112790  0.54601614  1
  S2-  S250  1  0.86442862  0.24649151  0.05245439  1
  S2-  S251  1  0.87094355  0.26419087  0.54315165  1
  S2-  S252  1  0.86421846  0.49744285  0.04691715  1
  S2-  S253  1  0.86615257  0.51151569  0.55157461  1
  S2-  S254  1  0.85952781  0.74016036  0.03977655  1
  S2-  S255  1  0.86736188  0.76415996  0.54410119  1
