# generated using pymatgen
data_La6Ce6Pr19Nd20Sm13(BiS2)64
_symmetry_space_group_name_H-M   'P 1'
_cell_length_a   16.07040685
_cell_length_b   16.10755226
_cell_length_c   27.25464550
_cell_angle_alpha   89.53219239
_cell_angle_beta   89.82562620
_cell_angle_gamma   89.91069990
_symmetry_Int_Tables_number   1
_chemical_formula_structural   La6Ce6Pr19Nd20Sm13(BiS2)64
_chemical_formula_sum   'La6 Ce6 Pr19 Nd20 Sm13 Bi64 S128'
_cell_volume   7054.72290656
_cell_formula_units_Z   1
loop_
 _symmetry_equiv_pos_site_id
 _symmetry_equiv_pos_as_xyz
  1  'x, y, z'
loop_
 _atom_type_symbol
 _atom_type_oxidation_number
  La3+  3.0
  Ce3+  3.0
  Pr3+  3.0
  Nd3+  3.0
  Sm3+  3.0
  Bi2+  2.0
  S2-  -2.0
loop_
 _atom_site_type_symbol
 _atom_site_label
 _atom_site_symmetry_multiplicity
 _atom_site_fract_x
 _atom_site_fract_y
 _atom_site_fract_z
 _atom_site_occupancy
  La3+  La0  1  0.90001830  0.25393798  0.41401047  1
  La3+  La1  1  0.72259183  0.85003552  0.09459740  1
  La3+  La2  1  0.87113512  0.49459057  0.88819034  1
  La3+  La3  1  0.78542756  0.11847508  0.56397013  1
  La3+  La4  1  0.78451551  0.62166758  0.57490842  1
  La3+  La5  1  0.53325119  0.36182197  0.59273971  1
  Ce3+  Ce6  1  0.15729457  0.49829540  0.44202141  1
  Ce3+  Ce7  1  -0.02246819  0.60906595  0.06105347  1
  Ce3+  Ce8  1  0.53101298  0.62421834  0.56960277  1
  Ce3+  Ce9  1  0.85262991  0.23823112  0.94070139  1
  Ce3+  Ce10  1  0.39683723  -0.00196995  0.44363565  1
  Ce3+  Ce11  1  0.40591012  0.25140384  0.43975608  1
  Pr3+  Pr12  1  0.27314290  0.13174817  0.57001617  1
  Pr3+  Pr13  1  0.60623269  -0.01459067  0.93666391  1
  Pr3+  Pr14  1  0.78418106  0.87847142  0.56581889  1
  Pr3+  Pr15  1  0.35425105  0.73364568  0.93095901  1
  Pr3+  Pr16  1  0.65643242  0.74981838  0.44396960  1
  Pr3+  Pr17  1  0.27200168  0.87692137  0.57758831  1
  Pr3+  Pr18  1  0.35625754  -0.01285282  0.93738290  1
  Pr3+  Pr19  1  0.16367386  0.25825566  0.42123491  1
  Pr3+  Pr20  1  0.60911098  0.23198072  0.93188558  1
  Pr3+  Pr21  1  -0.02555640  0.35771243  0.06462526  1
  Pr3+  Pr22  1  0.22743239  0.86058984  0.06039406  1
  Pr3+  Pr23  1  0.27740881  0.37336217  0.56826841  1
  Pr3+  Pr24  1  0.90905659  -0.00987202  0.41599641  1
  Pr3+  Pr25  1  0.27875795  0.62423781  0.57851728  1
  Pr3+  Pr26  1  0.10198952  -0.01634438  0.94276581  1
  Pr3+  Pr27  1  0.09890701  0.23406504  0.94125508  1
  Pr3+  Pr28  1  0.03034103  0.12529923  0.54738222  1
  Pr3+  Pr29  1  0.47720832  0.85205726  0.06921685  1
  Pr3+  Pr30  1  -0.02220757  0.85449417  0.06408294  1
  Nd3+  Nd31  1  0.22857191  0.10916690  0.06465169  1
  Nd3+  Nd32  1  0.35626229  0.47630970  0.92083926  1
  Nd3+  Nd33  1  0.48591962  0.10593199  0.06982803  1
  Nd3+  Nd34  1  0.02713033  0.87675457  0.56176656  1
  Nd3+  Nd35  1  0.47924405  0.35876428  0.05682830  1
  Nd3+  Nd36  1  0.47773546  0.60906040  0.05751679  1
  Nd3+  Nd37  1  0.02676382  0.36986803  0.55963046  1
  Nd3+  Nd38  1  0.23153846  0.60612185  0.05428984  1
  Nd3+  Nd39  1  0.60170250  0.47734409  0.91336811  1
  Nd3+  Nd40  1  0.72669306  0.60974741  0.05713557  1
  Nd3+  Nd41  1  0.78268501  0.36386305  0.57244718  1
  Nd3+  Nd42  1  -0.03082526  0.10546882  0.07310334  1
  Nd3+  Nd43  1  0.40842863  0.49926078  0.45559532  1
  Nd3+  Nd44  1  0.85253876  -0.01761140  0.94582425  1
  Nd3+  Nd45  1  0.15899175  0.00844323  0.42840414  1
  Nd3+  Nd46  1  0.72810673  0.36098155  0.05573500  1
  Nd3+  Nd47  1  0.90200849  0.49808623  0.43758232  1
  Nd3+  Nd48  1  0.15723434  0.75049970  0.44752141  1
  Nd3+  Nd49  1  0.60386642  0.73053782  0.93450917  1
  Nd3+  Nd50  1  0.65688355  0.24931652  0.43833209  1
  Sm3+  Sm51  1  0.35779786  0.23020251  0.93820079  1
  Sm3+  Sm52  1  0.02665638  0.61988274  0.55748741  1
  Sm3+  Sm53  1  0.90639595  0.74693574  0.43599539  1
  Sm3+  Sm54  1  0.65839115  -0.00163884  0.43686618  1
  Sm3+  Sm55  1  0.10367346  0.48196485  0.94581254  1
  Sm3+  Sm56  1  0.22970654  0.35625630  0.05682044  1
  Sm3+  Sm57  1  0.65547943  0.49882268  0.45055167  1
  Sm3+  Sm58  1  0.85074283  0.72963333  0.94107770  1
  Sm3+  Sm59  1  0.52710145  0.87545582  0.55449907  1
  Sm3+  Sm60  1  0.40368430  0.74731102  0.44982945  1
  Sm3+  Sm61  1  0.72607534  0.10763286  0.06727393  1
  Sm3+  Sm62  1  0.10370561  0.73084994  0.94403348  1
  Sm3+  Sm63  1  0.52826493  0.12402768  0.55319538  1
  Bi2+  Bi64  1  0.04427527  0.08887656  0.28193285  1
  Bi2+  Bi65  1  0.00096146  0.14669159  0.78340413  1
  Bi2+  Bi66  1  0.02433350  0.37456905  0.28787109  1
  Bi2+  Bi67  1  0.05980582  0.38839060  0.77287101  1
  Bi2+  Bi68  1  -0.06856287  0.60960721  0.32294509  1
  Bi2+  Bi69  1  0.01906488  0.66460225  0.75555661  1
  Bi2+  Bi70  1  -0.00208520  0.77902626  0.28137048  1
  Bi2+  Bi71  1  0.02877903  0.87273546  0.78679500  1
  Bi2+  Bi72  1  0.31487519  0.12937211  0.29893925  1
  Bi2+  Bi73  1  0.23227545  0.05745776  0.80871581  1
  Bi2+  Bi74  1  0.30425170  0.42644659  0.25032443  1
  Bi2+  Bi75  1  0.21525491  0.48652656  0.81093835  1
  Bi2+  Bi76  1  0.20523653  0.55919865  0.31216152  1
  Bi2+  Bi77  1  0.24400563  0.68350615  0.80804985  1
  Bi2+  Bi78  1  0.19045397  0.88593864  0.30393519  1
  Bi2+  Bi79  1  0.31341522  0.87991266  0.81758336  1
  Bi2+  Bi80  1  0.53097569  0.18810696  0.29668956  1
  Bi2+  Bi81  1  0.46560402  0.14105949  0.74004914  1
  Bi2+  Bi82  1  0.48764152  0.38447996  0.30416985  1
  Bi2+  Bi83  1  0.45434627  0.37331756  0.78984789  1
  Bi2+  Bi84  1  0.50121167  0.60549869  0.28985418  1
  Bi2+  Bi85  1  0.41549624  0.61988329  0.76432229  1
  Bi2+  Bi86  1  0.46028052  0.86912779  0.27504276  1
  Bi2+  Bi87  1  0.50168971  0.98059276  0.81209558  1
  Bi2+  Bi88  1  0.72990799  0.12731311  0.28036342  1
  Bi2+  Bi89  1  0.74156074  0.11266522  0.79272653  1
  Bi2+  Bi90  1  0.75782721  0.38886441  0.28917091  1
  Bi2+  Bi91  1  0.72814649  0.36226042  0.78815599  1
  Bi2+  Bi92  1  0.73891759  0.63196049  0.29807303  1
  Bi2+  Bi93  1  0.75038339  0.64658415  0.78037247  1
  Bi2+  Bi94  1  0.74709923  0.88665754  0.29655095  1
  Bi2+  Bi95  1  0.72422566  0.89333758  0.80251649  1
  Bi2+  Bi96  1  0.18409423  -0.04995257  0.19854773  1
  Bi2+  Bi97  1  0.11617287  0.04085993  0.71172170  1
  Bi2+  Bi98  1  0.15550217  0.25245298  0.19823133  1
  Bi2+  Bi99  1  0.14121599  0.31453200  0.67782746  1
  Bi2+  Bi100  1  0.05800435  0.55202231  0.23357488  1
  Bi2+  Bi101  1  0.09581588  0.54235044  0.67773491  1
  Bi2+  Bi102  1  0.16310125  0.71807980  0.20129440  1
  Bi2+  Bi103  1  0.15244438  0.78455220  0.71236623  1
  Bi2+  Bi104  1  0.37295273  0.00237321  0.20757747  1
  Bi2+  Bi105  1  0.31963144  0.03794227  0.69083741  1
  Bi2+  Bi106  1  0.40401596  0.26423570  0.21937364  1
  Bi2+  Bi107  1  0.27342634  0.22335221  0.74364385  1
  Bi2+  Bi108  1  0.40734023  0.55890458  0.18636900  1
  Bi2+  Bi109  1  0.27973767  0.51473632  0.70219984  1
  Bi2+  Bi110  1  0.32598741  0.70520644  0.27190921  1
  Bi2+  Bi111  1  0.38629846  0.85783121  0.70991347  1
  Bi2+  Bi112  1  0.56385699  0.02435653  0.22153433  1
  Bi2+  Bi113  1  0.61639770  0.01285879  0.71290543  1
  Bi2+  Bi114  1  0.65794260  0.26684725  0.20568919  1
  Bi2+  Bi115  1  0.63837237  0.25645007  0.71295334  1
  Bi2+  Bi116  1  0.57790020  0.47417304  0.21433409  1
  Bi2+  Bi117  1  0.58544439  0.51704554  0.70728296  1
  Bi2+  Bi118  1  0.57704859  0.75078811  0.21004029  1
  Bi2+  Bi119  1  0.57913229  0.81895143  0.74433010  1
  Bi2+  Bi120  1  0.92041395  -0.01272731  0.20782165  1
  Bi2+  Bi121  1  0.88001570  -0.01261590  0.70181322  1
  Bi2+  Bi122  1  0.90551141  0.23935224  0.19822375  1
  Bi2+  Bi123  1  0.90256753  0.23104151  0.70137314  1
  Bi2+  Bi124  1  0.85134095  0.52415233  0.22473307  1
  Bi2+  Bi125  1  0.85805909  0.50438074  0.69841351  1
  Bi2+  Bi126  1  0.85320477  0.72687142  0.20669596  1
  Bi2+  Bi127  1  0.86681083  0.79824535  0.73698185  1
  S2-  S128  1  0.03591073  0.13473443  0.16632456  1
  S2-  S129  1  -0.07048509  0.10408865  0.63381783  1
  S2-  S130  1  0.01954860  0.35020306  0.16300452  1
  S2-  S131  1  -0.08065359  0.37433010  0.64198687  1
  S2-  S132  1  -0.01003286  0.66762534  0.15150678  1
  S2-  S133  1  -0.06871389  0.61845128  0.64048787  1
  S2-  S134  1  0.02407099  0.89624465  0.15813626  1
  S2-  S135  1  -0.08996707  0.85661708  0.63870453  1
  S2-  S136  1  0.25721213  0.12721740  0.16207485  1
  S2-  S137  1  0.12985871  0.14844885  0.63392005  1
  S2-  S138  1  0.24931830  0.36249522  0.15413446  1
  S2-  S139  1  0.30238924  0.26089757  0.64657358  1
  S2-  S140  1  0.24021415  0.59447518  0.15299918  1
  S2-  S141  1  0.28786430  0.74779369  0.65082814  1
  S2-  S142  1  0.27833805  0.82719947  0.15411764  1
  S2-  S143  1  0.13307499  0.90948530  0.64180066  1
  S2-  S144  1  0.60761862  0.12008441  0.14239924  1
  S2-  S145  1  0.52974424  0.19826985  0.64252057  1
  S2-  S146  1  0.51421377  0.33719380  0.15412466  1
  S2-  S147  1  0.46539575  0.41226219  0.68510008  1
  S2-  S148  1  0.46948031  0.71123695  0.13865996  1
  S2-  S149  1  0.49406045  0.63787594  0.66580545  1
  S2-  S150  1  0.57834362  0.88933627  0.15083033  1
  S2-  S151  1  0.53479021  0.88680534  0.65159517  1
  S2-  S152  1  0.83718796  0.10647355  0.14507353  1
  S2-  S153  1  0.76774834  0.22537897  0.64578441  1
  S2-  S154  1  0.78341358  0.33357991  0.15095748  1
  S2-  S155  1  0.67527094  0.39719844  0.65505290  1
  S2-  S156  1  0.71218097  0.69194156  0.14621000  1
  S2-  S157  1  0.72610307  0.61698166  0.67356132  1
  S2-  S158  1  0.78998596  0.89497713  0.18865011  1
  S2-  S159  1  0.74476555  0.99541868  0.64231849  1
  S2-  S160  1  0.05333967  -0.02758407  0.35034171  1
  S2-  S161  1  0.06099119  0.01208493  0.84690168  1
  S2-  S162  1  0.15867848  0.14894364  0.33942338  1
  S2-  S163  1  0.08523222  0.25092387  0.84074714  1
  S2-  S164  1  0.15196276  0.40763524  0.35805173  1
  S2-  S165  1  0.04646507  0.49847859  0.85445968  1
  S2-  S166  1  0.13517404  0.74335794  0.34804789  1
  S2-  S167  1  0.08548575  0.73582123  0.84693202  1
  S2-  S168  1  0.29830578  -0.01221274  0.36338161  1
  S2-  S169  1  0.36584691  0.11081507  0.86502519  1
  S2-  S170  1  0.31879254  0.26346964  0.35716442  1
  S2-  S171  1  0.34351354  0.33467636  0.85639053  1
  S2-  S172  1  0.40639827  0.51202395  0.35547825  1
  S2-  S173  1  0.47079964  0.51453983  0.84397278  1
  S2-  S174  1  0.39093034  0.78192094  0.35399853  1
  S2-  S175  1  0.42263218  0.73848212  0.83795858  1
  S2-  S176  1  0.64082330  -0.01087673  0.33859750  1
  S2-  S177  1  0.60708233  0.10356563  0.85980201  1
  S2-  S178  1  0.74730906  0.25115449  0.35206641  1
  S2-  S179  1  0.58570095  0.33248535  0.84826016  1
  S2-  S180  1  0.67565286  0.49659825  0.35181834  1
  S2-  S181  1  0.71157534  0.50952616  0.83696028  1
  S2-  S182  1  0.65922760  0.76738914  0.34266657  1
  S2-  S183  1  0.64142767  0.73895946  0.83595340  1
  S2-  S184  1  0.85018337  0.03695888  0.31783763  1
  S2-  S185  1  0.83370092  -0.00032161  0.84635413  1
  S2-  S186  1  0.96064152  0.22845651  0.31232759  1
  S2-  S187  1  0.81290603  0.23780222  0.84519369  1
  S2-  S188  1  0.89913692  0.40628686  0.35275199  1
  S2-  S189  1  0.88539011  0.42738725  0.78869736  1
  S2-  S190  1  0.88520943  0.83725776  0.35214067  1
  S2-  S191  1  0.86549061  0.66071520  0.85124736  1
  S2-  S192  1  0.02639390  0.12956935  0.44071283  1
  S2-  S193  1  -0.02556130  0.10875788  0.96052309  1
  S2-  S194  1  0.02883894  0.37655517  0.45433994  1
  S2-  S195  1  -0.02550705  0.36517057  0.95391557  1
  S2-  S196  1  0.03066577  0.62323408  0.45309397  1
  S2-  S197  1  -0.02078904  0.60812726  0.95654385  1
  S2-  S198  1  0.03073522  0.86759931  0.45476716  1
  S2-  S199  1  -0.02220827  0.85349834  0.95438121  1
  S2-  S200  1  0.28321787  0.12865631  0.46066446  1
  S2-  S201  1  0.22534127  0.11099805  0.95833320  1
  S2-  S202  1  0.28492426  0.37945122  0.46152747  1
  S2-  S203  1  0.22682625  0.35721498  0.95382677  1
  S2-  S204  1  0.28202006  0.62435888  0.46465326  1
  S2-  S205  1  0.22926249  0.60472664  0.94789318  1
  S2-  S206  1  0.28113199  0.86843851  0.46734490  1
  S2-  S207  1  0.22687607  0.85818435  0.95203519  1
  S2-  S208  1  0.53043959  0.12102568  0.44772679  1
  S2-  S209  1  0.48173213  0.11091788  0.96527218  1
  S2-  S210  1  0.53338368  0.37523461  0.45172733  1
  S2-  S211  1  0.47951811  0.35829019  0.95343730  1
  S2-  S212  1  0.53128242  0.62593527  0.45982101  1
  S2-  S213  1  0.48018799  0.60500660  0.95226530  1
  S2-  S214  1  0.52737857  0.87467212  0.44969530  1
  S2-  S215  1  0.47978485  0.85959753  0.95326489  1
  S2-  S216  1  0.77947849  0.11830437  0.44857843  1
  S2-  S217  1  0.73352310  0.10878962  0.96172588  1
  S2-  S218  1  0.77544079  0.37661337  0.45983791  1
  S2-  S219  1  0.73196138  0.36720065  0.94978557  1
  S2-  S220  1  0.77967886  0.62467062  0.45794621  1
  S2-  S221  1  0.72756531  0.60610323  0.95208126  1
  S2-  S222  1  0.77759105  0.87463724  0.45593050  1
  S2-  S223  1  0.72990837  0.85542455  0.94707297  1
  S2-  S224  1  0.10094003  -0.01253135  0.04937123  1
  S2-  S225  1  0.15707972  0.00106342  0.53566627  1
  S2-  S226  1  0.10323712  0.23369613  0.04875495  1
  S2-  S227  1  0.15529084  0.25701851  0.53155907  1
  S2-  S228  1  0.10497788  0.48112334  0.05121507  1
  S2-  S229  1  0.15368972  0.49896259  0.54885242  1
  S2-  S230  1  0.10653812  0.73185278  0.04789552  1
  S2-  S231  1  0.14912585  0.74214512  0.55268967  1
  S2-  S232  1  0.35671992  -0.01448050  0.04937129  1
  S2-  S233  1  0.40238659  0.00112055  0.55089340  1
  S2-  S234  1  0.35634824  0.23198715  0.04825065  1
  S2-  S235  1  0.40805067  0.25177870  0.54349853  1
  S2-  S236  1  0.35347552  0.48020537  0.03989706  1
  S2-  S237  1  0.40606647  0.49737638  0.56137236  1
  S2-  S238  1  0.35026368  0.73358449  0.03783690  1
  S2-  S239  1  0.40665485  0.74951816  0.55271519  1
  S2-  S240  1  0.60750657  -0.02090267  0.04388531  1
  S2-  S241  1  0.64730719  -0.00088841  0.54005523  1
  S2-  S242  1  0.60610114  0.23636191  0.04081138  1
  S2-  S243  1  0.65192834  0.24649958  0.54173238  1
  S2-  S244  1  0.60251328  0.48500322  0.05316465  1
  S2-  S245  1  0.65241869  0.49868039  0.55289518  1
  S2-  S246  1  0.60352692  0.73530110  0.03963736  1
  S2-  S247  1  0.65491773  0.75275569  0.55316922  1
  S2-  S248  1  0.84669950  -0.02698606  0.05115280  1
  S2-  S249  1  0.90688667  -0.00483510  0.52957927  1
  S2-  S250  1  0.85192994  0.23359965  0.04493332  1
  S2-  S251  1  0.90439408  0.24988239  0.53268287  1
  S2-  S252  1  0.85226233  0.48700454  0.05880714  1
  S2-  S253  1  0.90284403  0.49623939  0.54117893  1
  S2-  S254  1  0.85078037  0.73534478  0.04592516  1
  S2-  S255  1  0.90450926  0.74526822  0.53840712  1
