# generated using pymatgen
data_La6Ce6Pr19Nd20Sm13(BiS2)64
_symmetry_space_group_name_H-M   'P 1'
_cell_length_a   16.04742137
_cell_length_b   16.06804161
_cell_length_c   27.39568377
_cell_angle_alpha   89.77942452
_cell_angle_beta   89.43072611
_cell_angle_gamma   89.95116290
_symmetry_Int_Tables_number   1
_chemical_formula_structural   La6Ce6Pr19Nd20Sm13(BiS2)64
_chemical_formula_sum   'La6 Ce6 Pr19 Nd20 Sm13 Bi64 S128'
_cell_volume   7063.59108504
_cell_formula_units_Z   1
loop_
 _symmetry_equiv_pos_site_id
 _symmetry_equiv_pos_as_xyz
  1  'x, y, z'
loop_
 _atom_type_symbol
 _atom_type_oxidation_number
  La3+  3.0
  Ce3+  3.0
  Pr3+  3.0
  Nd3+  3.0
  Sm3+  3.0
  Bi2+  2.0
  S2-  -2.0
loop_
 _atom_site_type_symbol
 _atom_site_label
 _atom_site_symmetry_multiplicity
 _atom_site_fract_x
 _atom_site_fract_y
 _atom_site_fract_z
 _atom_site_occupancy
  La3+  La0  1  0.64608527  0.51032223  0.94142075  1
  La3+  La1  1  0.40154558  0.25887364  0.92630814  1
  La3+  La2  1  0.39554347  0.75563107  0.91572802  1
  La3+  La3  1  0.36069729  0.49771982  0.38485968  1
  La3+  La4  1  -0.00888504  0.86104541  0.57559258  1
  La3+  La5  1  0.74259936  0.12719007  0.58334133  1
  Ce3+  Ce6  1  0.39820876  0.00804824  0.94441778  1
  Ce3+  Ce7  1  0.89397911  0.01309922  0.93910347  1
  Ce3+  Ce8  1  0.24605385  0.37554550  0.55555490  1
  Ce3+  Ce9  1  0.14648957  0.01000510  0.93485144  1
  Ce3+  Ce10  1  0.49451654  0.61789944  0.55848330  1
  Ce3+  Ce11  1  0.73409046  0.61855780  0.55571241  1
  Pr3+  Pr12  1  0.14539015  0.50565999  0.93085870  1
  Pr3+  Pr13  1  0.61858391  0.74794269  0.42721769  1
  Pr3+  Pr14  1  -0.00573019  0.11663050  0.57764109  1
  Pr3+  Pr15  1  0.48944294  0.86780873  0.55864168  1
  Pr3+  Pr16  1  0.36774296  0.24286572  0.42992777  1
  Pr3+  Pr17  1  0.61647671  0.49329059  0.42499179  1
  Pr3+  Pr18  1  0.64664254  0.75989210  0.93685957  1
  Pr3+  Pr19  1  0.25060834  0.60995252  0.59085305  1
  Pr3+  Pr20  1  0.24056573  0.12032598  0.56932269  1
  Pr3+  Pr21  1  0.76524477  0.38221558  0.07232003  1
  Pr3+  Pr22  1  0.89207121  0.26717726  0.92781436  1
  Pr3+  Pr23  1  0.73900776  0.37009405  0.55891229  1
  Pr3+  Pr24  1  0.39443850  0.50941619  0.93212795  1
  Pr3+  Pr25  1  0.64651508  0.26021248  0.93116391  1
  Pr3+  Pr26  1  0.11578528  -0.00713555  0.44238879  1
  Pr3+  Pr27  1  0.26879503  0.87790201  0.05388948  1
  Pr3+  Pr28  1  0.11963112  0.49623518  0.43463799  1
  Pr3+  Pr29  1  0.51394028  0.62924614  0.09151951  1
  Pr3+  Pr30  1  0.48867236  0.11940842  0.56648212  1
  Nd3+  Nd31  1  0.14177260  0.75196515  0.92047084  1
  Nd3+  Nd32  1  0.36881200  0.74297844  0.43458950  1
  Nd3+  Nd33  1  0.11964161  0.24516995  0.44605668  1
  Nd3+  Nd34  1  0.76464944  0.63321771  0.08618161  1
  Nd3+  Nd35  1  0.01831472  0.13440313  0.05302167  1
  Nd3+  Nd36  1  -0.00967464  0.61122215  0.56877271  1
  Nd3+  Nd37  1  0.26698805  0.13532063  0.05530359  1
  Nd3+  Nd38  1  0.51844953  0.13382498  0.07078237  1
  Nd3+  Nd39  1  0.01858495  0.87954011  0.05300296  1
  Nd3+  Nd40  1  0.26900171  0.63359830  0.06121253  1
  Nd3+  Nd41  1  0.74362523  0.87078179  0.55389879  1
  Nd3+  Nd42  1  0.12003000  0.73845192  0.44799228  1
  Nd3+  Nd43  1  0.89399320  0.75667892  0.93200472  1
  Nd3+  Nd44  1  0.36254859  -0.00740068  0.42953907  1
  Nd3+  Nd45  1  0.86826247  0.24163607  0.44313382  1
  Nd3+  Nd46  1  0.77415191  0.13928052  0.07108587  1
  Nd3+  Nd47  1  0.86422117  0.49272284  0.42682002  1
  Nd3+  Nd48  1  0.27085933  0.38401625  0.05745820  1
  Nd3+  Nd49  1  0.87314242  -0.00348055  0.43961728  1
  Nd3+  Nd50  1  0.51958354  0.88185055  0.06778306  1
  Sm3+  Sm51  1  0.02105982  0.38433202  0.06220914  1
  Sm3+  Sm52  1  0.87006211  0.74440399  0.44415035  1
  Sm3+  Sm53  1  0.24233376  0.86535771  0.56089890  1
  Sm3+  Sm54  1  0.89458104  0.50667225  0.94856407  1
  Sm3+  Sm55  1  0.64751959  0.01112612  0.95281338  1
  Sm3+  Sm56  1  0.77132586  0.87747066  0.05953334  1
  Sm3+  Sm57  1  -0.00859453  0.37686777  0.55471038  1
  Sm3+  Sm58  1  0.51809978  0.37781220  0.06306179  1
  Sm3+  Sm59  1  0.61815747  0.24187969  0.43814328  1
  Sm3+  Sm60  1  0.48903196  0.37100439  0.54720979  1
  Sm3+  Sm61  1  0.61904148  -0.00309408  0.44410270  1
  Sm3+  Sm62  1  0.02251991  0.63305810  0.05957889  1
  Sm3+  Sm63  1  0.14584908  0.26242131  0.93359667  1
  Bi2+  Bi64  1  0.01075927  0.08496497  0.28400227  1
  Bi2+  Bi65  1  -0.01802399  0.17212591  0.80495057  1
  Bi2+  Bi66  1  -0.04540258  0.35950136  0.26533849  1
  Bi2+  Bi67  1  0.03662703  0.35356613  0.76894501  1
  Bi2+  Bi68  1  -0.02060012  0.54217154  0.30177207  1
  Bi2+  Bi69  1  -0.01647520  0.62874075  0.79637457  1
  Bi2+  Bi70  1  0.00328925  0.82923954  0.30800161  1
  Bi2+  Bi71  1  -0.12410735  0.82741141  0.79068361  1
  Bi2+  Bi72  1  0.22112392  0.14666371  0.29499856  1
  Bi2+  Bi73  1  0.19096780  0.16689218  0.81474961  1
  Bi2+  Bi74  1  0.21454705  0.34165706  0.28610359  1
  Bi2+  Bi75  1  0.26608119  0.39335914  0.78337714  1
  Bi2+  Bi76  1  0.22559811  0.63039043  0.28659958  1
  Bi2+  Bi77  1  0.25463390  0.64628534  0.78226028  1
  Bi2+  Bi78  1  0.25424315  0.88392813  0.29478677  1
  Bi2+  Bi79  1  0.25351190  0.91546192  0.78283615  1
  Bi2+  Bi80  1  0.42056586  0.11596121  0.32053634  1
  Bi2+  Bi81  1  0.38932648  0.14321246  0.80583791  1
  Bi2+  Bi82  1  0.48954573  0.28451598  0.27345539  1
  Bi2+  Bi83  1  0.53047165  0.35804158  0.79559405  1
  Bi2+  Bi84  1  0.49225225  0.62454101  0.28063650  1
  Bi2+  Bi85  1  0.50635865  0.57625930  0.77693295  1
  Bi2+  Bi86  1  0.51574430  0.87448072  0.28887989  1
  Bi2+  Bi87  1  0.45779415  0.84525435  0.78326089  1
  Bi2+  Bi88  1  0.82553814  0.12027608  0.32447969  1
  Bi2+  Bi89  1  0.76160808  0.08409941  0.79652245  1
  Bi2+  Bi90  1  0.75349047  0.37375735  0.28229712  1
  Bi2+  Bi91  1  0.78931084  0.35970406  0.79760118  1
  Bi2+  Bi92  1  0.80049869  0.62128049  0.28371703  1
  Bi2+  Bi93  1  0.69707098  0.61164071  0.80908498  1
  Bi2+  Bi94  1  0.77958384  0.93434629  0.29080038  1
  Bi2+  Bi95  1  0.64856213  0.89952986  0.77207090  1
  Bi2+  Bi96  1  0.11286448  -0.05636061  0.22768773  1
  Bi2+  Bi97  1  0.09226075  0.05439361  0.73865276  1
  Bi2+  Bi98  1  0.10394904  0.18855196  0.20225380  1
  Bi2+  Bi99  1  0.18845040  0.26089992  0.70955926  1
  Bi2+  Bi100  1  0.09728682  0.48198218  0.19695366  1
  Bi2+  Bi101  1  0.06419022  0.52412558  0.71520534  1
  Bi2+  Bi102  1  0.13692027  0.74672695  0.20421296  1
  Bi2+  Bi103  1  0.08684529  0.79179242  0.70708918  1
  Bi2+  Bi104  1  0.40552129  0.00325045  0.22561686  1
  Bi2+  Bi105  1  0.37632994  0.01816862  0.71621848  1
  Bi2+  Bi106  1  0.37134948  0.19776519  0.19893180  1
  Bi2+  Bi107  1  0.38914488  0.26513445  0.70964854  1
  Bi2+  Bi108  1  0.37240130  0.44830465  0.18382022  1
  Bi2+  Bi109  1  0.37734743  0.47634670  0.69986910  1
  Bi2+  Bi110  1  0.37156474  0.75628372  0.20832117  1
  Bi2+  Bi111  1  0.36574109  0.78023028  0.68858382  1
  Bi2+  Bi112  1  0.65328033  0.00535004  0.21162481  1
  Bi2+  Bi113  1  0.58047433  0.07975329  0.74328670  1
  Bi2+  Bi114  1  0.62032771  0.13561448  0.29916080  1
  Bi2+  Bi115  1  0.61622797  0.26471402  0.70563598  1
  Bi2+  Bi116  1  0.65720192  0.48938210  0.21685400  1
  Bi2+  Bi117  1  0.65060019  0.50339710  0.70844038  1
  Bi2+  Bi118  1  0.64646815  0.77933661  0.21433210  1
  Bi2+  Bi119  1  0.62019773  0.72082069  0.72144855  1
  Bi2+  Bi120  1  0.84628150  0.01241788  0.19294807  1
  Bi2+  Bi121  1  0.86200578  -0.02611918  0.71160163  1
  Bi2+  Bi122  1  0.83394284  0.20727350  0.21677802  1
  Bi2+  Bi123  1  0.89033410  0.25432354  0.71659908  1
  Bi2+  Bi124  1  0.92267247  0.59675985  0.19347848  1
  Bi2+  Bi125  1  0.83964545  0.54243444  0.73401194  1
  Bi2+  Bi126  1  0.89391896  0.79057142  0.21708294  1
  Bi2+  Bi127  1  0.81725425  0.73174703  0.69647457  1
  S2-  S128  1  -0.03462255  0.12939100  0.14773798  1
  S2-  S129  1  0.12289086  0.12546812  0.64980295  1
  S2-  S130  1  -0.00545111  0.36922416  0.15950477  1
  S2-  S131  1  -0.01973399  0.47526719  0.63522743  1
  S2-  S132  1  0.13776388  0.62801301  0.13512818  1
  S2-  S133  1  -0.02088927  0.72592271  0.64732686  1
  S2-  S134  1  0.02320864  0.85729197  0.15133145  1
  S2-  S135  1  0.00653058  0.93751625  0.66675069  1
  S2-  S136  1  0.23047354  0.11453522  0.15216177  1
  S2-  S137  1  0.36514505  0.12755477  0.64079378  1
  S2-  S138  1  0.22381018  0.37974206  0.15486136  1
  S2-  S139  1  0.23949477  0.45289444  0.64271224  1
  S2-  S140  1  0.36192545  0.61388632  0.14716724  1
  S2-  S141  1  0.18035601  0.65817575  0.68491403  1
  S2-  S142  1  0.26669819  0.84034485  0.15276923  1
  S2-  S143  1  0.22493459  0.87220373  0.65932699  1
  S2-  S144  1  0.51557642  0.01172215  0.14746291  1
  S2-  S145  1  0.60363358  0.11597202  0.64623524  1
  S2-  S146  1  0.49210139  0.25770603  0.14118017  1
  S2-  S147  1  0.49725458  0.36573238  0.64694395  1
  S2-  S148  1  0.52889173  0.47061626  0.14833941  1
  S2-  S149  1  0.40135630  0.62574153  0.64453953  1
  S2-  S150  1  0.51195496  0.78404687  0.15089887  1
  S2-  S151  1  0.47512029  0.89638034  0.65764993  1
  S2-  S152  1  0.73827770  0.25445537  0.14388008  1
  S2-  S153  1  0.87075835  0.11280583  0.65189985  1
  S2-  S154  1  0.78762960  0.49280205  0.15226216  1
  S2-  S155  1  0.75236103  0.29510919  0.64950594  1
  S2-  S156  1  0.64294178  0.63782990  0.16468726  1
  S2-  S157  1  0.62261853  0.61806570  0.63251596  1
  S2-  S158  1  0.77510218  0.78603383  0.14380068  1
  S2-  S159  1  0.75067600  0.87763732  0.65238531  1
  S2-  S160  1  0.22580010  0.00667637  0.36145011  1
  S2-  S161  1  0.12995824  -0.01821803  0.83813260  1
  S2-  S162  1  0.11224760  0.26071392  0.34653257  1
  S2-  S163  1  0.13974100  0.37586171  0.85730370  1
  S2-  S164  1  0.19200826  0.48879432  0.34256422  1
  S2-  S165  1  0.14217979  0.60381308  0.84563103  1
  S2-  S166  1  0.13823340  0.75075120  0.34788015  1
  S2-  S167  1  0.00850467  0.76774474  0.85280230  1
  S2-  S168  1  0.38436776  -0.13223412  0.35790894  1
  S2-  S169  1  0.39219338  -0.02241193  0.84891643  1
  S2-  S170  1  0.36026309  0.33279506  0.34222569  1
  S2-  S171  1  0.38850886  0.38871961  0.85346614  1
  S2-  S172  1  0.35407853  0.51661968  0.26779676  1
  S2-  S173  1  0.38269450  0.61156604  0.84553636  1
  S2-  S174  1  0.36194976  0.66295869  0.34402465  1
  S2-  S175  1  0.25935414  0.77968536  0.84429228  1
  S2-  S176  1  0.62733769  -0.03839393  0.34802418  1
  S2-  S177  1  0.64446163  -0.00038287  0.85416990  1
  S2-  S178  1  0.62400474  0.29618813  0.34410537  1
  S2-  S179  1  0.52903971  0.21899222  0.85600305  1
  S2-  S180  1  0.52202102  0.50574807  0.34013111  1
  S2-  S181  1  0.65340271  0.40483267  0.85820807  1
  S2-  S182  1  0.60735672  0.73274916  0.32592252  1
  S2-  S183  1  0.53841861  0.77500631  0.85487410  1
  S2-  S184  1  0.99539899  -0.02037997  0.36679774  1
  S2-  S185  1  0.88559319  -0.01248378  0.84270535  1
  S2-  S186  1  0.87042500  0.30067336  0.34914593  1
  S2-  S187  1  0.76953542  0.22192498  0.85806735  1
  S2-  S188  1  0.74807784  0.50400137  0.35281866  1
  S2-  S189  1  0.89464594  0.41349586  0.86384408  1
  S2-  S190  1  0.85900690  0.75014661  0.34706673  1
  S2-  S191  1  0.77047141  0.75028133  0.85861478  1
  S2-  S192  1  -0.00538409  0.12310900  0.46322550  1
  S2-  S193  1  0.02034226  0.13884675  0.94730529  1
  S2-  S194  1  -0.00840682  0.37176788  0.45123897  1
  S2-  S195  1  0.02067064  0.38171961  0.95966660  1
  S2-  S196  1  -0.01144048  0.61706105  0.45382714  1
  S2-  S197  1  0.01701591  0.62930183  0.95593736  1
  S2-  S198  1  -0.00752391  0.86174941  0.46636698  1
  S2-  S199  1  0.01919561  0.88720685  0.94953137  1
  S2-  S200  1  0.24264699  0.12240236  0.46100127  1
  S2-  S201  1  0.26908740  0.13602434  0.94904455  1
  S2-  S202  1  0.24425148  0.37075846  0.45062545  1
  S2-  S203  1  0.26929051  0.38030342  0.95451292  1
  S2-  S204  1  0.24553703  0.61644885  0.44706395  1
  S2-  S205  1  0.26762211  0.63452179  0.95432417  1
  S2-  S206  1  0.24006732  0.86557061  0.45812970  1
  S2-  S207  1  0.26955189  0.88521496  0.94971571  1
  S2-  S208  1  0.49355929  0.11719515  0.45385825  1
  S2-  S209  1  0.52171628  0.12786418  0.96384162  1
  S2-  S210  1  0.49359985  0.36575965  0.44507511  1
  S2-  S211  1  0.51960082  0.38413384  0.95903987  1
  S2-  S212  1  0.49712380  0.62378126  0.45042199  1
  S2-  S213  1  0.52068332  0.63255241  0.94874176  1
  S2-  S214  1  0.49693201  0.87343862  0.45363499  1
  S2-  S215  1  0.52253266  0.88809576  0.96119767  1
  S2-  S216  1  0.74274123  0.11897665  0.45666880  1
  S2-  S217  1  0.77279197  0.13263970  0.96435146  1
  S2-  S218  1  0.74237102  0.36499889  0.45340795  1
  S2-  S219  1  0.77136284  0.38391886  0.96572490  1
  S2-  S220  1  0.74342964  0.62421931  0.45074840  1
  S2-  S221  1  0.77473384  0.62982075  0.96005375  1
  S2-  S222  1  0.74674860  0.87237151  0.44858852  1
  S2-  S223  1  0.77227383  0.88684614  0.95708530  1
  S2-  S224  1  0.14225677  0.00729881  0.04333609  1
  S2-  S225  1  0.11769210  -0.01049178  0.54961258  1
  S2-  S226  1  0.14200459  0.25929913  0.04236967  1
  S2-  S227  1  0.11479452  0.25348776  0.55074014  1
  S2-  S228  1  0.14306042  0.50447275  0.03923360  1
  S2-  S229  1  0.11975697  0.49824666  0.54064571  1
  S2-  S230  1  0.14143183  0.75749039  0.03382000  1
  S2-  S231  1  0.12513361  0.73311194  0.55290436  1
  S2-  S232  1  0.39005630  0.00845556  0.04985686  1
  S2-  S233  1  0.36328357  -0.00911785  0.54111576  1
  S2-  S234  1  0.39001219  0.25701037  0.03749420  1
  S2-  S235  1  0.36680647  0.24782340  0.53842017  1
  S2-  S236  1  0.39524384  0.50511398  0.04110075  1
  S2-  S237  1  0.37063692  0.49588181  0.54287133  1
  S2-  S238  1  0.39613878  0.75654154  0.04292573  1
  S2-  S239  1  0.36388909  0.74293630  0.54281128  1
  S2-  S240  1  0.65387360  0.00697576  0.05577817  1
  S2-  S241  1  0.61846305  -0.00601404  0.54693783  1
  S2-  S242  1  0.64112687  0.25472746  0.04025166  1
  S2-  S243  1  0.61422182  0.24503934  0.54185703  1
  S2-  S244  1  0.64264909  0.51040412  0.04862041  1
  S2-  S245  1  0.61589471  0.48977967  0.53434473  1
  S2-  S246  1  0.64553092  0.75719276  0.04489638  1
  S2-  S247  1  0.61823998  0.74987271  0.53590909  1
  S2-  S248  1  0.89349413  0.00544773  0.04627570  1
  S2-  S249  1  0.86843104  -0.00561637  0.54566213  1
  S2-  S250  1  0.89816082  0.26229043  0.04382526  1
  S2-  S251  1  0.87295257  0.24908374  0.54753379  1
  S2-  S252  1  0.89988401  0.50934984  0.05026881  1
  S2-  S253  1  0.86132390  0.49512032  0.53557172  1
  S2-  S254  1  0.89655515  0.75261361  0.04311235  1
  S2-  S255  1  0.86201514  0.73842698  0.54715765  1
