# generated using pymatgen
data_La6Ce6Pr19Nd20Sm13(BiS2)64
_symmetry_space_group_name_H-M   'P 1'
_cell_length_a   16.13273780
_cell_length_b   16.04671748
_cell_length_c   27.33966545
_cell_angle_alpha   90.05586894
_cell_angle_beta   90.09041054
_cell_angle_gamma   90.05047100
_symmetry_Int_Tables_number   1
_chemical_formula_structural   La6Ce6Pr19Nd20Sm13(BiS2)64
_chemical_formula_sum   'La6 Ce6 Pr19 Nd20 Sm13 Bi64 S128'
_cell_volume   7077.60892129
_cell_formula_units_Z   1
loop_
 _symmetry_equiv_pos_site_id
 _symmetry_equiv_pos_as_xyz
  1  'x, y, z'
loop_
 _atom_type_symbol
 _atom_type_oxidation_number
  La3+  3.0
  Ce3+  3.0
  Pr3+  3.0
  Nd3+  3.0
  Sm3+  3.0
  Bi2+  2.0
  S2-  -2.0
loop_
 _atom_site_type_symbol
 _atom_site_label
 _atom_site_symmetry_multiplicity
 _atom_site_fract_x
 _atom_site_fract_y
 _atom_site_fract_z
 _atom_site_occupancy
  La3+  La0  1  0.74177137  0.12640547  0.11369385  1
  La3+  La1  1  0.62320521  0.01036687  0.88720242  1
  La3+  La2  1  0.75412083  0.89091348  0.59090232  1
  La3+  La3  1  0.86838258  0.73907861  0.92706731  1
  La3+  La4  1  0.12006630  0.25269212  0.92165045  1
  La3+  La5  1  0.13002449  0.01881944  0.41961540  1
  Ce3+  Ce6  1  0.12971154  0.51211956  0.43999465  1
  Ce3+  Ce7  1  0.23849937  0.11637671  0.05773452  1
  Ce3+  Ce8  1  -0.00421803  0.87073357  0.05940883  1
  Ce3+  Ce9  1  0.62887752  0.51351054  0.45160033  1
  Ce3+  Ce10  1  0.25438355  0.13723923  0.55423371  1
  Ce3+  Ce11  1  0.11317404  -0.00454346  0.93299603  1
  Pr3+  Pr12  1  0.87435965  0.00348854  0.40512036  1
  Pr3+  Pr13  1  0.25504161  0.64245725  0.56163855  1
  Pr3+  Pr14  1  0.12981061  0.26930833  0.43412598  1
  Pr3+  Pr15  1  0.49785130  0.11721365  0.06642313  1
  Pr3+  Pr16  1  0.75668335  0.13973647  0.56462606  1
  Pr3+  Pr17  1  -0.00541636  0.62025229  0.06632486  1
  Pr3+  Pr18  1  0.49843505  0.36823762  0.06226446  1
  Pr3+  Pr19  1  0.61914069  0.49830235  0.93286903  1
  Pr3+  Pr20  1  0.37189083  -0.00286501  0.93836622  1
  Pr3+  Pr21  1  0.25349143  0.89022185  0.55575030  1
  Pr3+  Pr22  1  0.61971120  0.74826629  0.93745626  1
  Pr3+  Pr23  1  0.63275231  0.00945310  0.43942796  1
  Pr3+  Pr24  1  0.86961997  0.74632500  0.39476087  1
  Pr3+  Pr25  1  0.12416601  0.76234257  0.42844015  1
  Pr3+  Pr26  1  0.38531620  0.26664967  0.43580964  1
  Pr3+  Pr27  1  0.24141589  0.36737380  0.06507723  1
  Pr3+  Pr28  1  0.12084794  0.74329581  0.93689647  1
  Pr3+  Pr29  1  0.12195998  0.50170809  0.93280346  1
  Pr3+  Pr30  1  0.74906464  0.87512491  0.06126592  1
  Nd3+  Nd31  1  0.37292630  0.76370075  0.42765232  1
  Nd3+  Nd32  1  0.50488709  0.38366390  0.57613088  1
  Nd3+  Nd33  1  0.37038097  0.74420471  0.93978900  1
  Nd3+  Nd34  1  0.50257968  0.89324623  0.56623052  1
  Nd3+  Nd35  1  0.63340411  0.26658071  0.44260112  1
  Nd3+  Nd36  1  0.24442718  0.61171784  0.07309577  1
  Nd3+  Nd37  1  -0.00158419  0.12145925  0.06208431  1
  Nd3+  Nd38  1  -0.00041320  0.88780891  0.55018824  1
  Nd3+  Nd39  1  0.25382515  0.38888870  0.56729040  1
  Nd3+  Nd40  1  0.63013741  0.76680055  0.44110282  1
  Nd3+  Nd41  1  0.00334345  0.13665861  0.55652139  1
  Nd3+  Nd42  1  0.49724751  0.62228398  0.06285824  1
  Nd3+  Nd43  1  -0.00631369  0.36811194  0.05314771  1
  Nd3+  Nd44  1  0.00167227  0.64219806  0.56022618  1
  Nd3+  Nd45  1  0.74520419  0.62450177  0.07032356  1
  Nd3+  Nd46  1  0.87920533  0.25757872  0.43237071  1
  Nd3+  Nd47  1  0.62062156  0.24174748  0.94193757  1
  Nd3+  Nd48  1  0.50347533  0.13737198  0.56303855  1
  Nd3+  Nd49  1  0.37114211  0.24396581  0.94730016  1
  Nd3+  Nd50  1  0.86428555  0.24125408  0.94267812  1
  Sm3+  Sm51  1  0.49845832  0.87361567  0.05568552  1
  Sm3+  Sm52  1  0.75628256  0.38536453  0.56885671  1
  Sm3+  Sm53  1  0.74446909  0.36921101  0.05955800  1
  Sm3+  Sm54  1  0.75360301  0.64062802  0.56062628  1
  Sm3+  Sm55  1  0.24562754  0.86608937  0.05375505  1
  Sm3+  Sm56  1  0.87514490  0.51269854  0.44522961  1
  Sm3+  Sm57  1  0.37872959  0.01945614  0.42644040  1
  Sm3+  Sm58  1  0.00404590  0.38847244  0.55598513  1
  Sm3+  Sm59  1  0.50414994  0.64135428  0.55450008  1
  Sm3+  Sm60  1  0.87041197  -0.00450291  0.93529149  1
  Sm3+  Sm61  1  0.86724588  0.49828939  0.94577601  1
  Sm3+  Sm62  1  0.37027196  0.49542843  0.94681951  1
  Sm3+  Sm63  1  0.38179175  0.50944480  0.44359065  1
  Bi2+  Bi64  1  0.02280498  0.11995778  0.27877729  1
  Bi2+  Bi65  1  0.01922320  0.08725830  0.77642503  1
  Bi2+  Bi66  1  0.04955750  0.39299948  0.27362941  1
  Bi2+  Bi67  1  0.01172368  0.32561121  0.79693070  1
  Bi2+  Bi68  1  -0.01040811  0.58292841  0.29216375  1
  Bi2+  Bi69  1  -0.01039729  0.55542958  0.79286915  1
  Bi2+  Bi70  1  -0.00181734  0.85257569  0.27079026  1
  Bi2+  Bi71  1  0.07015651  0.78380433  0.80481545  1
  Bi2+  Bi72  1  0.26698463  0.14052475  0.29359885  1
  Bi2+  Bi73  1  0.28883237  0.09625046  0.74817093  1
  Bi2+  Bi74  1  0.26835412  0.39571167  0.28944911  1
  Bi2+  Bi75  1  0.35545410  0.38666957  0.79722205  1
  Bi2+  Bi76  1  0.25481612  0.59569977  0.30524267  1
  Bi2+  Bi77  1  0.26418640  0.60326320  0.76599576  1
  Bi2+  Bi78  1  0.28776080  0.87688076  0.28112587  1
  Bi2+  Bi79  1  0.26950468  0.79407621  0.81196710  1
  Bi2+  Bi80  1  0.49233642  0.04632412  0.29369191  1
  Bi2+  Bi81  1  0.46202723  0.14933987  0.79098997  1
  Bi2+  Bi82  1  0.52431012  0.39356989  0.29639502  1
  Bi2+  Bi83  1  0.55085068  0.40216416  0.81588666  1
  Bi2+  Bi84  1  0.44357362  0.65178519  0.31969723  1
  Bi2+  Bi85  1  0.52666329  0.59301977  0.78429770  1
  Bi2+  Bi86  1  0.48614343  0.84789825  0.30947582  1
  Bi2+  Bi87  1  0.49734806  0.86994265  0.78719973  1
  Bi2+  Bi88  1  0.73913315  0.19158012  0.31685199  1
  Bi2+  Bi89  1  0.76320439  0.15888859  0.78926574  1
  Bi2+  Bi90  1  0.78082027  0.41566021  0.26258244  1
  Bi2+  Bi91  1  0.74434660  0.40223805  0.79805013  1
  Bi2+  Bi92  1  0.65268049  0.60944961  0.28626162  1
  Bi2+  Bi93  1  0.73201371  0.60539327  0.77880431  1
  Bi2+  Bi94  1  0.70052053  0.88029186  0.28984353  1
  Bi2+  Bi95  1  0.76413830  0.86850858  0.79356669  1
  Bi2+  Bi96  1  0.16546113  0.02644153  0.21318104  1
  Bi2+  Bi97  1  0.16871706  -0.03777495  0.80485816  1
  Bi2+  Bi98  1  0.14941435  0.28727275  0.19392711  1
  Bi2+  Bi99  1  0.12677996  0.23789094  0.68430384  1
  Bi2+  Bi100  1  0.14185329  0.53583095  0.21377000  1
  Bi2+  Bi101  1  0.14152105  0.45147167  0.75126863  1
  Bi2+  Bi102  1  0.12690240  0.78312248  0.18947773  1
  Bi2+  Bi103  1  0.13701084  0.71303734  0.70195616  1
  Bi2+  Bi104  1  0.36514535  0.05375290  0.20345275  1
  Bi2+  Bi105  1  0.36586003  -0.07159207  0.70744671  1
  Bi2+  Bi106  1  0.34507094  0.25600669  0.20429477  1
  Bi2+  Bi107  1  0.37540351  0.27880044  0.70167326  1
  Bi2+  Bi108  1  0.40483602  0.51719765  0.23848923  1
  Bi2+  Bi109  1  0.47753065  0.45482448  0.70442278  1
  Bi2+  Bi110  1  0.39513078  0.75912523  0.21418972  1
  Bi2+  Bi111  1  0.36870603  0.73392948  0.69091552  1
  Bi2+  Bi112  1  0.59229602  -0.03859362  0.20775174  1
  Bi2+  Bi113  1  0.60505301  0.03626641  0.68504064  1
  Bi2+  Bi114  1  0.53929241  0.23763577  0.22872601  1
  Bi2+  Bi115  1  0.64676832  0.26825664  0.72001083  1
  Bi2+  Bi116  1  0.67872994  0.50147297  0.17771623  1
  Bi2+  Bi117  1  0.67584890  0.45510184  0.68584899  1
  Bi2+  Bi118  1  0.61977919  0.69310046  0.18810668  1
  Bi2+  Bi119  1  0.62513145  0.72398675  0.70966730  1
  Bi2+  Bi120  1  0.87434752  -0.00126900  0.21253750  1
  Bi2+  Bi121  1  0.91135509  -0.00672534  0.70163757  1
  Bi2+  Bi122  1  0.87825246  0.26704490  0.20625101  1
  Bi2+  Bi123  1  0.88497764  0.27496476  0.71219462  1
  Bi2+  Bi124  1  0.87078315  0.54299946  0.19186177  1
  Bi2+  Bi125  1  0.86769755  0.47493813  0.71566606  1
  Bi2+  Bi126  1  0.80811221  0.71300244  0.23419368  1
  Bi2+  Bi127  1  0.91181001  0.73980226  0.69625469  1
  S2-  S128  1  -0.08637700  0.12409057  0.14984761  1
  S2-  S129  1  0.00751317  0.12074946  0.65728553  1
  S2-  S130  1  0.00653761  0.35290822  0.15163272  1
  S2-  S131  1  0.00937247  0.35124065  0.65143563  1
  S2-  S132  1  0.02407276  0.64819079  0.16434462  1
  S2-  S133  1  0.02559431  0.61452832  0.65806064  1
  S2-  S134  1  -0.01367931  0.88692679  0.15945116  1
  S2-  S135  1  -0.00085124  0.86971200  0.65247595  1
  S2-  S136  1  0.13230403  0.13930928  0.13425250  1
  S2-  S137  1  0.23168757  0.11587284  0.65086211  1
  S2-  S138  1  0.24035216  0.47816414  0.14316999  1
  S2-  S139  1  0.23093644  0.37171909  0.66608477  1
  S2-  S140  1  0.25394341  0.69904679  0.15952387  1
  S2-  S141  1  0.27079455  0.60107046  0.65827944  1
  S2-  S142  1  0.22395659  0.90909777  0.14764912  1
  S2-  S143  1  0.23741527  0.84263724  0.65263460  1
  S2-  S144  1  0.57782065  0.12502008  0.15671513  1
  S2-  S145  1  0.45707121  0.02126947  0.63515378  1
  S2-  S146  1  0.48010977  0.35196668  0.16180684  1
  S2-  S147  1  0.51235718  0.24842257  0.64440968  1
  S2-  S148  1  0.46347866  0.61238363  0.16022118  1
  S2-  S149  1  0.50583529  0.65589233  0.65193925  1
  S2-  S150  1  0.48326383  0.86815360  0.15493556  1
  S2-  S151  1  0.60530511  0.87153180  0.64875135  1
  S2-  S152  1  0.76771195  0.13445199  0.22781079  1
  S2-  S153  1  0.76640705  0.04412391  0.65073361  1
  S2-  S154  1  0.74704477  0.29845901  0.14904596  1
  S2-  S155  1  0.76497595  0.26432580  0.64103405  1
  S2-  S156  1  0.76510048  0.75131257  0.14029952  1
  S2-  S157  1  0.76560060  0.66690514  0.65743365  1
  S2-  S158  1  0.75055694  0.96159392  0.15362737  1
  S2-  S159  1  0.80471484  0.85886044  0.69143729  1
  S2-  S160  1  0.04131220  -0.02250050  0.33247224  1
  S2-  S161  1  -0.00127798  0.00030114  0.85974491  1
  S2-  S162  1  0.12314498  0.17371542  0.34892469  1
  S2-  S163  1  0.11909816  0.19288291  0.82495524  1
  S2-  S164  1  0.13545975  0.40249982  0.36229872  1
  S2-  S165  1  0.13899931  0.39535935  0.85230999  1
  S2-  S166  1  0.02584712  0.73676519  0.34248585  1
  S2-  S167  1  0.10633892  0.63067330  0.85914615  1
  S2-  S168  1  0.26367714  -0.00825959  0.35121527  1
  S2-  S169  1  0.45041435  0.00449012  0.84869773  1
  S2-  S170  1  0.39847062  0.15093792  0.35743980  1
  S2-  S171  1  0.35309115  0.22973459  0.84928591  1
  S2-  S172  1  0.38886541  0.39876266  0.36594832  1
  S2-  S173  1  0.34142525  0.52832903  0.85281118  1
  S2-  S174  1  0.24861182  0.75699099  0.35338667  1
  S2-  S175  1  0.42747371  0.74881637  0.84582962  1
  S2-  S176  1  0.70835978  0.02530444  0.34893470  1
  S2-  S177  1  0.62460885  -0.01127537  0.77332166  1
  S2-  S178  1  0.58588065  0.25804686  0.34624088  1
  S2-  S179  1  0.61094904  0.17831219  0.84830717  1
  S2-  S180  1  0.62918939  0.48529266  0.35601534  1
  S2-  S181  1  0.63369425  0.62325903  0.86142612  1
  S2-  S182  1  0.70328157  0.74292358  0.35133982  1
  S2-  S183  1  0.62747706  0.84120873  0.85152072  1
  S2-  S184  1  0.89625885  0.14802891  0.34821861  1
  S2-  S185  1  0.78778009  0.01200366  0.84594316  1
  S2-  S186  1  0.81392700  0.33943548  0.34972347  1
  S2-  S187  1  0.87923726  0.22816692  0.84305498  1
  S2-  S188  1  0.86481716  0.57891666  0.35457220  1
  S2-  S189  1  0.87018417  0.58630870  0.86179154  1
  S2-  S190  1  0.86255390  0.88323840  0.32897936  1
  S2-  S191  1  0.89357500  0.80070914  0.83144905  1
  S2-  S192  1  0.00404336  0.13642451  0.45266691  1
  S2-  S193  1  -0.00487796  0.12701673  0.95460479  1
  S2-  S194  1  -0.00308034  0.39070802  0.45234737  1
  S2-  S195  1  -0.01196124  0.37480369  0.94747072  1
  S2-  S196  1  0.00080389  0.63415361  0.45473683  1
  S2-  S197  1  -0.00593706  0.61830545  0.96111155  1
  S2-  S198  1  -0.00185720  0.88590336  0.44546611  1
  S2-  S199  1  -0.00442975  0.86519112  0.95379778  1
  S2-  S200  1  0.25559268  0.14346351  0.45140402  1
  S2-  S201  1  0.24263427  0.12059622  0.94960372  1
  S2-  S202  1  0.25666121  0.39119861  0.46257125  1
  S2-  S203  1  0.24952922  0.37205755  0.95771187  1
  S2-  S204  1  0.25737502  0.63258091  0.45492393  1
  S2-  S205  1  0.24859578  0.62017742  0.96298633  1
  S2-  S206  1  0.25268174  0.88649090  0.45158041  1
  S2-  S207  1  0.24492029  0.87118576  0.94906347  1
  S2-  S208  1  0.51047273  0.13858841  0.45796064  1
  S2-  S209  1  0.49642771  0.12035734  0.95893127  1
  S2-  S210  1  0.50766413  0.38960757  0.46853511  1
  S2-  S211  1  0.49484169  0.37082490  0.95494413  1
  S2-  S212  1  0.50214651  0.63914798  0.45105805  1
  S2-  S213  1  0.49200224  0.61886040  0.95697708  1
  S2-  S214  1  0.49929134  0.88806342  0.45139476  1
  S2-  S215  1  0.49293073  0.87109402  0.95403389  1
  S2-  S216  1  0.75431797  0.13885166  0.45632844  1
  S2-  S217  1  0.74228255  0.11831083  0.94773912  1
  S2-  S218  1  0.75484724  0.39062699  0.46529529  1
  S2-  S219  1  0.74327673  0.37259366  0.95247926  1
  S2-  S220  1  0.75400077  0.63864260  0.45822271  1
  S2-  S221  1  0.74368913  0.61858852  0.96520126  1
  S2-  S222  1  0.75728149  0.88384022  0.44885741  1
  S2-  S223  1  0.75108878  0.87011318  0.95356315  1
  S2-  S224  1  0.12058441  -0.00962056  0.03922238  1
  S2-  S225  1  0.12727387  0.01212591  0.53993912  1
  S2-  S226  1  0.11957127  0.24962331  0.03302372  1
  S2-  S227  1  0.12871120  0.26608520  0.54297747  1
  S2-  S228  1  0.11638828  0.49438863  0.04230077  1
  S2-  S229  1  0.12840035  0.51300054  0.54820167  1
  S2-  S230  1  0.12271876  0.74330012  0.04548607  1
  S2-  S231  1  0.12767694  0.76217740  0.53981560  1
  S2-  S232  1  0.36834591  -0.00633902  0.04642708  1
  S2-  S233  1  0.37534240  0.01385874  0.53104055  1
  S2-  S234  1  0.36819954  0.24294416  0.05302860  1
  S2-  S235  1  0.37724253  0.26503013  0.54590257  1
  S2-  S236  1  0.37467901  0.49368817  0.05040399  1
  S2-  S237  1  0.38272704  0.51266649  0.55000636  1
  S2-  S238  1  0.37155119  0.74586812  0.04758289  1
  S2-  S239  1  0.38194826  0.76488128  0.54075877  1
  S2-  S240  1  0.61922302  -0.00509006  0.05524995  1
  S2-  S241  1  0.63057837  0.01177456  0.54538190  1
  S2-  S242  1  0.62305822  0.24437259  0.04760709  1
  S2-  S243  1  0.63035644  0.26665515  0.54645516  1
  S2-  S244  1  0.62067627  0.49533230  0.04391877  1
  S2-  S245  1  0.62801955  0.51394444  0.55657097  1
  S2-  S246  1  0.61783813  0.74720181  0.04547550  1
  S2-  S247  1  0.62987149  0.76278144  0.54572331  1
  S2-  S248  1  0.87668559  -0.00338509  0.04201633  1
  S2-  S249  1  0.87959180  0.01161372  0.54762452  1
  S2-  S250  1  0.86716902  0.24618737  0.04620152  1
  S2-  S251  1  0.88323044  0.26633698  0.54067959  1
  S2-  S252  1  0.86742941  0.49407894  0.05055504  1
  S2-  S253  1  0.87723090  0.51233708  0.55289926  1
  S2-  S254  1  0.87463893  0.74394230  0.04087347  1
  S2-  S255  1  0.87488033  0.76363647  0.55558952  1
