# generated using pymatgen
data_La6Ce6Pr19Nd20Sm13(BiS2)64
_symmetry_space_group_name_H-M   'P 1'
_cell_length_a   16.14290290
_cell_length_b   16.15050440
_cell_length_c   27.27830016
_cell_angle_alpha   89.87407186
_cell_angle_beta   90.11006461
_cell_angle_gamma   89.94469971
_symmetry_Int_Tables_number   1
_chemical_formula_structural   La6Ce6Pr19Nd20Sm13(BiS2)64
_chemical_formula_sum   'La6 Ce6 Pr19 Nd20 Sm13 Bi64 S128'
_cell_volume   7111.85632303
_cell_formula_units_Z   1
loop_
 _symmetry_equiv_pos_site_id
 _symmetry_equiv_pos_as_xyz
  1  'x, y, z'
loop_
 _atom_type_symbol
 _atom_type_oxidation_number
  La3+  3.0
  Ce3+  3.0
  Pr3+  3.0
  Nd3+  3.0
  Sm3+  3.0
  Bi2+  2.0
  S2-  -2.0
loop_
 _atom_site_type_symbol
 _atom_site_label
 _atom_site_symmetry_multiplicity
 _atom_site_fract_x
 _atom_site_fract_y
 _atom_site_fract_z
 _atom_site_occupancy
  La3+  La0  1  0.62804473  0.49011074  0.40891645  1
  La3+  La1  1  0.50631091  0.13596829  0.58798913  1
  La3+  La2  1  0.62198624  -0.00465048  0.89043700  1
  La3+  La3  1  0.23892982  0.37043719  0.58639626  1
  La3+  La4  1  0.37244878  0.74503334  0.41159640  1
  La3+  La5  1  0.49307873  0.36216460  0.10562467  1
  Ce3+  Ce6  1  0.37407522  0.25185238  0.93937992  1
  Ce3+  Ce7  1  0.37483972  0.25402663  0.44578369  1
  Ce3+  Ce8  1  0.12705593  0.74920064  0.93765981  1
  Ce3+  Ce9  1  0.86674192  0.75448447  0.93617074  1
  Ce3+  Ce10  1  0.74001821  0.37621772  0.06117285  1
  Ce3+  Ce11  1  0.24756407  0.87566718  0.05831412  1
  Pr3+  Pr12  1  0.12430930  0.25021991  0.43665419  1
  Pr3+  Pr13  1  0.62311760  0.00045657  0.45044847  1
  Pr3+  Pr14  1  0.63202585  0.75366975  0.42975316  1
  Pr3+  Pr15  1  0.37517918  0.00253985  0.44104052  1
  Pr3+  Pr16  1  0.86826170  0.25201334  0.94379602  1
  Pr3+  Pr17  1  0.87015757  0.50141865  0.94475345  1
  Pr3+  Pr18  1  0.61146797  0.74368609  0.92664850  1
  Pr3+  Pr19  1  0.11926097  0.00045111  0.44091573  1
  Pr3+  Pr20  1  0.74704261  0.62533420  0.56465101  1
  Pr3+  Pr21  1  0.74190514  0.12558039  0.05490555  1
  Pr3+  Pr22  1  0.75931898  0.11995394  0.57991274  1
  Pr3+  Pr23  1  0.61822163  0.24981193  0.93061710  1
  Pr3+  Pr24  1  0.12275729  0.25277229  0.93079013  1
  Pr3+  Pr25  1  0.00194565  0.12423298  0.56731337  1
  Pr3+  Pr26  1  0.74516018  0.87884533  0.05249251  1
  Pr3+  Pr27  1  -0.00010145  0.87068144  0.56147449  1
  Pr3+  Pr28  1  -0.00351151  0.87523489  0.05497435  1
  Pr3+  Pr29  1  0.87912884  0.00729325  0.92551824  1
  Pr3+  Pr30  1  0.49822516  0.62426506  0.07316520  1
  Nd3+  Nd31  1  -0.00383711  0.12470034  0.06045541  1
  Nd3+  Nd32  1  0.49874263  0.62350707  0.54419327  1
  Nd3+  Nd33  1  0.49844511  0.37889730  0.56517929  1
  Nd3+  Nd34  1  0.36631672  0.74751939  0.94072687  1
  Nd3+  Nd35  1  0.49909657  0.87508837  0.05988044  1
  Nd3+  Nd36  1  0.37128694  0.49643267  0.95086147  1
  Nd3+  Nd37  1  0.87150108  0.74934032  0.43903143  1
  Nd3+  Nd38  1  0.23987854  0.37106298  0.06842451  1
  Nd3+  Nd39  1  -0.00480660  0.62732374  0.05393555  1
  Nd3+  Nd40  1  0.49618519  0.12547627  0.05629546  1
  Nd3+  Nd41  1  0.73577726  0.86735605  0.57887302  1
  Nd3+  Nd42  1  -0.00326113  0.37463431  0.06548493  1
  Nd3+  Nd43  1  0.25050457  0.12536018  0.56306950  1
  Nd3+  Nd44  1  0.24735181  0.62293686  0.06583449  1
  Nd3+  Nd45  1  0.24815899  0.12642092  0.05071208  1
  Nd3+  Nd46  1  0.25232485  0.62550336  0.55613904  1
  Nd3+  Nd47  1  0.62845757  0.24966912  0.44260264  1
  Nd3+  Nd48  1  0.12154008  0.75026878  0.43411467  1
  Nd3+  Nd49  1  0.25344582  0.87215864  0.55691370  1
  Nd3+  Nd50  1  0.61807543  0.50290532  0.94150021  1
  Sm3+  Sm51  1  0.12173410  0.49865282  0.94610538  1
  Sm3+  Sm52  1  -0.00010713  0.37643890  0.55726532  1
  Sm3+  Sm53  1  0.86989130  0.00178032  0.44758096  1
  Sm3+  Sm54  1  0.12345047  0.00146759  0.94057172  1
  Sm3+  Sm55  1  0.49059997  0.86901341  0.56126905  1
  Sm3+  Sm56  1  0.37216481  0.49606424  0.44011129  1
  Sm3+  Sm57  1  0.12318440  0.49905413  0.44120633  1
  Sm3+  Sm58  1  0.74418592  0.62617969  0.05878296  1
  Sm3+  Sm59  1  0.00170180  0.62489128  0.55591767  1
  Sm3+  Sm60  1  0.74972065  0.37923869  0.56031403  1
  Sm3+  Sm61  1  0.87345010  0.25007481  0.44673620  1
  Sm3+  Sm62  1  0.37761832  -0.00138111  0.93535593  1
  Sm3+  Sm63  1  0.87219135  0.50128504  0.44107062  1
  Bi2+  Bi64  1  0.01116624  0.12428530  0.29742361  1
  Bi2+  Bi65  1  0.04471496  0.14999504  0.79281527  1
  Bi2+  Bi66  1  -0.02132931  0.37607895  0.28880674  1
  Bi2+  Bi67  1  -0.00649812  0.43754727  0.78010008  1
  Bi2+  Bi68  1  0.00352802  0.56557928  0.32421883  1
  Bi2+  Bi69  1  0.03149129  0.63606819  0.78409481  1
  Bi2+  Bi70  1  -0.01599138  0.76284650  0.32345066  1
  Bi2+  Bi71  1  0.06347552  0.82769301  0.76678419  1
  Bi2+  Bi72  1  0.26859568  0.10082157  0.28285577  1
  Bi2+  Bi73  1  0.27655731  0.12622439  0.78505569  1
  Bi2+  Bi74  1  0.24288182  0.29761943  0.27904628  1
  Bi2+  Bi75  1  0.29757275  0.38109782  0.81855745  1
  Bi2+  Bi76  1  0.19239466  0.60337651  0.28302358  1
  Bi2+  Bi77  1  0.22219063  0.61141136  0.80105910  1
  Bi2+  Bi78  1  0.14114563  0.87108104  0.30151886  1
  Bi2+  Bi79  1  0.20098066  0.94908833  0.80734028  1
  Bi2+  Bi80  1  0.50179407  0.09186194  0.27425642  1
  Bi2+  Bi81  1  0.47608304  0.14857829  0.78629681  1
  Bi2+  Bi82  1  0.47524731  0.39370762  0.30387442  1
  Bi2+  Bi83  1  0.55122906  0.43295224  0.75952163  1
  Bi2+  Bi84  1  0.46383785  0.64179655  0.28233386  1
  Bi2+  Bi85  1  0.50602363  0.61470399  0.79434860  1
  Bi2+  Bi86  1  0.51948247  0.89314836  0.30482384  1
  Bi2+  Bi87  1  0.48643167  0.85574582  0.78676563  1
  Bi2+  Bi88  1  0.73459454  0.10222503  0.30296467  1
  Bi2+  Bi89  1  0.77654908  0.11515528  0.79107567  1
  Bi2+  Bi90  1  0.75746972  0.35152669  0.29422109  1
  Bi2+  Bi91  1  0.71473552  0.36721193  0.80848169  1
  Bi2+  Bi92  1  0.82049526  0.62995079  0.29611522  1
  Bi2+  Bi93  1  0.76544374  0.58790968  0.78929051  1
  Bi2+  Bi94  1  0.75710088  0.84486266  0.26859346  1
  Bi2+  Bi95  1  0.76478587  0.84998128  0.78060621  1
  Bi2+  Bi96  1  0.06374668  -0.04826868  0.20594779  1
  Bi2+  Bi97  1  0.15612166  0.05916554  0.69719219  1
  Bi2+  Bi98  1  0.13743752  0.20724671  0.19710778  1
  Bi2+  Bi99  1  0.04540368  0.22216973  0.69043953  1
  Bi2+  Bi100  1  0.06181290  0.48422782  0.20553801  1
  Bi2+  Bi101  1  0.14692154  0.48932941  0.71597967  1
  Bi2+  Bi102  1  0.10377985  0.74470782  0.21066689  1
  Bi2+  Bi103  1  0.17780138  0.77954500  0.68145162  1
  Bi2+  Bi104  1  0.36865436  -0.00167049  0.20341670  1
  Bi2+  Bi105  1  0.32536686  -0.04619580  0.70634832  1
  Bi2+  Bi106  1  0.39198985  0.22169375  0.21239374  1
  Bi2+  Bi107  1  0.36153085  0.26647027  0.71461319  1
  Bi2+  Bi108  1  0.31292277  0.47693411  0.22111559  1
  Bi2+  Bi109  1  0.38252824  0.55881366  0.71115512  1
  Bi2+  Bi110  1  0.29867864  0.76387416  0.21976825  1
  Bi2+  Bi111  1  0.34071718  0.75062418  0.73980910  1
  Bi2+  Bi112  1  0.63358214  -0.00803138  0.19714355  1
  Bi2+  Bi113  1  0.60755772  -0.00885142  0.69118256  1
  Bi2+  Bi114  1  0.70593159  0.21692673  0.21208013  1
  Bi2+  Bi115  1  0.61238780  0.25856508  0.72743623  1
  Bi2+  Bi116  1  0.64121400  0.50095105  0.21327368  1
  Bi2+  Bi117  1  0.67648416  0.50872382  0.67718464  1
  Bi2+  Bi118  1  0.63335453  0.73645063  0.20626978  1
  Bi2+  Bi119  1  0.62043635  0.69961594  0.69765333  1
  Bi2+  Bi120  1  0.88076847  -0.00464366  0.25674963  1
  Bi2+  Bi121  1  0.91087726  0.00633651  0.70846014  1
  Bi2+  Bi122  1  0.89580547  0.26002945  0.20854061  1
  Bi2+  Bi123  1  0.87360165  0.28371569  0.76121380  1
  Bi2+  Bi124  1  0.86613485  0.44938298  0.20128816  1
  Bi2+  Bi125  1  0.86829102  0.51364508  0.69833695  1
  Bi2+  Bi126  1  0.90148631  0.73960581  0.21337145  1
  Bi2+  Bi127  1  0.90305148  0.73118281  0.71275009  1
  S2-  S128  1  0.02195025  0.10848702  0.15818205  1
  S2-  S129  1  -0.10009918  0.14214809  0.64866809  1
  S2-  S130  1  0.11026525  0.35857812  0.14093342  1
  S2-  S131  1  0.08165562  0.38172483  0.64443967  1
  S2-  S132  1  0.00352295  0.63003024  0.15275288  1
  S2-  S133  1  -0.01922355  0.62704413  0.65336131  1
  S2-  S134  1  -0.05665327  0.88113045  0.14990611  1
  S2-  S135  1  0.00191379  0.89988303  0.66024875  1
  S2-  S136  1  0.26939236  0.12290671  0.14901216  1
  S2-  S137  1  0.24932996  0.21879208  0.64687424  1
  S2-  S138  1  0.33202282  0.35978914  0.15185721  1
  S2-  S139  1  0.32275493  0.42006149  0.67049842  1
  S2-  S140  1  0.28094400  0.61408637  0.16348594  1
  S2-  S141  1  0.20334102  0.61770755  0.65203994  1
  S2-  S142  1  0.25213104  0.88500241  0.15623522  1
  S2-  S143  1  0.36575675  0.84138784  0.63015198  1
  S2-  S144  1  0.51269610  0.19826892  0.14646670  1
  S2-  S145  1  0.44977574  0.05625039  0.67351529  1
  S2-  S146  1  0.49083792  0.44339642  0.20245633  1
  S2-  S147  1  0.49528975  0.28462595  0.64920454  1
  S2-  S148  1  0.50070896  0.66233320  0.17346703  1
  S2-  S149  1  0.48818737  0.63091321  0.64424426  1
  S2-  S150  1  0.48924704  0.91308455  0.15856515  1
  S2-  S151  1  0.58806327  0.84447900  0.64274404  1
  S2-  S152  1  0.75766818  0.08452524  0.15264508  1
  S2-  S153  1  0.65424917  0.14819335  0.65730480  1
  S2-  S154  1  0.66184959  0.37279122  0.14814376  1
  S2-  S155  1  0.78370785  0.37153269  0.65623727  1
  S2-  S156  1  0.72796574  0.62266154  0.15632253  1
  S2-  S157  1  0.76470377  0.73305804  0.64511454  1
  S2-  S158  1  0.70742710  0.86622150  0.15116016  1
  S2-  S159  1  0.77426499  0.97131781  0.65655668  1
  S2-  S160  1  0.14640520  0.04054064  0.34465689  1
  S2-  S161  1  0.05170165  0.01092036  0.85200629  1
  S2-  S162  1  0.07554102  0.25375597  0.34042533  1
  S2-  S163  1  0.17724241  0.24941200  0.83494314  1
  S2-  S164  1  0.15629431  0.47798557  0.34602853  1
  S2-  S165  1  0.15706064  0.46339187  0.85289086  1
  S2-  S166  1  0.21859560  0.73384580  0.35378141  1
  S2-  S167  1  0.24086880  0.74050244  0.86501198  1
  S2-  S168  1  0.39329450  0.01172164  0.34105893  1
  S2-  S169  1  0.45854242  -0.00728554  0.84694819  1
  S2-  S170  1  0.37085566  0.27850720  0.34856359  1
  S2-  S171  1  0.43131780  0.27560176  0.84716598  1
  S2-  S172  1  0.37920131  0.52398091  0.34232226  1
  S2-  S173  1  0.38134546  0.50993432  0.85033763  1
  S2-  S174  1  0.38778418  0.79690505  0.30918541  1
  S2-  S175  1  0.46219120  0.74429794  0.85806899  1
  S2-  S176  1  0.65667028  -0.02140567  0.35277523  1
  S2-  S177  1  0.66359799  -0.00553848  0.78169590  1
  S2-  S178  1  0.60854400  0.33178835  0.35429748  1
  S2-  S179  1  0.63460325  0.15650133  0.84614046  1
  S2-  S180  1  0.58322026  0.53231262  0.31030337  1
  S2-  S181  1  0.63387911  0.60550601  0.86030122  1
  S2-  S182  1  0.56183093  0.73884013  0.33691536  1
  S2-  S183  1  0.63752264  0.83726747  0.84273379  1
  S2-  S184  1  0.92411660  0.00462842  0.35480581  1
  S2-  S185  1  0.84597661  -0.03359731  0.82896832  1
  S2-  S186  1  0.82563431  0.23201592  0.35285028  1
  S2-  S187  1  0.89990060  0.19342784  0.85185040  1
  S2-  S188  1  0.78369282  0.49708765  0.35638048  1
  S2-  S189  1  0.85683429  0.47837309  0.84619263  1
  S2-  S190  1  0.76776652  0.76563365  0.35958159  1
  S2-  S191  1  0.84057715  0.72716519  0.84071865  1
  S2-  S192  1  -0.00434777  0.12652690  0.45892476  1
  S2-  S193  1  0.00091110  0.12836742  0.95551883  1
  S2-  S194  1  -0.00401050  0.37628509  0.45184380  1
  S2-  S195  1  -0.00310531  0.37571986  0.95544274  1
  S2-  S196  1  -0.00149914  0.62411339  0.45189017  1
  S2-  S197  1  -0.00175377  0.62525902  0.94721182  1
  S2-  S198  1  -0.00382894  0.87489687  0.45483751  1
  S2-  S199  1  -0.00056475  0.87416879  0.94766364  1
  S2-  S200  1  0.24841702  0.12668288  0.45582713  1
  S2-  S201  1  0.24933892  0.12211731  0.94447306  1
  S2-  S202  1  0.24618255  0.37643934  0.45458736  1
  S2-  S203  1  0.24500615  0.37393797  0.96063103  1
  S2-  S204  1  0.24795468  0.61803965  0.45093037  1
  S2-  S205  1  0.24453237  0.61794263  0.96113353  1
  S2-  S206  1  0.24937068  0.87709205  0.45046317  1
  S2-  S207  1  0.24820510  0.88179378  0.95398356  1
  S2-  S208  1  0.50121605  0.12934110  0.45222987  1
  S2-  S209  1  0.49714455  0.12251166  0.95029976  1
  S2-  S210  1  0.50023072  0.37862387  0.45842993  1
  S2-  S211  1  0.49884883  0.37775055  0.95062723  1
  S2-  S212  1  0.50070716  0.61826386  0.44017732  1
  S2-  S213  1  0.49053296  0.62236513  0.96477971  1
  S2-  S214  1  0.49706092  0.87309144  0.45006582  1
  S2-  S215  1  0.49533136  0.87568556  0.95469863  1
  S2-  S216  1  0.75120641  0.12550734  0.46484573  1
  S2-  S217  1  0.74699124  0.12310872  0.94873031  1
  S2-  S218  1  0.75231950  0.37443348  0.45677742  1
  S2-  S219  1  0.74274793  0.37731887  0.95410630  1
  S2-  S220  1  0.74845199  0.62095381  0.45666826  1
  S2-  S221  1  0.74813140  0.62678195  0.95636078  1
  S2-  S222  1  0.75151218  0.87926912  0.46605604  1
  S2-  S223  1  0.74654556  0.88231649  0.94630611  1
  S2-  S224  1  0.12215274  0.00195080  0.04612972  1
  S2-  S225  1  0.12748860  -0.00243824  0.54864853  1
  S2-  S226  1  0.11970206  0.24659061  0.03892451  1
  S2-  S227  1  0.12092018  0.24992280  0.54272751  1
  S2-  S228  1  0.11952602  0.50247977  0.04986649  1
  S2-  S229  1  0.12360786  0.50156653  0.54516197  1
  S2-  S230  1  0.12311653  0.74874126  0.04669988  1
  S2-  S231  1  0.12613876  0.74803387  0.54106917  1
  S2-  S232  1  0.37264103  -0.00004225  0.04176735  1
  S2-  S233  1  0.37670562  0.00498009  0.54691427  1
  S2-  S234  1  0.37230583  0.25129362  0.04462636  1
  S2-  S235  1  0.37394411  0.25253934  0.54904424  1
  S2-  S236  1  0.37461587  0.49693615  0.05718846  1
  S2-  S237  1  0.37103811  0.49756609  0.54640017  1
  S2-  S238  1  0.37169101  0.74902141  0.05127272  1
  S2-  S239  1  0.37383062  0.74425419  0.52542419  1
  S2-  S240  1  0.61833940  0.00121026  0.04794953  1
  S2-  S241  1  0.61677817  0.00115490  0.55505278  1
  S2-  S242  1  0.61945771  0.25131902  0.03906344  1
  S2-  S243  1  0.62951450  0.25598420  0.54775850  1
  S2-  S244  1  0.62007422  0.50271428  0.04782191  1
  S2-  S245  1  0.62401549  0.49877146  0.54462563  1
  S2-  S246  1  0.62097549  0.74836228  0.04369002  1
  S2-  S247  1  0.62002934  0.74637879  0.53699337  1
  S2-  S248  1  0.87304211  0.00268457  0.03799883  1
  S2-  S249  1  0.87848021  -0.00342646  0.54939536  1
  S2-  S250  1  0.87124259  0.25127020  0.05119262  1
  S2-  S251  1  0.87570964  0.25625577  0.54950331  1
  S2-  S252  1  0.87079423  0.50069706  0.05174248  1
  S2-  S253  1  0.87729257  0.50131440  0.54608996  1
  S2-  S254  1  0.86865890  0.74910326  0.04424576  1
  S2-  S255  1  0.87763049  0.74696740  0.54440691  1
