# generated using pymatgen
data_La6Ce6Pr19Nd20Sm13(BiS2)64
_symmetry_space_group_name_H-M   'P 1'
_cell_length_a   16.10773215
_cell_length_b   16.08436211
_cell_length_c   27.41460378
_cell_angle_alpha   90.01800718
_cell_angle_beta   90.14105514
_cell_angle_gamma   89.95761816
_symmetry_Int_Tables_number   1
_chemical_formula_structural   La6Ce6Pr19Nd20Sm13(BiS2)64
_chemical_formula_sum   'La6 Ce6 Pr19 Nd20 Sm13 Bi64 S128'
_cell_volume   7102.62291855
_cell_formula_units_Z   1
loop_
 _symmetry_equiv_pos_site_id
 _symmetry_equiv_pos_as_xyz
  1  'x, y, z'
loop_
 _atom_type_symbol
 _atom_type_oxidation_number
  La3+  3.0
  Ce3+  3.0
  Pr3+  3.0
  Nd3+  3.0
  Sm3+  3.0
  Bi2+  2.0
  S2-  -2.0
loop_
 _atom_site_type_symbol
 _atom_site_label
 _atom_site_symmetry_multiplicity
 _atom_site_fract_x
 _atom_site_fract_y
 _atom_site_fract_z
 _atom_site_occupancy
  La3+  La0  1  0.75631052  0.35496969  0.06870616  1
  La3+  La1  1  0.87494149  0.74643869  0.38409280  1
  La3+  La2  1  0.02091496  0.60644210  0.08997572  1
  La3+  La3  1  0.63071477  0.73230614  0.88902069  1
  La3+  La4  1  0.51333469  0.61479546  0.07409023  1
  La3+  La5  1  0.49695962  0.36156841  0.08375827  1
  Ce3+  Ce6  1  0.75641659  0.11077585  0.06592908  1
  Ce3+  Ce7  1  0.12987511  0.73425788  0.92916933  1
  Ce3+  Ce8  1  0.62889123  0.23718278  0.94000122  1
  Ce3+  Ce9  1  0.62001740  0.00634983  0.44365228  1
  Ce3+  Ce10  1  0.36760296  0.50926822  0.44296092  1
  Ce3+  Ce11  1  0.37251590  0.75702320  0.43120351  1
  Pr3+  Pr12  1  0.25580381  0.61201036  0.05453963  1
  Pr3+  Pr13  1  0.12147728  0.01847486  0.43186612  1
  Pr3+  Pr14  1  0.12975185  0.48943742  0.92641832  1
  Pr3+  Pr15  1  0.24533010  0.88319753  0.55471660  1
  Pr3+  Pr16  1  0.51503649  0.86007012  0.06896778  1
  Pr3+  Pr17  1  0.24573351  0.63612801  0.56475526  1
  Pr3+  Pr18  1  0.49654721  0.38573505  0.56401845  1
  Pr3+  Pr19  1  0.12813305  0.24026685  0.89716148  1
  Pr3+  Pr20  1  0.01091876  0.11354860  0.06507525  1
  Pr3+  Pr21  1  0.01170930  0.35459222  0.06308930  1
  Pr3+  Pr22  1  0.11588462  0.51250802  0.43943863  1
  Pr3+  Pr23  1  0.38886379  0.73654756  0.94307165  1
  Pr3+  Pr24  1  0.63445288  0.48848329  0.94579191  1
  Pr3+  Pr25  1  0.50675727  0.11107159  0.06637481  1
  Pr3+  Pr26  1  0.38393705  0.23795465  0.93233858  1
  Pr3+  Pr27  1  0.61808850  0.25739702  0.44167958  1
  Pr3+  Pr28  1  0.74444497  0.38598049  0.56038944  1
  Pr3+  Pr29  1  0.25468919  0.86004326  0.05765681  1
  Pr3+  Pr30  1  0.11858740  0.26224787  0.44787773  1
  Nd3+  Nd31  1  0.25698452  0.36090205  0.05318160  1
  Nd3+  Nd32  1  0.37005036  0.00737587  0.44037315  1
  Nd3+  Nd33  1  0.12967742  -0.01604391  0.92968483  1
  Nd3+  Nd34  1  0.86897993  0.00500882  0.43134687  1
  Nd3+  Nd35  1  -0.00637403  0.13380512  0.56244966  1
  Nd3+  Nd36  1  0.88402530  -0.01285975  0.94514856  1
  Nd3+  Nd37  1  0.76226933  0.60533208  0.08222242  1
  Nd3+  Nd38  1  0.38697628  -0.01575063  0.94377129  1
  Nd3+  Nd39  1  0.87090131  0.26028191  0.44054973  1
  Nd3+  Nd40  1  0.63413776  -0.01504224  0.93790858  1
  Nd3+  Nd41  1  0.61937145  0.75806160  0.42809339  1
  Nd3+  Nd42  1  0.74569933  0.13285067  0.55882039  1
  Nd3+  Nd43  1  0.49344387  0.13259398  0.56173705  1
  Nd3+  Nd44  1  -0.00660087  0.88498977  0.55445670  1
  Nd3+  Nd45  1  0.87759116  0.73003716  0.94098918  1
  Nd3+  Nd46  1  0.00820809  0.85800490  0.06256179  1
  Nd3+  Nd47  1  -0.00500374  0.38654866  0.57374821  1
  Nd3+  Nd48  1  0.36921937  0.25979116  0.44676036  1
  Nd3+  Nd49  1  -0.00725162  0.63335019  0.56376717  1
  Nd3+  Nd50  1  0.24518653  0.39116278  0.57235650  1
  Sm3+  Sm51  1  0.74661479  0.88201173  0.55478047  1
  Sm3+  Sm52  1  0.74457819  0.63732935  0.55400749  1
  Sm3+  Sm53  1  0.11614039  0.76054570  0.44116222  1
  Sm3+  Sm54  1  0.87026732  0.50392662  0.43960350  1
  Sm3+  Sm55  1  0.25874210  0.11009141  0.05043656  1
  Sm3+  Sm56  1  0.38769785  0.48696759  0.94418674  1
  Sm3+  Sm57  1  0.62069174  0.50909779  0.43791854  1
  Sm3+  Sm58  1  0.75914733  0.85687999  0.05377574  1
  Sm3+  Sm59  1  0.88394417  0.48524813  0.95041417  1
  Sm3+  Sm60  1  0.49492657  0.88290903  0.56016109  1
  Sm3+  Sm61  1  0.49764268  0.63604146  0.55468291  1
  Sm3+  Sm62  1  0.88461919  0.23527204  0.93961188  1
  Sm3+  Sm63  1  0.24155406  0.13419956  0.56694309  1
  Bi2+  Bi64  1  0.01970377  0.11235160  0.30680776  1
  Bi2+  Bi65  1  -0.00574077  0.08827991  0.79056489  1
  Bi2+  Bi66  1  0.04559751  0.31813542  0.31221743  1
  Bi2+  Bi67  1  -0.04793475  0.37927486  0.79353837  1
  Bi2+  Bi68  1  0.00935353  0.60509036  0.29306234  1
  Bi2+  Bi69  1  -0.03122528  0.64370039  0.74239913  1
  Bi2+  Bi70  1  -0.01801021  0.92424077  0.27161657  1
  Bi2+  Bi71  1  -0.00123372  0.80791573  0.80109718  1
  Bi2+  Bi72  1  0.16726530  0.10562725  0.22193487  1
  Bi2+  Bi73  1  0.25341554  0.12430896  0.76804923  1
  Bi2+  Bi74  1  0.27005639  0.41573363  0.28051726  1
  Bi2+  Bi75  1  0.26993334  0.38514433  0.79371522  1
  Bi2+  Bi76  1  0.27063470  0.70603074  0.30746622  1
  Bi2+  Bi77  1  0.23550855  0.63865359  0.78197825  1
  Bi2+  Bi78  1  0.25845932  0.90475892  0.29536298  1
  Bi2+  Bi79  1  0.25964262  0.90524276  0.78741874  1
  Bi2+  Bi80  1  0.47013341  0.13066199  0.31438203  1
  Bi2+  Bi81  1  0.50237515  0.11163597  0.81420468  1
  Bi2+  Bi82  1  0.51255450  0.37212961  0.31491867  1
  Bi2+  Bi83  1  0.54038699  0.36124311  0.77832275  1
  Bi2+  Bi84  1  0.45281911  0.63452499  0.29214722  1
  Bi2+  Bi85  1  0.49415236  0.60527249  0.78940479  1
  Bi2+  Bi86  1  0.50071934  0.89647171  0.28142728  1
  Bi2+  Bi87  1  0.50564304  0.86868493  0.78976894  1
  Bi2+  Bi88  1  0.83017442  0.15229757  0.32944513  1
  Bi2+  Bi89  1  0.71546794  0.15000230  0.82885285  1
  Bi2+  Bi90  1  0.81166805  0.33325664  0.28433691  1
  Bi2+  Bi91  1  0.73035544  0.34874340  0.80507746  1
  Bi2+  Bi92  1  0.73812692  0.61743080  0.28894492  1
  Bi2+  Bi93  1  0.77107747  0.58763236  0.79614896  1
  Bi2+  Bi94  1  0.74240156  0.99997836  0.28728997  1
  Bi2+  Bi95  1  0.78957365  0.96253956  0.77738045  1
  Bi2+  Bi96  1  0.04341269  -0.01300389  0.16919045  1
  Bi2+  Bi97  1  0.10271993  -0.09681129  0.72085563  1
  Bi2+  Bi98  1  0.15152325  0.29880263  0.21618012  1
  Bi2+  Bi99  1  0.10341993  0.22729891  0.71805661  1
  Bi2+  Bi100  1  0.12611492  0.51509920  0.22166471  1
  Bi2+  Bi101  1  0.11395136  0.44339374  0.69540578  1
  Bi2+  Bi102  1  0.12730005  0.80754911  0.22554955  1
  Bi2+  Bi103  1  0.13621240  0.71107984  0.68995145  1
  Bi2+  Bi104  1  0.36734755  -0.00183301  0.21225213  1
  Bi2+  Bi105  1  0.39221247  0.01108012  0.69202094  1
  Bi2+  Bi106  1  0.36513307  0.24767769  0.20689625  1
  Bi2+  Bi107  1  0.41422759  0.22789065  0.73671353  1
  Bi2+  Bi108  1  0.31831330  0.57437314  0.21409944  1
  Bi2+  Bi109  1  0.35401301  0.51479753  0.72325381  1
  Bi2+  Bi110  1  0.37080765  0.77627771  0.21178385  1
  Bi2+  Bi111  1  0.32289882  0.76866531  0.71344677  1
  Bi2+  Bi112  1  0.55277852  -0.00491132  0.18000167  1
  Bi2+  Bi113  1  0.63012795  0.05126533  0.73934738  1
  Bi2+  Bi114  1  0.62896930  0.16876981  0.20961147  1
  Bi2+  Bi115  1  0.64125676  0.24872349  0.70432478  1
  Bi2+  Bi116  1  0.62257540  0.50324040  0.21435150  1
  Bi2+  Bi117  1  0.59807403  0.50638030  0.68536389  1
  Bi2+  Bi118  1  0.62296276  0.79780139  0.21151792  1
  Bi2+  Bi119  1  0.62259499  0.75963595  0.67609976  1
  Bi2+  Bi120  1  0.84685910  0.02187136  0.19123592  1
  Bi2+  Bi121  1  0.90373126  0.04393690  0.69180598  1
  Bi2+  Bi122  1  0.89756121  0.20941491  0.21103575  1
  Bi2+  Bi123  1  0.84319840  0.22261043  0.74733748  1
  Bi2+  Bi124  1  0.88576232  0.45984527  0.21230062  1
  Bi2+  Bi125  1  0.84109317  0.50479458  0.70437904  1
  Bi2+  Bi126  1  0.86446867  0.76637434  0.18475115  1
  Bi2+  Bi127  1  0.85728934  0.80383530  0.71912032  1
  S2-  S128  1  0.01505504  0.23299940  0.14299288  1
  S2-  S129  1  0.05477421  0.10440680  0.65319340  1
  S2-  S130  1  0.02012841  0.45254726  0.14747240  1
  S2-  S131  1  -0.00513491  0.31932602  0.66853058  1
  S2-  S132  1  -0.11387098  0.61103435  0.15688912  1
  S2-  S133  1  -0.01426303  0.52263189  0.64059308  1
  S2-  S134  1  0.02277464  0.76361410  0.14735008  1
  S2-  S135  1  -0.02573147  0.88684756  0.65374348  1
  S2-  S136  1  0.29295691  0.11663555  0.14778819  1
  S2-  S137  1  0.27884505  0.11425493  0.66165278  1
  S2-  S138  1  0.33479353  0.35969598  0.14373386  1
  S2-  S139  1  0.21882622  0.32607035  0.66491405  1
  S2-  S140  1  0.18126337  0.61123284  0.14478002  1
  S2-  S141  1  0.24306250  0.52661522  0.64337310  1
  S2-  S142  1  0.24229864  0.86066501  0.15805824  1
  S2-  S143  1  0.27308295  0.90071820  0.65285163  1
  S2-  S144  1  0.50176552  0.21893361  0.14669621  1
  S2-  S145  1  0.50536889  0.14257857  0.65987545  1
  S2-  S146  1  0.58653265  0.34251668  0.23232524  1
  S2-  S147  1  0.46715091  0.41685684  0.66082885  1
  S2-  S148  1  0.50465756  0.49958111  0.15127762  1
  S2-  S149  1  0.49973124  0.63656168  0.65227767  1
  S2-  S150  1  0.49917804  0.74799767  0.14749694  1
  S2-  S151  1  0.50844529  0.88331220  0.65769409  1
  S2-  S152  1  0.74452274  0.21946006  0.14364224  1
  S2-  S153  1  0.76885454  0.14763067  0.65570983  1
  S2-  S154  1  0.75411558  0.45029493  0.15434961  1
  S2-  S155  1  0.72947753  0.39088015  0.65965313  1
  S2-  S156  1  0.68549027  0.65961185  0.17455158  1
  S2-  S157  1  0.73123352  0.62235086  0.65248434  1
  S2-  S158  1  0.74908958  0.88786121  0.15182167  1
  S2-  S159  1  0.73609764  0.87517985  0.65270182  1
  S2-  S160  1  0.11453339  -0.05349387  0.34114671  1
  S2-  S161  1  0.13225189  0.08442691  0.84652471  1
  S2-  S162  1  0.14347176  0.18697674  0.35958824  1
  S2-  S163  1  0.12188959  0.39123016  0.84031388  1
  S2-  S164  1  0.12895317  0.46773231  0.34300368  1
  S2-  S165  1  0.12572634  0.61942205  0.85474260  1
  S2-  S166  1  0.04929100  0.72271883  0.35488034  1
  S2-  S167  1  0.13573383  0.85747557  0.85729501  1
  S2-  S168  1  0.34355892  0.04350594  0.34521189  1
  S2-  S169  1  0.39368205  -0.02553837  0.84406318  1
  S2-  S170  1  0.38190582  0.26007792  0.34737712  1
  S2-  S171  1  0.28369806  0.24402726  0.84630125  1
  S2-  S172  1  0.38441842  0.49316269  0.34629446  1
  S2-  S173  1  0.38831465  0.49174207  0.84539569  1
  S2-  S174  1  0.48664959  0.76614368  0.35594439  1
  S2-  S175  1  0.45913646  0.73643672  0.85138705  1
  S2-  S176  1  0.59362089  0.00646192  0.34631995  1
  S2-  S177  1  0.62476772  -0.10052802  0.85072080  1
  S2-  S178  1  0.60266876  0.24286859  0.34281167  1
  S2-  S179  1  0.51540135  0.26306884  0.86456689  1
  S2-  S180  1  0.63195168  0.49862194  0.34026553  1
  S2-  S181  1  0.62605738  0.56305684  0.85296194  1
  S2-  S182  1  0.70970998  0.74503736  0.34394080  1
  S2-  S183  1  0.60868761  0.73464286  0.77312792  1
  S2-  S184  1  0.86226265  -0.08692259  0.34624674  1
  S2-  S185  1  0.91471375  -0.03594751  0.84812155  1
  S2-  S186  1  0.90284209  0.37438752  0.36681159  1
  S2-  S187  1  0.96641780  0.23322559  0.85284431  1
  S2-  S188  1  0.86983524  0.57591474  0.35059813  1
  S2-  S189  1  0.89353303  0.49544249  0.85015595  1
  S2-  S190  1  0.87927608  0.72071277  0.27436997  1
  S2-  S191  1  0.79555866  0.72105198  0.85153165  1
  S2-  S192  1  -0.00877452  0.13416135  0.45609177  1
  S2-  S193  1  0.00828837  0.11138955  0.95692292  1
  S2-  S194  1  -0.00295497  0.38626826  0.46764813  1
  S2-  S195  1  0.00772071  0.35832460  0.95470514  1
  S2-  S196  1  -0.01067804  0.63377270  0.45935972  1
  S2-  S197  1  0.00312787  0.60969228  0.95415392  1
  S2-  S198  1  -0.00279307  0.88579879  0.45052190  1
  S2-  S199  1  0.00304458  0.85881152  0.95747665  1
  S2-  S200  1  0.24852322  0.13457891  0.46280724  1
  S2-  S201  1  0.25956420  0.10708382  0.94817990  1
  S2-  S202  1  0.24459300  0.38507256  0.45974406  1
  S2-  S203  1  0.25910966  0.36571433  0.94925505  1
  S2-  S204  1  0.24241216  0.63688448  0.45473424  1
  S2-  S205  1  0.26366420  0.61085352  0.94949445  1
  S2-  S206  1  0.24422558  0.88156497  0.44863540  1
  S2-  S207  1  0.26139152  0.86133917  0.95246245  1
  S2-  S208  1  0.49283938  0.13240416  0.45649593  1
  S2-  S209  1  0.50946513  0.10848522  0.95823769  1
  S2-  S210  1  0.49556981  0.38529886  0.45684470  1
  S2-  S211  1  0.50677147  0.36615580  0.96594718  1
  S2-  S212  1  0.49629015  0.62999747  0.45085386  1
  S2-  S213  1  0.50940124  0.61174953  0.96061645  1
  S2-  S214  1  0.49435544  0.88434164  0.45599763  1
  S2-  S215  1  0.51265486  0.86164101  0.96088700  1
  S2-  S216  1  0.74505579  0.13231649  0.45371289  1
  S2-  S217  1  0.75926910  0.11144103  0.95762776  1
  S2-  S218  1  0.74180211  0.38354822  0.45378362  1
  S2-  S219  1  0.75997528  0.35849566  0.95545463  1
  S2-  S220  1  0.74418295  0.63023090  0.45145731  1
  S2-  S221  1  0.76102602  0.60624732  0.96339073  1
  S2-  S222  1  0.74371684  0.88211237  0.45133427  1
  S2-  S223  1  0.75923644  0.86178221  0.95144046  1
  S2-  S224  1  0.13359804  -0.01305932  0.04034120  1
  S2-  S225  1  0.12138451  0.00975437  0.54259239  1
  S2-  S226  1  0.14117589  0.23218446  0.04580029  1
  S2-  S227  1  0.12096246  0.25886020  0.55364357  1
  S2-  S228  1  0.13375606  0.48440094  0.03779610  1
  S2-  S229  1  0.12019862  0.51131845  0.54464872  1
  S2-  S230  1  0.13106647  0.73658724  0.03777314  1
  S2-  S231  1  0.11751786  0.75833911  0.54633957  1
  S2-  S232  1  0.38363092  -0.01691228  0.04933950  1
  S2-  S233  1  0.37041620  0.00856392  0.54714197  1
  S2-  S234  1  0.38013783  0.23251890  0.03893758  1
  S2-  S235  1  0.36734620  0.25891337  0.55486950  1
  S2-  S236  1  0.38113539  0.49088808  0.04682751  1
  S2-  S237  1  0.37401600  0.51247704  0.54722861  1
  S2-  S238  1  0.38118123  0.73776586  0.04830731  1
  S2-  S239  1  0.37260817  0.75837936  0.54324941  1
  S2-  S240  1  0.63645723  -0.01415805  0.04491714  1
  S2-  S241  1  0.62000750  0.00716087  0.55125430  1
  S2-  S242  1  0.62861603  0.23443579  0.04322727  1
  S2-  S243  1  0.61947398  0.25718666  0.54926597  1
  S2-  S244  1  0.63458779  0.48428588  0.05107802  1
  S2-  S245  1  0.62013478  0.51208546  0.54363607  1
  S2-  S246  1  0.64173877  0.73629937  0.05432122  1
  S2-  S247  1  0.61932333  0.76091464  0.53985817  1
  S2-  S248  1  0.88292443  -0.01399029  0.04968680  1
  S2-  S249  1  0.86859920  0.00821784  0.54218463  1
  S2-  S250  1  0.88205695  0.23223589  0.04249191  1
  S2-  S251  1  0.87048985  0.26005297  0.54881682  1
  S2-  S252  1  0.88568554  0.48276092  0.05059457  1
  S2-  S253  1  0.86468193  0.51123448  0.54391805  1
  S2-  S254  1  0.88227289  0.73513476  0.04742977  1
  S2-  S255  1  0.86898261  0.75864458  0.55493455  1
