# generated using pymatgen
data_La6Ce6Pr19Nd20Sm13(BiS2)64
_symmetry_space_group_name_H-M   'P 1'
_cell_length_a   16.13899579
_cell_length_b   16.08158972
_cell_length_c   27.11735403
_cell_angle_alpha   90.40267655
_cell_angle_beta   90.00986159
_cell_angle_gamma   89.97467271
_symmetry_Int_Tables_number   1
_chemical_formula_structural   La6Ce6Pr19Nd20Sm13(BiS2)64
_chemical_formula_sum   'La6 Ce6 Pr19 Nd20 Sm13 Bi64 S128'
_cell_volume   7037.88268196
_cell_formula_units_Z   1
loop_
 _symmetry_equiv_pos_site_id
 _symmetry_equiv_pos_as_xyz
  1  'x, y, z'
loop_
 _atom_type_symbol
 _atom_type_oxidation_number
  La3+  3.0
  Ce3+  3.0
  Pr3+  3.0
  Nd3+  3.0
  Sm3+  3.0
  Bi2+  2.0
  S2-  -2.0
loop_
 _atom_site_type_symbol
 _atom_site_label
 _atom_site_symmetry_multiplicity
 _atom_site_fract_x
 _atom_site_fract_y
 _atom_site_fract_z
 _atom_site_occupancy
  La3+  La0  1  0.00393733  0.62464142  0.07454032  1
  La3+  La1  1  0.50193540  0.88715266  0.60607803  1
  La3+  La2  1  0.23966481  0.63902371  0.57981349  1
  La3+  La3  1  0.61579551  0.51521895  0.42214382  1
  La3+  La4  1  0.63888350  0.74179842  0.91550807  1
  La3+  La5  1  0.25876708  0.38178900  0.09219424  1
  Ce3+  Ce6  1  0.75590397  0.12161788  0.05724247  1
  Ce3+  Ce7  1  -0.00502135  0.88502392  0.55639922  1
  Ce3+  Ce8  1  -0.00444648  0.63116664  0.56627128  1
  Ce3+  Ce9  1  0.13312665  -0.00544150  0.94355905  1
  Ce3+  Ce10  1  0.61689271  0.75869683  0.44164715  1
  Ce3+  Ce11  1  0.51040476  0.37686001  0.07398965  1
  Pr3+  Pr12  1  0.36350818  0.26074571  0.41799269  1
  Pr3+  Pr13  1  0.36566395  0.00612201  0.44428699  1
  Pr3+  Pr14  1  0.86650815  0.50836273  0.43933255  1
  Pr3+  Pr15  1  0.62938909  -0.00290694  0.92663551  1
  Pr3+  Pr16  1  0.86538796  0.25573642  0.43562752  1
  Pr3+  Pr17  1  0.37193669  0.73865431  0.90648637  1
  Pr3+  Pr18  1  0.23768890  0.88819933  0.57636134  1
  Pr3+  Pr19  1  0.62959378  0.49753448  0.93736995  1
  Pr3+  Pr20  1  0.61102026  0.24455828  0.40478588  1
  Pr3+  Pr21  1  0.37946779  0.49086188  0.93566149  1
  Pr3+  Pr22  1  0.36712063  0.51127814  0.43632996  1
  Pr3+  Pr23  1  0.13112517  0.25278419  0.94448630  1
  Pr3+  Pr24  1  0.11677327  0.50978771  0.43263854  1
  Pr3+  Pr25  1  0.50643178  0.86797976  0.04493804  1
  Pr3+  Pr26  1  0.00632736  0.12321699  0.06616804  1
  Pr3+  Pr27  1  0.24722713  0.13673499  0.56414030  1
  Pr3+  Pr28  1  0.25812103  0.12671479  0.06234737  1
  Pr3+  Pr29  1  0.12725328  0.73821255  0.93082364  1
  Pr3+  Pr30  1  0.75313948  0.37858883  0.08304332  1
  Nd3+  Nd31  1  -0.00638067  0.13646170  0.55291032  1
  Nd3+  Nd32  1  0.51478110  0.12263124  0.06882605  1
  Nd3+  Nd33  1  0.74044665  0.88612663  0.56561134  1
  Nd3+  Nd34  1  0.25525107  0.62368244  0.05973313  1
  Nd3+  Nd35  1  0.12948585  0.49221616  0.94494234  1
  Nd3+  Nd36  1  0.73748117  0.63335199  0.56286761  1
  Nd3+  Nd37  1  0.61513125  0.00251512  0.43846357  1
  Nd3+  Nd38  1  0.73839886  0.38238698  0.54691011  1
  Nd3+  Nd39  1  0.24413309  0.38348943  0.55597570  1
  Nd3+  Nd40  1  0.88166369  0.24974527  0.94655861  1
  Nd3+  Nd41  1  0.49403629  0.38464287  0.55519590  1
  Nd3+  Nd42  1  0.63059023  0.24944881  0.94100770  1
  Nd3+  Nd43  1  0.49270932  0.13500264  0.55938337  1
  Nd3+  Nd44  1  0.11914280  0.75346058  0.43553348  1
  Nd3+  Nd45  1  0.74685641  0.63005289  0.07479463  1
  Nd3+  Nd46  1  0.75121705  0.87228799  0.06350667  1
  Nd3+  Nd47  1  0.25993761  0.87104638  0.05758322  1
  Nd3+  Nd48  1  0.00727851  0.87129109  0.06735521  1
  Nd3+  Nd49  1  0.88315908  -0.00377488  0.94024855  1
  Nd3+  Nd50  1  0.00613491  0.37476573  0.09123120  1
  Sm3+  Sm51  1  0.36563862  0.75402233  0.44835147  1
  Sm3+  Sm52  1  -0.00743514  0.38219021  0.55150588  1
  Sm3+  Sm53  1  0.87881665  0.49631117  0.95119803  1
  Sm3+  Sm54  1  0.38173628  0.25192896  0.95235944  1
  Sm3+  Sm55  1  0.87897230  0.74496856  0.94537888  1
  Sm3+  Sm56  1  0.86813248  0.75852934  0.45156087  1
  Sm3+  Sm57  1  0.73967443  0.13405426  0.55486952  1
  Sm3+  Sm58  1  0.86938176  0.00822061  0.44251188  1
  Sm3+  Sm59  1  0.50547990  0.61787914  0.05774967  1
  Sm3+  Sm60  1  0.12163094  0.26090621  0.42040669  1
  Sm3+  Sm61  1  0.48915761  0.63032065  0.56920480  1
  Sm3+  Sm62  1  0.11985628  0.00684631  0.44022681  1
  Sm3+  Sm63  1  0.38044378  -0.00245855  0.94073017  1
  Bi2+  Bi64  1  -0.01731945  0.09121214  0.28889019  1
  Bi2+  Bi65  1  0.01392706  0.15478027  0.79347132  1
  Bi2+  Bi66  1  -0.00036645  0.31659243  0.27443634  1
  Bi2+  Bi67  1  0.00667927  0.34978865  0.80086955  1
  Bi2+  Bi68  1  -0.03622872  0.66123747  0.28858186  1
  Bi2+  Bi69  1  -0.01275686  0.64633997  0.78883190  1
  Bi2+  Bi70  1  0.05398925  0.87366829  0.27446344  1
  Bi2+  Bi71  1  -0.00742381  0.91706869  0.78950863  1
  Bi2+  Bi72  1  0.24219121  -0.01779021  0.27672551  1
  Bi2+  Bi73  1  0.25330375  0.18968265  0.78385096  1
  Bi2+  Bi74  1  0.22909670  0.35835575  0.28896014  1
  Bi2+  Bi75  1  0.26738967  0.38410725  0.79563672  1
  Bi2+  Bi76  1  0.23584365  0.61050008  0.29865933  1
  Bi2+  Bi77  1  0.23325199  0.60874799  0.79525190  1
  Bi2+  Bi78  1  0.22679898  0.80505390  0.32107777  1
  Bi2+  Bi79  1  0.26273612  0.90722244  0.79999590  1
  Bi2+  Bi80  1  0.49855006  0.04705153  0.28604566  1
  Bi2+  Bi81  1  0.45950730  0.21728832  0.77163081  1
  Bi2+  Bi82  1  0.48096276  0.37056322  0.28657708  1
  Bi2+  Bi83  1  0.55129537  0.37773189  0.82551215  1
  Bi2+  Bi84  1  0.48383048  0.65383889  0.28831465  1
  Bi2+  Bi85  1  0.51100547  0.55133642  0.78127040  1
  Bi2+  Bi86  1  0.47856126  0.85139875  0.30174789  1
  Bi2+  Bi87  1  0.49804446  0.92611758  0.78315552  1
  Bi2+  Bi88  1  0.76451262  0.06042627  0.28285600  1
  Bi2+  Bi89  1  0.73900344  0.21822173  0.77911870  1
  Bi2+  Bi90  1  0.76644118  0.39776422  0.30027049  1
  Bi2+  Bi91  1  0.74411589  0.41279616  0.80339458  1
  Bi2+  Bi92  1  0.76707919  0.66157671  0.29470923  1
  Bi2+  Bi93  1  0.78243472  0.61321736  0.79489673  1
  Bi2+  Bi94  1  0.67528684  0.86606530  0.30481607  1
  Bi2+  Bi95  1  0.75122736  0.88017258  0.79436103  1
  Bi2+  Bi96  1  0.04038681  -0.00362892  0.17910841  1
  Bi2+  Bi97  1  0.10840823  0.01270402  0.70987281  1
  Bi2+  Bi98  1  0.11039084  0.17305940  0.21656810  1
  Bi2+  Bi99  1  0.12139586  0.21574452  0.70329073  1
  Bi2+  Bi100  1  0.11581214  0.50844383  0.21484440  1
  Bi2+  Bi101  1  0.12091823  0.44600320  0.72466625  1
  Bi2+  Bi102  1  0.14745540  0.73616745  0.20936330  1
  Bi2+  Bi103  1  0.10008102  0.74940964  0.71064704  1
  Bi2+  Bi104  1  0.39197532  -0.06894331  0.20422154  1
  Bi2+  Bi105  1  0.36623354  0.08523105  0.70488355  1
  Bi2+  Bi106  1  0.35466183  0.19198816  0.23073043  1
  Bi2+  Bi107  1  0.38673860  0.26347609  0.64933462  1
  Bi2+  Bi108  1  0.37010242  0.51847983  0.22065546  1
  Bi2+  Bi109  1  0.38972904  0.45216596  0.70548503  1
  Bi2+  Bi110  1  0.35150295  0.73546038  0.21519879  1
  Bi2+  Bi111  1  0.36981330  0.73211663  0.71441169  1
  Bi2+  Bi112  1  0.65196561  -0.02982869  0.20129581  1
  Bi2+  Bi113  1  0.64642143  0.04100241  0.71189168  1
  Bi2+  Bi114  1  0.61840078  0.22129563  0.21285889  1
  Bi2+  Bi115  1  0.57413974  0.28701519  0.69040092  1
  Bi2+  Bi116  1  0.62085469  0.51126262  0.20093618  1
  Bi2+  Bi117  1  0.64454724  0.48398428  0.70308774  1
  Bi2+  Bi118  1  0.62589168  0.76565393  0.21025949  1
  Bi2+  Bi119  1  0.63867444  0.74174994  0.71427632  1
  Bi2+  Bi120  1  0.84775425  -0.01570904  0.17197901  1
  Bi2+  Bi121  1  0.88186332  0.06233045  0.72402378  1
  Bi2+  Bi122  1  0.84323027  0.19194718  0.20412479  1
  Bi2+  Bi123  1  0.85596886  0.33030753  0.71536164  1
  Bi2+  Bi124  1  0.86306015  0.38873120  0.20312201  1
  Bi2+  Bi125  1  0.93516998  0.51298643  0.70861434  1
  Bi2+  Bi126  1  0.88665202  0.80017071  0.21668123  1
  Bi2+  Bi127  1  0.90088470  0.78346503  0.72376928  1
  S2-  S128  1  -0.01320865  0.22361094  0.14917711  1
  S2-  S129  1  -0.00562693  0.12481710  0.65278393  1
  S2-  S130  1  0.13332068  0.36868745  0.16444882  1
  S2-  S131  1  -0.01101213  0.37674764  0.64949310  1
  S2-  S132  1  -0.01295224  0.51878476  0.15778948  1
  S2-  S133  1  0.09570509  0.62199218  0.64525248  1
  S2-  S134  1  0.01273449  0.75791610  0.14491945  1
  S2-  S135  1  0.06750482  0.88636441  0.64407216  1
  S2-  S136  1  0.24714069  0.11763742  0.16351310  1
  S2-  S137  1  0.24120070  0.02769861  0.64461693  1
  S2-  S138  1  0.33718551  0.33889319  0.19140648  1
  S2-  S139  1  0.23664501  0.39423758  0.65628771  1
  S2-  S140  1  0.25322778  0.54456282  0.14946354  1
  S2-  S141  1  0.33450810  0.59486673  0.66455010  1
  S2-  S142  1  0.24972754  0.85350483  0.15656799  1
  S2-  S143  1  0.24675410  0.77599860  0.65459207  1
  S2-  S144  1  0.46930036  0.16780030  0.16613220  1
  S2-  S145  1  0.52350905  0.05755384  0.64953938  1
  S2-  S146  1  0.47911204  0.50153053  0.14275084  1
  S2-  S147  1  0.51475018  0.49524536  0.63500518  1
  S2-  S148  1  0.60247966  0.64810083  0.13961885  1
  S2-  S149  1  0.51176032  0.72522936  0.65419500  1
  S2-  S150  1  0.52838001  0.87958742  0.14526157  1
  S2-  S151  1  0.41016019  0.90228933  0.69517500  1
  S2-  S152  1  0.65349493  0.10969803  0.13623563  1
  S2-  S153  1  0.76349962  0.10416850  0.65180565  1
  S2-  S154  1  0.62283464  0.35105466  0.15470286  1
  S2-  S155  1  0.71980835  0.35252212  0.64473677  1
  S2-  S156  1  0.76122018  0.51597930  0.15513855  1
  S2-  S157  1  0.72767325  0.62637264  0.66292105  1
  S2-  S158  1  0.76619251  0.76763575  0.14517072  1
  S2-  S159  1  0.66644511  0.88630947  0.65744598  1
  S2-  S160  1  0.11790355  0.03446680  0.34282379  1
  S2-  S161  1  0.13354655  -0.01324319  0.84584080  1
  S2-  S162  1  0.23505677  0.23113973  0.34587633  1
  S2-  S163  1  0.13416982  0.37062902  0.86909901  1
  S2-  S164  1  0.10464081  0.39452935  0.35055539  1
  S2-  S165  1  0.11219092  0.59627111  0.86166328  1
  S2-  S166  1  0.09762554  0.63504102  0.35990877  1
  S2-  S167  1  0.21903956  0.76789200  0.84465328  1
  S2-  S168  1  0.36027148  0.03622332  0.34381815  1
  S2-  S169  1  0.38169345  0.01335649  0.84274887  1
  S2-  S170  1  0.47095412  0.23658144  0.33832229  1
  S2-  S171  1  0.38213085  0.34920550  0.87033613  1
  S2-  S172  1  0.35907420  0.41459563  0.34825326  1
  S2-  S173  1  0.37175640  0.58814296  0.84722506  1
  S2-  S174  1  0.37348833  0.64451779  0.36685471  1
  S2-  S175  1  0.40311005  0.80372602  0.81301292  1
  S2-  S176  1  0.62667400  0.08349505  0.35131268  1
  S2-  S177  1  0.64326996  0.00375284  0.82432369  1
  S2-  S178  1  0.67226095  0.26948635  0.30701771  1
  S2-  S179  1  0.60305020  0.20971031  0.84408766  1
  S2-  S180  1  0.61181524  0.46514893  0.32183730  1
  S2-  S181  1  0.63055101  0.59618953  0.85244570  1
  S2-  S182  1  0.62451592  0.66340607  0.35843939  1
  S2-  S183  1  0.60638350  0.79981888  0.81550646  1
  S2-  S184  1  0.87777505  -0.00629540  0.34457527  1
  S2-  S185  1  0.86268436  -0.00942999  0.84137872  1
  S2-  S186  1  0.88524912  0.26449755  0.33582609  1
  S2-  S187  1  0.88265929  0.23379771  0.84639527  1
  S2-  S188  1  0.87354370  0.53159796  0.33885122  1
  S2-  S189  1  0.88015379  0.51025025  0.85153451  1
  S2-  S190  1  0.86777646  0.75989554  0.35246410  1
  S2-  S191  1  0.79871206  0.74987803  0.85782388  1
  S2-  S192  1  -0.00390057  0.13368902  0.44624009  1
  S2-  S193  1  0.00760707  0.12306028  0.95613385  1
  S2-  S194  1  -0.00943039  0.37987811  0.44826915  1
  S2-  S195  1  0.00067340  0.37327479  0.96576439  1
  S2-  S196  1  -0.01246788  0.63400974  0.46069231  1
  S2-  S197  1  -0.00137238  0.62164491  0.96328663  1
  S2-  S198  1  -0.00583781  0.88302186  0.44900029  1
  S2-  S199  1  0.00549261  0.86895548  0.95343211  1
  S2-  S200  1  0.23826885  0.13232438  0.45599451  1
  S2-  S201  1  0.25857583  0.12567415  0.95325780  1
  S2-  S202  1  0.23826193  0.38259821  0.45138236  1
  S2-  S203  1  0.25582655  0.37078341  0.97222507  1
  S2-  S204  1  0.24024394  0.63429373  0.46468860  1
  S2-  S205  1  0.25709175  0.62177527  0.95562982  1
  S2-  S206  1  0.24034959  0.88052934  0.45867757  1
  S2-  S207  1  0.26182988  0.87051502  0.95174439  1
  S2-  S208  1  0.49310099  0.12971233  0.45267306  1
  S2-  S209  1  0.50306391  0.12305925  0.95558281  1
  S2-  S210  1  0.49791663  0.38222594  0.44705485  1
  S2-  S211  1  0.50960570  0.37161863  0.96581632  1
  S2-  S212  1  0.49398057  0.63598870  0.46382378  1
  S2-  S213  1  0.50025912  0.62570077  0.95242437  1
  S2-  S214  1  0.48922602  0.87859156  0.44351414  1
  S2-  S215  1  0.50142846  0.86987588  0.93821172  1
  S2-  S216  1  0.74323285  0.13001510  0.44974255  1
  S2-  S217  1  0.75601728  0.12154264  0.94861240  1
  S2-  S218  1  0.73807523  0.38019550  0.43972114  1
  S2-  S219  1  0.75534476  0.37214883  0.95323553  1
  S2-  S220  1  0.74717930  0.63600389  0.45678620  1
  S2-  S221  1  0.75888533  0.62001542  0.96106450  1
  S2-  S222  1  0.74648196  0.88434449  0.45682271  1
  S2-  S223  1  0.75624890  0.87599596  0.95404520  1
  S2-  S224  1  0.13405255  -0.00365047  0.04951640  1
  S2-  S225  1  0.11645085  0.01300694  0.54323555  1
  S2-  S226  1  0.13163162  0.24922535  0.05195498  1
  S2-  S227  1  0.11749773  0.25941248  0.54129961  1
  S2-  S228  1  0.12722826  0.49792186  0.05173608  1
  S2-  S229  1  0.11535983  0.50276363  0.54214074  1
  S2-  S230  1  0.13372633  0.75011710  0.04108522  1
  S2-  S231  1  0.11385250  0.75921723  0.54194236  1
  S2-  S232  1  0.38368232  0.00027614  0.04802899  1
  S2-  S233  1  0.37324509  0.00439794  0.55036376  1
  S2-  S234  1  0.38410574  0.25023586  0.05593337  1
  S2-  S235  1  0.36883127  0.25939675  0.53157776  1
  S2-  S236  1  0.37796858  0.49784926  0.04290512  1
  S2-  S237  1  0.36625318  0.50745198  0.54340568  1
  S2-  S238  1  0.38250151  0.74382090  0.05453251  1
  S2-  S239  1  0.37408406  0.76403619  0.55176798  1
  S2-  S240  1  0.63033540  -0.00491378  0.03485892  1
  S2-  S241  1  0.61904074  0.00747534  0.54382755  1
  S2-  S242  1  0.63478869  0.25016128  0.04533004  1
  S2-  S243  1  0.61781958  0.25529712  0.53958974  1
  S2-  S244  1  0.63346196  0.49741556  0.04401717  1
  S2-  S245  1  0.62078779  0.50973527  0.53443452  1
  S2-  S246  1  0.63159599  0.74925321  0.03168066  1
  S2-  S247  1  0.61809512  0.76133949  0.54794628  1
  S2-  S248  1  0.88217624  -0.00464981  0.04598986  1
  S2-  S249  1  0.86740016  0.01005465  0.54775285  1
  S2-  S250  1  0.87392931  0.25123139  0.05137175  1
  S2-  S251  1  0.86546746  0.25784162  0.54407937  1
  S2-  S252  1  0.87777893  0.49659397  0.05281255  1
  S2-  S253  1  0.86581773  0.50652254  0.54841957  1
  S2-  S254  1  0.87953176  0.75170263  0.04623638  1
  S2-  S255  1  0.86651689  0.75908360  0.55770612  1
