# generated using pymatgen
data_La6Ce6Pr19Nd20Sm13(BiS2)64
_symmetry_space_group_name_H-M   'P 1'
_cell_length_a   15.97231921
_cell_length_b   16.10172981
_cell_length_c   27.46560522
_cell_angle_alpha   90.70253312
_cell_angle_beta   90.18820285
_cell_angle_gamma   90.07152529
_symmetry_Int_Tables_number   1
_chemical_formula_structural   La6Ce6Pr19Nd20Sm13(BiS2)64
_chemical_formula_sum   'La6 Ce6 Pr19 Nd20 Sm13 Bi64 S128'
_cell_volume   7063.08345735
_cell_formula_units_Z   1
loop_
 _symmetry_equiv_pos_site_id
 _symmetry_equiv_pos_as_xyz
  1  'x, y, z'
loop_
 _atom_type_symbol
 _atom_type_oxidation_number
  La3+  3.0
  Ce3+  3.0
  Pr3+  3.0
  Nd3+  3.0
  Sm3+  3.0
  Bi2+  2.0
  S2-  -2.0
loop_
 _atom_site_type_symbol
 _atom_site_label
 _atom_site_symmetry_multiplicity
 _atom_site_fract_x
 _atom_site_fract_y
 _atom_site_fract_z
 _atom_site_occupancy
  La3+  La0  1  0.37522344  -0.02390235  0.92232072  1
  La3+  La1  1  0.01333583  0.35542209  0.07076428  1
  La3+  La2  1  0.26106880  0.11770688  0.61051608  1
  La3+  La3  1  0.75143825  0.84614310  0.10668741  1
  La3+  La4  1  0.63019103  -0.02224894  0.93141693  1
  La3+  La5  1  0.12294274  0.72409175  0.93025304  1
  Ce3+  Ce6  1  0.25450915  0.60490757  0.06103724  1
  Ce3+  Ce7  1  0.63069519  0.74393658  0.43929367  1
  Ce3+  Ce8  1  0.87736764  0.24606617  0.43469551  1
  Ce3+  Ce9  1  0.87621475  0.49599638  0.42586969  1
  Ce3+  Ce10  1  0.51153134  0.60485178  0.04738058  1
  Ce3+  Ce11  1  0.00572730  0.87107058  0.55742717  1
  Pr3+  Pr12  1  0.76399606  0.35299714  0.07425771  1
  Pr3+  Pr13  1  0.25901771  0.10218437  0.05582585  1
  Pr3+  Pr14  1  0.75465597  0.87307637  0.56451422  1
  Pr3+  Pr15  1  0.62569209  0.24403217  0.43380902  1
  Pr3+  Pr16  1  0.13083661  -0.02925207  0.93067186  1
  Pr3+  Pr17  1  0.75849744  0.09969626  0.06437778  1
  Pr3+  Pr18  1  0.63240140  0.22404835  0.93990543  1
  Pr3+  Pr19  1  0.38614074  0.22544564  0.93470753  1
  Pr3+  Pr20  1  0.37995064  -0.00126447  0.44916423  1
  Pr3+  Pr21  1  0.87783100  -0.00294625  0.43517555  1
  Pr3+  Pr22  1  0.63172859  0.72736814  0.93140714  1
  Pr3+  Pr23  1  0.88134108  -0.02971612  0.94333835  1
  Pr3+  Pr24  1  0.25649594  0.85215420  0.06350763  1
  Pr3+  Pr25  1  0.13038039  0.22738286  0.93084187  1
  Pr3+  Pr26  1  -0.00171557  0.37354813  0.56015990  1
  Pr3+  Pr27  1  0.13162438  -0.00257805  0.44509308  1
  Pr3+  Pr28  1  0.00587837  0.12329034  0.56455832  1
  Pr3+  Pr29  1  0.75440625  0.62735937  0.56229391  1
  Pr3+  Pr30  1  0.24900064  0.36997664  0.56990465  1
  Nd3+  Nd31  1  0.37807466  0.72275419  0.92971976  1
  Nd3+  Nd32  1  0.50988876  0.12758753  0.57349561  1
  Nd3+  Nd33  1  0.62724548  0.49684071  0.43140053  1
  Nd3+  Nd34  1  0.38065725  0.47218111  0.92507433  1
  Nd3+  Nd35  1  0.00383753  0.62285940  0.55029620  1
  Nd3+  Nd36  1  0.12526290  0.48009386  0.93337039  1
  Nd3+  Nd37  1  0.63479927  0.47041955  0.93129355  1
  Nd3+  Nd38  1  0.00822701  0.60714898  0.07393814  1
  Nd3+  Nd39  1  0.25310310  0.62413619  0.55905912  1
  Nd3+  Nd40  1  0.87823249  0.47892041  0.95103027  1
  Nd3+  Nd41  1  0.00979131  0.09882166  0.05399289  1
  Nd3+  Nd42  1  0.74684645  0.59704342  0.09462907  1
  Nd3+  Nd43  1  0.12894418  0.49346738  0.42868175  1
  Nd3+  Nd44  1  0.50742865  0.10823844  0.06692943  1
  Nd3+  Nd45  1  0.37834080  0.74664925  0.43058256  1
  Nd3+  Nd46  1  0.13299531  0.74687030  0.42765909  1
  Nd3+  Nd47  1  0.50963393  0.35596485  0.06601699  1
  Nd3+  Nd48  1  0.88145720  0.22736757  0.94214055  1
  Nd3+  Nd49  1  0.50721230  0.86047510  0.06031810  1
  Nd3+  Nd50  1  0.00698289  0.85326112  0.07155390  1
  Sm3+  Sm51  1  0.50039963  0.86725618  0.56610547  1
  Sm3+  Sm52  1  0.12909654  0.24540051  0.43743187  1
  Sm3+  Sm53  1  0.50247054  0.62458910  0.55738635  1
  Sm3+  Sm54  1  0.25530957  0.35614709  0.05429588  1
  Sm3+  Sm55  1  0.37459325  0.24498213  0.44063817  1
  Sm3+  Sm56  1  0.25339500  0.86888572  0.56388976  1
  Sm3+  Sm57  1  0.75105316  0.11900368  0.56746029  1
  Sm3+  Sm58  1  0.75461275  0.37517515  0.55923118  1
  Sm3+  Sm59  1  0.50321097  0.37437242  0.55681684  1
  Sm3+  Sm60  1  0.87456462  0.72640312  0.95824314  1
  Sm3+  Sm61  1  0.62821431  -0.00503426  0.44568011  1
  Sm3+  Sm62  1  0.88474825  0.74644461  0.42551494  1
  Sm3+  Sm63  1  0.37544820  0.49332000  0.43353376  1
  Bi2+  Bi64  1  -0.07786690  0.16299559  0.27742300  1
  Bi2+  Bi65  1  0.00629136  0.16090571  0.78750672  1
  Bi2+  Bi66  1  -0.02660361  0.35738807  0.29121593  1
  Bi2+  Bi67  1  -0.01954615  0.42656912  0.76109312  1
  Bi2+  Bi68  1  0.06641165  0.61504606  0.28648663  1
  Bi2+  Bi69  1  -0.04431003  0.61491034  0.80089873  1
  Bi2+  Bi70  1  0.02185920  0.87989248  0.28729548  1
  Bi2+  Bi71  1  -0.03879565  0.86134615  0.79409764  1
  Bi2+  Bi72  1  0.18741764  0.13490692  0.29391045  1
  Bi2+  Bi73  1  0.28154101  0.17711587  0.81299527  1
  Bi2+  Bi74  1  0.25244393  0.37543614  0.28813999  1
  Bi2+  Bi75  1  0.25674393  0.49542584  0.78365270  1
  Bi2+  Bi76  1  0.26245084  0.64838036  0.27661795  1
  Bi2+  Bi77  1  0.18721528  0.68599498  0.78259594  1
  Bi2+  Bi78  1  0.25583229  0.90162463  0.29278372  1
  Bi2+  Bi79  1  0.23316576  0.87949375  0.79244280  1
  Bi2+  Bi80  1  0.45742292  0.11438268  0.28780726  1
  Bi2+  Bi81  1  0.52728741  0.22802788  0.81349019  1
  Bi2+  Bi82  1  0.50364767  0.35197002  0.29028417  1
  Bi2+  Bi83  1  0.53118135  0.47977093  0.77040959  1
  Bi2+  Bi84  1  0.45088147  0.58237153  0.28226013  1
  Bi2+  Bi85  1  0.47328006  0.66735624  0.79021992  1
  Bi2+  Bi86  1  0.44961075  0.86428725  0.28541855  1
  Bi2+  Bi87  1  0.50544982  0.86402724  0.78426906  1
  Bi2+  Bi88  1  0.73112613  0.11578576  0.29519887  1
  Bi2+  Bi89  1  0.72380343  0.21679071  0.79225176  1
  Bi2+  Bi90  1  0.71718269  0.36025412  0.28328540  1
  Bi2+  Bi91  1  0.76951017  0.45848542  0.78497926  1
  Bi2+  Bi92  1  0.69754013  0.61671303  0.29106243  1
  Bi2+  Bi93  1  0.67759666  0.71383477  0.79442478  1
  Bi2+  Bi94  1  0.73158741  0.86009541  0.32622120  1
  Bi2+  Bi95  1  0.78139691  0.92499956  0.76225381  1
  Bi2+  Bi96  1  0.11545339  0.02225728  0.20224957  1
  Bi2+  Bi97  1  0.12096114  -0.00091274  0.71107466  1
  Bi2+  Bi98  1  0.10940146  0.27288812  0.22302660  1
  Bi2+  Bi99  1  0.13144895  0.27977120  0.71067789  1
  Bi2+  Bi100  1  0.11255992  0.47657567  0.20924702  1
  Bi2+  Bi101  1  0.11298379  0.53347648  0.70015356  1
  Bi2+  Bi102  1  0.12763922  0.75644631  0.21303171  1
  Bi2+  Bi103  1  0.08227932  0.75692010  0.69375135  1
  Bi2+  Bi104  1  0.34738422  -0.08354731  0.19221154  1
  Bi2+  Bi105  1  0.39640974  -0.00724982  0.71012434  1
  Bi2+  Bi106  1  0.32760929  0.19908637  0.22531516  1
  Bi2+  Bi107  1  0.37401313  0.37045074  0.72695145  1
  Bi2+  Bi108  1  0.37322290  0.44797968  0.20692869  1
  Bi2+  Bi109  1  0.31219956  0.53645166  0.67480242  1
  Bi2+  Bi110  1  0.31679312  0.72315026  0.17095578  1
  Bi2+  Bi111  1  0.34838196  0.72614828  0.70886612  1
  Bi2+  Bi112  1  0.59722658  -0.03245143  0.20849311  1
  Bi2+  Bi113  1  0.65804434  0.05201182  0.71113509  1
  Bi2+  Bi114  1  0.59733617  0.21126067  0.21772897  1
  Bi2+  Bi115  1  0.64981865  0.36829847  0.69926212  1
  Bi2+  Bi116  1  0.56731509  0.45640090  0.19947481  1
  Bi2+  Bi117  1  0.58779492  0.55490342  0.67227753  1
  Bi2+  Bi118  1  0.50529127  0.72234522  0.20962375  1
  Bi2+  Bi119  1  0.61012465  0.79442716  0.69447150  1
  Bi2+  Bi120  1  0.87162095  -0.01072382  0.20939186  1
  Bi2+  Bi121  1  0.88032402  0.07564703  0.71225080  1
  Bi2+  Bi122  1  0.79283233  0.23313347  0.19799974  1
  Bi2+  Bi123  1  0.88906312  0.26959753  0.71290022  1
  Bi2+  Bi124  1  0.85514768  0.46025448  0.22058962  1
  Bi2+  Bi125  1  0.78086937  0.52537498  0.67829894  1
  Bi2+  Bi126  1  0.87988743  0.71585165  0.22131350  1
  Bi2+  Bi127  1  0.83372167  0.70593243  0.72639306  1
  S2-  S128  1  -0.01240433  0.08959001  0.15238547  1
  S2-  S129  1  0.09286507  0.13375718  0.65263289  1
  S2-  S130  1  -0.09906266  0.34111209  0.14845484  1
  S2-  S131  1  0.10700111  0.38808489  0.64057284  1
  S2-  S132  1  -0.08815007  0.59381454  0.16061094  1
  S2-  S133  1  -0.00944105  0.63247462  0.64951954  1
  S2-  S134  1  -0.08793443  0.85222940  0.15846457  1
  S2-  S135  1  0.00654215  0.89487464  0.65534038  1
  S2-  S136  1  0.23478165  0.11134466  0.15514284  1
  S2-  S137  1  0.25993036  0.09974931  0.73149601  1
  S2-  S138  1  0.15585156  0.35376485  0.13611534  1
  S2-  S139  1  0.26854149  0.27891245  0.65729256  1
  S2-  S140  1  0.14636457  0.59351762  0.13952742  1
  S2-  S141  1  0.23113594  0.74236643  0.63403926  1
  S2-  S142  1  0.13681344  0.87630194  0.14113573  1
  S2-  S143  1  0.25449943  0.95209910  0.65332562  1
  S2-  S144  1  0.47201673  -0.00070526  0.14206069  1
  S2-  S145  1  0.41876407  0.12274106  0.65764829  1
  S2-  S146  1  0.49785407  0.23759856  0.13991659  1
  S2-  S147  1  0.49528149  0.35089835  0.65469459  1
  S2-  S148  1  0.56108550  0.59989805  0.14009678  1
  S2-  S149  1  0.48030341  0.73625186  0.63502919  1
  S2-  S150  1  0.58849487  0.83724388  0.14846322  1
  S2-  S151  1  0.53703403  0.94034710  0.65550506  1
  S2-  S152  1  0.73586361  0.01454349  0.15013571  1
  S2-  S153  1  0.64295525  0.16131372  0.64264962  1
  S2-  S154  1  0.72324339  0.45712274  0.15391673  1
  S2-  S155  1  0.87131783  0.38142893  0.63460407  1
  S2-  S156  1  0.74367873  0.70289861  0.17358198  1
  S2-  S157  1  0.76154145  0.75280389  0.63852762  1
  S2-  S158  1  0.74237874  0.88111181  0.23524852  1
  S2-  S159  1  0.77429376  0.99544739  0.64076868  1
  S2-  S160  1  0.11962645  -0.00943418  0.34456888  1
  S2-  S161  1  0.22577263  0.02007442  0.84874466  1
  S2-  S162  1  0.25060708  0.24793147  0.36225520  1
  S2-  S163  1  0.13113631  0.26747611  0.83291575  1
  S2-  S164  1  0.25640300  0.49319874  0.35847141  1
  S2-  S165  1  0.10800048  0.59456764  0.85931607  1
  S2-  S166  1  0.01836224  0.75408777  0.35076435  1
  S2-  S167  1  0.09994443  0.84847629  0.85614432  1
  S2-  S168  1  0.38299224  -0.00421578  0.34770001  1
  S2-  S169  1  0.41851322  0.10498607  0.85339204  1
  S2-  S170  1  0.49061604  0.22703869  0.36286237  1
  S2-  S171  1  0.38683117  0.33553729  0.85539552  1
  S2-  S172  1  0.49833498  0.48675113  0.35940865  1
  S2-  S173  1  0.36049518  0.59653868  0.85441238  1
  S2-  S174  1  0.26084303  0.75957637  0.35571232  1
  S2-  S175  1  0.37011336  0.84161943  0.85276668  1
  S2-  S176  1  0.63569087  0.00684478  0.34694107  1
  S2-  S177  1  0.63665575  0.10899374  0.85638655  1
  S2-  S178  1  0.75131572  0.24786801  0.36067992  1
  S2-  S179  1  0.63197145  0.33436089  0.85979482  1
  S2-  S180  1  0.74356913  0.49567001  0.35284281  1
  S2-  S181  1  0.65821397  0.55214853  0.84163310  1
  S2-  S182  1  0.60369439  0.73262171  0.34242643  1
  S2-  S183  1  0.62985814  0.85182811  0.85538653  1
  S2-  S184  1  0.88158352  -0.05760280  0.33901376  1
  S2-  S185  1  0.87080628  -0.02094787  0.84283912  1
  S2-  S186  1  1.00242002  0.23131200  0.36296325  1
  S2-  S187  1  0.87307652  0.22046716  0.84302751  1
  S2-  S188  1  1.00171818  0.49529270  0.35389780  1
  S2-  S189  1  0.90523828  0.46064747  0.85274803  1
  S2-  S190  1  0.81752637  0.70253396  0.33302383  1
  S2-  S191  1  0.90465758  0.73536704  0.85921711  1
  S2-  S192  1  0.00366404  0.11869191  0.45862316  1
  S2-  S193  1  0.00738826  0.10047790  0.94695916  1
  S2-  S194  1  0.00251176  0.37200908  0.45528408  1
  S2-  S195  1  0.00650290  0.35281770  0.95672602  1
  S2-  S196  1  0.00406722  0.62299079  0.44743236  1
  S2-  S197  1  0.00081888  0.60277952  0.96596225  1
  S2-  S198  1  0.00342943  0.87230553  0.45243723  1
  S2-  S199  1  0.00264521  0.84826077  0.96524218  1
  S2-  S200  1  0.25415135  0.12119619  0.45502410  1
  S2-  S201  1  0.25418319  0.10622113  0.95224261  1
  S2-  S202  1  0.25423007  0.37164666  0.46184458  1
  S2-  S203  1  0.25052650  0.35683343  0.95190852  1
  S2-  S204  1  0.25534462  0.62201707  0.45467891  1
  S2-  S205  1  0.25539388  0.59718400  0.95678063  1
  S2-  S206  1  0.25562409  0.87197645  0.45847508  1
  S2-  S207  1  0.25304186  0.84558449  0.95586194  1
  S2-  S208  1  0.50713764  0.11826200  0.46445598  1
  S2-  S209  1  0.50637002  0.10098801  0.96229735  1
  S2-  S210  1  0.50142914  0.37209183  0.45590950  1
  S2-  S211  1  0.50628553  0.35481969  0.96177460  1
  S2-  S212  1  0.50006584  0.62291226  0.45397167  1
  S2-  S213  1  0.50831097  0.59646675  0.94441077  1
  S2-  S214  1  0.50422035  0.86948555  0.45391427  1
  S2-  S215  1  0.50265758  0.84961128  0.95401496  1
  S2-  S216  1  0.75139226  0.11681400  0.46044237  1
  S2-  S217  1  0.76171225  0.10100380  0.95797575  1
  S2-  S218  1  0.75199951  0.37396080  0.45741634  1
  S2-  S219  1  0.76037514  0.35030604  0.96218503  1
  S2-  S220  1  0.75607035  0.62486544  0.45463308  1
  S2-  S221  1  0.75556928  0.60183355  0.95063600  1
  S2-  S222  1  0.75483358  0.86981330  0.45376387  1
  S2-  S223  1  0.75684414  0.85022015  0.95284272  1
  S2-  S224  1  0.13322002  -0.02160510  0.03774402  1
  S2-  S225  1  0.13187469  -0.00324702  0.54992214  1
  S2-  S226  1  0.13243809  0.22617966  0.03869996  1
  S2-  S227  1  0.12565616  0.24736581  0.54175634  1
  S2-  S228  1  0.13159835  0.47983152  0.03735414  1
  S2-  S229  1  0.12926724  0.50090702  0.53792392  1
  S2-  S230  1  0.13096463  0.72797270  0.04219940  1
  S2-  S231  1  0.12610132  0.74778187  0.53385225  1
  S2-  S232  1  0.37753499  -0.02338178  0.03550656  1
  S2-  S233  1  0.37960138  -0.00618106  0.55321875  1
  S2-  S234  1  0.37685557  0.23417434  0.04235312  1
  S2-  S235  1  0.38253634  0.24862308  0.54581756  1
  S2-  S236  1  0.38128583  0.47699087  0.04507645  1
  S2-  S237  1  0.38020671  0.49925559  0.54302206  1
  S2-  S238  1  0.38405279  0.72729830  0.04022176  1
  S2-  S239  1  0.37696221  0.74760190  0.53462142  1
  S2-  S240  1  0.63029714  -0.01899597  0.04168081  1
  S2-  S241  1  0.62571899  -0.00666681  0.54653450  1
  S2-  S242  1  0.63799482  0.23048533  0.04820032  1
  S2-  S243  1  0.63130269  0.25571133  0.54086362  1
  S2-  S244  1  0.63514261  0.47623967  0.04061770  1
  S2-  S245  1  0.62865823  0.49926040  0.54113885  1
  S2-  S246  1  0.63569887  0.72786379  0.04193605  1
  S2-  S247  1  0.62586660  0.74791240  0.54187354  1
  S2-  S248  1  0.88262920  -0.02541360  0.04908731  1
  S2-  S249  1  0.88208683  -0.00270290  0.54162960  1
  S2-  S250  1  0.88653820  0.22409357  0.04643598  1
  S2-  S251  1  0.87271757  0.24106907  0.54361543  1
  S2-  S252  1  0.88143679  0.48331372  0.05345928  1
  S2-  S253  1  0.87620615  0.50236463  0.53459957  1
  S2-  S254  1  0.87440007  0.72632372  0.05892012  1
  S2-  S255  1  0.88192456  0.74894150  0.53488320  1
