# generated using pymatgen
data_La6Ce6Pr19Nd20Sm13(BiS2)64
_symmetry_space_group_name_H-M   'P 1'
_cell_length_a   16.13739263
_cell_length_b   16.14669346
_cell_length_c   27.09174959
_cell_angle_alpha   90.13074399
_cell_angle_beta   90.03303796
_cell_angle_gamma   90.01190320
_symmetry_Int_Tables_number   1
_chemical_formula_structural   La6Ce6Pr19Nd20Sm13(BiS2)64
_chemical_formula_sum   'La6 Ce6 Pr19 Nd20 Sm13 Bi64 S128'
_cell_volume   7059.15643691
_cell_formula_units_Z   1
loop_
 _symmetry_equiv_pos_site_id
 _symmetry_equiv_pos_as_xyz
  1  'x, y, z'
loop_
 _atom_type_symbol
 _atom_type_oxidation_number
  La3+  3.0
  Ce3+  3.0
  Pr3+  3.0
  Nd3+  3.0
  Sm3+  3.0
  Bi2+  2.0
  S2-  -2.0
loop_
 _atom_site_type_symbol
 _atom_site_label
 _atom_site_symmetry_multiplicity
 _atom_site_fract_x
 _atom_site_fract_y
 _atom_site_fract_z
 _atom_site_occupancy
  La3+  La0  1  0.73834785  0.14200426  0.59143202  1
  La3+  La1  1  0.12286450  0.74701479  0.92349751  1
  La3+  La2  1  0.36820917  0.01507737  0.40361641  1
  La3+  La3  1  0.36560077  0.75160037  0.41422596  1
  La3+  La4  1  0.00368140  0.63898367  0.58353601  1
  La3+  La5  1  0.00651442  0.13194026  0.57924104  1
  Ce3+  Ce6  1  0.49585391  0.87975987  0.06239046  1
  Ce3+  Ce7  1  0.11972743  0.25800593  0.43662796  1
  Ce3+  Ce8  1  0.62192221  0.50285085  0.95475180  1
  Ce3+  Ce9  1  0.75271525  0.37820196  0.06129607  1
  Ce3+  Ce10  1  0.37150307  0.26104652  0.43340042  1
  Ce3+  Ce11  1  0.24744326  0.87735105  0.06105602  1
  Pr3+  Pr12  1  0.62253283  0.01333246  0.43605163  1
  Pr3+  Pr13  1  0.24609549  0.37613258  0.05709375  1
  Pr3+  Pr14  1  0.87076904  0.26001934  0.90981656  1
  Pr3+  Pr15  1  0.37419752  0.00301219  0.94147392  1
  Pr3+  Pr16  1  0.37738713  0.25442424  0.93070603  1
  Pr3+  Pr17  1  0.74885996  0.88327104  0.06778761  1
  Pr3+  Pr18  1  0.74690945  0.39398584  0.57374195  1
  Pr3+  Pr19  1  0.87045847  0.01514943  0.44798143  1
  Pr3+  Pr20  1  0.11968781  0.00350318  0.93617693  1
  Pr3+  Pr21  1  0.86284142  0.00881971  0.92232393  1
  Pr3+  Pr22  1  0.37170178  0.74676949  0.93076944  1
  Pr3+  Pr23  1  0.75007080  0.62911066  0.06059997  1
  Pr3+  Pr24  1  0.49220518  0.13508225  0.07725809  1
  Pr3+  Pr25  1  -0.00386931  0.88302547  0.05601304  1
  Pr3+  Pr26  1  0.49312822  0.13537746  0.55904974  1
  Pr3+  Pr27  1  0.62248040  0.75241602  0.94474904  1
  Pr3+  Pr28  1  0.74639503  0.63790868  0.56858554  1
  Pr3+  Pr29  1  0.25127677  0.64374782  0.57446352  1
  Pr3+  Pr30  1  0.24438209  0.63095745  0.06617456  1
  Nd3+  Nd31  1  0.00035281  0.63142561  0.06385889  1
  Nd3+  Nd32  1  0.49518511  0.38618845  0.55571823  1
  Nd3+  Nd33  1  -0.00008873  0.38288191  0.56435573  1
  Nd3+  Nd34  1  0.12211087  0.01442636  0.42878788  1
  Nd3+  Nd35  1  0.87102857  0.26073455  0.45198979  1
  Nd3+  Nd36  1  0.74513815  0.88668552  0.56615838  1
  Nd3+  Nd37  1  0.62377013  0.26228301  0.43938542  1
  Nd3+  Nd38  1  0.74816318  0.13850257  0.06798519  1
  Nd3+  Nd39  1  0.36940226  0.51085439  0.43641314  1
  Nd3+  Nd40  1  0.62117270  0.76090605  0.43911165  1
  Nd3+  Nd41  1  0.49246350  0.64205711  0.56352779  1
  Nd3+  Nd42  1  0.48988956  0.63163373  0.07537467  1
  Nd3+  Nd43  1  0.24930273  0.88793517  0.55604021  1
  Nd3+  Nd44  1  0.49527299  0.37763241  0.06892540  1
  Nd3+  Nd45  1  0.87190774  0.75973257  0.44515056  1
  Nd3+  Nd46  1  0.37375013  0.50220879  0.94296312  1
  Nd3+  Nd47  1  -0.00457703  0.13250349  0.05619717  1
  Nd3+  Nd48  1  0.12083130  0.76042802  0.43789853  1
  Nd3+  Nd49  1  0.12155359  0.25415348  0.93075514  1
  Nd3+  Nd50  1  0.62368127  0.00516669  0.94743061  1
  Sm3+  Sm51  1  0.11906371  0.51249228  0.44698470  1
  Sm3+  Sm52  1  0.25055838  0.13482477  0.55691926  1
  Sm3+  Sm53  1  0.24853157  0.12904444  0.05316248  1
  Sm3+  Sm54  1  0.62279198  0.51281852  0.44337926  1
  Sm3+  Sm55  1  0.87188373  0.51171197  0.45090370  1
  Sm3+  Sm56  1  -0.00270837  0.88833257  0.55424268  1
  Sm3+  Sm57  1  -0.00495579  0.37875623  0.04931568  1
  Sm3+  Sm58  1  0.49379693  0.88814271  0.54488035  1
  Sm3+  Sm59  1  0.87194724  0.75920927  0.92546123  1
  Sm3+  Sm60  1  0.12212212  0.50542408  0.94056313  1
  Sm3+  Sm61  1  0.62459460  0.25420614  0.93774631  1
  Sm3+  Sm62  1  0.87193666  0.51118261  0.92767823  1
  Sm3+  Sm63  1  0.24707105  0.38736473  0.55118178  1
  Bi2+  Bi64  1  -0.02612643  0.10660257  0.28933070  1
  Bi2+  Bi65  1  0.01966598  0.13910673  0.78256430  1
  Bi2+  Bi66  1  0.04010887  0.38801081  0.30410356  1
  Bi2+  Bi67  1  -0.00741505  0.39501402  0.77299531  1
  Bi2+  Bi68  1  0.01218293  0.62230961  0.29729234  1
  Bi2+  Bi69  1  -0.02215634  0.63717322  0.78380689  1
  Bi2+  Bi70  1  0.02618513  0.83157681  0.29953037  1
  Bi2+  Bi71  1  -0.01269548  0.90212311  0.78318261  1
  Bi2+  Bi72  1  0.21947772  0.23386646  0.30765096  1
  Bi2+  Bi73  1  0.28109105  0.14133009  0.78663747  1
  Bi2+  Bi74  1  0.26416966  0.41786496  0.28523153  1
  Bi2+  Bi75  1  0.29141172  0.33429025  0.80898924  1
  Bi2+  Bi76  1  0.25380254  0.61409100  0.28470915  1
  Bi2+  Bi77  1  0.23252487  0.62754541  0.78910980  1
  Bi2+  Bi78  1  0.24220527  0.86053738  0.28485671  1
  Bi2+  Bi79  1  0.28367216  0.87983803  0.77871490  1
  Bi2+  Bi80  1  0.51803844  0.13145280  0.29224448  1
  Bi2+  Bi81  1  0.48137103  0.13159146  0.78119865  1
  Bi2+  Bi82  1  0.44989854  0.36246913  0.30827110  1
  Bi2+  Bi83  1  0.48048283  0.39183051  0.81391426  1
  Bi2+  Bi84  1  0.51603156  0.54901609  0.28735404  1
  Bi2+  Bi85  1  0.48051667  0.67627709  0.81398163  1
  Bi2+  Bi86  1  0.54833362  0.87013631  0.29832912  1
  Bi2+  Bi87  1  0.48272805  0.86494531  0.79134311  1
  Bi2+  Bi88  1  0.76194110  0.12422548  0.30143441  1
  Bi2+  Bi89  1  0.74136764  0.13602543  0.78843960  1
  Bi2+  Bi90  1  0.84244179  0.36859154  0.28559443  1
  Bi2+  Bi91  1  0.67526614  0.38014959  0.77712118  1
  Bi2+  Bi92  1  0.80021505  0.62062518  0.29264260  1
  Bi2+  Bi93  1  0.68219290  0.63216003  0.79655618  1
  Bi2+  Bi94  1  0.84453323  0.87573891  0.26967688  1
  Bi2+  Bi95  1  0.72277216  0.89341471  0.78567580  1
  Bi2+  Bi96  1  0.09106422  -0.01880959  0.22925013  1
  Bi2+  Bi97  1  0.19431473  0.00911628  0.71233176  1
  Bi2+  Bi98  1  0.07834268  0.24335090  0.22810186  1
  Bi2+  Bi99  1  0.19994234  0.26100039  0.70696456  1
  Bi2+  Bi100  1  0.04534646  0.49263715  0.20413575  1
  Bi2+  Bi101  1  0.14893904  0.48963671  0.72659319  1
  Bi2+  Bi102  1  0.13153308  0.72768711  0.22085441  1
  Bi2+  Bi103  1  0.10986063  0.76608025  0.69478072  1
  Bi2+  Bi104  1  0.39047470  -0.00976711  0.19578699  1
  Bi2+  Bi105  1  0.36767856  -0.00818676  0.66072117  1
  Bi2+  Bi106  1  0.34901424  0.25222477  0.20609756  1
  Bi2+  Bi107  1  0.37975357  0.18644622  0.67728501  1
  Bi2+  Bi108  1  0.41500751  0.45054842  0.20246351  1
  Bi2+  Bi109  1  0.36680341  0.44769887  0.72311879  1
  Bi2+  Bi110  1  0.40763089  0.74398553  0.20263557  1
  Bi2+  Bi111  1  0.36155791  0.73118036  0.71716919  1
  Bi2+  Bi112  1  0.64969941  -0.03305688  0.20268098  1
  Bi2+  Bi113  1  0.55014271  -0.00957966  0.71023258  1
  Bi2+  Bi114  1  0.59242578  0.29175853  0.23761998  1
  Bi2+  Bi115  1  0.56335754  0.26378469  0.70899115  1
  Bi2+  Bi116  1  0.67742015  0.46786618  0.23536156  1
  Bi2+  Bi117  1  0.54426536  0.53787055  0.72398550  1
  Bi2+  Bi118  1  0.66207738  0.71745235  0.23493919  1
  Bi2+  Bi119  1  0.58056795  0.72473267  0.69828092  1
  Bi2+  Bi120  1  0.91239535  -0.00079779  0.18093120  1
  Bi2+  Bi121  1  0.89387620  -0.01601844  0.69748969  1
  Bi2+  Bi122  1  0.88625059  0.25760412  0.19314602  1
  Bi2+  Bi123  1  0.86914611  0.28428751  0.71145828  1
  Bi2+  Bi124  1  0.84998575  0.45590275  0.17731234  1
  Bi2+  Bi125  1  0.80915279  0.51040037  0.73933109  1
  Bi2+  Bi126  1  0.91824358  0.64702540  0.19468765  1
  Bi2+  Bi127  1  0.77645528  0.70109602  0.70025259  1
  S2-  S128  1  0.04441967  0.10207854  0.15107077  1
  S2-  S129  1  -0.03715378  0.14684366  0.67963760  1
  S2-  S130  1  0.03087229  0.34572994  0.14393433  1
  S2-  S131  1  -0.02232472  0.39361364  0.66330078  1
  S2-  S132  1  0.11961617  0.62112675  0.13984253  1
  S2-  S133  1  -0.04756773  0.68515286  0.67948980  1
  S2-  S134  1  0.02102331  0.86921801  0.15622815  1
  S2-  S135  1  0.03324389  0.90270003  0.65031522  1
  S2-  S136  1  0.29984422  0.12051848  0.14787699  1
  S2-  S137  1  0.15631241  0.12319665  0.63990614  1
  S2-  S138  1  0.27355423  0.38171163  0.15683693  1
  S2-  S139  1  0.24038134  0.39814009  0.64996437  1
  S2-  S140  1  0.35403514  0.62756259  0.14556599  1
  S2-  S141  1  0.13699022  0.61128140  0.65343858  1
  S2-  S142  1  0.28937325  0.85887597  0.15676914  1
  S2-  S143  1  0.24195319  0.79151460  0.64086040  1
  S2-  S144  1  0.52374045  0.07230877  0.17382045  1
  S2-  S145  1  0.58385222  0.12350894  0.64506589  1
  S2-  S146  1  0.50103898  0.27115861  0.14760860  1
  S2-  S147  1  0.50298936  0.40388314  0.65516237  1
  S2-  S148  1  0.54517738  0.65791587  0.17291361  1
  S2-  S149  1  0.38659248  0.62423956  0.64144907  1
  S2-  S150  1  0.51205655  0.87159870  0.16240517  1
  S2-  S151  1  0.51409483  0.85978870  0.64213836  1
  S2-  S152  1  0.74954036  0.07492393  0.16527153  1
  S2-  S153  1  0.76713818  0.07819511  0.68770359  1
  S2-  S154  1  0.74677628  0.27458618  0.13850197  1
  S2-  S155  1  0.73677302  0.28884870  0.65429763  1
  S2-  S156  1  0.75430587  0.65687040  0.16024114  1
  S2-  S157  1  0.74503708  0.52313569  0.64579442  1
  S2-  S158  1  0.77735786  0.86813715  0.16788093  1
  S2-  S159  1  0.77312717  0.86573715  0.66511747  1
  S2-  S160  1  0.22522174  -0.01741611  0.34718042  1
  S2-  S161  1  0.09681772  0.00981871  0.83587742  1
  S2-  S162  1  0.09054338  0.14699171  0.36174058  1
  S2-  S163  1  0.06471252  0.26412560  0.83638299  1
  S2-  S164  1  0.13612587  0.51911424  0.34840323  1
  S2-  S165  1  0.10677490  0.57382452  0.85078194  1
  S2-  S166  1  0.21485287  0.73812883  0.35518291  1
  S2-  S167  1  0.03793439  0.77529715  0.83323423  1
  S2-  S168  1  0.42609393  0.00039220  0.30014277  1
  S2-  S169  1  0.38803152  -0.01313439  0.84116753  1
  S2-  S170  1  0.37676027  0.17247109  0.34831166  1
  S2-  S171  1  0.50601739  0.23713208  0.86195752  1
  S2-  S172  1  0.38205252  0.60225758  0.35255060  1
  S2-  S173  1  0.36160708  0.57486266  0.85253283  1
  S2-  S174  1  0.40657821  0.79794252  0.31228151  1
  S2-  S175  1  0.25489383  0.76486431  0.85460588  1
  S2-  S176  1  0.64437077  0.01128862  0.33447087  1
  S2-  S177  1  0.67966608  0.01720840  0.85163307  1
  S2-  S178  1  0.64291297  0.23534434  0.34010750  1
  S2-  S179  1  0.71972826  0.25844205  0.85186816  1
  S2-  S180  1  0.63707232  0.49226642  0.34600353  1
  S2-  S181  1  0.62363609  0.48842017  0.85673818  1
  S2-  S182  1  0.61709406  0.73722593  0.34032703  1
  S2-  S183  1  0.66197683  0.78884460  0.84763978  1
  S2-  S184  1  0.86167755  0.00539502  0.34637875  1
  S2-  S185  1  0.85630573  -0.11912885  0.84958783  1
  S2-  S186  1  0.86387286  0.23197091  0.35279626  1
  S2-  S187  1  0.88493912  0.12282242  0.84300573  1
  S2-  S188  1  0.88013169  0.50816198  0.35253303  1
  S2-  S189  1  0.88418363  0.40412745  0.84881820  1
  S2-  S190  1  0.84252132  0.76842272  0.34675871  1
  S2-  S191  1  0.86741000  0.63742499  0.85383799  1
  S2-  S192  1  -0.00626507  0.13688931  0.46739542  1
  S2-  S193  1  -0.00250586  0.13197629  0.94920669  1
  S2-  S194  1  -0.00388140  0.38679493  0.45684661  1
  S2-  S195  1  0.00208235  0.38202947  0.94707291  1
  S2-  S196  1  -0.00404949  0.63514755  0.45780443  1
  S2-  S197  1  -0.00480436  0.62914243  0.95673369  1
  S2-  S198  1  -0.00369300  0.88699923  0.44838559  1
  S2-  S199  1  -0.00624036  0.87995655  0.94909586  1
  S2-  S200  1  0.24771243  0.13659569  0.45304689  1
  S2-  S201  1  0.24847624  0.13045115  0.94560075  1
  S2-  S202  1  0.24366079  0.38688316  0.44562821  1
  S2-  S203  1  0.24596663  0.37941592  0.94850546  1
  S2-  S204  1  0.24338005  0.63084492  0.46148524  1
  S2-  S205  1  0.24663909  0.62426481  0.95873996  1
  S2-  S206  1  0.24653515  0.88316386  0.45096762  1
  S2-  S207  1  0.24695080  0.88078200  0.95369847  1
  S2-  S208  1  0.49899190  0.13721764  0.45039358  1
  S2-  S209  1  0.49855950  0.12615997  0.96251025  1
  S2-  S210  1  0.49851739  0.38847138  0.44883629  1
  S2-  S211  1  0.49689520  0.37919384  0.96178733  1
  S2-  S212  1  0.50033493  0.63474443  0.45492220  1
  S2-  S213  1  0.49706621  0.62715404  0.96347283  1
  S2-  S214  1  0.49397548  0.88698083  0.43871498  1
  S2-  S215  1  0.49785616  0.87727129  0.95259372  1
  S2-  S216  1  0.74504767  0.13826165  0.45995583  1
  S2-  S217  1  0.74586918  0.13146275  0.95862482  1
  S2-  S218  1  0.74723576  0.38940186  0.45995300  1
  S2-  S219  1  0.74904188  0.38375737  0.95569560  1
  S2-  S220  1  0.74680745  0.63492548  0.45832074  1
  S2-  S221  1  0.74815527  0.63003386  0.95455855  1
  S2-  S222  1  0.74666330  0.88537257  0.45653994  1
  S2-  S223  1  0.74844901  0.87823747  0.95981630  1
  S2-  S224  1  0.12549919  0.00651513  0.04391752  1
  S2-  S225  1  0.12401457  0.00728877  0.53757275  1
  S2-  S226  1  0.12372942  0.25107778  0.03931610  1
  S2-  S227  1  0.12662576  0.26270002  0.54555695  1
  S2-  S228  1  0.12080312  0.49865878  0.04354419  1
  S2-  S229  1  0.12220440  0.50852884  0.54977104  1
  S2-  S230  1  0.12079812  0.75760332  0.03970286  1
  S2-  S231  1  0.11671426  0.76375788  0.54287562  1
  S2-  S232  1  0.37233773  0.00477631  0.04816411  1
  S2-  S233  1  0.37173829  0.01148677  0.53415404  1
  S2-  S234  1  0.36998641  0.25308080  0.03966426  1
  S2-  S235  1  0.36938089  0.26324408  0.54171888  1
  S2-  S236  1  0.37202722  0.50050770  0.04830623  1
  S2-  S237  1  0.37129807  0.50842383  0.54185181  1
  S2-  S238  1  0.37279036  0.75621745  0.04067732  1
  S2-  S239  1  0.37543880  0.76466586  0.53407776  1
  S2-  S240  1  0.62168179  0.00753875  0.05363968  1
  S2-  S241  1  0.62215622  0.00789014  0.54427398  1
  S2-  S242  1  0.61968276  0.25597134  0.04218211  1
  S2-  S243  1  0.62003525  0.26461634  0.54566448  1
  S2-  S244  1  0.62083086  0.50334309  0.06325065  1
  S2-  S245  1  0.61580291  0.51494678  0.54823927  1
  S2-  S246  1  0.62322491  0.75416073  0.05256710  1
  S2-  S247  1  0.62147980  0.76195453  0.54600336  1
  S2-  S248  1  0.87053204  0.00910140  0.04306990  1
  S2-  S249  1  0.87003103  0.01242962  0.55609004  1
  S2-  S250  1  0.87589640  0.25677866  0.03769583  1
  S2-  S251  1  0.87366628  0.25938605  0.55739896  1
  S2-  S252  1  0.87717359  0.50582861  0.04034255  1
  S2-  S253  1  0.88064177  0.51464925  0.55435630  1
  S2-  S254  1  0.87378598  0.75478893  0.04641872  1
  S2-  S255  1  0.87407370  0.76226703  0.55196842  1
