# generated using pymatgen
data_La6Ce6Pr19Nd20Sm13(BiS2)64
_symmetry_space_group_name_H-M   'P 1'
_cell_length_a   16.10395307
_cell_length_b   16.11543435
_cell_length_c   27.30201226
_cell_angle_alpha   89.96997564
_cell_angle_beta   89.82803287
_cell_angle_gamma   90.15193413
_symmetry_Int_Tables_number   1
_chemical_formula_structural   La6Ce6Pr19Nd20Sm13(BiS2)64
_chemical_formula_sum   'La6 Ce6 Pr19 Nd20 Sm13 Bi64 S128'
_cell_volume   7085.42041446
_cell_formula_units_Z   1
loop_
 _symmetry_equiv_pos_site_id
 _symmetry_equiv_pos_as_xyz
  1  'x, y, z'
loop_
 _atom_type_symbol
 _atom_type_oxidation_number
  La3+  3.0
  Ce3+  3.0
  Pr3+  3.0
  Nd3+  3.0
  Sm3+  3.0
  Bi2+  2.0
  S2-  -2.0
loop_
 _atom_site_type_symbol
 _atom_site_label
 _atom_site_symmetry_multiplicity
 _atom_site_fract_x
 _atom_site_fract_y
 _atom_site_fract_z
 _atom_site_occupancy
  La3+  La0  1  0.11806744  0.49873179  0.88855449  1
  La3+  La1  1  -0.00268533  0.63676184  0.56139601  1
  La3+  La2  1  0.26030305  0.38924034  0.58356240  1
  La3+  La3  1  0.74687118  0.13318903  0.58005528  1
  La3+  La4  1  0.01313528  0.38794690  0.11183773  1
  La3+  La5  1  0.87370403  0.76842841  0.40738781  1
  Ce3+  Ce6  1  0.50030278  0.88374385  0.55879492  1
  Ce3+  Ce7  1  0.88192266  0.00069674  0.94695144  1
  Ce3+  Ce8  1  0.50148998  0.13660810  0.55890978  1
  Ce3+  Ce9  1  0.50225228  0.62450759  0.05827922  1
  Ce3+  Ce10  1  0.25088403  0.88453792  0.55507958  1
  Ce3+  Ce11  1  0.00928054  0.12766142  0.06750154  1
  Pr3+  Pr12  1  0.62972647  0.74457035  0.94085869  1
  Pr3+  Pr13  1  0.37471069  0.76012254  0.42868037  1
  Pr3+  Pr14  1  0.25490801  0.11987012  0.06221036  1
  Pr3+  Pr15  1  0.87821318  0.74762859  0.93478213  1
  Pr3+  Pr16  1  0.38202586  0.24735550  0.93706126  1
  Pr3+  Pr17  1  0.38047396  0.74763033  0.93808367  1
  Pr3+  Pr18  1  0.87158300  0.26476474  0.43086773  1
  Pr3+  Pr19  1  0.37509581  0.51247454  0.43647073  1
  Pr3+  Pr20  1  0.75759498  0.12404190  0.06688268  1
  Pr3+  Pr21  1  0.75272847  0.38580660  0.56984496  1
  Pr3+  Pr22  1  -0.00075340  0.38593500  0.55820149  1
  Pr3+  Pr23  1  0.64482311  0.00089219  0.91727726  1
  Pr3+  Pr24  1  0.87959303  0.51258080  0.42649101  1
  Pr3+  Pr25  1  0.25256750  0.13740695  0.56156519  1
  Pr3+  Pr26  1  0.38297362  -0.00111228  0.93510981  1
  Pr3+  Pr27  1  0.13026324  0.51122756  0.43669519  1
  Pr3+  Pr28  1  0.12657580  0.01240003  0.44002353  1
  Pr3+  Pr29  1  0.75957178  0.62382590  0.06591442  1
  Pr3+  Pr30  1  0.63509422  0.25174432  0.94193417  1
  Nd3+  Nd31  1  0.50326841  0.37322352  0.05563073  1
  Nd3+  Nd32  1  0.50780852  0.12272310  0.05291258  1
  Nd3+  Nd33  1  -0.00231589  0.13703890  0.55544942  1
  Nd3+  Nd34  1  0.12754868  0.74867122  0.93280061  1
  Nd3+  Nd35  1  0.37786658  0.26476345  0.43807593  1
  Nd3+  Nd36  1  0.88909562  0.49946886  0.95033207  1
  Nd3+  Nd37  1  0.88724934  0.25426044  0.94753111  1
  Nd3+  Nd38  1  0.25173605  0.36737668  0.07104522  1
  Nd3+  Nd39  1  0.25167002  0.62169550  0.05707749  1
  Nd3+  Nd40  1  0.24587302  0.64151206  0.56997680  1
  Nd3+  Nd41  1  0.13027686  0.00188029  0.93106720  1
  Nd3+  Nd42  1  0.13053115  0.26329165  0.44597823  1
  Nd3+  Nd43  1  0.00955027  0.87393593  0.06289952  1
  Nd3+  Nd44  1  0.12673527  0.75981192  0.42980306  1
  Nd3+  Nd45  1  -0.00235312  0.88698887  0.55437145  1
  Nd3+  Nd46  1  0.87116620  0.02062383  0.43046489  1
  Nd3+  Nd47  1  0.75901998  0.37468287  0.06530927  1
  Nd3+  Nd48  1  0.75668423  0.87282770  0.06200007  1
  Nd3+  Nd49  1  0.62768161  0.26387409  0.44428695  1
  Nd3+  Nd50  1  0.13240836  0.25054599  0.93850114  1
  Sm3+  Sm51  1  0.50295798  0.39058771  0.56073275  1
  Sm3+  Sm52  1  0.49956332  0.63853706  0.55723541  1
  Sm3+  Sm53  1  0.62846987  0.01126202  0.44240521  1
  Sm3+  Sm54  1  0.25624079  0.87425672  0.05280773  1
  Sm3+  Sm55  1  0.75283933  0.88673957  0.56627924  1
  Sm3+  Sm56  1  0.63100871  0.76320551  0.44497041  1
  Sm3+  Sm57  1  0.63177125  0.51562266  0.44940096  1
  Sm3+  Sm58  1  0.63217577  0.49898455  0.94953774  1
  Sm3+  Sm59  1  0.36990143  0.49529053  0.94029893  1
  Sm3+  Sm60  1  0.01151352  0.62904041  0.06578005  1
  Sm3+  Sm61  1  0.75773649  0.64335661  0.56862925  1
  Sm3+  Sm62  1  0.37835472  0.01126998  0.44483419  1
  Sm3+  Sm63  1  0.50645743  0.87503858  0.05208978  1
  Bi2+  Bi64  1  -0.02178559  0.09466817  0.28631103  1
  Bi2+  Bi65  1  0.01831434  0.09565350  0.78163346  1
  Bi2+  Bi66  1  -0.00321566  0.35570803  0.30792697  1
  Bi2+  Bi67  1  -0.01893609  0.37227264  0.79344663  1
  Bi2+  Bi68  1  0.00160593  0.63530072  0.28489445  1
  Bi2+  Bi69  1  -0.00840934  0.63981852  0.79096377  1
  Bi2+  Bi70  1  0.04749543  0.89360598  0.27328062  1
  Bi2+  Bi71  1  0.02065741  0.89844632  0.78946160  1
  Bi2+  Bi72  1  0.25902440  0.08869838  0.29178772  1
  Bi2+  Bi73  1  0.26658555  0.12537819  0.79920830  1
  Bi2+  Bi74  1  0.25121652  0.35291265  0.29917938  1
  Bi2+  Bi75  1  0.25229111  0.37155547  0.78534504  1
  Bi2+  Bi76  1  0.28038459  0.60742927  0.28500248  1
  Bi2+  Bi77  1  0.26942813  0.73525324  0.78945923  1
  Bi2+  Bi78  1  0.30704999  0.86216933  0.28842214  1
  Bi2+  Bi79  1  0.20958283  0.91968769  0.81475511  1
  Bi2+  Bi80  1  0.51688516  0.08428757  0.25322199  1
  Bi2+  Bi81  1  0.50212772  0.14320483  0.79586281  1
  Bi2+  Bi82  1  0.45197633  0.36672588  0.30738396  1
  Bi2+  Bi83  1  0.45856889  0.40568385  0.74337311  1
  Bi2+  Bi84  1  0.45546745  0.62343169  0.33200459  1
  Bi2+  Bi85  1  0.50473005  0.57567399  0.79745069  1
  Bi2+  Bi86  1  0.49943340  0.80471267  0.30312263  1
  Bi2+  Bi87  1  0.55162400  0.76990761  0.77652709  1
  Bi2+  Bi88  1  0.72124513  0.12720988  0.29109895  1
  Bi2+  Bi89  1  0.74924093  0.12867458  0.81057948  1
  Bi2+  Bi90  1  0.71560593  0.37635884  0.28871980  1
  Bi2+  Bi91  1  0.71416442  0.38655814  0.79164901  1
  Bi2+  Bi92  1  0.72546587  0.63812576  0.28945015  1
  Bi2+  Bi93  1  0.75302312  0.62542338  0.79575654  1
  Bi2+  Bi94  1  0.76179724  0.88376307  0.28581597  1
  Bi2+  Bi95  1  0.74359958  0.80694903  0.74860785  1
  Bi2+  Bi96  1  0.07045824  -0.00768196  0.17095248  1
  Bi2+  Bi97  1  0.18334101  0.02850314  0.71278736  1
  Bi2+  Bi98  1  0.12340018  0.16171577  0.21933445  1
  Bi2+  Bi99  1  0.06475327  0.24844782  0.70678238  1
  Bi2+  Bi100  1  0.14293940  0.53254869  0.21477349  1
  Bi2+  Bi101  1  0.10740587  0.49193386  0.68073452  1
  Bi2+  Bi102  1  0.14477713  0.78792075  0.19849342  1
  Bi2+  Bi103  1  0.11970339  0.76877669  0.71425805  1
  Bi2+  Bi104  1  0.35660263  -0.00386007  0.20747608  1
  Bi2+  Bi105  1  0.37251535  -0.02093006  0.73621714  1
  Bi2+  Bi106  1  0.38239765  0.25199739  0.20017215  1
  Bi2+  Bi107  1  0.42369819  0.22152308  0.70314849  1
  Bi2+  Bi108  1  0.36362487  0.45353316  0.21790363  1
  Bi2+  Bi109  1  0.34861718  0.58449180  0.72986089  1
  Bi2+  Bi110  1  0.39514863  0.75010842  0.20602316  1
  Bi2+  Bi111  1  0.38837753  0.80177813  0.69151084  1
  Bi2+  Bi112  1  0.59559542  -0.08714560  0.21924168  1
  Bi2+  Bi113  1  0.62296995  -0.00512630  0.70954698  1
  Bi2+  Bi114  1  0.57675407  0.26104977  0.21574343  1
  Bi2+  Bi115  1  0.63433532  0.24875927  0.71161950  1
  Bi2+  Bi116  1  0.56654420  0.51880088  0.25930252  1
  Bi2+  Bi117  1  0.62720225  0.43711787  0.67764237  1
  Bi2+  Bi118  1  0.60551218  0.70452896  0.20782355  1
  Bi2+  Bi119  1  0.61822555  0.63134723  0.70202726  1
  Bi2+  Bi120  1  0.88087488  -0.00913551  0.20577857  1
  Bi2+  Bi121  1  0.89512710  0.00006968  0.71123253  1
  Bi2+  Bi122  1  0.84539746  0.25488168  0.20271159  1
  Bi2+  Bi123  1  0.84176778  0.25387918  0.74144780  1
  Bi2+  Bi124  1  0.85939795  0.52205419  0.21130098  1
  Bi2+  Bi125  1  0.80719373  0.49985849  0.71533218  1
  Bi2+  Bi126  1  0.87800682  0.79117393  0.20682953  1
  Bi2+  Bi127  1  0.89513617  0.74146733  0.69343834  1
  S2-  S128  1  -0.00247490  0.21944971  0.15148348  1
  S2-  S129  1  -0.02797169  0.12622542  0.65288923  1
  S2-  S130  1  -0.03613565  0.38705312  0.21705474  1
  S2-  S131  1  -0.01941397  0.37950803  0.65869806  1
  S2-  S132  1  -0.00275701  0.55292976  0.15595832  1
  S2-  S133  1  0.10750738  0.65563149  0.64270503  1
  S2-  S134  1  0.00292133  0.76030703  0.13940950  1
  S2-  S135  1  -0.01948394  0.88430764  0.65463627  1
  S2-  S136  1  0.25241452  0.20894776  0.14845284  1
  S2-  S137  1  0.29903140  0.12969342  0.65821476  1
  S2-  S138  1  0.17157341  0.40418342  0.15917278  1
  S2-  S139  1  0.19671832  0.33813578  0.68080390  1
  S2-  S140  1  0.21906185  0.65917324  0.15344942  1
  S2-  S141  1  0.26706739  0.53155432  0.64768212  1
  S2-  S142  1  0.23717571  0.92346339  0.14635937  1
  S2-  S143  1  0.23414744  0.84039985  0.64870965  1
  S2-  S144  1  0.50119515  0.13546884  0.15104439  1
  S2-  S145  1  0.58178994  0.12213021  0.64552642  1
  S2-  S146  1  0.49457516  0.37832164  0.15428172  1
  S2-  S147  1  0.41252361  0.36624093  0.64301593  1
  S2-  S148  1  0.47733804  0.62907330  0.15444681  1
  S2-  S149  1  0.45635549  0.65181514  0.65205778  1
  S2-  S150  1  0.46817560  0.88461731  0.14764416  1
  S2-  S151  1  0.53616968  0.89016289  0.65571126  1
  S2-  S152  1  0.74025796  0.15306490  0.16577110  1
  S2-  S153  1  0.76076639  -0.00316359  0.64715784  1
  S2-  S154  1  0.76463576  0.39767892  0.16389606  1
  S2-  S155  1  0.77153233  0.26526408  0.64535976  1
  S2-  S156  1  0.77856973  0.65818553  0.16336399  1
  S2-  S157  1  0.87868096  0.60052268  0.63999013  1
  S2-  S158  1  0.74340135  0.90986786  0.15785291  1
  S2-  S159  1  0.75012337  0.77029767  0.64222083  1
  S2-  S160  1  0.12219249  0.01476536  0.33946385  1
  S2-  S161  1  0.12291528  0.12700834  0.86139038  1
  S2-  S162  1  0.13146361  0.26333378  0.34664754  1
  S2-  S163  1  0.12405385  0.33457255  0.84734897  1
  S2-  S164  1  0.03820156  0.50911753  0.34711201  1
  S2-  S165  1  0.10213664  0.49856068  0.77597924  1
  S2-  S166  1  0.02687199  0.76258727  0.34596434  1
  S2-  S167  1  0.13277090  0.66253584  0.84745613  1
  S2-  S168  1  0.37099358  -0.00018778  0.34764266  1
  S2-  S169  1  0.40458485  0.01391135  0.83593770  1
  S2-  S170  1  0.36317152  0.22978085  0.34062590  1
  S2-  S171  1  0.35442385  0.25867013  0.83781117  1
  S2-  S172  1  0.25510395  0.49117390  0.36233783  1
  S2-  S173  1  0.28892743  0.48215228  0.85313401  1
  S2-  S174  1  0.24971577  0.74340486  0.35574455  1
  S2-  S175  1  0.42456945  0.75984770  0.84177243  1
  S2-  S176  1  0.65478686  0.01186044  0.34489995  1
  S2-  S177  1  0.61284972  0.01450804  0.81575574  1
  S2-  S178  1  0.64822948  0.25995493  0.34488802  1
  S2-  S179  1  0.62073075  0.24735276  0.84226779  1
  S2-  S180  1  0.66106332  0.50362114  0.35286194  1
  S2-  S181  1  0.64498108  0.51148931  0.85228109  1
  S2-  S182  1  0.70851514  0.76548190  0.35720349  1
  S2-  S183  1  0.70284945  0.76677232  0.85155208  1
  S2-  S184  1  0.87668323  -0.08096884  0.35045451  1
  S2-  S185  1  0.79998370  -0.00131220  0.86156711  1
  S2-  S186  1  0.86009272  0.14578322  0.35271826  1
  S2-  S187  1  0.87685241  0.24521098  0.84788488  1
  S2-  S188  1  0.85321787  0.38384998  0.35404482  1
  S2-  S189  1  0.93901537  0.50481068  0.85448919  1
  S2-  S190  1  0.86300595  0.62356981  0.34654390  1
  S2-  S191  1  0.93958886  0.76767226  0.84121688  1
  S2-  S192  1  0.00375955  0.13940225  0.44996570  1
  S2-  S193  1  0.00350744  0.12422595  0.96028781  1
  S2-  S194  1  0.00384153  0.38326180  0.45270865  1
  S2-  S195  1  0.01055024  0.37716718  0.95124252  1
  S2-  S196  1  0.00298099  0.63741504  0.45356408  1
  S2-  S197  1  0.00724931  0.62749884  0.95838246  1
  S2-  S198  1  0.00079500  0.89073673  0.45015042  1
  S2-  S199  1  0.00667583  0.87569635  0.95308440  1
  S2-  S200  1  0.25592290  0.13613454  0.45366787  1
  S2-  S201  1  0.25985213  0.12137281  0.95521265  1
  S2-  S202  1  0.25540318  0.38237743  0.46493163  1
  S2-  S203  1  0.25950552  0.36810942  0.96236719  1
  S2-  S204  1  0.25272723  0.63680597  0.46178009  1
  S2-  S205  1  0.25557590  0.62420171  0.95193444  1
  S2-  S206  1  0.25348083  0.88944690  0.45018506  1
  S2-  S207  1  0.25582128  0.87409652  0.94813617  1
  S2-  S208  1  0.50242043  0.13559072  0.45024977  1
  S2-  S209  1  0.51320750  0.12124124  0.94682037  1
  S2-  S210  1  0.50437899  0.39128649  0.45447415  1
  S2-  S211  1  0.50480319  0.37811338  0.94845004  1
  S2-  S212  1  0.50570855  0.63881736  0.45346377  1
  S2-  S213  1  0.50266294  0.61788245  0.95155980  1
  S2-  S214  1  0.50269508  0.88598899  0.45057009  1
  S2-  S215  1  0.51309377  0.87769198  0.94666346  1
  S2-  S216  1  0.74515431  0.13760754  0.45952074  1
  S2-  S217  1  0.75789943  0.12798239  0.95965029  1
  S2-  S218  1  0.74682255  0.38827563  0.46181088  1
  S2-  S219  1  0.75833156  0.37833866  0.95753902  1
  S2-  S220  1  0.75044490  0.63929933  0.46177058  1
  S2-  S221  1  0.75674986  0.62082280  0.95845363  1
  S2-  S222  1  0.74974142  0.89012224  0.45907488  1
  S2-  S223  1  0.75493150  0.87268367  0.95756852  1
  S2-  S224  1  0.13146640  -0.00260511  0.03722314  1
  S2-  S225  1  0.12577618  0.01271148  0.54852926  1
  S2-  S226  1  0.13053534  0.24835169  0.04635533  1
  S2-  S227  1  0.12736541  0.26098934  0.55263657  1
  S2-  S228  1  0.12867512  0.50067521  0.05486844  1
  S2-  S229  1  0.12788039  0.50781266  0.54535529  1
  S2-  S230  1  0.13468475  0.75253885  0.03944795  1
  S2-  S231  1  0.12453018  0.76616367  0.53717187  1
  S2-  S232  1  0.38228241  -0.00246707  0.04175797  1
  S2-  S233  1  0.37709050  0.01017909  0.55008949  1
  S2-  S234  1  0.38268433  0.24632000  0.04402837  1
  S2-  S235  1  0.37974888  0.26020754  0.54351891  1
  S2-  S236  1  0.37682677  0.49656342  0.04750205  1
  S2-  S237  1  0.38189792  0.51454566  0.54299569  1
  S2-  S238  1  0.37919936  0.75189131  0.04474943  1
  S2-  S239  1  0.37593248  0.76025584  0.53991421  1
  S2-  S240  1  0.63171978  -0.00219255  0.04596787  1
  S2-  S241  1  0.62393502  0.00751886  0.54492334  1
  S2-  S242  1  0.63137594  0.25107937  0.04933767  1
  S2-  S243  1  0.62224114  0.26539990  0.54875820  1
  S2-  S244  1  0.63027393  0.49897837  0.05453238  1
  S2-  S245  1  0.62730207  0.51761528  0.55304164  1
  S2-  S246  1  0.62986642  0.74941278  0.04907746  1
  S2-  S247  1  0.62456961  0.76024149  0.54744646  1
  S2-  S248  1  0.88278317  -0.00197372  0.05287048  1
  S2-  S249  1  0.87520879  0.01284096  0.53990597  1
  S2-  S250  1  0.88079881  0.25283877  0.05241026  1
  S2-  S251  1  0.87520797  0.25936833  0.54006676  1
  S2-  S252  1  0.88550126  0.49799533  0.05532739  1
  S2-  S253  1  0.87234404  0.50690027  0.53728147  1
  S2-  S254  1  0.88012068  0.75002436  0.04260974  1
  S2-  S255  1  0.87563014  0.76547634  0.54210876  1
