# generated using pymatgen
data_La6Ce6Pr19Nd20Sm13(BiS2)64
_symmetry_space_group_name_H-M   'P 1'
_cell_length_a   16.09370680
_cell_length_b   16.08142261
_cell_length_c   27.29380883
_cell_angle_alpha   90.00112000
_cell_angle_beta   90.12296996
_cell_angle_gamma   90.08623326
_symmetry_Int_Tables_number   1
_chemical_formula_structural   La6Ce6Pr19Nd20Sm13(BiS2)64
_chemical_formula_sum   'La6 Ce6 Pr19 Nd20 Sm13 Bi64 S128'
_cell_volume   7063.87821238
_cell_formula_units_Z   1
loop_
 _symmetry_equiv_pos_site_id
 _symmetry_equiv_pos_as_xyz
  1  'x, y, z'
loop_
 _atom_type_symbol
 _atom_type_oxidation_number
  La3+  3.0
  Ce3+  3.0
  Pr3+  3.0
  Nd3+  3.0
  Sm3+  3.0
  Bi2+  2.0
  S2-  -2.0
loop_
 _atom_site_type_symbol
 _atom_site_label
 _atom_site_symmetry_multiplicity
 _atom_site_fract_x
 _atom_site_fract_y
 _atom_site_fract_z
 _atom_site_occupancy
  La3+  La0  1  0.62987879  -0.01941580  0.92000400  1
  La3+  La1  1  0.87050861  0.50464718  0.43358193  1
  La3+  La2  1  -0.00594921  0.88997793  0.58501789  1
  La3+  La3  1  0.76325679  0.85657772  0.08339927  1
  La3+  La4  1  0.62796843  0.25888496  0.39907808  1
  La3+  La5  1  -0.01047517  0.62696938  0.60847679  1
  Ce3+  Ce6  1  0.87146616  0.25458213  0.44422803  1
  Ce3+  Ce7  1  0.63472085  0.74061386  0.94265028  1
  Ce3+  Ce8  1  0.50684228  0.35884214  0.06397582  1
  Ce3+  Ce9  1  0.25055513  0.64096453  0.57631153  1
  Ce3+  Ce10  1  0.37817547  0.01057286  0.43111935  1
  Ce3+  Ce11  1  0.24661813  0.12685387  0.56068611  1
  Pr3+  Pr12  1  0.87677575  0.23626863  0.92911427  1
  Pr3+  Pr13  1  0.50969730  0.10954009  0.06116273  1
  Pr3+  Pr14  1  0.88087220  0.74546839  0.93225929  1
  Pr3+  Pr15  1  0.38345536  0.48917992  0.93339514  1
  Pr3+  Pr16  1  0.12257435  0.25448716  0.44358971  1
  Pr3+  Pr17  1  0.39000671  0.23897006  0.91933834  1
  Pr3+  Pr18  1  0.11762084  -0.00226343  0.43057082  1
  Pr3+  Pr19  1  0.50790318  0.61162026  0.06395811  1
  Pr3+  Pr20  1  0.38183109  -0.01897391  0.92177292  1
  Pr3+  Pr21  1  0.74773660  0.13206716  0.55754755  1
  Pr3+  Pr22  1  0.38041067  0.73417302  0.93133357  1
  Pr3+  Pr23  1  0.13047283  0.72882334  0.92474820  1
  Pr3+  Pr24  1  0.00767555  0.11644563  0.05947501  1
  Pr3+  Pr25  1  0.49850841  0.63224489  0.57522745  1
  Pr3+  Pr26  1  0.49641682  0.37822550  0.57013339  1
  Pr3+  Pr27  1  0.86918898  0.75680162  0.44278477  1
  Pr3+  Pr28  1  0.61164404  0.75673652  0.43236813  1
  Pr3+  Pr29  1  0.01132113  0.86886377  0.06871455  1
  Pr3+  Pr30  1  0.50723635  0.86074568  0.06129183  1
  Nd3+  Nd31  1  0.26018217  0.11427056  0.04945338  1
  Nd3+  Nd32  1  0.37306813  0.76111827  0.45029125  1
  Nd3+  Nd33  1  0.63149703  0.48766203  0.95100759  1
  Nd3+  Nd34  1  0.13007125  0.47879201  0.92927026  1
  Nd3+  Nd35  1  0.61217223  0.50320113  0.43632493  1
  Nd3+  Nd36  1  0.49814718  0.13679455  0.56318351  1
  Nd3+  Nd37  1  0.12402290  0.51214329  0.44257265  1
  Nd3+  Nd38  1  0.25360490  0.61096321  0.06051498  1
  Nd3+  Nd39  1  0.11968441  0.75973698  0.45468846  1
  Nd3+  Nd40  1  -0.00165606  0.38607715  0.56342450  1
  Nd3+  Nd41  1  0.74790280  0.88028298  0.56431606  1
  Nd3+  Nd42  1  0.24833065  0.89059582  0.57230927  1
  Nd3+  Nd43  1  0.74783525  0.63045674  0.55461140  1
  Nd3+  Nd44  1  0.63166803  0.23753547  0.93336516  1
  Nd3+  Nd45  1  0.12925586  -0.01390762  0.93736596  1
  Nd3+  Nd46  1  0.86772704  -0.00330660  0.42579701  1
  Nd3+  Nd47  1  0.37525949  0.25222179  0.43485355  1
  Nd3+  Nd48  1  0.24545435  0.38625789  0.55452516  1
  Nd3+  Nd49  1  0.87484028  0.49437809  0.92843285  1
  Nd3+  Nd50  1  0.37420121  0.50928878  0.44139300  1
  Sm3+  Sm51  1  0.62253188  0.00902023  0.43499756  1
  Sm3+  Sm52  1  0.25649476  0.86062069  0.05220272  1
  Sm3+  Sm53  1  0.75627058  0.10994665  0.05778459  1
  Sm3+  Sm54  1  0.00579386  0.35951924  0.05481817  1
  Sm3+  Sm55  1  0.74786404  0.38263211  0.55729563  1
  Sm3+  Sm56  1  0.13284282  0.23561270  0.92786397  1
  Sm3+  Sm57  1  0.00832938  0.61162622  0.04962453  1
  Sm3+  Sm58  1  0.75860264  0.36027007  0.05954853  1
  Sm3+  Sm59  1  0.50343557  0.89142690  0.56822708  1
  Sm3+  Sm60  1  0.76644495  0.61197548  0.06220805  1
  Sm3+  Sm61  1  0.87476061  -0.01443409  0.93415873  1
  Sm3+  Sm62  1  -0.00369583  0.12992487  0.55605578  1
  Sm3+  Sm63  1  0.25758531  0.36017598  0.05148401  1
  Bi2+  Bi64  1  -0.00149447  0.15263782  0.28274843  1
  Bi2+  Bi65  1  -0.02532327  0.13272154  0.79161310  1
  Bi2+  Bi66  1  0.02367158  0.38350541  0.22992833  1
  Bi2+  Bi67  1  -0.00781854  0.32675587  0.79427050  1
  Bi2+  Bi68  1  0.05060480  0.66674150  0.27683409  1
  Bi2+  Bi69  1  -0.00702814  0.62236396  0.80422002  1
  Bi2+  Bi70  1  0.00649471  0.88899762  0.29527707  1
  Bi2+  Bi71  1  0.00084505  0.88811573  0.77892304  1
  Bi2+  Bi72  1  0.20189652  0.08509880  0.30240655  1
  Bi2+  Bi73  1  0.25944297  0.15863718  0.81540793  1
  Bi2+  Bi74  1  0.20663770  0.36901770  0.30199879  1
  Bi2+  Bi75  1  0.25818257  0.34867815  0.78262432  1
  Bi2+  Bi76  1  0.22556535  0.61145725  0.32189395  1
  Bi2+  Bi77  1  0.26935856  0.55378263  0.78127016  1
  Bi2+  Bi78  1  0.27527001  0.88351062  0.31328537  1
  Bi2+  Bi79  1  0.25176996  0.96558640  0.79778021  1
  Bi2+  Bi80  1  0.47250654  0.13067059  0.29975470  1
  Bi2+  Bi81  1  0.52581813  0.13358064  0.77325582  1
  Bi2+  Bi82  1  0.52037386  0.41066996  0.28733243  1
  Bi2+  Bi83  1  0.51033077  0.41273937  0.78861011  1
  Bi2+  Bi84  1  0.50091446  0.65603307  0.29427031  1
  Bi2+  Bi85  1  0.51532511  0.63630143  0.79179338  1
  Bi2+  Bi86  1  0.45170233  0.86826177  0.26503167  1
  Bi2+  Bi87  1  0.50036673  0.86382585  0.79460075  1
  Bi2+  Bi88  1  0.78167316  0.12100428  0.28179976  1
  Bi2+  Bi89  1  0.77240271  0.15197219  0.77659956  1
  Bi2+  Bi90  1  0.78437152  0.38571019  0.28609626  1
  Bi2+  Bi91  1  0.74151344  0.37749815  0.78334836  1
  Bi2+  Bi92  1  0.76897993  0.62573392  0.28130356  1
  Bi2+  Bi93  1  0.71609508  0.59978506  0.78506390  1
  Bi2+  Bi94  1  0.75157954  0.87561322  0.28922740  1
  Bi2+  Bi95  1  0.75385123  0.89634195  0.79061680  1
  Bi2+  Bi96  1  0.13801045  -0.03767117  0.21598114  1
  Bi2+  Bi97  1  0.12786065  0.08221775  0.71336099  1
  Bi2+  Bi98  1  0.16466884  0.22880238  0.19143381  1
  Bi2+  Bi99  1  0.09401568  0.26830500  0.69790180  1
  Bi2+  Bi100  1  0.11714466  0.54169697  0.19435082  1
  Bi2+  Bi101  1  0.13197662  0.47496789  0.71271693  1
  Bi2+  Bi102  1  0.11208669  0.76945557  0.18552443  1
  Bi2+  Bi103  1  0.15980385  0.75181641  0.72171398  1
  Bi2+  Bi104  1  0.33676597  0.01635748  0.22804595  1
  Bi2+  Bi105  1  0.37233878  -0.00038227  0.71345762  1
  Bi2+  Bi106  1  0.33945888  0.29670572  0.23088237  1
  Bi2+  Bi107  1  0.36649581  0.20000706  0.72074889  1
  Bi2+  Bi108  1  0.34573720  0.48964479  0.26313221  1
  Bi2+  Bi109  1  0.39634198  0.46404699  0.69828789  1
  Bi2+  Bi110  1  0.28870179  0.73427642  0.23415341  1
  Bi2+  Bi111  1  0.41542242  0.74824572  0.71427619  1
  Bi2+  Bi112  1  0.59538777  0.01416830  0.19657575  1
  Bi2+  Bi113  1  0.61883031  -0.00039385  0.70829528  1
  Bi2+  Bi114  1  0.61727070  0.25364689  0.19398544  1
  Bi2+  Bi115  1  0.60890032  0.32978683  0.70169137  1
  Bi2+  Bi116  1  0.61758262  0.55579028  0.22133708  1
  Bi2+  Bi117  1  0.58224647  0.53182949  0.68662365  1
  Bi2+  Bi118  1  0.60801351  0.75417735  0.19616431  1
  Bi2+  Bi119  1  0.61255873  0.73052738  0.70170283  1
  Bi2+  Bi120  1  0.91271620  0.01719813  0.21660932  1
  Bi2+  Bi121  1  0.86376550  0.01557657  0.70308319  1
  Bi2+  Bi122  1  0.88681852  0.24411849  0.20346215  1
  Bi2+  Bi123  1  0.89708306  0.24701850  0.70253069  1
  Bi2+  Bi124  1  0.86228225  0.48411320  0.20036177  1
  Bi2+  Bi125  1  0.84475020  0.48748890  0.71318106  1
  Bi2+  Bi126  1  0.89176189  0.72442401  0.20957716  1
  Bi2+  Bi127  1  0.82420363  0.74463789  0.71931656  1
  S2-  S128  1  0.02677625  0.01372953  0.14205042  1
  S2-  S129  1  -0.00213765  0.05169757  0.64304006  1
  S2-  S130  1  0.01297602  0.24824138  0.13049731  1
  S2-  S131  1  -0.01466822  0.46598293  0.65249064  1
  S2-  S132  1  -0.03781560  0.59200511  0.14367202  1
  S2-  S133  1  -0.02224080  0.68758897  0.71002535  1
  S2-  S134  1  -0.09525281  0.84917371  0.14771101  1
  S2-  S135  1  0.07500108  0.86846397  0.68189173  1
  S2-  S136  1  0.26232589  0.11489448  0.14863296  1
  S2-  S137  1  0.24401900  0.02631329  0.64137601  1
  S2-  S138  1  0.25570031  0.35808419  0.14993845  1
  S2-  S139  1  0.25419813  0.39082156  0.65323680  1
  S2-  S140  1  0.26049257  0.60242717  0.15954216  1
  S2-  S141  1  0.15075560  0.61694686  0.65645229  1
  S2-  S142  1  0.25593500  0.84614381  0.14981733  1
  S2-  S143  1  0.27279492  0.80224119  0.65995989  1
  S2-  S144  1  0.49995970  0.15470223  0.15961913  1
  S2-  S145  1  0.48861441  0.02098960  0.63990268  1
  S2-  S146  1  0.52270962  0.37434162  0.16060259  1
  S2-  S147  1  0.48301038  0.25469498  0.64454863  1
  S2-  S148  1  0.49761635  0.64169459  0.16260709  1
  S2-  S149  1  0.37482353  0.61624140  0.64774655  1
  S2-  S150  1  0.49180420  0.88641987  0.16074220  1
  S2-  S151  1  0.62930774  0.87117734  0.64016309  1
  S2-  S152  1  0.71242457  0.11959566  0.15366050  1
  S2-  S153  1  0.72465656  0.10052423  0.65699834  1
  S2-  S154  1  0.76087618  0.35318656  0.15807365  1
  S2-  S155  1  0.77057414  0.36000798  0.65452866  1
  S2-  S156  1  0.75120503  0.70141002  0.14521155  1
  S2-  S157  1  0.81372405  0.61645519  0.64688928  1
  S2-  S158  1  0.70781165  0.90448242  0.18290916  1
  S2-  S159  1  0.85099697  0.87301703  0.64783911  1
  S2-  S160  1  -0.00726917  0.02623706  0.35596651  1
  S2-  S161  1  0.09152039  -0.01005720  0.84022938  1
  S2-  S162  1  0.11731382  0.23365644  0.34423889  1
  S2-  S163  1  0.13229712  0.35322886  0.85655151  1
  S2-  S164  1  0.10409869  0.48740492  0.34501267  1
  S2-  S165  1  0.14628189  0.58805813  0.85121831  1
  S2-  S166  1  0.12673583  0.85048671  0.36766763  1
  S2-  S167  1  0.07997457  0.77493230  0.82924296  1
  S2-  S168  1  0.33802423  0.13129951  0.35866495  1
  S2-  S169  1  0.50405173  0.00843031  0.84779233  1
  S2-  S170  1  0.47111614  0.28669627  0.35136114  1
  S2-  S171  1  0.38213046  0.37960410  0.85319906  1
  S2-  S172  1  0.48455877  0.52884072  0.36384900  1
  S2-  S173  1  0.38022559  0.61027016  0.85604895  1
  S2-  S174  1  0.46615731  0.76075994  0.36504383  1
  S2-  S175  1  0.35883149  0.84647688  0.85128396  1
  S2-  S176  1  0.50611224  0.00377287  0.35881919  1
  S2-  S177  1  0.75465301  0.02780667  0.85067446  1
  S2-  S178  1  0.63866843  0.19429476  0.29821790  1
  S2-  S179  1  0.52685125  0.22986953  0.85189034  1
  S2-  S180  1  0.65696635  0.41418669  0.35054400  1
  S2-  S181  1  0.64541447  0.47597313  0.85245726  1
  S2-  S182  1  0.68203953  0.75488119  0.33682641  1
  S2-  S183  1  0.64239728  0.82378735  0.85659241  1
  S2-  S184  1  0.73480154  0.00383992  0.35460967  1
  S2-  S185  1  0.88702422  -0.12685419  0.85773786  1
  S2-  S186  1  0.83108722  0.26316152  0.34980326  1
  S2-  S187  1  0.75444414  0.25640280  0.85680308  1
  S2-  S188  1  0.86666201  0.51901332  0.33331712  1
  S2-  S189  1  0.93589254  0.46828519  0.83650810  1
  S2-  S190  1  0.87690014  0.84650888  0.35551746  1
  S2-  S191  1  0.84338255  0.64767301  0.84898231  1
  S2-  S192  1  -0.00480218  0.13175237  0.45451411  1
  S2-  S193  1  0.00466480  0.11368097  0.94791184  1
  S2-  S194  1  -0.00086841  0.38190626  0.45435583  1
  S2-  S195  1  0.00032719  0.35958222  0.95209704  1
  S2-  S196  1  -0.00159418  0.63453103  0.44122388  1
  S2-  S197  1  0.00409785  0.60913669  0.94775281  1
  S2-  S198  1  -0.00713169  0.88008197  0.46646687  1
  S2-  S199  1  0.01000280  0.86416050  0.95865789  1
  S2-  S200  1  0.24132775  0.12697806  0.45797585  1
  S2-  S201  1  0.25883156  0.11206829  0.94357077  1
  S2-  S202  1  0.24932641  0.38286227  0.44814627  1
  S2-  S203  1  0.25978734  0.35733992  0.95032118  1
  S2-  S204  1  0.25005817  0.63524928  0.46313453  1
  S2-  S205  1  0.25372275  0.60837243  0.95613922  1
  S2-  S206  1  0.25172015  0.88488677  0.46396582  1
  S2-  S207  1  0.24965031  0.85849974  0.94945681  1
  S2-  S208  1  0.50772962  0.14110323  0.45500837  1
  S2-  S209  1  0.50550276  0.10798062  0.95513347  1
  S2-  S210  1  0.49477939  0.38065263  0.46202016  1
  S2-  S211  1  0.50916269  0.36284002  0.95774304  1
  S2-  S212  1  0.49504840  0.63223808  0.46872674  1
  S2-  S213  1  0.51039393  0.61433622  0.95702847  1
  S2-  S214  1  0.49916103  0.88585298  0.46431600  1
  S2-  S215  1  0.50344305  0.85932511  0.95562757  1
  S2-  S216  1  0.74303898  0.13756795  0.45065480  1
  S2-  S217  1  0.75404968  0.11106790  0.95576695  1
  S2-  S218  1  0.74398503  0.37841081  0.45490714  1
  S2-  S219  1  0.75807637  0.36654969  0.95630279  1
  S2-  S220  1  0.74110641  0.62869907  0.44781089  1
  S2-  S221  1  0.75503282  0.61394270  0.95882366  1
  S2-  S222  1  0.74028865  0.87767133  0.45775839  1
  S2-  S223  1  0.75700385  0.86530754  0.96340349  1
  S2-  S224  1  0.13832118  -0.01135753  0.04181935  1
  S2-  S225  1  0.11904325  0.00720685  0.54069804  1
  S2-  S226  1  0.13487714  0.23906258  0.03164691  1
  S2-  S227  1  0.12071101  0.25643679  0.55067541  1
  S2-  S228  1  0.12926105  0.48201224  0.04134796  1
  S2-  S229  1  0.12025141  0.51208941  0.54798106  1
  S2-  S230  1  0.13077677  0.73554857  0.04054713  1
  S2-  S231  1  0.11800374  0.76028129  0.55869737  1
  S2-  S232  1  0.37968108  -0.01541492  0.04206100  1
  S2-  S233  1  0.37533159  0.00984556  0.53918025  1
  S2-  S234  1  0.38316046  0.23807700  0.04177954  1
  S2-  S235  1  0.36542705  0.25659707  0.54246471  1
  S2-  S236  1  0.38078007  0.48636274  0.04726099  1
  S2-  S237  1  0.37370022  0.50491511  0.54616573  1
  S2-  S238  1  0.37899197  0.73495196  0.04567136  1
  S2-  S239  1  0.38042347  0.76608592  0.55381145  1
  S2-  S240  1  0.63488019  -0.01580100  0.05017907  1
  S2-  S241  1  0.62515330  0.00987776  0.53966021  1
  S2-  S242  1  0.63488949  0.23809776  0.04305312  1
  S2-  S243  1  0.62729926  0.26003078  0.55252808  1
  S2-  S244  1  0.63835181  0.48885625  0.05713204  1
  S2-  S245  1  0.62268835  0.50415329  0.54799288  1
  S2-  S246  1  0.63369444  0.73568083  0.04765288  1
  S2-  S247  1  0.62208919  0.75279579  0.54290753  1
  S2-  S248  1  0.88105147  -0.00856116  0.04249055  1
  S2-  S249  1  0.87044643  0.00834859  0.53921095  1
  S2-  S250  1  0.87623248  0.23728647  0.03755551  1
  S2-  S251  1  0.87557175  0.25879317  0.55039713  1
  S2-  S252  1  0.88305344  0.48408247  0.04011654  1
  S2-  S253  1  0.87300101  0.50606873  0.54168436  1
  S2-  S254  1  0.88730363  0.73362288  0.04017524  1
  S2-  S255  1  0.87798253  0.74838229  0.54874664  1
