# generated using pymatgen
data_La6Ce6Pr19Nd20Sm13(BiS2)64
_symmetry_space_group_name_H-M   'P 1'
_cell_length_a   16.10869515
_cell_length_b   16.14890975
_cell_length_c   27.45625196
_cell_angle_alpha   89.97610231
_cell_angle_beta   89.84996515
_cell_angle_gamma   89.94157653
_symmetry_Int_Tables_number   1
_chemical_formula_structural   La6Ce6Pr19Nd20Sm13(BiS2)64
_chemical_formula_sum   'La6 Ce6 Pr19 Nd20 Sm13 Bi64 S128'
_cell_volume   7142.38192552
_cell_formula_units_Z   1
loop_
 _symmetry_equiv_pos_site_id
 _symmetry_equiv_pos_as_xyz
  1  'x, y, z'
loop_
 _atom_type_symbol
 _atom_type_oxidation_number
  La3+  3.0
  Ce3+  3.0
  Pr3+  3.0
  Nd3+  3.0
  Sm3+  3.0
  Bi2+  2.0
  S2-  -2.0
loop_
 _atom_site_type_symbol
 _atom_site_label
 _atom_site_symmetry_multiplicity
 _atom_site_fract_x
 _atom_site_fract_y
 _atom_site_fract_z
 _atom_site_occupancy
  La3+  La0  1  0.62300282  0.49093436  0.43220917  1
  La3+  La1  1  0.76566348  0.14710075  0.08715707  1
  La3+  La2  1  0.60890273  -0.00919273  0.38710856  1
  La3+  La3  1  -0.00341967  0.11961096  0.55661567  1
  La3+  La4  1  0.62555187  0.49566388  0.88379387  1
  La3+  La5  1  0.62377252  0.74161080  0.43445795  1
  Ce3+  Ce6  1  0.12513113  0.49312953  0.44864174  1
  Ce3+  Ce7  1  -0.00604063  0.88324610  0.07424336  1
  Ce3+  Ce8  1  0.49927807  0.61748692  0.56319962  1
  Ce3+  Ce9  1  0.63187566  0.75220531  0.93658757  1
  Ce3+  Ce10  1  0.12402989  -0.01118426  0.43785447  1
  Ce3+  Ce11  1  0.25346678  0.37792676  0.05408207  1
  Pr3+  Pr12  1  0.38422515  0.76502627  0.93942529  1
  Pr3+  Pr13  1  0.38666120  0.25910345  0.93889041  1
  Pr3+  Pr14  1  0.74705098  0.35884611  0.56509632  1
  Pr3+  Pr15  1  0.37557716  0.23811168  0.44350570  1
  Pr3+  Pr16  1  -0.01031247  0.86702730  0.56822393  1
  Pr3+  Pr17  1  0.37175714  0.74322836  0.44047631  1
  Pr3+  Pr18  1  0.87409917  0.48997429  0.44067934  1
  Pr3+  Pr19  1  0.50633986  0.13426419  0.07266974  1
  Pr3+  Pr20  1  0.13295998  0.50976191  0.93799192  1
  Pr3+  Pr21  1  0.13638494  0.75757939  0.94625502  1
  Pr3+  Pr22  1  0.88512920  0.50933227  0.92442690  1
  Pr3+  Pr23  1  0.26772847  0.63187774  0.07069569  1
  Pr3+  Pr24  1  0.36633936  -0.00721069  0.43210635  1
  Pr3+  Pr25  1  0.38556287  0.00912055  0.94181857  1
  Pr3+  Pr26  1  0.87131014  -0.00959091  0.43234267  1
  Pr3+  Pr27  1  0.49634754  0.10652756  0.56092748  1
  Pr3+  Pr28  1  0.74779348  0.87376990  0.06851089  1
  Pr3+  Pr29  1  0.88619648  0.25294931  0.92648832  1
  Pr3+  Pr30  1  -0.00381113  0.61363648  0.56253955  1
  Nd3+  Nd31  1  0.12195645  0.24174871  0.42749627  1
  Nd3+  Nd32  1  0.23862172  0.86697007  0.56966089  1
  Nd3+  Nd33  1  0.49957984  0.88770553  0.07916930  1
  Nd3+  Nd34  1  0.63064278  0.23771600  0.42747662  1
  Nd3+  Nd35  1  0.13165687  0.25587933  0.93238434  1
  Nd3+  Nd36  1  0.88131972  0.75809210  0.94358058  1
  Nd3+  Nd37  1  0.00572846  0.38141582  0.05624713  1
  Nd3+  Nd38  1  0.37241617  0.49127909  0.44765008  1
  Nd3+  Nd39  1  0.74644221  0.86721174  0.56119848  1
  Nd3+  Nd40  1  0.12334383  0.74023691  0.44260082  1
  Nd3+  Nd41  1  0.51004557  0.37558138  0.06110998  1
  Nd3+  Nd42  1  0.24673565  0.88738681  0.08206606  1
  Nd3+  Nd43  1  0.13147792  0.00275722  0.94397079  1
  Nd3+  Nd44  1  0.75683555  0.38311100  0.04511811  1
  Nd3+  Nd45  1  0.24695197  0.11720057  0.56208408  1
  Nd3+  Nd46  1  0.24856880  0.61758175  0.56529751  1
  Nd3+  Nd47  1  0.00714090  0.63239635  0.06056959  1
  Nd3+  Nd48  1  0.87309631  0.74287384  0.44486082  1
  Nd3+  Nd49  1  0.74367726  0.11748409  0.55469216  1
  Nd3+  Nd50  1  0.50129027  0.36296626  0.56063856  1
  Sm3+  Sm51  1  0.75501340  0.62650300  0.05332809  1
  Sm3+  Sm52  1  0.88174981  0.00534654  0.94774729  1
  Sm3+  Sm53  1  0.00316407  0.13233778  0.05885116  1
  Sm3+  Sm54  1  0.50745688  0.63142026  0.05762392  1
  Sm3+  Sm55  1  0.25380043  0.12900683  0.05497425  1
  Sm3+  Sm56  1  0.49595389  0.86649679  0.55504872  1
  Sm3+  Sm57  1  0.63524250  0.01037566  0.94915786  1
  Sm3+  Sm58  1  0.87774358  0.24207918  0.43073606  1
  Sm3+  Sm59  1  0.38511137  0.50741721  0.94380588  1
  Sm3+  Sm60  1  0.74534431  0.61316029  0.55863308  1
  Sm3+  Sm61  1  0.24839997  0.36422251  0.55606276  1
  Sm3+  Sm62  1  0.63531031  0.24622530  0.93427651  1
  Sm3+  Sm63  1  -0.00213146  0.36589792  0.55701119  1
  Bi2+  Bi64  1  -0.00299927  0.12098458  0.29614395  1
  Bi2+  Bi65  1  -0.05855505  0.13541175  0.79506314  1
  Bi2+  Bi66  1  0.05006686  0.36551009  0.27532357  1
  Bi2+  Bi67  1  0.04425569  0.36535908  0.74875498  1
  Bi2+  Bi68  1  0.00460326  0.55836644  0.28391935  1
  Bi2+  Bi69  1  0.00346964  0.57368198  0.76478852  1
  Bi2+  Bi70  1  0.01004134  0.92991438  0.31798391  1
  Bi2+  Bi71  1  -0.02216201  0.85737417  0.80531639  1
  Bi2+  Bi72  1  0.20090517  0.13900707  0.30633551  1
  Bi2+  Bi73  1  0.19809710  0.14386111  0.78954973  1
  Bi2+  Bi74  1  0.23787241  0.33520568  0.30919648  1
  Bi2+  Bi75  1  0.21259967  0.33872225  0.81412399  1
  Bi2+  Bi76  1  0.25872269  0.63286107  0.31512048  1
  Bi2+  Bi77  1  0.17544010  0.59578534  0.81579544  1
  Bi2+  Bi78  1  0.20647652  0.88617051  0.27936034  1
  Bi2+  Bi79  1  0.24807769  0.85279577  0.80951622  1
  Bi2+  Bi80  1  0.48478614  0.23969447  0.28061879  1
  Bi2+  Bi81  1  0.49983141  0.09835341  0.78799889  1
  Bi2+  Bi82  1  0.59048007  0.39247165  0.31606712  1
  Bi2+  Bi83  1  0.48647855  0.34263650  0.79174225  1
  Bi2+  Bi84  1  0.49875832  0.59386934  0.29005827  1
  Bi2+  Bi85  1  0.47876231  0.70449669  0.78708343  1
  Bi2+  Bi86  1  0.48889730  0.85566325  0.28473661  1
  Bi2+  Bi87  1  0.51531261  0.89952021  0.79041110  1
  Bi2+  Bi88  1  0.73903344  0.13466476  0.28575291  1
  Bi2+  Bi89  1  0.69071306  0.12204569  0.77115438  1
  Bi2+  Bi90  1  0.77729344  0.38248098  0.28176683  1
  Bi2+  Bi91  1  0.75107397  0.37118098  0.78155999  1
  Bi2+  Bi92  1  0.74939956  0.61150421  0.28972817  1
  Bi2+  Bi93  1  0.75440473  0.65755402  0.78843999  1
  Bi2+  Bi94  1  0.75411835  0.86661727  0.28508793  1
  Bi2+  Bi95  1  0.71317657  0.88860065  0.79189796  1
  Bi2+  Bi96  1  0.11796046  0.02154876  0.21240538  1
  Bi2+  Bi97  1  0.11345159  -0.04598439  0.74657100  1
  Bi2+  Bi98  1  0.14195449  0.23020116  0.20695085  1
  Bi2+  Bi99  1  0.12900289  0.21569840  0.69090009  1
  Bi2+  Bi100  1  0.18058952  0.50228964  0.23533349  1
  Bi2+  Bi101  1  0.17427385  0.49487593  0.70714339  1
  Bi2+  Bi102  1  0.10101015  0.75561860  0.21836730  1
  Bi2+  Bi103  1  0.10312869  0.75067870  0.71087335  1
  Bi2+  Bi104  1  0.36542983  0.00379742  0.21140148  1
  Bi2+  Bi105  1  0.37780328  0.00295249  0.71350995  1
  Bi2+  Bi106  1  0.33718727  0.27189301  0.20550268  1
  Bi2+  Bi107  1  0.31625180  0.25219714  0.72249463  1
  Bi2+  Bi108  1  0.36663027  0.45491192  0.24576763  1
  Bi2+  Bi109  1  0.32711292  0.48955335  0.77983556  1
  Bi2+  Bi110  1  0.36696439  0.71821656  0.20847619  1
  Bi2+  Bi111  1  0.32988444  0.75006023  0.72155347  1
  Bi2+  Bi112  1  0.67107647  -0.02653435  0.18070467  1
  Bi2+  Bi113  1  0.63325110  0.02334712  0.67634120  1
  Bi2+  Bi114  1  0.62192639  0.30348489  0.20494052  1
  Bi2+  Bi115  1  0.62460129  0.27852324  0.69125109  1
  Bi2+  Bi116  1  0.62825185  0.50337844  0.21577617  1
  Bi2+  Bi117  1  0.60882570  0.53336204  0.68521405  1
  Bi2+  Bi118  1  0.63781363  0.70182492  0.21257822  1
  Bi2+  Bi119  1  0.61373931  0.77653067  0.71524671  1
  Bi2+  Bi120  1  0.91555251  0.00497627  0.21422477  1
  Bi2+  Bi121  1  0.81610690  0.00339391  0.71442811  1
  Bi2+  Bi122  1  0.88523665  0.28800063  0.20236205  1
  Bi2+  Bi123  1  0.90131066  0.22619478  0.69786235  1
  Bi2+  Bi124  1  0.88218004  0.54263874  0.19303927  1
  Bi2+  Bi125  1  0.86712533  0.52267695  0.68820086  1
  Bi2+  Bi126  1  0.92681730  0.77050229  0.26943103  1
  Bi2+  Bi127  1  0.84957287  0.79326685  0.72609430  1
  S2-  S128  1  -0.08060197  0.14362050  0.14496972  1
  S2-  S129  1  0.00517758  0.10953403  0.65653667  1
  S2-  S130  1  -0.02744477  0.40455861  0.15244242  1
  S2-  S131  1  -0.03725539  0.37823534  0.65239354  1
  S2-  S132  1  -0.00007236  0.64817315  0.15882246  1
  S2-  S133  1  -0.00923776  0.64510771  0.66005883  1
  S2-  S134  1  0.10690312  0.88542845  0.14729792  1
  S2-  S135  1  0.09334770  0.87601404  0.64938517  1
  S2-  S136  1  0.26863306  0.06560960  0.14606055  1
  S2-  S137  1  0.30277989  0.10882102  0.65634060  1
  S2-  S138  1  0.22029649  0.35987761  0.14797493  1
  S2-  S139  1  0.25119307  0.36487365  0.65289849  1
  S2-  S140  1  0.22556391  0.69493734  0.16184441  1
  S2-  S141  1  0.23192143  0.65090505  0.66142297  1
  S2-  S142  1  0.37069007  0.86486072  0.15211781  1
  S2-  S143  1  0.29941802  0.88039712  0.66277309  1
  S2-  S144  1  0.50417387  0.02497057  0.15149212  1
  S2-  S145  1  0.53172172  0.16475164  0.65391506  1
  S2-  S146  1  0.49834546  0.26764708  0.14032188  1
  S2-  S147  1  0.51215585  0.39514215  0.65787314  1
  S2-  S148  1  0.41772381  0.61722450  0.14200760  1
  S2-  S149  1  0.50074217  0.66557491  0.65668919  1
  S2-  S150  1  0.61831688  0.82319942  0.14247931  1
  S2-  S151  1  0.49715635  0.94553174  0.64216047  1
  S2-  S152  1  0.69477718  0.13396906  0.18239217  1
  S2-  S153  1  0.76485905  0.21937521  0.63491129  1
  S2-  S154  1  0.76437998  0.31525633  0.13687749  1
  S2-  S155  1  0.74237282  0.42611487  0.66008716  1
  S2-  S156  1  0.77259319  0.64781884  0.15067244  1
  S2-  S157  1  0.74837257  0.63392562  0.65570524  1
  S2-  S158  1  0.86045051  0.89486821  0.14850804  1
  S2-  S159  1  0.85616309  0.87882785  0.63958844  1
  S2-  S160  1  0.23156728  -0.01177253  0.36097040  1
  S2-  S161  1  0.15130883  0.00404898  0.84507184  1
  S2-  S162  1  -0.00276445  0.25828418  0.35635706  1
  S2-  S163  1  0.02318283  0.23611441  0.85684748  1
  S2-  S164  1  0.12877047  0.53773558  0.35604617  1
  S2-  S165  1  0.02409576  0.51285954  0.85859633  1
  S2-  S166  1  0.16442048  0.75488125  0.34679545  1
  S2-  S167  1  0.10770168  0.75993653  0.84738073  1
  S2-  S168  1  0.45030650  -0.02464455  0.34323422  1
  S2-  S169  1  0.37351798  -0.07485583  0.85496448  1
  S2-  S170  1  0.35614280  0.20385426  0.34621997  1
  S2-  S171  1  0.41358993  0.21289215  0.84429118  1
  S2-  S172  1  0.37789199  0.50679122  0.34953820  1
  S2-  S173  1  0.44979203  0.48128556  0.85510630  1
  S2-  S174  1  0.39382850  0.74264861  0.34008422  1
  S2-  S175  1  0.34256502  0.70676053  0.84845390  1
  S2-  S176  1  0.61690823  -0.02590079  0.26948201  1
  S2-  S177  1  0.62523184  0.10348319  0.86613781  1
  S2-  S178  1  0.60129458  0.14996142  0.34233375  1
  S2-  S179  1  0.61847937  0.32747144  0.84712817  1
  S2-  S180  1  0.62031407  0.61320763  0.35891847  1
  S2-  S181  1  0.61130870  0.48587485  0.77405226  1
  S2-  S182  1  0.62119229  0.82731293  0.34675537  1
  S2-  S183  1  0.62180171  0.66841210  0.85086479  1
  S2-  S184  1  0.77960322  -0.00004015  0.34659493  1
  S2-  S185  1  0.90195033  0.00022332  0.84995153  1
  S2-  S186  1  0.77461228  0.24777098  0.35127429  1
  S2-  S187  1  0.81913228  0.25330678  0.83075270  1
  S2-  S188  1  0.86156777  0.50051823  0.34131562  1
  S2-  S189  1  0.78960152  0.50370773  0.83985674  1
  S2-  S190  1  0.82505314  0.74006216  0.35030139  1
  S2-  S191  1  0.87758329  0.72766124  0.84604944  1
  S2-  S192  1  -0.00045583  0.11500521  0.44945562  1
  S2-  S193  1  0.00808383  0.12537525  0.95648885  1
  S2-  S194  1  0.00224124  0.36958204  0.45409246  1
  S2-  S195  1  0.00898107  0.38086609  0.95224895  1
  S2-  S196  1  -0.00284417  0.61709265  0.45527137  1
  S2-  S197  1  0.00693547  0.63654045  0.95593875  1
  S2-  S198  1  -0.00200501  0.86511066  0.45829773  1
  S2-  S199  1  0.00601263  0.88153357  0.96172492  1
  S2-  S200  1  0.24253663  0.12162470  0.45748113  1
  S2-  S201  1  0.25611570  0.13213073  0.95008082  1
  S2-  S202  1  0.24712038  0.36466248  0.45182747  1
  S2-  S203  1  0.25774079  0.38297933  0.94875056  1
  S2-  S204  1  0.24939262  0.61743199  0.45997998  1
  S2-  S205  1  0.26092498  0.62917606  0.96147779  1
  S2-  S206  1  0.24529193  0.86315409  0.46174680  1
  S2-  S207  1  0.25708024  0.88439605  0.96392324  1
  S2-  S208  1  0.49849786  0.11253562  0.45297617  1
  S2-  S209  1  0.50683555  0.13265732  0.96405370  1
  S2-  S210  1  0.49792966  0.36546475  0.45286613  1
  S2-  S211  1  0.51245410  0.38021875  0.95718562  1
  S2-  S212  1  0.49408165  0.61628990  0.45805034  1
  S2-  S213  1  0.50351590  0.63007582  0.95508472  1
  S2-  S214  1  0.49645292  0.86846506  0.45301117  1
  S2-  S215  1  0.51380882  0.88552220  0.95755097  1
  S2-  S216  1  0.75420553  0.11978793  0.45222484  1
  S2-  S217  1  0.76344829  0.13031379  0.95591539  1
  S2-  S218  1  0.74873547  0.36658214  0.45412241  1
  S2-  S219  1  0.75553292  0.37951718  0.94323782  1
  S2-  S220  1  0.75147921  0.61512578  0.45586175  1
  S2-  S221  1  0.75855043  0.62990254  0.95072273  1
  S2-  S222  1  0.74984189  0.86629265  0.45655596  1
  S2-  S223  1  0.75544140  0.88267164  0.95515535  1
  S2-  S224  1  0.12604212  0.01030264  0.04816947  1
  S2-  S225  1  0.12202664  -0.00550399  0.54592055  1
  S2-  S226  1  0.12864093  0.25200300  0.04081099  1
  S2-  S227  1  0.12328274  0.24494664  0.54129693  1
  S2-  S228  1  0.13297471  0.50842422  0.04789779  1
  S2-  S229  1  0.12427265  0.48904350  0.55430751  1
  S2-  S230  1  0.13215867  0.75617967  0.05071780  1
  S2-  S231  1  0.12009698  0.73919725  0.54880961  1
  S2-  S232  1  0.37766234  0.00788815  0.04554541  1
  S2-  S233  1  0.36619220  -0.01113152  0.54155916  1
  S2-  S234  1  0.37473521  0.25385427  0.04423301  1
  S2-  S235  1  0.37330564  0.24174768  0.54991702  1
  S2-  S236  1  0.38380585  0.49755036  0.04662530  1
  S2-  S237  1  0.37216425  0.48967751  0.55354055  1
  S2-  S238  1  0.38616064  0.75868088  0.04579178  1
  S2-  S239  1  0.37146879  0.74456265  0.54967788  1
  S2-  S240  1  0.63692074  0.01164499  0.05154717  1
  S2-  S241  1  0.62551965  -0.01135670  0.54498794  1
  S2-  S242  1  0.63584043  0.25347580  0.04042519  1
  S2-  S243  1  0.61926799  0.23913618  0.53642020  1
  S2-  S244  1  0.62958113  0.50505990  0.05858828  1
  S2-  S245  1  0.62334351  0.49079111  0.54289183  1
  S2-  S246  1  0.63075244  0.74654688  0.03896916  1
  S2-  S247  1  0.62358995  0.74298950  0.54647957  1
  S2-  S248  1  0.87579241  0.01116446  0.04870123  1
  S2-  S249  1  0.87095693  -0.00370310  0.53993164  1
  S2-  S250  1  0.88588518  0.25856462  0.03535142  1
  S2-  S251  1  0.87684397  0.24511968  0.53534117  1
  S2-  S252  1  0.88239028  0.50709269  0.03846826  1
  S2-  S253  1  0.87094479  0.48895627  0.54663233  1
  S2-  S254  1  0.87738903  0.75172900  0.04798443  1
  S2-  S255  1  0.86916126  0.73587748  0.54902119  1
