# generated using pymatgen
data_La6Ce6Pr19Nd20Sm13(BiS2)64
_symmetry_space_group_name_H-M   'P 1'
_cell_length_a   16.05831013
_cell_length_b   16.15608162
_cell_length_c   27.25773268
_cell_angle_alpha   90.07668144
_cell_angle_beta   89.73692162
_cell_angle_gamma   90.00556527
_symmetry_Int_Tables_number   1
_chemical_formula_structural   La6Ce6Pr19Nd20Sm13(BiS2)64
_chemical_formula_sum   'La6 Ce6 Pr19 Nd20 Sm13 Bi64 S128'
_cell_volume   7071.64806455
_cell_formula_units_Z   1
loop_
 _symmetry_equiv_pos_site_id
 _symmetry_equiv_pos_as_xyz
  1  'x, y, z'
loop_
 _atom_type_symbol
 _atom_type_oxidation_number
  La3+  3.0
  Ce3+  3.0
  Pr3+  3.0
  Nd3+  3.0
  Sm3+  3.0
  Bi2+  2.0
  S2-  -2.0
loop_
 _atom_site_type_symbol
 _atom_site_label
 _atom_site_symmetry_multiplicity
 _atom_site_fract_x
 _atom_site_fract_y
 _atom_site_fract_z
 _atom_site_occupancy
  La3+  La0  1  0.88122880  0.75690106  0.42394251  1
  La3+  La1  1  0.01684307  0.37782001  0.10676774  1
  La3+  La2  1  0.24252693  0.87517165  0.57619752  1
  La3+  La3  1  0.37323208  0.50724725  0.44113802  1
  La3+  La4  1  0.50061035  0.63376040  0.60076813  1
  La3+  La5  1  0.37248392  0.00317374  0.43342789  1
  Ce3+  Ce6  1  0.64965251  0.49949769  0.93230130  1
  Ce3+  Ce7  1  0.64665010  -0.00722797  0.94210282  1
  Ce3+  Ce8  1  0.74774854  0.13374720  0.55617606  1
  Ce3+  Ce9  1  0.02187283  0.87248051  0.06734482  1
  Ce3+  Ce10  1  0.26903463  0.62045262  0.06371838  1
  Ce3+  Ce11  1  0.12233796  0.00714549  0.43807667  1
  Pr3+  Pr12  1  0.74864816  0.87932593  0.56027115  1
  Pr3+  Pr13  1  0.65150769  0.24853344  0.93468480  1
  Pr3+  Pr14  1  0.90085584  0.24754364  0.93514777  1
  Pr3+  Pr15  1  0.76625629  0.62576487  0.06841946  1
  Pr3+  Pr16  1  0.14663727  -0.01145498  0.92978368  1
  Pr3+  Pr17  1  0.89925313  -0.00370131  0.94963995  1
  Pr3+  Pr18  1  0.77109185  0.37435849  0.06285335  1
  Pr3+  Pr19  1  0.24407583  0.13228904  0.55871259  1
  Pr3+  Pr20  1  0.90031748  0.49850859  0.94119482  1
  Pr3+  Pr21  1  0.14757299  0.49653284  0.94060167  1
  Pr3+  Pr22  1  0.26986654  0.37185055  0.06101823  1
  Pr3+  Pr23  1  0.49192702  0.88093709  0.57199330  1
  Pr3+  Pr24  1  0.64832608  0.75226274  0.91711733  1
  Pr3+  Pr25  1  0.02832024  0.12725812  0.06623178  1
  Pr3+  Pr26  1  0.12199008  0.26255218  0.43372550  1
  Pr3+  Pr27  1  0.01769790  0.62980166  0.08201713  1
  Pr3+  Pr28  1  0.75431771  0.63725909  0.58402907  1
  Pr3+  Pr29  1  0.62190714  0.00505970  0.44292856  1
  Pr3+  Pr30  1  0.24670194  0.38525464  0.57183029  1
  Nd3+  Nd31  1  0.52076515  0.87301179  0.06223589  1
  Nd3+  Nd32  1  0.89592244  0.74453140  0.93902974  1
  Nd3+  Nd33  1  0.51855568  0.62404307  0.06112420  1
  Nd3+  Nd34  1  0.14529026  0.74467703  0.94292333  1
  Nd3+  Nd35  1  0.27136453  0.87509675  0.06289129  1
  Nd3+  Nd36  1  0.14541531  0.24730673  0.93073353  1
  Nd3+  Nd37  1  0.13460823  0.76735565  0.42490657  1
  Nd3+  Nd38  1  -0.00510573  0.88647336  0.56101072  1
  Nd3+  Nd39  1  0.39722984  -0.00529183  0.93674849  1
  Nd3+  Nd40  1  0.73671846  0.37239234  0.58958561  1
  Nd3+  Nd41  1  -0.00599741  0.38443804  0.56110108  1
  Nd3+  Nd42  1  0.62103381  0.26195909  0.43753009  1
  Nd3+  Nd43  1  0.87175632  0.00734145  0.42848142  1
  Nd3+  Nd44  1  0.49432212  0.38280213  0.56937149  1
  Nd3+  Nd45  1  0.39809607  0.74466176  0.93570950  1
  Nd3+  Nd46  1  0.62427769  0.75475647  0.44293457  1
  Nd3+  Nd47  1  0.49561329  0.13260726  0.55276268  1
  Nd3+  Nd48  1  0.40230849  0.24873777  0.92669898  1
  Nd3+  Nd49  1  -0.00528504  0.63366877  0.55694907  1
  Nd3+  Nd50  1  0.62348029  0.50885044  0.45071495  1
  Sm3+  Sm51  1  0.37051609  0.26095248  0.44414386  1
  Sm3+  Sm52  1  0.24399503  0.63459556  0.55630726  1
  Sm3+  Sm53  1  -0.00663121  0.13638960  0.54744768  1
  Sm3+  Sm54  1  0.40281463  0.49671627  0.93128011  1
  Sm3+  Sm55  1  0.76935449  0.87377898  0.05861070  1
  Sm3+  Sm56  1  0.37456668  0.75675575  0.44724287  1
  Sm3+  Sm57  1  0.51657106  0.37454175  0.06105031  1
  Sm3+  Sm58  1  0.86988719  0.26167707  0.43839284  1
  Sm3+  Sm59  1  0.12044904  0.50827952  0.43948823  1
  Sm3+  Sm60  1  0.77078067  0.12638016  0.05892578  1
  Sm3+  Sm61  1  0.27118249  0.12369098  0.04850807  1
  Sm3+  Sm62  1  0.86968901  0.50854472  0.44262883  1
  Sm3+  Sm63  1  0.51944578  0.12503363  0.05357003  1
  Bi2+  Bi64  1  0.02259149  0.07304323  0.29211520  1
  Bi2+  Bi65  1  -0.04217080  0.12691976  0.74545093  1
  Bi2+  Bi66  1  0.00446917  0.38286992  0.30066390  1
  Bi2+  Bi67  1  -0.03999640  0.38658629  0.80021906  1
  Bi2+  Bi68  1  -0.03885335  0.61788559  0.28589946  1
  Bi2+  Bi69  1  0.01214117  0.66462546  0.81874220  1
  Bi2+  Bi70  1  0.02115289  0.86521455  0.28678370  1
  Bi2+  Bi71  1  -0.02076150  0.85690154  0.81898523  1
  Bi2+  Bi72  1  0.27528717  0.12184300  0.24355382  1
  Bi2+  Bi73  1  0.22743368  0.15706962  0.76723953  1
  Bi2+  Bi74  1  0.26472162  0.38353827  0.31310278  1
  Bi2+  Bi75  1  0.14893972  0.33309816  0.80262869  1
  Bi2+  Bi76  1  0.28326725  0.64418921  0.27661992  1
  Bi2+  Bi77  1  0.17882756  0.60956160  0.76764343  1
  Bi2+  Bi78  1  0.26934787  0.87951614  0.29115977  1
  Bi2+  Bi79  1  0.22807383  0.92613768  0.78960881  1
  Bi2+  Bi80  1  0.55974470  0.13193690  0.26638060  1
  Bi2+  Bi81  1  0.51620054  0.12598634  0.78460025  1
  Bi2+  Bi82  1  0.52093087  0.37351668  0.30069822  1
  Bi2+  Bi83  1  0.44866660  0.35182727  0.79438517  1
  Bi2+  Bi84  1  0.50701232  0.62864767  0.26808553  1
  Bi2+  Bi85  1  0.44916353  0.60249804  0.80024026  1
  Bi2+  Bi86  1  0.51274781  0.89740234  0.29758599  1
  Bi2+  Bi87  1  0.49011014  0.85891965  0.80614354  1
  Bi2+  Bi88  1  0.82416191  0.07479410  0.30075909  1
  Bi2+  Bi89  1  0.77575583  0.09949178  0.78767325  1
  Bi2+  Bi90  1  0.75078157  0.33535352  0.28118642  1
  Bi2+  Bi91  1  0.75179201  0.36338663  0.79846102  1
  Bi2+  Bi92  1  0.70032046  0.60084728  0.29219825  1
  Bi2+  Bi93  1  0.82292015  0.62575707  0.78845148  1
  Bi2+  Bi94  1  0.76007935  0.88450432  0.28738411  1
  Bi2+  Bi95  1  0.79274456  0.89821618  0.78189768  1
  Bi2+  Bi96  1  0.12035489  0.00244186  0.19922700  1
  Bi2+  Bi97  1  0.05743682  -0.04160123  0.73065276  1
  Bi2+  Bi98  1  0.13071711  0.24691264  0.22237633  1
  Bi2+  Bi99  1  0.16640187  0.29196818  0.68656164  1
  Bi2+  Bi100  1  0.17216092  0.49240325  0.21734200  1
  Bi2+  Bi101  1  0.13074227  0.48795760  0.67711514  1
  Bi2+  Bi102  1  0.14738383  0.74224768  0.21448585  1
  Bi2+  Bi103  1  0.10094196  0.74991421  0.70518554  1
  Bi2+  Bi104  1  0.38091645  -0.01134946  0.18820665  1
  Bi2+  Bi105  1  0.37797078  0.03603446  0.70790160  1
  Bi2+  Bi106  1  0.42075861  0.24912189  0.21401777  1
  Bi2+  Bi107  1  0.38570310  0.24989307  0.70256054  1
  Bi2+  Bi108  1  0.39791480  0.49405752  0.20589442  1
  Bi2+  Bi109  1  0.28913860  0.44742381  0.75085738  1
  Bi2+  Bi110  1  0.40229294  0.75257136  0.20720563  1
  Bi2+  Bi111  1  0.36841206  0.75677646  0.70693964  1
  Bi2+  Bi112  1  0.69504392  0.02006979  0.21628180  1
  Bi2+  Bi113  1  0.62962266  -0.01292270  0.74102729  1
  Bi2+  Bi114  1  0.61811298  0.28585517  0.19776074  1
  Bi2+  Bi115  1  0.61318411  0.23878643  0.71024958  1
  Bi2+  Bi116  1  0.59098149  0.47615609  0.18003040  1
  Bi2+  Bi117  1  0.66516418  0.47613774  0.72866542  1
  Bi2+  Bi118  1  0.64989221  0.74219951  0.21667781  1
  Bi2+  Bi119  1  0.63623869  0.73962664  0.72244076  1
  Bi2+  Bi120  1  0.92115374  -0.01918711  0.20794530  1
  Bi2+  Bi121  1  0.86936787  -0.02478283  0.67543345  1
  Bi2+  Bi122  1  0.87071616  0.22832376  0.21599737  1
  Bi2+  Bi123  1  0.86332283  0.28699198  0.71049198  1
  Bi2+  Bi124  1  0.78276028  0.49063216  0.21136144  1
  Bi2+  Bi125  1  0.94802298  0.52734004  0.71891362  1
  Bi2+  Bi126  1  0.87289783  0.74457065  0.20924350  1
  Bi2+  Bi127  1  0.89510141  0.78341860  0.70124087  1
  S2-  S128  1  0.00964868  0.21776870  0.15332303  1
  S2-  S129  1  -0.02149107  0.09593735  0.64171540  1
  S2-  S130  1  0.01623656  0.46214738  0.20565931  1
  S2-  S131  1  0.00403489  0.32161714  0.65339673  1
  S2-  S132  1  -0.12496475  0.61499135  0.14986444  1
  S2-  S133  1  -0.09588131  0.63972254  0.64264763  1
  S2-  S134  1  0.01717505  0.77660478  0.14941001  1
  S2-  S135  1  0.10339480  0.88709956  0.64069715  1
  S2-  S136  1  0.21565933  0.11697015  0.14209421  1
  S2-  S137  1  0.24362643  0.09675599  0.65789935  1
  S2-  S138  1  0.17796815  0.35809325  0.15122941  1
  S2-  S139  1  0.37214882  0.38097004  0.64412405  1
  S2-  S140  1  0.16275956  0.61809993  0.14554333  1
  S2-  S141  1  0.24099027  0.72095714  0.64243986  1
  S2-  S142  1  0.24205164  0.87362344  0.16232343  1
  S2-  S143  1  0.36488362  0.90621006  0.64848033  1
  S2-  S144  1  0.46916318  0.11573145  0.14724724  1
  S2-  S145  1  0.50265328  0.13386144  0.65158696  1
  S2-  S146  1  0.39754956  0.36363274  0.13455763  1
  S2-  S147  1  0.59437387  0.37788607  0.65354126  1
  S2-  S148  1  0.39167378  0.62503339  0.13709982  1
  S2-  S149  1  0.42269012  0.60699647  0.69400148  1
  S2-  S150  1  0.49910145  0.88456547  0.16200052  1
  S2-  S151  1  0.52075605  0.78593235  0.65822356  1
  S2-  S152  1  0.75345477  0.14740267  0.15586373  1
  S2-  S153  1  0.74250864  0.21427035  0.64313133  1
  S2-  S154  1  0.85152387  0.36460993  0.15227345  1
  S2-  S155  1  0.80193362  0.44841781  0.67070284  1
  S2-  S156  1  0.63229203  0.63702025  0.13814189  1
  S2-  S157  1  0.64361136  0.60580672  0.66323048  1
  S2-  S158  1  0.75410437  0.84154562  0.15426782  1
  S2-  S159  1  0.74400911  0.78847274  0.64665086  1
  S2-  S160  1  0.14698279  -0.09023429  0.35875662  1
  S2-  S161  1  0.15108898  0.06154931  0.83612835  1
  S2-  S162  1  0.13027350  0.26622010  0.33262847  1
  S2-  S163  1  0.02274331  0.24726248  0.85763652  1
  S2-  S164  1  0.12584547  0.48554884  0.34237086  1
  S2-  S165  1  0.02786813  0.50744865  0.86561854  1
  S2-  S166  1  0.03993049  0.71944290  0.34451711  1
  S2-  S167  1  0.15067571  0.84656200  0.86063638  1
  S2-  S168  1  0.37426261  -0.00837284  0.33286213  1
  S2-  S169  1  0.38027422  -0.02408500  0.83808816  1
  S2-  S170  1  0.38394159  0.28171943  0.34747278  1
  S2-  S171  1  0.31639531  0.25802966  0.83887070  1
  S2-  S172  1  0.35009943  0.51309721  0.34126940  1
  S2-  S173  1  0.30822098  0.51826671  0.84772202  1
  S2-  S174  1  0.30657364  0.76280854  0.35593727  1
  S2-  S175  1  0.36827713  0.74321486  0.83640252  1
  S2-  S176  1  0.59539765  0.01530985  0.34357693  1
  S2-  S177  1  0.62988846  -0.09219752  0.85839738  1
  S2-  S178  1  0.62631567  0.24757456  0.33839872  1
  S2-  S179  1  0.53755284  0.24856586  0.85667274  1
  S2-  S180  1  0.60504249  0.48080612  0.35084033  1
  S2-  S181  1  0.52710487  0.48683557  0.85733012  1
  S2-  S182  1  0.59885837  0.79118237  0.34542286  1
  S2-  S183  1  0.58155962  0.70140666  0.82179030  1
  S2-  S184  1  0.88212847  -0.10980968  0.35392755  1
  S2-  S185  1  0.89308693  0.00518674  0.84928070  1
  S2-  S186  1  0.88679267  0.27537618  0.34062140  1
  S2-  S187  1  0.77641002  0.23078489  0.85948670  1
  S2-  S188  1  0.90186954  0.49073540  0.34486581  1
  S2-  S189  1  0.77857007  0.50738654  0.86189970  1
  S2-  S190  1  0.82623141  0.68209140  0.33592476  1
  S2-  S191  1  0.79497978  0.74283848  0.85600890  1
  S2-  S192  1  -0.00560352  0.13523691  0.44235627  1
  S2-  S193  1  0.02600610  0.11793102  0.95808384  1
  S2-  S194  1  -0.00463905  0.38440336  0.45331299  1
  S2-  S195  1  0.02416939  0.37021119  0.95783912  1
  S2-  S196  1  -0.00217734  0.62697701  0.45220121  1
  S2-  S197  1  0.02178921  0.62774066  0.96709885  1
  S2-  S198  1  0.00095665  0.88508742  0.45515809  1
  S2-  S199  1  0.01986664  0.86908806  0.96138092  1
  S2-  S200  1  0.24790639  0.13502812  0.44756389  1
  S2-  S201  1  0.27255463  0.11976014  0.94468334  1
  S2-  S202  1  0.24541178  0.38386850  0.45995502  1
  S2-  S203  1  0.27428119  0.37227731  0.95011897  1
  S2-  S204  1  0.24411413  0.63266176  0.45212699  1
  S2-  S205  1  0.27222167  0.62382286  0.95549315  1
  S2-  S206  1  0.25258612  0.88234416  0.46507598  1
  S2-  S207  1  0.27585225  0.87029307  0.95661464  1
  S2-  S208  1  0.49512251  0.13572252  0.44655658  1
  S2-  S209  1  0.52325365  0.11686219  0.95014033  1
  S2-  S210  1  0.49616813  0.38147790  0.46033132  1
  S2-  S211  1  0.52318942  0.37128613  0.95888023  1
  S2-  S212  1  0.49693189  0.63403447  0.44375436  1
  S2-  S213  1  0.52496206  0.62737580  0.95332343  1
  S2-  S214  1  0.49697284  0.87971021  0.45892046  1
  S2-  S215  1  0.51861116  0.86985297  0.95642650  1
  S2-  S216  1  0.74732390  0.13451967  0.44798344  1
  S2-  S217  1  0.77021471  0.11645893  0.95662751  1
  S2-  S218  1  0.74787501  0.38338263  0.44733906  1
  S2-  S219  1  0.77363944  0.37278048  0.95818051  1
  S2-  S220  1  0.74866358  0.63135479  0.45480908  1
  S2-  S221  1  0.77011649  0.62612789  0.96167690  1
  S2-  S222  1  0.74685955  0.88188640  0.45267630  1
  S2-  S223  1  0.77334712  0.87317804  0.95544648  1
  S2-  S224  1  0.14716158  -0.00345189  0.04107700  1
  S2-  S225  1  0.11779170  0.01297024  0.54175813  1
  S2-  S226  1  0.15012886  0.24571800  0.03847149  1
  S2-  S227  1  0.11996301  0.25863117  0.54194976  1
  S2-  S228  1  0.14132731  0.49396896  0.04817766  1
  S2-  S229  1  0.12108601  0.50897242  0.54492249  1
  S2-  S230  1  0.14899263  0.75214170  0.04700749  1
  S2-  S231  1  0.11741529  0.75405926  0.53684424  1
  S2-  S232  1  0.39575041  -0.00030757  0.04286341  1
  S2-  S233  1  0.37119933  0.01006151  0.54189642  1
  S2-  S234  1  0.39608493  0.24304980  0.03500229  1
  S2-  S235  1  0.36960734  0.25553683  0.54726250  1
  S2-  S236  1  0.39707923  0.49717628  0.03611540  1
  S2-  S237  1  0.37249767  0.51670752  0.54999955  1
  S2-  S238  1  0.39516896  0.75320294  0.04329356  1
  S2-  S239  1  0.37873238  0.74713642  0.54879748  1
  S2-  S240  1  0.64534001  0.00062647  0.05124499  1
  S2-  S241  1  0.62105279  0.00573476  0.55115770  1
  S2-  S242  1  0.64259744  0.24771814  0.04619819  1
  S2-  S243  1  0.61979272  0.25710219  0.54263057  1
  S2-  S244  1  0.64277793  0.49440377  0.04210828  1
  S2-  S245  1  0.62262692  0.50842214  0.55406941  1
  S2-  S246  1  0.64432431  0.75583621  0.03992388  1
  S2-  S247  1  0.62036779  0.75288021  0.54745440  1
  S2-  S248  1  0.89491700  0.00084114  0.05678612  1
  S2-  S249  1  0.87097327  0.00928817  0.53486805  1
  S2-  S250  1  0.89505411  0.24431873  0.04453037  1
  S2-  S251  1  0.86981366  0.26129805  0.54316683  1
  S2-  S252  1  0.90033388  0.49574621  0.05067643  1
  S2-  S253  1  0.86649896  0.50332485  0.54704032  1
  S2-  S254  1  0.89220338  0.75377037  0.04612850  1
  S2-  S255  1  0.87499194  0.76012919  0.53766953  1
