# generated using pymatgen
data_La6Ce6Pr19Nd20Sm13(BiS2)64
_symmetry_space_group_name_H-M   'P 1'
_cell_length_a   16.08286993
_cell_length_b   16.06742285
_cell_length_c   27.48914961
_cell_angle_alpha   89.65612230
_cell_angle_beta   90.13176702
_cell_angle_gamma   89.84237733
_symmetry_Int_Tables_number   1
_chemical_formula_structural   La6Ce6Pr19Nd20Sm13(BiS2)64
_chemical_formula_sum   'La6 Ce6 Pr19 Nd20 Sm13 Bi64 S128'
_cell_volume   7103.30474831
_cell_formula_units_Z   1
loop_
 _symmetry_equiv_pos_site_id
 _symmetry_equiv_pos_as_xyz
  1  'x, y, z'
loop_
 _atom_type_symbol
 _atom_type_oxidation_number
  La3+  3.0
  Ce3+  3.0
  Pr3+  3.0
  Nd3+  3.0
  Sm3+  3.0
  Bi2+  2.0
  S2-  -2.0
loop_
 _atom_site_type_symbol
 _atom_site_label
 _atom_site_symmetry_multiplicity
 _atom_site_fract_x
 _atom_site_fract_y
 _atom_site_fract_z
 _atom_site_occupancy
  La3+  La0  1  0.61919572  0.49690705  0.92222172  1
  La3+  La1  1  0.14360853  0.78352415  0.43238394  1
  La3+  La2  1  0.52196715  0.90518698  0.58379117  1
  La3+  La3  1  0.62202994  0.24735096  0.92858072  1
  La3+  La4  1  0.39307112  0.27617356  0.43255154  1
  La3+  La5  1  0.01950288  0.65557668  0.57543277  1
  Ce3+  Ce6  1  0.89391983  0.78372091  0.43956312  1
  Ce3+  Ce7  1  0.26599603  0.15425143  0.55721388  1
  Ce3+  Ce8  1  0.51944551  0.15727638  0.56816579  1
  Ce3+  Ce9  1  0.26810062  0.65190658  0.55806000  1
  Ce3+  Ce10  1  0.74730299  0.12080455  0.06380675  1
  Ce3+  Ce11  1  0.76689138  0.64896489  0.56076288  1
  Pr3+  Pr12  1  0.02304698  0.39556484  0.56738503  1
  Pr3+  Pr13  1  0.37102456  0.24529362  0.94199276  1
  Pr3+  Pr14  1  0.24801157  0.10833822  0.08238529  1
  Pr3+  Pr15  1  0.64217911  0.28534563  0.42924267  1
  Pr3+  Pr16  1  0.01774291  0.90187660  0.57137022  1
  Pr3+  Pr17  1  0.89006072  0.50378602  0.88891352  1
  Pr3+  Pr18  1  0.12260958  0.49684270  0.94174719  1
  Pr3+  Pr19  1  0.37656171  0.75580750  0.92257156  1
  Pr3+  Pr20  1  0.00128088  0.86094931  0.06544593  1
  Pr3+  Pr21  1  0.49834465  0.85875052  0.07235235  1
  Pr3+  Pr22  1  0.12152284  0.75339962  0.92244596  1
  Pr3+  Pr23  1  0.24685476  0.86054974  0.06295076  1
  Pr3+  Pr24  1  0.75089060  0.86028810  0.06914960  1
  Pr3+  Pr25  1  0.37540824  0.49590324  0.94057101  1
  Pr3+  Pr26  1  0.76743365  0.90119648  0.56891399  1
  Pr3+  Pr27  1  0.86845184  0.24793918  0.93255467  1
  Pr3+  Pr28  1  0.64246542  0.78005880  0.43436755  1
  Pr3+  Pr29  1  0.25069216  0.36459559  0.07636447  1
  Pr3+  Pr30  1  -0.00177193  0.11807749  0.06163860  1
  Nd3+  Nd31  1  0.39474758  0.52496342  0.44136178  1
  Nd3+  Nd32  1  0.13916599  0.52958191  0.44316415  1
  Nd3+  Nd33  1  0.64044996  0.02656801  0.44051421  1
  Nd3+  Nd34  1  0.26906167  0.90134815  0.57130669  1
  Nd3+  Nd35  1  0.65059819  0.53203484  0.43290429  1
  Nd3+  Nd36  1  0.12519415  -0.00152576  0.93753740  1
  Nd3+  Nd37  1  0.89130606  0.28391708  0.43053634  1
  Nd3+  Nd38  1  0.74617724  0.37227473  0.05475188  1
  Nd3+  Nd39  1  0.39526931  0.78037292  0.44782427  1
  Nd3+  Nd40  1  0.52001543  0.65089137  0.55854788  1
  Nd3+  Nd41  1  0.50387914  0.36494063  0.07344083  1
  Nd3+  Nd42  1  0.12710121  0.24766091  0.94178406  1
  Nd3+  Nd43  1  0.87407667  0.75255751  0.92704815  1
  Nd3+  Nd44  1  0.77383767  0.40331324  0.57402791  1
  Nd3+  Nd45  1  0.75111722  0.61919450  0.04394055  1
  Nd3+  Nd46  1  0.62176679  -0.00356969  0.95276226  1
  Nd3+  Nd47  1  0.87474614  -0.00485704  0.93920634  1
  Nd3+  Nd48  1  0.14201036  0.28430985  0.41781330  1
  Nd3+  Nd49  1  0.01894517  0.15320374  0.54941024  1
  Nd3+  Nd50  1  0.52099628  0.40487714  0.57022811  1
  Sm3+  Sm51  1  0.62417898  0.75206496  0.93606478  1
  Sm3+  Sm52  1  -0.00226556  0.62027137  0.05160971  1
  Sm3+  Sm53  1  0.89215369  0.02650490  0.44569463  1
  Sm3+  Sm54  1  0.26604104  0.39880799  0.55744583  1
  Sm3+  Sm55  1  0.14270686  0.02534697  0.44261614  1
  Sm3+  Sm56  1  0.37404161  -0.00467460  0.94705661  1
  Sm3+  Sm57  1  0.24945322  0.62335060  0.04754860  1
  Sm3+  Sm58  1  0.49277613  0.11737436  0.07192350  1
  Sm3+  Sm59  1  0.76549037  0.15520474  0.55667756  1
  Sm3+  Sm60  1  0.50038935  0.62052928  0.05240744  1
  Sm3+  Sm61  1  -0.00135136  0.37114814  0.05690347  1
  Sm3+  Sm62  1  0.89409660  0.52877447  0.44636615  1
  Sm3+  Sm63  1  0.39491456  0.02564783  0.45050642  1
  Bi2+  Bi64  1  -0.05228270  0.08929500  0.29480397  1
  Bi2+  Bi65  1  -0.05043007  0.09419018  0.82194234  1
  Bi2+  Bi66  1  -0.01526422  0.44098466  0.30683480  1
  Bi2+  Bi67  1  0.04001740  0.32615753  0.78866528  1
  Bi2+  Bi68  1  -0.02730796  0.58685882  0.22441165  1
  Bi2+  Bi69  1  0.00958400  0.60119743  0.77778118  1
  Bi2+  Bi70  1  0.01204599  0.83397433  0.30966989  1
  Bi2+  Bi71  1  0.00235982  0.81548171  0.80323310  1
  Bi2+  Bi72  1  0.15537964  0.11584574  0.30177153  1
  Bi2+  Bi73  1  0.13604582  0.14587920  0.82490835  1
  Bi2+  Bi74  1  0.21846915  0.37899665  0.27902528  1
  Bi2+  Bi75  1  0.29403285  0.34634036  0.77771198  1
  Bi2+  Bi76  1  0.24733155  0.64397620  0.22779142  1
  Bi2+  Bi77  1  0.28011835  0.53818934  0.74301876  1
  Bi2+  Bi78  1  0.23266856  0.83638959  0.29445473  1
  Bi2+  Bi79  1  0.20014243  0.94451703  0.76453703  1
  Bi2+  Bi80  1  0.52514708  0.13168507  0.28312279  1
  Bi2+  Bi81  1  0.52366929  0.10979624  0.79304291  1
  Bi2+  Bi82  1  0.46967135  0.38899265  0.30463069  1
  Bi2+  Bi83  1  0.49644529  0.35897921  0.79281687  1
  Bi2+  Bi84  1  0.51991750  0.63119648  0.28900601  1
  Bi2+  Bi85  1  0.48578354  0.62017012  0.78590348  1
  Bi2+  Bi86  1  0.50496802  0.88836039  0.30841740  1
  Bi2+  Bi87  1  0.51811856  0.86673001  0.80381729  1
  Bi2+  Bi88  1  0.72380379  0.12757287  0.30677468  1
  Bi2+  Bi89  1  0.79022140  0.10312751  0.75725117  1
  Bi2+  Bi90  1  0.73843348  0.40903331  0.29449818  1
  Bi2+  Bi91  1  0.75900302  0.32433840  0.79442027  1
  Bi2+  Bi92  1  0.77356495  0.59534779  0.22346267  1
  Bi2+  Bi93  1  0.69089054  0.62898939  0.76028372  1
  Bi2+  Bi94  1  0.73915061  0.75527795  0.28910239  1
  Bi2+  Bi95  1  0.76853809  0.89982831  0.77510693  1
  Bi2+  Bi96  1  0.09165323  0.01155696  0.21312085  1
  Bi2+  Bi97  1  0.04068259  0.03015761  0.72564650  1
  Bi2+  Bi98  1  0.09984268  0.24903539  0.22011349  1
  Bi2+  Bi99  1  0.18136525  0.21835960  0.69818482  1
  Bi2+  Bi100  1  0.13835049  0.49118766  0.19778226  1
  Bi2+  Bi101  1  0.11351986  0.45507731  0.71237439  1
  Bi2+  Bi102  1  0.13713511  0.80480814  0.18610597  1
  Bi2+  Bi103  1  0.13714870  0.73737873  0.70164598  1
  Bi2+  Bi104  1  0.33929056  0.07042848  0.26578629  1
  Bi2+  Bi105  1  0.32268934  0.06085936  0.82126023  1
  Bi2+  Bi106  1  0.37346728  0.23863511  0.20000959  1
  Bi2+  Bi107  1  0.36680152  0.16369516  0.72778653  1
  Bi2+  Bi108  1  0.39572166  0.50380555  0.22014041  1
  Bi2+  Bi109  1  0.39213208  0.41042555  0.68540727  1
  Bi2+  Bi110  1  0.39806483  0.77270232  0.24290161  1
  Bi2+  Bi111  1  0.32272967  0.77382303  0.72772565  1
  Bi2+  Bi112  1  0.63498566  0.02144757  0.21515826  1
  Bi2+  Bi113  1  0.60307351  -0.02596007  0.72128133  1
  Bi2+  Bi114  1  0.63726991  0.27922642  0.20882882  1
  Bi2+  Bi115  1  0.62546886  0.21374567  0.69496545  1
  Bi2+  Bi116  1  0.59048421  0.52270865  0.20457057  1
  Bi2+  Bi117  1  0.59184646  0.46523514  0.71520265  1
  Bi2+  Bi118  1  0.61933007  0.78760251  0.18995476  1
  Bi2+  Bi119  1  0.55784287  0.71693803  0.69262606  1
  Bi2+  Bi120  1  0.80443023  -0.04093972  0.26885542  1
  Bi2+  Bi121  1  0.88968412  -0.07209589  0.68505924  1
  Bi2+  Bi122  1  0.84832975  0.22009047  0.22962303  1
  Bi2+  Bi123  1  0.92825329  0.23022544  0.71555324  1
  Bi2+  Bi124  1  0.87104556  0.41407399  0.20173036  1
  Bi2+  Bi125  1  0.86476921  0.48121615  0.70547095  1
  Bi2+  Bi126  1  0.87892347  0.79179547  0.19128995  1
  Bi2+  Bi127  1  0.78882445  0.76007273  0.69531411  1
  S2-  S128  1  0.00783268  0.13943839  0.16106073  1
  S2-  S129  1  0.03321976  0.15659321  0.64824170  1
  S2-  S130  1  0.02755477  0.37251599  0.15371621  1
  S2-  S131  1  -0.09221656  0.36553220  0.64384862  1
  S2-  S132  1  0.00520175  0.71007501  0.13503327  1
  S2-  S133  1  0.00297692  0.57065127  0.66608551  1
  S2-  S134  1  -0.02587695  0.91709858  0.16035723  1
  S2-  S135  1  0.01041594  0.78714726  0.64849234  1
  S2-  S136  1  0.38108555  0.09659754  0.15048393  1
  S2-  S137  1  0.27100088  0.10009082  0.65124967  1
  S2-  S138  1  0.22230776  0.23891070  0.15106802  1
  S2-  S139  1  0.16094282  0.36185014  0.63324559  1
  S2-  S140  1  0.25093810  0.71888715  0.12928028  1
  S2-  S141  1  0.27097475  0.64421811  0.65585203  1
  S2-  S142  1  0.21361048  0.95247491  0.14822202  1
  S2-  S143  1  0.20688627  0.88192955  0.66402760  1
  S2-  S144  1  0.52376809  0.23316103  0.14570668  1
  S2-  S145  1  0.52189850  0.05077680  0.64727379  1
  S2-  S146  1  0.37835954  0.38960111  0.14584484  1
  S2-  S147  1  0.49575448  0.27832907  0.64098002  1
  S2-  S148  1  0.50126981  0.71207232  0.13582593  1
  S2-  S149  1  0.51730036  0.55891862  0.64293734  1
  S2-  S150  1  0.52424148  0.92433087  0.16772689  1
  S2-  S151  1  0.43327380  0.83650637  0.66862174  1
  S2-  S152  1  0.74125701  0.15918559  0.15906890  1
  S2-  S153  1  0.75529467  0.12475711  0.65298612  1
  S2-  S154  1  0.64586714  0.40224652  0.13697667  1
  S2-  S155  1  0.69342565  0.35197119  0.66386740  1
  S2-  S156  1  0.75433311  0.70524140  0.13204158  1
  S2-  S157  1  0.76909670  0.54940230  0.64038777  1
  S2-  S158  1  0.75655928  0.91627483  0.16566423  1
  S2-  S159  1  0.66125359  0.86609331  0.64676581  1
  S2-  S160  1  0.14141115  -0.07492473  0.36267734  1
  S2-  S161  1  0.12295968  -0.10343881  0.85468743  1
  S2-  S162  1  0.00619963  0.29726666  0.35313859  1
  S2-  S163  1  0.24480471  0.27321320  0.86835442  1
  S2-  S164  1  0.13757138  0.48379495  0.34778703  1
  S2-  S165  1  0.05971479  0.48542058  0.84835828  1
  S2-  S166  1  0.12548250  0.71861329  0.33786042  1
  S2-  S167  1  0.12199685  0.70058504  0.82277333  1
  S2-  S168  1  0.40056621  0.00837154  0.35241789  1
  S2-  S169  1  0.38295918  -0.09538481  0.86200288  1
  S2-  S170  1  0.27592032  0.28638874  0.35215388  1
  S2-  S171  1  0.48287797  0.22958380  0.86236433  1
  S2-  S172  1  0.39731878  0.52190882  0.34220607  1
  S2-  S173  1  0.47072907  0.49706649  0.85668619  1
  S2-  S174  1  0.37917277  0.77521728  0.34964934  1
  S2-  S175  1  0.35860897  0.70270787  0.82508720  1
  S2-  S176  1  0.63498493  -0.08595802  0.36234491  1
  S2-  S177  1  0.60832761  -0.01350890  0.85351541  1
  S2-  S178  1  0.51071733  0.24447886  0.35822389  1
  S2-  S179  1  0.74519053  0.20170206  0.85633345  1
  S2-  S180  1  0.61175260  0.42469076  0.35787341  1
  S2-  S181  1  0.63756981  0.37398328  0.85133869  1
  S2-  S182  1  0.64040153  0.66110756  0.35723358  1
  S2-  S183  1  0.61036187  0.73767568  0.83830515  1
  S2-  S184  1  0.90348844  -0.05233390  0.35989197  1
  S2-  S185  1  0.87017280  -0.11215994  0.85955289  1
  S2-  S186  1  0.77038744  0.27541764  0.35695308  1
  S2-  S187  1  0.90514255  0.34020284  0.84818492  1
  S2-  S188  1  0.83726475  0.50185068  0.35485156  1
  S2-  S189  1  0.78944071  0.50043176  0.80207713  1
  S2-  S190  1  0.88895719  0.73570192  0.34450079  1
  S2-  S191  1  0.90045073  0.66621030  0.84064330  1
  S2-  S192  1  0.01792020  0.14670667  0.44517745  1
  S2-  S193  1  -0.00199461  0.12342886  0.95537159  1
  S2-  S194  1  0.01821175  0.40586050  0.45996072  1
  S2-  S195  1  0.00019601  0.37119324  0.95552331  1
  S2-  S196  1  0.01713203  0.65456345  0.45882975  1
  S2-  S197  1  -0.00429577  0.61934114  0.94931344  1
  S2-  S198  1  0.01716159  0.90569061  0.46559843  1
  S2-  S199  1  0.00029186  0.87361852  0.95805766  1
  S2-  S200  1  0.26653646  0.14522946  0.45078552  1
  S2-  S201  1  0.24905009  0.11624040  0.96443923  1
  S2-  S202  1  0.26538348  0.40627418  0.45505819  1
  S2-  S203  1  0.24914063  0.37782357  0.96806475  1
  S2-  S204  1  0.26931243  0.65223509  0.45116067  1
  S2-  S205  1  0.24893632  0.62383664  0.94322111  1
  S2-  S206  1  0.27147241  0.90436795  0.46302560  1
  S2-  S207  1  0.24795210  0.87251126  0.95614854  1
  S2-  S208  1  0.51849842  0.14672448  0.46143514  1
  S2-  S209  1  0.49572128  0.11544744  0.96519003  1
  S2-  S210  1  0.51509349  0.40268436  0.46320162  1
  S2-  S211  1  0.49656988  0.37094259  0.96297940  1
  S2-  S212  1  0.51573083  0.65129911  0.45497172  1
  S2-  S213  1  0.49924512  0.62979239  0.94956555  1
  S2-  S214  1  0.51655459  0.90258616  0.46703050  1
  S2-  S215  1  0.50209967  0.87045584  0.96177169  1
  S2-  S216  1  0.76780904  0.14755457  0.45307953  1
  S2-  S217  1  0.75101979  0.11636647  0.96063467  1
  S2-  S218  1  0.77091532  0.40564226  0.46245482  1
  S2-  S219  1  0.75754006  0.38357708  0.95162403  1
  S2-  S220  1  0.77299812  0.65553763  0.45681603  1
  S2-  S221  1  0.74863542  0.62395351  0.93858486  1
  S2-  S222  1  0.76871917  0.90460702  0.46240107  1
  S2-  S223  1  0.74594721  0.87168829  0.95887885  1
  S2-  S224  1  0.12025652  -0.00653374  0.04323276  1
  S2-  S225  1  0.14232415  0.02455963  0.54699265  1
  S2-  S226  1  0.12048028  0.24637255  0.04592806  1
  S2-  S227  1  0.14362358  0.27295317  0.52821989  1
  S2-  S228  1  0.12458023  0.49838911  0.04872990  1
  S2-  S229  1  0.14402612  0.52767005  0.54941961  1
  S2-  S230  1  0.12199628  0.73975429  0.02940967  1
  S2-  S231  1  0.14625904  0.77885026  0.54484617  1
  S2-  S232  1  0.37550444  -0.01477995  0.04873228  1
  S2-  S233  1  0.39038883  0.02580950  0.55201419  1
  S2-  S234  1  0.37264437  0.24107433  0.04805613  1
  S2-  S235  1  0.38710161  0.27817882  0.54116416  1
  S2-  S236  1  0.37471188  0.50312248  0.04578300  1
  S2-  S237  1  0.38877928  0.52311571  0.54652601  1
  S2-  S238  1  0.37507269  0.74141406  0.03138221  1
  S2-  S239  1  0.39340269  0.77565263  0.55243250  1
  S2-  S240  1  0.62326802  -0.00700712  0.05726339  1
  S2-  S241  1  0.64664754  0.02808364  0.54511963  1
  S2-  S242  1  0.62726653  0.24351501  0.03942075  1
  S2-  S243  1  0.64568178  0.27865080  0.54254429  1
  S2-  S244  1  0.62266303  0.50225046  0.03279045  1
  S2-  S245  1  0.64315679  0.52570613  0.54033096  1
  S2-  S246  1  0.62526751  0.74294917  0.03708959  1
  S2-  S247  1  0.64295502  0.77243419  0.54235014  1
  S2-  S248  1  0.87226600  -0.00756536  0.04729662  1
  S2-  S249  1  0.89178601  0.02923961  0.54977940  1
  S2-  S250  1  0.87382956  0.24948319  0.04769667  1
  S2-  S251  1  0.89213381  0.27200490  0.53816971  1
  S2-  S252  1  0.87578528  0.49687896  0.05705373  1
  S2-  S253  1  0.90007334  0.52767383  0.54724231  1
  S2-  S254  1  0.87595299  0.74342028  0.03280594  1
  S2-  S255  1  0.88957428  0.77650317  0.54732896  1
