# generated using pymatgen
data_La6Ce6Pr19Nd20Sm13(BiS2)64
_symmetry_space_group_name_H-M   'P 1'
_cell_length_a   16.05410422
_cell_length_b   16.02981032
_cell_length_c   27.40688760
_cell_angle_alpha   89.69057903
_cell_angle_beta   90.65756309
_cell_angle_gamma   89.98241076
_symmetry_Int_Tables_number   1
_chemical_formula_structural   La6Ce6Pr19Nd20Sm13(BiS2)64
_chemical_formula_sum   'La6 Ce6 Pr19 Nd20 Sm13 Bi64 S128'
_cell_volume   7052.43700909
_cell_formula_units_Z   1
loop_
 _symmetry_equiv_pos_site_id
 _symmetry_equiv_pos_as_xyz
  1  'x, y, z'
loop_
 _atom_type_symbol
 _atom_type_oxidation_number
  La3+  3.0
  Ce3+  3.0
  Pr3+  3.0
  Nd3+  3.0
  Sm3+  3.0
  Bi2+  2.0
  S2-  -2.0
loop_
 _atom_site_type_symbol
 _atom_site_label
 _atom_site_symmetry_multiplicity
 _atom_site_fract_x
 _atom_site_fract_y
 _atom_site_fract_z
 _atom_site_occupancy
  La3+  La0  1  0.00711924  0.39554447  0.57874981  1
  La3+  La1  1  0.48807635  0.63604295  0.09217837  1
  La3+  La2  1  0.86479174  0.00341180  0.92998612  1
  La3+  La3  1  0.27073304  0.63849945  0.57876288  1
  La3+  La4  1  0.27252755  0.14142814  0.56617989  1
  La3+  La5  1  0.38123660  0.01587697  0.42344488  1
  Ce3+  Ce6  1  0.51117890  0.14315294  0.55496453  1
  Ce3+  Ce7  1  0.51148340  0.89088041  0.56509330  1
  Ce3+  Ce8  1  0.88946024  0.77044659  0.45282674  1
  Ce3+  Ce9  1  0.51498133  0.64357993  0.56152895  1
  Ce3+  Ce10  1  0.76041614  0.89624145  0.57229009  1
  Ce3+  Ce11  1  0.61783436  0.25746296  0.93122041  1
  Pr3+  Pr12  1  -0.00966772  0.13374323  0.06631717  1
  Pr3+  Pr13  1  0.01890453  0.14388451  0.56520270  1
  Pr3+  Pr14  1  0.61515906  0.75739082  0.94467959  1
  Pr3+  Pr15  1  0.01369354  0.89631029  0.57715366  1
  Pr3+  Pr16  1  0.76075566  0.63973896  0.56443266  1
  Pr3+  Pr17  1  0.37832750  0.76369578  0.42823739  1
  Pr3+  Pr18  1  0.13697861  0.27095038  0.44354914  1
  Pr3+  Pr19  1  0.88984801  0.51894041  0.43109808  1
  Pr3+  Pr20  1  0.10705141  0.51392754  0.91806848  1
  Pr3+  Pr21  1  -0.00471383  0.63266946  0.06900518  1
  Pr3+  Pr22  1  0.36478697  0.51489727  0.92869232  1
  Pr3+  Pr23  1  0.26804723  0.39011808  0.57594478  1
  Pr3+  Pr24  1  0.63734800  0.01906518  0.44277270  1
  Pr3+  Pr25  1  0.88934216  0.02005127  0.43281613  1
  Pr3+  Pr26  1  0.73744783  0.38197925  0.06968857  1
  Pr3+  Pr27  1  0.24203092  0.62200957  0.06674418  1
  Pr3+  Pr28  1  0.36600235  0.25255544  0.90763136  1
  Pr3+  Pr29  1  0.24388922  0.38048965  0.05297440  1
  Pr3+  Pr30  1  0.01926069  0.64299367  0.57405328  1
  Nd3+  Nd31  1  0.61565317  0.00668596  0.94219483  1
  Nd3+  Nd32  1  0.38337951  0.51770537  0.43288541  1
  Nd3+  Nd33  1  0.63509406  0.52781242  0.42796108  1
  Nd3+  Nd34  1  0.63785133  0.27338313  0.43559672  1
  Nd3+  Nd35  1  0.38426496  0.26981751  0.42764459  1
  Nd3+  Nd36  1  0.11429865  0.75665174  0.93876493  1
  Nd3+  Nd37  1  0.11187011  0.26108056  0.92977264  1
  Nd3+  Nd38  1  0.88808354  0.27047234  0.43351182  1
  Nd3+  Nd39  1  0.76752329  0.14397406  0.56489013  1
  Nd3+  Nd40  1  0.49017723  0.13280853  0.06229445  1
  Nd3+  Nd41  1  0.74271653  0.63432503  0.07265332  1
  Nd3+  Nd42  1  0.74252135  0.13243519  0.06646438  1
  Nd3+  Nd43  1  0.26576660  0.89154990  0.56837684  1
  Nd3+  Nd44  1  0.51307126  0.39366684  0.55867185  1
  Nd3+  Nd45  1  -0.00727616  0.38231864  0.06545629  1
  Nd3+  Nd46  1  0.76312724  0.39441400  0.55870342  1
  Nd3+  Nd47  1  -0.00602577  0.88526145  0.06950514  1
  Nd3+  Nd48  1  0.24579404  0.88218762  0.05634423  1
  Nd3+  Nd49  1  0.74362777  0.88219818  0.07177304  1
  Nd3+  Nd50  1  0.36531112  0.75578746  0.94005555  1
  Sm3+  Sm51  1  0.63605676  0.77042492  0.43947458  1
  Sm3+  Sm52  1  0.13768932  0.76754044  0.44869856  1
  Sm3+  Sm53  1  0.24425400  0.13988055  0.05629700  1
  Sm3+  Sm54  1  0.49064201  0.38267974  0.04600721  1
  Sm3+  Sm55  1  0.86418513  0.25998934  0.93588617  1
  Sm3+  Sm56  1  0.49121549  0.88500804  0.06608261  1
  Sm3+  Sm57  1  0.86483669  0.50925692  0.94651915  1
  Sm3+  Sm58  1  0.36468995  0.01067753  0.93820596  1
  Sm3+  Sm59  1  0.13859331  0.51849122  0.45084014  1
  Sm3+  Sm60  1  0.61603841  0.51243441  0.94627173  1
  Sm3+  Sm61  1  0.13502079  0.01725116  0.44069458  1
  Sm3+  Sm62  1  0.11490050  0.01087306  0.94595069  1
  Sm3+  Sm63  1  0.86642701  0.76080315  0.94301496  1
  Bi2+  Bi64  1  -0.00263050  0.12753562  0.29808268  1
  Bi2+  Bi65  1  -0.00376128  0.13316384  0.79794557  1
  Bi2+  Bi66  1  0.00116954  0.34787161  0.28604230  1
  Bi2+  Bi67  1  -0.05337900  0.38790520  0.78595525  1
  Bi2+  Bi68  1  -0.01567043  0.63205628  0.31304646  1
  Bi2+  Bi69  1  -0.06767774  0.61056784  0.77835775  1
  Bi2+  Bi70  1  0.03284834  0.90998527  0.27239831  1
  Bi2+  Bi71  1  -0.00201822  0.78572485  0.81530999  1
  Bi2+  Bi72  1  0.25095435  0.14902876  0.29735334  1
  Bi2+  Bi73  1  0.23749687  0.09300673  0.79723068  1
  Bi2+  Bi74  1  0.23414276  0.40693569  0.24138466  1
  Bi2+  Bi75  1  0.25823547  0.35446477  0.77408126  1
  Bi2+  Bi76  1  0.25083999  0.62098677  0.30395408  1
  Bi2+  Bi77  1  0.25862080  0.58737402  0.80446525  1
  Bi2+  Bi78  1  0.27050814  0.88574551  0.29442686  1
  Bi2+  Bi79  1  0.26905421  0.85324845  0.78948931  1
  Bi2+  Bi80  1  0.47918725  0.02297297  0.29445476  1
  Bi2+  Bi81  1  0.50059380  0.17168860  0.75574284  1
  Bi2+  Bi82  1  0.42072405  0.34358947  0.27101186  1
  Bi2+  Bi83  1  0.55047090  0.36541932  0.77120654  1
  Bi2+  Bi84  1  0.53686763  0.59284615  0.29434823  1
  Bi2+  Bi85  1  0.53568300  0.62714225  0.76720248  1
  Bi2+  Bi86  1  0.54337952  0.84781211  0.24593434  1
  Bi2+  Bi87  1  0.46210415  0.88990168  0.80200370  1
  Bi2+  Bi88  1  0.73941329  0.08470783  0.29927719  1
  Bi2+  Bi89  1  0.71924138  0.15655804  0.79106355  1
  Bi2+  Bi90  1  0.73933444  0.36155469  0.29583171  1
  Bi2+  Bi91  1  0.75012380  0.41939985  0.79156574  1
  Bi2+  Bi92  1  0.80491863  0.57665678  0.28310181  1
  Bi2+  Bi93  1  0.73460593  0.62618406  0.79505172  1
  Bi2+  Bi94  1  0.81163269  0.89840797  0.30793021  1
  Bi2+  Bi95  1  0.71165364  0.90401742  0.80134896  1
  Bi2+  Bi96  1  0.13001309  0.06252878  0.21563802  1
  Bi2+  Bi97  1  0.10658908  -0.05550306  0.74423258  1
  Bi2+  Bi98  1  0.11442403  0.26381770  0.20311146  1
  Bi2+  Bi99  1  0.08156493  0.21842061  0.71276066  1
  Bi2+  Bi100  1  0.08321815  0.53462137  0.22973490  1
  Bi2+  Bi101  1  0.11351510  0.51390132  0.70475586  1
  Bi2+  Bi102  1  0.09809638  0.73470083  0.23458932  1
  Bi2+  Bi103  1  0.04992635  0.77065701  0.70353310  1
  Bi2+  Bi104  1  0.33448316  0.02026789  0.19683182  1
  Bi2+  Bi105  1  0.36178475  -0.01213764  0.71604283  1
  Bi2+  Bi106  1  0.38931760  0.20754632  0.18632374  1
  Bi2+  Bi107  1  0.33316618  0.23610977  0.69764261  1
  Bi2+  Bi108  1  0.38215271  0.50122906  0.19271573  1
  Bi2+  Bi109  1  0.41271513  0.49954079  0.70226240  1
  Bi2+  Bi110  1  0.36595733  0.78303904  0.21380830  1
  Bi2+  Bi111  1  0.39755966  0.75739733  0.72203498  1
  Bi2+  Bi112  1  0.61369600  0.02537070  0.20745117  1
  Bi2+  Bi113  1  0.56130400  -0.01127247  0.71977070  1
  Bi2+  Bi114  1  0.56102899  0.20509276  0.24497831  1
  Bi2+  Bi115  1  0.63219418  0.25923732  0.68495495  1
  Bi2+  Bi116  1  0.62310582  0.43154401  0.19960198  1
  Bi2+  Bi117  1  0.62125590  0.45969383  0.67280956  1
  Bi2+  Bi118  1  0.71844499  0.75428075  0.24952415  1
  Bi2+  Bi119  1  0.65166905  0.75602721  0.71151905  1
  Bi2+  Bi120  1  0.87834574  -0.02778989  0.21112410  1
  Bi2+  Bi121  1  0.86607937  0.02322858  0.71368542  1
  Bi2+  Bi122  1  0.83799869  0.25092629  0.21512354  1
  Bi2+  Bi123  1  0.82755160  0.27250165  0.72311455  1
  Bi2+  Bi124  1  0.87872796  0.44281499  0.20701155  1
  Bi2+  Bi125  1  0.80660500  0.51264609  0.68732115  1
  Bi2+  Bi126  1  0.89074501  0.70355069  0.20380213  1
  Bi2+  Bi127  1  0.85210290  0.76608190  0.72029687  1
  S2-  S128  1  -0.00171147  0.00963603  0.14326045  1
  S2-  S129  1  -0.02765304  0.10766575  0.66091438  1
  S2-  S130  1  -0.01971971  0.25772282  0.14053037  1
  S2-  S131  1  0.11315568  0.36112239  0.66071371  1
  S2-  S132  1  0.00228005  0.50316353  0.14140314  1
  S2-  S133  1  -0.02335304  0.53544474  0.65129407  1
  S2-  S134  1  0.01111625  0.76131705  0.14210677  1
  S2-  S135  1  -0.12054077  0.89922698  0.64813563  1
  S2-  S136  1  0.24915408  0.25358208  0.13087223  1
  S2-  S137  1  0.19224607  0.14449094  0.65738469  1
  S2-  S138  1  0.24171541  0.47832495  0.13877942  1
  S2-  S139  1  0.26449735  0.50282808  0.65694583  1
  S2-  S140  1  0.33814697  0.65311733  0.15157496  1
  S2-  S141  1  0.14582727  0.66175530  0.65335415  1
  S2-  S142  1  0.25135784  0.88133714  0.15583835  1
  S2-  S143  1  0.14480466  0.90192683  0.64907489  1
  S2-  S144  1  0.48086262  0.01173238  0.13689444  1
  S2-  S145  1  0.41612689  0.12822257  0.63493596  1
  S2-  S146  1  0.48936280  0.37566938  0.14485913  1
  S2-  S147  1  0.41172527  0.36178247  0.63989194  1
  S2-  S148  1  0.55191911  0.57936900  0.18860152  1
  S2-  S149  1  0.41505355  0.64484995  0.64347045  1
  S2-  S150  1  0.50222562  0.79018299  0.15022846  1
  S2-  S151  1  0.39165635  0.87943647  0.64067991  1
  S2-  S152  1  0.75041814  0.00989051  0.14188357  1
  S2-  S153  1  0.74963603  0.09543305  0.66111144  1
  S2-  S154  1  0.72714249  0.25325775  0.14285772  1
  S2-  S155  1  0.86199801  0.36191435  0.64108597  1
  S2-  S156  1  0.74349555  0.50418896  0.14588007  1
  S2-  S157  1  0.63789127  0.63898695  0.63725043  1
  S2-  S158  1  0.74868018  0.75685217  0.14568266  1
  S2-  S159  1  0.62966558  0.89086685  0.64384898  1
  S2-  S160  1  0.23288123  0.01662853  0.35692959  1
  S2-  S161  1  0.09885046  0.00951952  0.84787478  1
  S2-  S162  1  0.11773072  0.24518898  0.34375330  1
  S2-  S163  1  0.21729987  0.24148979  0.84837889  1
  S2-  S164  1  0.15494661  0.51789773  0.35239637  1
  S2-  S165  1  0.14424765  0.45459934  0.81831141  1
  S2-  S166  1  0.21679493  0.76138267  0.36051493  1
  S2-  S167  1  0.12611266  0.66401186  0.85461523  1
  S2-  S168  1  0.40537487  -0.11672616  0.35232406  1
  S2-  S169  1  0.37020073  0.09278089  0.85200134  1
  S2-  S170  1  0.39427993  0.15115777  0.34978603  1
  S2-  S171  1  0.51262140  0.25869701  0.84934391  1
  S2-  S172  1  0.36953635  0.39537523  0.35740860  1
  S2-  S173  1  0.35728021  0.44368722  0.83327308  1
  S2-  S174  1  0.39990562  0.63194473  0.35301093  1
  S2-  S175  1  0.37052948  0.65748910  0.85768562  1
  S2-  S176  1  0.63250665  -0.02633854  0.34575683  1
  S2-  S177  1  0.63226398  0.03555583  0.84420057  1
  S2-  S178  1  0.64901614  0.22777469  0.33950081  1
  S2-  S179  1  0.74274966  0.27381339  0.86157568  1
  S2-  S180  1  0.61183704  0.45325916  0.33678610  1
  S2-  S181  1  0.60663469  0.54813736  0.84921661  1
  S2-  S182  1  0.63106448  0.66893815  0.35782104  1
  S2-  S183  1  0.60578279  0.81045839  0.84800923  1
  S2-  S184  1  1.01923231  -0.00559171  0.36296553  1
  S2-  S185  1  0.85866339  0.07358132  0.83468822  1
  S2-  S186  1  0.87216402  0.15018540  0.35910260  1
  S2-  S187  1  0.98033929  0.26816116  0.85888364  1
  S2-  S188  1  0.88967823  0.39150062  0.35753740  1
  S2-  S189  1  0.94984628  0.50722689  0.86116251  1
  S2-  S190  1  0.90269360  0.77058467  0.35593870  1
  S2-  S191  1  0.85471645  0.85949366  0.86137132  1
  S2-  S192  1  0.01381616  0.14491021  0.45889531  1
  S2-  S193  1  -0.01010774  0.13012622  0.95646451  1
  S2-  S194  1  0.01331904  0.39669401  0.46057922  1
  S2-  S195  1  -0.01319073  0.38467830  0.95943164  1
  S2-  S196  1  0.01456266  0.64244722  0.46123222  1
  S2-  S197  1  -0.01353214  0.63821033  0.95921446  1
  S2-  S198  1  0.01496338  0.89071971  0.46724067  1
  S2-  S199  1  -0.00461969  0.88275890  0.96099368  1
  S2-  S200  1  0.25956213  0.14500981  0.45694889  1
  S2-  S201  1  0.23934216  0.13138630  0.95408629  1
  S2-  S202  1  0.25998843  0.39493358  0.46238880  1
  S2-  S203  1  0.23767217  0.38695345  0.94551456  1
  S2-  S204  1  0.25892472  0.64006091  0.46453645  1
  S2-  S205  1  0.23941576  0.63393279  0.95931549  1
  S2-  S206  1  0.25729975  0.89178645  0.46146189  1
  S2-  S207  1  0.24052789  0.88476891  0.94865388  1
  S2-  S208  1  0.51537307  0.14662758  0.45028834  1
  S2-  S209  1  0.49106694  0.12959154  0.95578231  1
  S2-  S210  1  0.51502072  0.39573788  0.45256684  1
  S2-  S211  1  0.49308142  0.38909501  0.94408079  1
  S2-  S212  1  0.51188074  0.64632336  0.45717937  1
  S2-  S213  1  0.49291348  0.63439176  0.95797385  1
  S2-  S214  1  0.51557178  0.89037346  0.45616965  1
  S2-  S215  1  0.48658642  0.88510032  0.95692066  1
  S2-  S216  1  0.76030633  0.14623914  0.45822040  1
  S2-  S217  1  0.74146843  0.13010691  0.95766592  1
  S2-  S218  1  0.75980539  0.39780955  0.45323740  1
  S2-  S219  1  0.73950110  0.39054740  0.96059820  1
  S2-  S220  1  0.76569633  0.64444860  0.45565824  1
  S2-  S221  1  0.74374390  0.63566004  0.95758968  1
  S2-  S222  1  0.76297401  0.89304463  0.45832938  1
  S2-  S223  1  0.73903895  0.88207955  0.96353626  1
  S2-  S224  1  0.12466031  0.01143731  0.04858670  1
  S2-  S225  1  0.14027186  0.01875803  0.54556870  1
  S2-  S226  1  0.11465416  0.25607111  0.03587011  1
  S2-  S227  1  0.14063121  0.26985597  0.54925447  1
  S2-  S228  1  0.11433255  0.50674323  0.03468899  1
  S2-  S229  1  0.13850797  0.51397882  0.55248943  1
  S2-  S230  1  0.12383260  0.75749844  0.04403850  1
  S2-  S231  1  0.14011320  0.76893549  0.54956858  1
  S2-  S232  1  0.36284096  0.01050932  0.04076207  1
  S2-  S233  1  0.39120450  0.01402539  0.53479968  1
  S2-  S234  1  0.37178104  0.25621855  0.03124017  1
  S2-  S235  1  0.39135078  0.26860425  0.53371483  1
  S2-  S236  1  0.37385043  0.50910834  0.03960531  1
  S2-  S237  1  0.39127253  0.51555023  0.54097872  1
  S2-  S238  1  0.36785319  0.75822376  0.04412557  1
  S2-  S239  1  0.38850466  0.76623539  0.53849330  1
  S2-  S240  1  0.61481952  0.00657070  0.04551050  1
  S2-  S241  1  0.63824851  0.02292719  0.54770662  1
  S2-  S242  1  0.61160180  0.25564572  0.03955057  1
  S2-  S243  1  0.64005425  0.26790046  0.54386232  1
  S2-  S244  1  0.61024134  0.51284619  0.04916262  1
  S2-  S245  1  0.63874275  0.51548909  0.53569051  1
  S2-  S246  1  0.61412877  0.75647209  0.04884749  1
  S2-  S247  1  0.64152475  0.76987991  0.54047156  1
  S2-  S248  1  0.86783245  0.00675945  0.04054279  1
  S2-  S249  1  0.88860433  0.02054667  0.54311125  1
  S2-  S250  1  0.86282224  0.25909685  0.03959633  1
  S2-  S251  1  0.88962154  0.26548076  0.54016014  1
  S2-  S252  1  0.86513703  0.50983279  0.04686306  1
  S2-  S253  1  0.88549556  0.51995791  0.53879104  1
  S2-  S254  1  0.86873890  0.75906190  0.04485087  1
  S2-  S255  1  0.88807010  0.76370516  0.55681285  1
