# generated using pymatgen
data_La6Ce6Pr19Nd20Sm13(BiS2)64
_symmetry_space_group_name_H-M   'P 1'
_cell_length_a   16.05383448
_cell_length_b   16.06886339
_cell_length_c   27.44193239
_cell_angle_alpha   90.12964161
_cell_angle_beta   89.83964443
_cell_angle_gamma   90.03895823
_symmetry_Int_Tables_number   1
_chemical_formula_structural   La6Ce6Pr19Nd20Sm13(BiS2)64
_chemical_formula_sum   'La6 Ce6 Pr19 Nd20 Sm13 Bi64 S128'
_cell_volume   7079.06204117
_cell_formula_units_Z   1
loop_
 _symmetry_equiv_pos_site_id
 _symmetry_equiv_pos_as_xyz
  1  'x, y, z'
loop_
 _atom_type_symbol
 _atom_type_oxidation_number
  La3+  3.0
  Ce3+  3.0
  Pr3+  3.0
  Nd3+  3.0
  Sm3+  3.0
  Bi2+  2.0
  S2-  -2.0
loop_
 _atom_site_type_symbol
 _atom_site_label
 _atom_site_symmetry_multiplicity
 _atom_site_fract_x
 _atom_site_fract_y
 _atom_site_fract_z
 _atom_site_occupancy
  La3+  La0  1  0.74129270  0.38619894  0.09092235  1
  La3+  La1  1  0.53321329  0.12535167  0.61958329  1
  La3+  La2  1  0.60094297  0.74692270  0.42189645  1
  La3+  La3  1  0.60862394  0.49321920  0.39592029  1
  La3+  La4  1  0.85990659  -0.01246515  0.38763089  1
  La3+  La5  1  -0.01532752  0.37177888  0.57949135  1
  Ce3+  Ce6  1  0.62448746  0.75336550  0.93907387  1
  Ce3+  Ce7  1  0.10361729  0.74786526  0.44081915  1
  Ce3+  Ce8  1  0.37202393  0.24927204  0.94342312  1
  Ce3+  Ce9  1  0.73098345  0.62160378  0.54949389  1
  Ce3+  Ce10  1  0.37494529  0.50128917  0.94606686  1
  Ce3+  Ce11  1  0.86923951  0.00811283  0.93829890  1
  Pr3+  Pr12  1  0.85991245  0.24970993  0.42862186  1
  Pr3+  Pr13  1  0.86682021  0.49848896  0.93981657  1
  Pr3+  Pr14  1  0.35871138  0.49070016  0.41889934  1
  Pr3+  Pr15  1  0.37752627  0.74960940  0.93501416  1
  Pr3+  Pr16  1  0.37313570  -0.02048512  0.88525414  1
  Pr3+  Pr17  1  0.60540344  -0.00479555  0.43544439  1
  Pr3+  Pr18  1  0.11644410  0.25345989  0.93534390  1
  Pr3+  Pr19  1  0.48287777  0.62249736  0.55564269  1
  Pr3+  Pr20  1  0.49419242  0.63990665  0.08971370  1
  Pr3+  Pr21  1  0.10477217  -0.00238357  0.43458106  1
  Pr3+  Pr22  1  0.73034364  0.87646735  0.55570048  1
  Pr3+  Pr23  1  -0.02499233  0.62346685  0.57130953  1
  Pr3+  Pr24  1  0.47792647  0.86779922  0.57296192  1
  Pr3+  Pr25  1  0.87156854  0.75058836  0.94100872  1
  Pr3+  Pr26  1  0.24120980  0.12154287  0.57117085  1
  Pr3+  Pr27  1  0.12163961  0.00374187  0.93249261  1
  Pr3+  Pr28  1  0.24876530  0.63134564  0.06873353  1
  Pr3+  Pr29  1  0.48173270  0.37234211  0.56352980  1
  Pr3+  Pr30  1  -0.00579762  0.87954666  0.05751004  1
  Nd3+  Nd31  1  -0.01682799  0.12461505  0.55914256  1
  Nd3+  Nd32  1  0.23222792  0.87090492  0.56436801  1
  Nd3+  Nd33  1  0.62336972  0.25562079  0.94652168  1
  Nd3+  Nd34  1  -0.01379741  0.87314574  0.56757920  1
  Nd3+  Nd35  1  0.74986199  0.12877357  0.07030451  1
  Nd3+  Nd36  1  0.85995376  0.49301170  0.43589247  1
  Nd3+  Nd37  1  0.62707110  0.00506105  0.93095319  1
  Nd3+  Nd38  1  0.24334900  0.12687561  0.05533811  1
  Nd3+  Nd39  1  0.49573203  0.88611630  0.05988461  1
  Nd3+  Nd40  1  0.10788859  0.49506766  0.43427014  1
  Nd3+  Nd41  1  0.24905936  0.37688987  0.06824097  1
  Nd3+  Nd42  1  0.73182233  0.36952728  0.55332797  1
  Nd3+  Nd43  1  -0.00387155  0.62616887  0.06626236  1
  Nd3+  Nd44  1  0.74448757  0.88074785  0.06308443  1
  Nd3+  Nd45  1  0.12241940  0.75146840  0.94653377  1
  Nd3+  Nd46  1  0.10682509  0.24575551  0.44296449  1
  Nd3+  Nd47  1  0.35806276  -0.00339972  0.44462121  1
  Nd3+  Nd48  1  0.35569130  0.75597041  0.42787600  1
  Nd3+  Nd49  1  0.49104518  0.37913027  0.07432721  1
  Nd3+  Nd50  1  0.35910625  0.24839770  0.44464189  1
  Sm3+  Sm51  1  0.62034541  0.50119287  0.95381512  1
  Sm3+  Sm52  1  0.73778394  0.12043163  0.54183782  1
  Sm3+  Sm53  1  -0.00288174  0.38007392  0.06306123  1
  Sm3+  Sm54  1  0.12368938  0.50212024  0.94843132  1
  Sm3+  Sm55  1  0.85527894  0.74722165  0.43983676  1
  Sm3+  Sm56  1  0.49669348  0.12326467  0.05585284  1
  Sm3+  Sm57  1  0.60447820  0.24753962  0.43838463  1
  Sm3+  Sm58  1  0.00151259  0.12715596  0.07309628  1
  Sm3+  Sm59  1  0.23083989  0.62277360  0.55071194  1
  Sm3+  Sm60  1  0.22896890  0.37712599  0.55850581  1
  Sm3+  Sm61  1  0.24791172  0.88039844  0.05224534  1
  Sm3+  Sm62  1  0.74364539  0.62976009  0.06314907  1
  Sm3+  Sm63  1  0.87098912  0.25558880  0.95901969  1
  Bi2+  Bi64  1  0.13687839  0.14052492  0.30679537  1
  Bi2+  Bi65  1  -0.00906365  0.05756646  0.82952841  1
  Bi2+  Bi66  1  0.03684383  0.39471051  0.26494333  1
  Bi2+  Bi67  1  0.02073519  0.38359662  0.81314445  1
  Bi2+  Bi68  1  0.07501226  0.59148220  0.30936117  1
  Bi2+  Bi69  1  0.03227128  0.64253135  0.78764186  1
  Bi2+  Bi70  1  0.05670581  0.87202994  0.27717873  1
  Bi2+  Bi71  1  -0.00237567  0.86942336  0.79169152  1
  Bi2+  Bi72  1  0.34070920  0.15499829  0.31849753  1
  Bi2+  Bi73  1  0.15658928  0.14368802  0.79746176  1
  Bi2+  Bi74  1  0.23262559  0.38085025  0.28757547  1
  Bi2+  Bi75  1  0.28930202  0.43248790  0.73562071  1
  Bi2+  Bi76  1  0.25646521  0.68878646  0.28742391  1
  Bi2+  Bi77  1  0.23092356  0.62838485  0.75975772  1
  Bi2+  Bi78  1  0.25342338  0.97548357  0.29638612  1
  Bi2+  Bi79  1  0.21929562  0.85467516  0.78283969  1
  Bi2+  Bi80  1  0.53746157  0.10615017  0.31594344  1
  Bi2+  Bi81  1  0.51305809  0.15063687  0.81322669  1
  Bi2+  Bi82  1  0.48155503  0.36277987  0.28392005  1
  Bi2+  Bi83  1  0.46893376  0.39224384  0.78946732  1
  Bi2+  Bi84  1  0.51506707  0.64357667  0.27878067  1
  Bi2+  Bi85  1  0.48624902  0.60991976  0.79099050  1
  Bi2+  Bi86  1  0.49160963  0.91565441  0.28518710  1
  Bi2+  Bi87  1  0.50284778  0.84966594  0.78198056  1
  Bi2+  Bi88  1  0.72240234  0.13156871  0.27796006  1
  Bi2+  Bi89  1  0.82089542  0.10334279  0.77530896  1
  Bi2+  Bi90  1  0.78744873  0.31691096  0.29107728  1
  Bi2+  Bi91  1  0.76776383  0.35347055  0.82075509  1
  Bi2+  Bi92  1  0.88571366  0.54483834  0.30601982  1
  Bi2+  Bi93  1  0.74828664  0.59840717  0.80382946  1
  Bi2+  Bi94  1  0.72534762  0.80566451  0.29320193  1
  Bi2+  Bi95  1  0.79788605  0.88074472  0.78754910  1
  Bi2+  Bi96  1  0.12933787  0.00223038  0.20122023  1
  Bi2+  Bi97  1  0.14838198  0.04793574  0.69291116  1
  Bi2+  Bi98  1  0.17075359  0.27543641  0.19577554  1
  Bi2+  Bi99  1  0.11010349  0.23786141  0.70101609  1
  Bi2+  Bi100  1  0.11407477  0.57544890  0.18518958  1
  Bi2+  Bi101  1  0.09263319  0.49401128  0.71932263  1
  Bi2+  Bi102  1  0.16691436  0.76529610  0.19586669  1
  Bi2+  Bi103  1  0.10893834  0.76204973  0.70227925  1
  Bi2+  Bi104  1  0.39050751  0.04675806  0.21686666  1
  Bi2+  Bi105  1  0.36562150  -0.00934501  0.70590804  1
  Bi2+  Bi106  1  0.36283970  0.23867677  0.20148968  1
  Bi2+  Bi107  1  0.38532897  0.27500417  0.70953872  1
  Bi2+  Bi108  1  0.29279443  0.51591890  0.21239866  1
  Bi2+  Bi109  1  0.44008814  0.50666684  0.67626833  1
  Bi2+  Bi110  1  0.36231824  0.79150815  0.21106210  1
  Bi2+  Bi111  1  0.36683436  0.69917702  0.68629729  1
  Bi2+  Bi112  1  0.61495231  -0.05026668  0.19541525  1
  Bi2+  Bi113  1  0.67722822  -0.01692514  0.70398662  1
  Bi2+  Bi114  1  0.56147497  0.22101234  0.22025942  1
  Bi2+  Bi115  1  0.68235345  0.26641338  0.70318218  1
  Bi2+  Bi116  1  0.66831045  0.46561781  0.21868834  1
  Bi2+  Bi117  1  0.62201634  0.51789648  0.72327363  1
  Bi2+  Bi118  1  0.63443510  0.72962320  0.20054109  1
  Bi2+  Bi119  1  0.60705943  0.72028066  0.72335646  1
  Bi2+  Bi120  1  0.85733089  -0.02030652  0.19567141  1
  Bi2+  Bi121  1  0.95540682  0.00814827  0.71345525  1
  Bi2+  Bi122  1  0.96981618  0.17063811  0.25161451  1
  Bi2+  Bi123  1  0.92389853  0.26352231  0.73853938  1
  Bi2+  Bi124  1  0.90875769  0.48337628  0.19235817  1
  Bi2+  Bi125  1  0.83533589  0.49803283  0.70955312  1
  Bi2+  Bi126  1  0.93390138  0.71742633  0.26320017  1
  Bi2+  Bi127  1  0.84100546  0.73662268  0.71087681  1
  S2-  S128  1  -0.07835177  0.13197917  0.16384385  1
  S2-  S129  1  -0.03777465  0.22784112  0.64059738  1
  S2-  S130  1  0.03340124  0.35911186  0.15755250  1
  S2-  S131  1  -0.03158381  0.50622473  0.64849155  1
  S2-  S132  1  -0.04207542  0.65436839  0.16201488  1
  S2-  S133  1  -0.03865682  0.75146704  0.64459760  1
  S2-  S134  1  -0.01014451  0.91511714  0.15497324  1
  S2-  S135  1  0.11465386  0.89621873  0.63870147  1
  S2-  S136  1  0.14120972  0.12627048  0.13730400  1
  S2-  S137  1  0.35872720  0.13247422  0.64995918  1
  S2-  S138  1  0.36026422  0.39441049  0.14534708  1
  S2-  S139  1  0.14180249  0.38020180  0.64308109  1
  S2-  S140  1  0.34895934  0.64072507  0.15034757  1
  S2-  S141  1  0.21291563  0.63391830  0.64898804  1
  S2-  S142  1  0.25579453  0.89982816  0.14995282  1
  S2-  S143  1  0.33685636  0.84898697  0.64439058  1
  S2-  S144  1  0.50034673  0.01622390  0.13509830  1
  S2-  S145  1  0.56994137  0.12862107  0.72599849  1
  S2-  S146  1  0.59635990  0.35583195  0.15266587  1
  S2-  S147  1  0.53101702  0.29934127  0.65157637  1
  S2-  S148  1  0.55179094  0.57438416  0.18064977  1
  S2-  S149  1  0.52155527  0.72662446  0.63667332  1
  S2-  S150  1  0.50167310  0.79360674  0.14585174  1
  S2-  S151  1  0.52302934  0.96028303  0.65792089  1
  S2-  S152  1  0.71552723  0.07179714  0.16162838  1
  S2-  S153  1  0.71362953  0.12901204  0.63958827  1
  S2-  S154  1  0.79951071  0.34810200  0.18711794  1
  S2-  S155  1  0.77469692  0.36429199  0.65067540  1
  S2-  S156  1  0.76243245  0.54355410  0.14674994  1
  S2-  S157  1  0.78078453  0.62042692  0.64405087  1
  S2-  S158  1  0.76002627  0.83924399  0.15974269  1
  S2-  S159  1  0.74289256  0.85883557  0.65715638  1
  S2-  S160  1  0.01961873  -0.00924715  0.34563562  1
  S2-  S161  1  0.20965420  -0.01367175  0.84563694  1
  S2-  S162  1  0.09713583  0.29785195  0.34822277  1
  S2-  S163  1  0.15854866  0.30171106  0.84175538  1
  S2-  S164  1  0.21679357  0.50839142  0.35508878  1
  S2-  S165  1  0.10528682  0.51909054  0.85282902  1
  S2-  S166  1  0.15381643  0.78060161  0.34912360  1
  S2-  S167  1  0.11127783  0.76226162  0.84896088  1
  S2-  S168  1  0.35860895  -0.09893220  0.36018390  1
  S2-  S169  1  0.37504374  0.06412990  0.79088987  1
  S2-  S170  1  0.35625777  0.33065702  0.35669148  1
  S2-  S171  1  0.39904047  0.27023462  0.84821341  1
  S2-  S172  1  0.46550831  0.51163290  0.33651932  1
  S2-  S173  1  0.38216437  0.51243634  0.84848180  1
  S2-  S174  1  0.46232234  0.72928986  0.35069762  1
  S2-  S175  1  0.36324403  0.81805466  0.84169980  1
  S2-  S176  1  0.61508215  -0.11221506  0.35452157  1
  S2-  S177  1  0.53893380  -0.01505003  0.84522388  1
  S2-  S178  1  0.59232813  0.32298757  0.35017153  1
  S2-  S179  1  0.66173622  0.23785803  0.84956780  1
  S2-  S180  1  0.71986538  0.47199833  0.31487666  1
  S2-  S181  1  0.66229408  0.47290904  0.85988463  1
  S2-  S182  1  0.65772392  0.66389781  0.33523470  1
  S2-  S183  1  0.57115377  0.74371196  0.84621562  1
  S2-  S184  1  0.78568801  -0.02620333  0.29248425  1
  S2-  S185  1  0.76171681  0.00899825  0.86091658  1
  S2-  S186  1  0.86645313  0.15822140  0.33906087  1
  S2-  S187  1  0.90432744  0.27155038  0.86382188  1
  S2-  S188  1  0.88945524  0.37985422  0.35948886  1
  S2-  S189  1  0.87756205  0.49936424  0.83965972  1
  S2-  S190  1  0.87099027  0.80901591  0.34890239  1
  S2-  S191  1  0.79548213  0.74111488  0.85160144  1
  S2-  S192  1  -0.02064366  0.12153392  0.45310664  1
  S2-  S193  1  -0.00493780  0.13062312  0.96543584  1
  S2-  S194  1  -0.01104579  0.37220657  0.46373400  1
  S2-  S195  1  -0.00236037  0.38176058  0.96017729  1
  S2-  S196  1  -0.01963636  0.62218661  0.44997466  1
  S2-  S197  1  -0.00282980  0.62486809  0.95802757  1
  S2-  S198  1  -0.02044174  0.87388722  0.45665063  1
  S2-  S199  1  -0.00471032  0.87740802  0.95053288  1
  S2-  S200  1  0.23300483  0.12203033  0.45676289  1
  S2-  S201  1  0.24437248  0.12995943  0.95016039  1
  S2-  S202  1  0.22965635  0.37251711  0.45644523  1
  S2-  S203  1  0.24687353  0.37818916  0.96052931  1
  S2-  S204  1  0.23459208  0.62633753  0.44855998  1
  S2-  S205  1  0.24691612  0.62741844  0.95667654  1
  S2-  S206  1  0.22698794  0.87417695  0.45853257  1
  S2-  S207  1  0.24906449  0.87606283  0.94942628  1
  S2-  S208  1  0.48207915  0.12374010  0.44717386  1
  S2-  S209  1  0.49922999  0.12723069  0.95281806  1
  S2-  S210  1  0.48530256  0.37440831  0.45736171  1
  S2-  S211  1  0.49718964  0.37700070  0.96345781  1
  S2-  S212  1  0.48458201  0.61078201  0.45079491  1
  S2-  S213  1  0.50036588  0.62579992  0.95443569  1
  S2-  S214  1  0.48157567  0.87310821  0.46169887  1
  S2-  S215  1  0.49660866  0.87988128  0.95287226  1
  S2-  S216  1  0.73149206  0.12199255  0.43823810  1
  S2-  S217  1  0.74971767  0.13407328  0.96354949  1
  S2-  S218  1  0.72635843  0.37488462  0.44871994  1
  S2-  S219  1  0.74596188  0.37762084  0.97124769  1
  S2-  S220  1  0.73414936  0.61684718  0.44496106  1
  S2-  S221  1  0.74474355  0.62473778  0.95999130  1
  S2-  S222  1  0.74502633  0.88207064  0.44995091  1
  S2-  S223  1  0.74846352  0.87684273  0.95758780  1
  S2-  S224  1  0.12057678  0.00016257  0.03941581  1
  S2-  S225  1  0.10919482  0.00517686  0.54091721  1
  S2-  S226  1  0.12066934  0.25899742  0.04297158  1
  S2-  S227  1  0.11368122  0.24356626  0.54692615  1
  S2-  S228  1  0.12476068  0.50203783  0.05290333  1
  S2-  S229  1  0.10520254  0.50290378  0.54078375  1
  S2-  S230  1  0.12122874  0.75408663  0.05149645  1
  S2-  S231  1  0.10482992  0.74268848  0.54399062  1
  S2-  S232  1  0.36578831  0.00488556  0.04374895  1
  S2-  S233  1  0.35574002  -0.00539738  0.54733725  1
  S2-  S234  1  0.37262934  0.24795120  0.04982758  1
  S2-  S235  1  0.35098316  0.25616985  0.54804369  1
  S2-  S236  1  0.37421217  0.50858747  0.04879088  1
  S2-  S237  1  0.35349309  0.49749551  0.54312685  1
  S2-  S238  1  0.37033797  0.75717223  0.04181496  1
  S2-  S239  1  0.35420468  0.74275770  0.53554316  1
  S2-  S240  1  0.62694027  0.00582208  0.03871958  1
  S2-  S241  1  0.60743988  0.00419718  0.54295622  1
  S2-  S242  1  0.61961694  0.24719126  0.05306105  1
  S2-  S243  1  0.60850068  0.24187764  0.54140150  1
  S2-  S244  1  0.61298231  0.51133364  0.05575530  1
  S2-  S245  1  0.60983379  0.49633515  0.55859437  1
  S2-  S246  1  0.62291662  0.75321513  0.04580310  1
  S2-  S247  1  0.61318495  0.74766507  0.53254495  1
  S2-  S248  1  0.87195631  0.00600559  0.04713691  1
  S2-  S249  1  0.86073569  -0.00030103  0.55839495  1
  S2-  S250  1  0.87445242  0.25565766  0.06217967  1
  S2-  S251  1  0.85579808  0.24656790  0.53591602  1
  S2-  S252  1  0.87326861  0.50301123  0.04730466  1
  S2-  S253  1  0.85644937  0.49501485  0.54010665  1
  S2-  S254  1  0.87006039  0.75004354  0.04834377  1
  S2-  S255  1  0.85580301  0.75000191  0.54112032  1
