# generated using pymatgen
data_La6Ce6Pr19Nd20Sm13(BiS2)64
_symmetry_space_group_name_H-M   'P 1'
_cell_length_a   15.96809995
_cell_length_b   16.09165002
_cell_length_c   27.42812288
_cell_angle_alpha   90.01561370
_cell_angle_beta   90.31292027
_cell_angle_gamma   89.91522981
_symmetry_Int_Tables_number   1
_chemical_formula_structural   La6Ce6Pr19Nd20Sm13(BiS2)64
_chemical_formula_sum   'La6 Ce6 Pr19 Nd20 Sm13 Bi64 S128'
_cell_volume   7047.62746910
_cell_formula_units_Z   1
loop_
 _symmetry_equiv_pos_site_id
 _symmetry_equiv_pos_as_xyz
  1  'x, y, z'
loop_
 _atom_type_symbol
 _atom_type_oxidation_number
  La3+  3.0
  Ce3+  3.0
  Pr3+  3.0
  Nd3+  3.0
  Sm3+  3.0
  Bi2+  2.0
  S2-  -2.0
loop_
 _atom_site_type_symbol
 _atom_site_label
 _atom_site_symmetry_multiplicity
 _atom_site_fract_x
 _atom_site_fract_y
 _atom_site_fract_z
 _atom_site_occupancy
  La3+  La0  1  0.00215611  0.38091209  0.60988877  1
  La3+  La1  1  -0.02868799  0.11514567  0.07118638  1
  La3+  La2  1  0.34309979  0.49773570  0.92485037  1
  La3+  La3  1  0.83828843  0.23995156  0.93113595  1
  La3+  La4  1  0.23262303  0.86876541  0.10341910  1
  La3+  La5  1  0.87139636  0.75805615  0.42029589  1
  Ce3+  Ce6  1  0.74727308  0.13154942  0.56629586  1
  Ce3+  Ce7  1  0.84159175  0.74083972  0.94517457  1
  Ce3+  Ce8  1  0.59467568  0.49231090  0.93408252  1
  Ce3+  Ce9  1  0.37347426  0.24867433  0.43772829  1
  Ce3+  Ce10  1  -0.02997408  0.86553054  0.06062180  1
  Ce3+  Ce11  1  0.21998243  0.61945037  0.06373827  1
  Pr3+  Pr12  1  0.75446741  0.87723014  0.56168675  1
  Pr3+  Pr13  1  0.84047275  -0.00342463  0.93357200  1
  Pr3+  Pr14  1  0.09307968  0.74408568  0.94111172  1
  Pr3+  Pr15  1  0.12438907  0.50192952  0.43316836  1
  Pr3+  Pr16  1  0.37191903  0.00118846  0.42760605  1
  Pr3+  Pr17  1  0.71184817  0.61640524  0.07024913  1
  Pr3+  Pr18  1  0.84629920  0.48625864  0.92457285  1
  Pr3+  Pr19  1  0.62208857  0.49840470  0.42940381  1
  Pr3+  Pr20  1  0.49830119  0.12432385  0.57397308  1
  Pr3+  Pr21  1  -0.00350198  0.13098053  0.56865608  1
  Pr3+  Pr22  1  0.13037352  0.25740612  0.41097790  1
  Pr3+  Pr23  1  0.71672591  0.11924685  0.06857481  1
  Pr3+  Pr24  1  0.50613647  0.87433235  0.57150978  1
  Pr3+  Pr25  1  0.09425278  0.49188567  0.93708427  1
  Pr3+  Pr26  1  0.71851414  0.36823410  0.06499005  1
  Pr3+  Pr27  1  -0.02978257  0.36874444  0.06865137  1
  Pr3+  Pr28  1  0.50100359  0.62831607  0.56568416  1
  Pr3+  Pr29  1  0.49980983  0.38043902  0.56568355  1
  Pr3+  Pr30  1  0.71806666  0.87024385  0.06523754  1
  Nd3+  Nd31  1  0.75303099  0.62617575  0.54917569  1
  Nd3+  Nd32  1  0.58433536  0.24359310  0.93659986  1
  Nd3+  Nd33  1  0.22109704  0.36709163  0.07091536  1
  Nd3+  Nd34  1  0.62602622  0.00423710  0.43788020  1
  Nd3+  Nd35  1  0.37193188  0.50443474  0.44436689  1
  Nd3+  Nd36  1  0.09081156  0.24238947  0.94153035  1
  Nd3+  Nd37  1  -0.00046547  0.62536852  0.55353951  1
  Nd3+  Nd38  1  0.59256873  -0.00571405  0.93276326  1
  Nd3+  Nd39  1  0.34089319  0.74280289  0.93886437  1
  Nd3+  Nd40  1  0.34515403  -0.00508073  0.92882710  1
  Nd3+  Nd41  1  0.59631567  0.74039341  0.94001488  1
  Nd3+  Nd42  1  0.24425217  0.12929839  0.55243753  1
  Nd3+  Nd43  1  0.46448232  0.11495391  0.06747654  1
  Nd3+  Nd44  1  0.62311233  0.74879826  0.42904718  1
  Nd3+  Nd45  1  0.11810494  -0.00277885  0.42139751  1
  Nd3+  Nd46  1  0.24737765  0.62830715  0.56357321  1
  Nd3+  Nd47  1  0.37447519  0.75652079  0.43332775  1
  Nd3+  Nd48  1  -0.03225278  0.61710283  0.06185480  1
  Nd3+  Nd49  1  0.34068333  0.24440051  0.93879442  1
  Nd3+  Nd50  1  0.62409565  0.25412598  0.43622366  1
  Sm3+  Sm51  1  0.46947075  0.36957566  0.06416306  1
  Sm3+  Sm52  1  0.12268846  0.75502894  0.44538971  1
  Sm3+  Sm53  1  -0.00384618  0.88021508  0.55991881  1
  Sm3+  Sm54  1  0.09567660  -0.00760663  0.94707764  1
  Sm3+  Sm55  1  0.88141229  0.25120359  0.44590946  1
  Sm3+  Sm56  1  0.21935816  0.11442563  0.06386707  1
  Sm3+  Sm57  1  0.75334633  0.37903551  0.55628355  1
  Sm3+  Sm58  1  0.87922935  0.49765940  0.43750717  1
  Sm3+  Sm59  1  0.25112296  0.88176967  0.55582975  1
  Sm3+  Sm60  1  0.87188465  0.00926905  0.43469958  1
  Sm3+  Sm61  1  0.46645977  0.61917609  0.05878318  1
  Sm3+  Sm62  1  0.46521197  0.86924728  0.05087630  1
  Sm3+  Sm63  1  0.24356703  0.37586354  0.55829132  1
  Bi2+  Bi64  1  -0.07204327  0.11073657  0.28921102  1
  Bi2+  Bi65  1  0.02042896  0.16011909  0.80423610  1
  Bi2+  Bi66  1  -0.02720341  0.33900661  0.30613290  1
  Bi2+  Bi67  1  0.07148652  0.39894753  0.80499996  1
  Bi2+  Bi68  1  0.00003484  0.58020890  0.29266801  1
  Bi2+  Bi69  1  -0.02520440  0.64885369  0.79151632  1
  Bi2+  Bi70  1  0.02060441  0.86280569  0.28581210  1
  Bi2+  Bi71  1  0.01900823  0.89895987  0.79295203  1
  Bi2+  Bi72  1  0.31402426  0.12937368  0.29207568  1
  Bi2+  Bi73  1  0.27125117  0.05674216  0.79890306  1
  Bi2+  Bi74  1  0.31093327  0.36627607  0.23311976  1
  Bi2+  Bi75  1  0.26553035  0.34731706  0.72535565  1
  Bi2+  Bi76  1  0.23098846  0.54065349  0.31503060  1
  Bi2+  Bi77  1  0.22182295  0.60580533  0.79074377  1
  Bi2+  Bi78  1  0.27566571  0.85528442  0.29889421  1
  Bi2+  Bi79  1  0.23350918  0.88050729  0.76180304  1
  Bi2+  Bi80  1  0.50520474  0.13152517  0.35100085  1
  Bi2+  Bi81  1  0.54366975  0.13326175  0.80127193  1
  Bi2+  Bi82  1  0.50000803  0.37278510  0.29187787  1
  Bi2+  Bi83  1  0.50397406  0.35618138  0.78687907  1
  Bi2+  Bi84  1  0.45660148  0.62856649  0.29546043  1
  Bi2+  Bi85  1  0.47608963  0.61675495  0.78788716  1
  Bi2+  Bi86  1  0.52414881  0.95036368  0.28940486  1
  Bi2+  Bi87  1  0.53178229  0.88038509  0.78690988  1
  Bi2+  Bi88  1  0.68020995  0.13354818  0.29548676  1
  Bi2+  Bi89  1  0.74803293  0.11002085  0.79363459  1
  Bi2+  Bi90  1  0.71639095  0.40952080  0.26876635  1
  Bi2+  Bi91  1  0.75148150  0.36455523  0.79621465  1
  Bi2+  Bi92  1  0.69678504  0.60655683  0.26875419  1
  Bi2+  Bi93  1  0.70622325  0.63089812  0.78956705  1
  Bi2+  Bi94  1  0.77090132  0.89374268  0.28739381  1
  Bi2+  Bi95  1  0.80886223  0.86938067  0.79192500  1
  Bi2+  Bi96  1  0.11552753  0.04160909  0.23667826  1
  Bi2+  Bi97  1  0.09235495  -0.04028004  0.68730652  1
  Bi2+  Bi98  1  0.21176437  0.20428798  0.19944433  1
  Bi2+  Bi99  1  0.16132558  0.16139685  0.72375364  1
  Bi2+  Bi100  1  0.13045437  0.46189092  0.21392518  1
  Bi2+  Bi101  1  0.14212714  0.56718781  0.69450670  1
  Bi2+  Bi102  1  0.15399447  0.66292581  0.23838104  1
  Bi2+  Bi103  1  0.05645741  0.76214660  0.70679564  1
  Bi2+  Bi104  1  0.38434175  -0.00167998  0.21123396  1
  Bi2+  Bi105  1  0.40700515  0.09935414  0.71939907  1
  Bi2+  Bi106  1  0.47964699  0.20662208  0.23843629  1
  Bi2+  Bi107  1  0.43531146  0.28886553  0.67904049  1
  Bi2+  Bi108  1  0.30564538  0.56056940  0.18606850  1
  Bi2+  Bi109  1  0.38616488  0.49983650  0.70920924  1
  Bi2+  Bi110  1  0.43785593  0.71242905  0.19270099  1
  Bi2+  Bi111  1  0.40523000  0.86612587  0.70457394  1
  Bi2+  Bi112  1  0.65882279  0.00364320  0.20730829  1
  Bi2+  Bi113  1  0.66888041  -0.02955937  0.72610955  1
  Bi2+  Bi114  1  0.66884928  0.25102560  0.20140721  1
  Bi2+  Bi115  1  0.63017357  0.26717158  0.71019234  1
  Bi2+  Bi116  1  0.56232464  0.49756725  0.20958164  1
  Bi2+  Bi117  1  0.61289583  0.48901583  0.72624409  1
  Bi2+  Bi118  1  0.59093736  0.77161134  0.25648659  1
  Bi2+  Bi119  1  0.62962680  0.73456586  0.69925295  1
  Bi2+  Bi120  1  0.86419372  -0.02821573  0.19583301  1
  Bi2+  Bi121  1  0.90073035  -0.00351649  0.71607703  1
  Bi2+  Bi122  1  0.87282968  0.25143396  0.21632406  1
  Bi2+  Bi123  1  0.89864423  0.23856680  0.70920761  1
  Bi2+  Bi124  1  0.89328462  0.49714922  0.20574544  1
  Bi2+  Bi125  1  0.85388840  0.50570491  0.70381017  1
  Bi2+  Bi126  1  0.88885116  0.73802296  0.19686384  1
  Bi2+  Bi127  1  0.85590162  0.74800190  0.70315316  1
  S2-  S128  1  0.09911924  0.10783539  0.14379158  1
  S2-  S129  1  0.03251068  0.22344116  0.65542766  1
  S2-  S130  1  0.09483299  0.35206554  0.14435058  1
  S2-  S131  1  -0.01584347  0.39307086  0.72590850  1
  S2-  S132  1  -0.00203866  0.62237048  0.16033106  1
  S2-  S133  1  -0.01448867  0.55218848  0.64310530  1
  S2-  S134  1  -0.00623671  0.86015385  0.15876388  1
  S2-  S135  1  -0.11773176  0.87226351  0.63546510  1
  S2-  S136  1  0.33601576  0.10824384  0.13926613  1
  S2-  S137  1  0.27245466  0.12817089  0.65140556  1
  S2-  S138  1  0.35438443  0.36526950  0.13894621  1
  S2-  S139  1  0.17335276  0.40227011  0.64762554  1
  S2-  S140  1  0.21951106  0.71199139  0.14835540  1
  S2-  S141  1  0.28644461  0.62822177  0.66107574  1
  S2-  S142  1  0.21120701  0.91990879  0.20465560  1
  S2-  S143  1  0.25028845  0.87774101  0.65424140  1
  S2-  S144  1  0.58838127  0.11468172  0.14207681  1
  S2-  S145  1  0.63410342  0.14567839  0.64185439  1
  S2-  S146  1  0.59305217  0.37289864  0.13904014  1
  S2-  S147  1  0.52107598  0.50400347  0.63995885  1
  S2-  S148  1  0.56840625  0.62724471  0.13910179  1
  S2-  S149  1  0.48983677  0.74003216  0.64396187  1
  S2-  S150  1  0.40414332  0.87097499  0.14257575  1
  S2-  S151  1  0.46478992  0.99543669  0.64311941  1
  S2-  S152  1  0.84654000  0.12041240  0.14556483  1
  S2-  S153  1  0.86004906  0.11743137  0.64330078  1
  S2-  S154  1  0.84480513  0.37669659  0.14307310  1
  S2-  S155  1  0.82530983  0.37579002  0.64747522  1
  S2-  S156  1  0.78556196  0.61048586  0.16474002  1
  S2-  S157  1  0.75452991  0.62438319  0.64915992  1
  S2-  S158  1  0.75352176  0.83598402  0.16201752  1
  S2-  S159  1  0.64972804  0.87376483  0.64343417  1
  S2-  S160  1  0.24184036  -0.00027440  0.34997109  1
  S2-  S161  1  0.09613223  0.02203084  0.84946995  1
  S2-  S162  1  0.06554262  0.19687421  0.32027716  1
  S2-  S163  1  0.14892343  0.25672922  0.84774584  1
  S2-  S164  1  0.12116573  0.40646983  0.34767954  1
  S2-  S165  1  0.21023014  0.47918465  0.85518747  1
  S2-  S166  1  0.13048517  0.81628997  0.35274329  1
  S2-  S167  1  0.10670804  0.70767059  0.84256222  1
  S2-  S168  1  0.40821718  -0.12529023  0.35639375  1
  S2-  S169  1  0.47218478  -0.00148644  0.85611142  1
  S2-  S170  1  0.28516766  0.25808055  0.35450328  1
  S2-  S171  1  0.45025634  0.24115643  0.85978010  1
  S2-  S172  1  0.38923874  0.48284443  0.34661408  1
  S2-  S173  1  0.47765389  0.48897041  0.85565032  1
  S2-  S174  1  0.31526960  0.69754936  0.34188597  1
  S2-  S175  1  0.34868631  0.67398388  0.84724176  1
  S2-  S176  1  0.74616001  0.01323185  0.36054449  1
  S2-  S177  1  0.71477590  -0.02359424  0.85970419  1
  S2-  S178  1  0.63331942  0.36940521  0.35815367  1
  S2-  S179  1  0.69341508  0.23782397  0.85772266  1
  S2-  S180  1  0.60028937  0.61626340  0.35475689  1
  S2-  S181  1  0.71003787  0.50271257  0.85700383  1
  S2-  S182  1  0.73360561  0.78385058  0.35313336  1
  S2-  S183  1  0.58543269  0.73491872  0.84033045  1
  S2-  S184  1  0.97944047  -0.01267005  0.35528421  1
  S2-  S185  1  0.88224301  0.11495720  0.85869572  1
  S2-  S186  1  0.85294055  0.24099292  0.34777848  1
  S2-  S187  1  0.88031454  0.34690660  0.85282005  1
  S2-  S188  1  0.87902161  0.49048172  0.33888374  1
  S2-  S189  1  0.98153288  0.51667791  0.85532495  1
  S2-  S190  1  0.93581952  0.73865190  0.32299803  1
  S2-  S191  1  0.83417458  0.71669098  0.84847489  1
  S2-  S192  1  0.00318100  0.12860259  0.45292569  1
  S2-  S193  1  -0.02574221  0.11367087  0.96390973  1
  S2-  S194  1  0.00059489  0.37428091  0.44515375  1
  S2-  S195  1  -0.02861678  0.36682651  0.96205887  1
  S2-  S196  1  -0.00084242  0.62899233  0.44660508  1
  S2-  S197  1  -0.03234620  0.61963609  0.95750031  1
  S2-  S198  1  -0.00262803  0.87632323  0.45700867  1
  S2-  S199  1  -0.03296762  0.87065153  0.95151083  1
  S2-  S200  1  0.24286764  0.12640554  0.44934971  1
  S2-  S201  1  0.22014269  0.11541120  0.95492037  1
  S2-  S202  1  0.24959601  0.37766703  0.45564318  1
  S2-  S203  1  0.21946499  0.36560778  0.96151692  1
  S2-  S204  1  0.24579032  0.63119647  0.45662412  1
  S2-  S205  1  0.21763342  0.62002934  0.95746077  1
  S2-  S206  1  0.24501265  0.87727004  0.45443088  1
  S2-  S207  1  0.21936399  0.86993447  0.93288866  1
  S2-  S208  1  0.50011545  0.12831797  0.46376784  1
  S2-  S209  1  0.46460372  0.11574424  0.96113354  1
  S2-  S210  1  0.49458846  0.37727800  0.45794257  1
  S2-  S211  1  0.46335105  0.37001742  0.95990377  1
  S2-  S212  1  0.49442383  0.62881963  0.45804703  1
  S2-  S213  1  0.46947526  0.62193364  0.95604418  1
  S2-  S214  1  0.50654856  0.87736327  0.45838007  1
  S2-  S215  1  0.46809961  0.86359391  0.94845610  1
  S2-  S216  1  0.74932172  0.13495793  0.45892773  1
  S2-  S217  1  0.71248655  0.11594258  0.96191594  1
  S2-  S218  1  0.75641335  0.37662992  0.45374097  1
  S2-  S219  1  0.71501638  0.36810692  0.95856640  1
  S2-  S220  1  0.75481125  0.62192917  0.44481280  1
  S2-  S221  1  0.71912980  0.61838216  0.96079997  1
  S2-  S222  1  0.75057228  0.88068494  0.45686766  1
  S2-  S223  1  0.71741181  0.86558026  0.95882106  1
  S2-  S224  1  0.10604774  -0.02186575  0.04984270  1
  S2-  S225  1  0.12069587  0.00119987  0.54443171  1
  S2-  S226  1  0.09848277  0.23936257  0.04484736  1
  S2-  S227  1  0.12279547  0.25614850  0.54586463  1
  S2-  S228  1  0.09646913  0.49634805  0.04770577  1
  S2-  S229  1  0.12474643  0.50355089  0.53990213  1
  S2-  S230  1  0.09702225  0.74628177  0.04700348  1
  S2-  S231  1  0.12233017  0.75603961  0.55046316  1
  S2-  S232  1  0.33657689  -0.01631291  0.03661172  1
  S2-  S233  1  0.36968373  0.00292857  0.53691779  1
  S2-  S234  1  0.34248052  0.24004916  0.04175544  1
  S2-  S235  1  0.37275566  0.25381933  0.54582541  1
  S2-  S236  1  0.34506364  0.49813812  0.04087151  1
  S2-  S237  1  0.36813490  0.50231193  0.54913542  1
  S2-  S238  1  0.34206491  0.74548480  0.04342428  1
  S2-  S239  1  0.36835205  0.75423827  0.54187878  1
  S2-  S240  1  0.58972693  -0.01096523  0.04233990  1
  S2-  S241  1  0.62678824  0.00466346  0.54236087  1
  S2-  S242  1  0.58856912  0.24136275  0.04226344  1
  S2-  S243  1  0.62489047  0.26093454  0.54185128  1
  S2-  S244  1  0.58889793  0.49502797  0.03994776  1
  S2-  S245  1  0.62948132  0.50085015  0.53700985  1
  S2-  S246  1  0.59065218  0.74819917  0.04459127  1
  S2-  S247  1  0.62854632  0.74732580  0.53670615  1
  S2-  S248  1  0.84382131  -0.01021796  0.04432337  1
  S2-  S249  1  0.87672873  0.00621293  0.53776831  1
  S2-  S250  1  0.84500328  0.24268961  0.04266308  1
  S2-  S251  1  0.87865533  0.25970407  0.54738694  1
  S2-  S252  1  0.84290392  0.49776222  0.04348189  1
  S2-  S253  1  0.87779154  0.49914856  0.54048021  1
  S2-  S254  1  0.84191267  0.74195615  0.05073540  1
  S2-  S255  1  0.87799312  0.74908810  0.53442008  1
