# generated using pymatgen
data_La6Ce6Pr19Nd20Sm13(BiS2)64
_symmetry_space_group_name_H-M   'P 1'
_cell_length_a   16.06798995
_cell_length_b   16.07091344
_cell_length_c   27.40768073
_cell_angle_alpha   90.41523127
_cell_angle_beta   89.99062845
_cell_angle_gamma   89.90123005
_symmetry_Int_Tables_number   1
_chemical_formula_structural   La6Ce6Pr19Nd20Sm13(BiS2)64
_chemical_formula_sum   'La6 Ce6 Pr19 Nd20 Sm13 Bi64 S128'
_cell_volume   7077.21424741
_cell_formula_units_Z   1
loop_
 _symmetry_equiv_pos_site_id
 _symmetry_equiv_pos_as_xyz
  1  'x, y, z'
loop_
 _atom_type_symbol
 _atom_type_oxidation_number
  La3+  3.0
  Ce3+  3.0
  Pr3+  3.0
  Nd3+  3.0
  Sm3+  3.0
  Bi2+  2.0
  S2-  -2.0
loop_
 _atom_site_type_symbol
 _atom_site_label
 _atom_site_symmetry_multiplicity
 _atom_site_fract_x
 _atom_site_fract_y
 _atom_site_fract_z
 _atom_site_occupancy
  La3+  La0  1  0.87311014  0.25214295  0.91788985  1
  La3+  La1  1  0.36354020  0.48075224  0.40105403  1
  La3+  La2  1  0.14476950  0.49516576  0.91988120  1
  La3+  La3  1  0.63016830  0.73764082  0.41744402  1
  La3+  La4  1  0.74300714  0.87460287  0.10801049  1
  La3+  La5  1  0.27076948  0.61253714  0.61715332  1
  Ce3+  Ce6  1  0.38013096  -0.00127704  0.93664633  1
  Ce3+  Ce7  1  0.12453260  0.24870332  0.93331423  1
  Ce3+  Ce8  1  0.49909302  0.85873150  0.55457454  1
  Ce3+  Ce9  1  0.62609772  0.23844015  0.43409740  1
  Ce3+  Ce10  1  0.50908354  0.12087267  0.05404903  1
  Ce3+  Ce11  1  0.00173663  0.87090313  0.06409928  1
  Pr3+  Pr12  1  0.62914072  0.74675315  0.94077986  1
  Pr3+  Pr13  1  0.25238659  0.11424289  0.57087856  1
  Pr3+  Pr14  1  0.13850976  0.75056209  0.93273271  1
  Pr3+  Pr15  1  0.74820121  0.86283399  0.56303222  1
  Pr3+  Pr16  1  0.50034419  0.37386690  0.07594263  1
  Pr3+  Pr17  1  0.62784732  -0.01263037  0.43124302  1
  Pr3+  Pr18  1  0.25226054  0.38049958  0.06961592  1
  Pr3+  Pr19  1  0.76070141  0.37600170  0.06111446  1
  Pr3+  Pr20  1  0.74384738  0.36088224  0.57280155  1
  Pr3+  Pr21  1  0.12684164  0.48543640  0.44248848  1
  Pr3+  Pr22  1  0.87259445  -0.01097710  0.44115750  1
  Pr3+  Pr23  1  0.62551948  0.48592888  0.43530480  1
  Pr3+  Pr24  1  0.00425153  0.12780605  0.06803500  1
  Pr3+  Pr25  1  0.00485545  0.62350597  0.06207406  1
  Pr3+  Pr26  1  0.25899789  0.62429347  0.06951703  1
  Pr3+  Pr27  1  0.75185485  0.61757822  0.57017266  1
  Pr3+  Pr28  1  0.12324423  0.73258989  0.43355728  1
  Pr3+  Pr29  1  0.37119869  0.23236447  0.42881648  1
  Pr3+  Pr30  1  0.37170695  -0.01509601  0.43085914  1
  Nd3+  Nd31  1  0.88621858  0.74390848  0.93780985  1
  Nd3+  Nd32  1  0.37331671  0.73390381  0.44057933  1
  Nd3+  Nd33  1  0.76155330  0.12453941  0.06959563  1
  Nd3+  Nd34  1  0.12721040  0.23716291  0.44759801  1
  Nd3+  Nd35  1  0.25336749  0.12669782  0.05021450  1
  Nd3+  Nd36  1  0.87913395  0.50511473  0.92947977  1
  Nd3+  Nd37  1  0.75831438  0.62237083  0.07481250  1
  Nd3+  Nd38  1  0.49430834  0.36710888  0.55243206  1
  Nd3+  Nd39  1  0.87243508  0.48534968  0.44517585  1
  Nd3+  Nd40  1  0.00586933  0.61352875  0.57008463  1
  Nd3+  Nd41  1  0.38815881  0.49925722  0.94001950  1
  Nd3+  Nd42  1  0.73912909  0.11239839  0.57561171  1
  Nd3+  Nd43  1  0.87933971  0.73134014  0.43369665  1
  Nd3+  Nd44  1  0.51002473  0.62532391  0.07767654  1
  Nd3+  Nd45  1  0.49722037  0.11232458  0.55278891  1
  Nd3+  Nd46  1  0.88040695  -0.00323403  0.94742661  1
  Nd3+  Nd47  1  0.38459192  0.74627809  0.93434548  1
  Nd3+  Nd48  1  0.38018015  0.25192730  0.93923296  1
  Nd3+  Nd49  1  0.63652725  -0.00331286  0.94049602  1
  Nd3+  Nd50  1  0.63316871  0.24993500  0.94433542  1
  Sm3+  Sm51  1  -0.00148628  0.11186650  0.55966212  1
  Sm3+  Sm52  1  0.62713695  0.50170464  0.94757140  1
  Sm3+  Sm53  1  0.00043140  0.86066310  0.55293638  1
  Sm3+  Sm54  1  0.12397195  -0.01173829  0.44803070  1
  Sm3+  Sm55  1  0.12764822  -0.00151826  0.94608794  1
  Sm3+  Sm56  1  0.00118650  0.36524100  0.56089505  1
  Sm3+  Sm57  1  0.87161222  0.23659068  0.44978189  1
  Sm3+  Sm58  1  0.25676065  0.87357180  0.06198829  1
  Sm3+  Sm59  1  0.49643574  0.61064143  0.55058203  1
  Sm3+  Sm60  1  0.49978653  0.87404594  0.06201454  1
  Sm3+  Sm61  1  0.25200278  0.36375258  0.56868610  1
  Sm3+  Sm62  1  0.24836919  0.85731393  0.55576761  1
  Sm3+  Sm63  1  0.00569398  0.37843900  0.04530997  1
  Bi2+  Bi64  1  0.06123505  0.13412899  0.28687509  1
  Bi2+  Bi65  1  0.03817225  0.08870224  0.80131737  1
  Bi2+  Bi66  1  0.03607813  0.38534286  0.24521428  1
  Bi2+  Bi67  1  -0.05053964  0.35332415  0.76378119  1
  Bi2+  Bi68  1  0.01636385  0.56509698  0.30119645  1
  Bi2+  Bi69  1  -0.03434879  0.62445228  0.78563369  1
  Bi2+  Bi70  1  -0.00390125  0.91938121  0.28613321  1
  Bi2+  Bi71  1  -0.05210694  0.85590896  0.76977364  1
  Bi2+  Bi72  1  0.26347418  0.15450073  0.27859418  1
  Bi2+  Bi73  1  0.27727199  0.11838031  0.78292654  1
  Bi2+  Bi74  1  0.23027319  0.35503383  0.28694778  1
  Bi2+  Bi75  1  0.30955593  0.38990771  0.79162594  1
  Bi2+  Bi76  1  0.16149337  0.69438684  0.30305772  1
  Bi2+  Bi77  1  0.19669301  0.64543186  0.80635462  1
  Bi2+  Bi78  1  0.21049456  0.88525897  0.28845972  1
  Bi2+  Bi79  1  0.23074644  0.89585181  0.78338583  1
  Bi2+  Bi80  1  0.54074927  0.15555102  0.29114434  1
  Bi2+  Bi81  1  0.49579038  0.11417807  0.78620955  1
  Bi2+  Bi82  1  0.51507245  0.37791088  0.28597395  1
  Bi2+  Bi83  1  0.52359863  0.37582212  0.79022954  1
  Bi2+  Bi84  1  0.49446555  0.66337421  0.29413871  1
  Bi2+  Bi85  1  0.50459870  0.61946920  0.79556752  1
  Bi2+  Bi86  1  0.40764174  0.92314830  0.29562846  1
  Bi2+  Bi87  1  0.46063089  0.92500629  0.74698668  1
  Bi2+  Bi88  1  0.78916230  0.14402299  0.29262552  1
  Bi2+  Bi89  1  0.76614881  0.10159463  0.80366228  1
  Bi2+  Bi90  1  0.77313983  0.38036575  0.30137114  1
  Bi2+  Bi91  1  0.72310523  0.41676471  0.78841688  1
  Bi2+  Bi92  1  0.75293931  0.62562205  0.28744521  1
  Bi2+  Bi93  1  0.69583839  0.64065240  0.80938271  1
  Bi2+  Bi94  1  0.74486548  0.89127869  0.29576702  1
  Bi2+  Bi95  1  0.75013527  0.88400094  0.78028402  1
  Bi2+  Bi96  1  0.07093336  0.03270001  0.18634898  1
  Bi2+  Bi97  1  0.11710699  0.01732304  0.70555769  1
  Bi2+  Bi98  1  0.12609160  0.22729741  0.19040973  1
  Bi2+  Bi99  1  0.16242657  0.27133838  0.76395738  1
  Bi2+  Bi100  1  0.12624959  0.64063573  0.19354039  1
  Bi2+  Bi101  1  0.11480578  0.47391259  0.71221082  1
  Bi2+  Bi102  1  0.14030565  0.83905853  0.17052481  1
  Bi2+  Bi103  1  0.10285780  0.77710479  0.70541002  1
  Bi2+  Bi104  1  0.33215247  0.01026460  0.20816359  1
  Bi2+  Bi105  1  0.30817155  0.01000020  0.68342584  1
  Bi2+  Bi106  1  0.43450344  0.24908489  0.21345153  1
  Bi2+  Bi107  1  0.39699531  0.18935933  0.69659382  1
  Bi2+  Bi108  1  0.36229400  0.50596435  0.19888400  1
  Bi2+  Bi109  1  0.42933458  0.45665508  0.69725390  1
  Bi2+  Bi110  1  0.32161875  0.77152974  0.21044177  1
  Bi2+  Bi111  1  0.38874612  0.75070202  0.70700999  1
  Bi2+  Bi112  1  0.58884711  0.02268539  0.21536586  1
  Bi2+  Bi113  1  0.62961421  0.02816904  0.71349838  1
  Bi2+  Bi114  1  0.65506569  0.27419198  0.22034629  1
  Bi2+  Bi115  1  0.64194301  0.27623867  0.71909713  1
  Bi2+  Bi116  1  0.64270001  0.52660098  0.21571178  1
  Bi2+  Bi117  1  0.65349648  0.54982251  0.70852230  1
  Bi2+  Bi118  1  0.58408006  0.77016695  0.22242808  1
  Bi2+  Bi119  1  0.62431121  0.76123008  0.72476919  1
  Bi2+  Bi120  1  0.87902965  0.02828803  0.20384985  1
  Bi2+  Bi121  1  0.89867084  -0.00241257  0.69432769  1
  Bi2+  Bi122  1  0.85891590  0.27933328  0.21727359  1
  Bi2+  Bi123  1  0.87376838  0.18964018  0.72159919  1
  Bi2+  Bi124  1  0.89668742  0.51132414  0.20123226  1
  Bi2+  Bi125  1  0.83095509  0.46257656  0.69620340  1
  Bi2+  Bi126  1  0.97321751  0.76239477  0.21614171  1
  Bi2+  Bi127  1  0.83906501  0.72334380  0.71374095  1
  S2-  S128  1  -0.11337427  0.16979737  0.14087983  1
  S2-  S129  1  0.00817308  0.13187515  0.65694065  1
  S2-  S130  1  0.00207014  0.41159549  0.14191080  1
  S2-  S131  1  0.01370834  0.38165043  0.65950800  1
  S2-  S132  1  -0.10442390  0.64315669  0.14322136  1
  S2-  S133  1  0.10211002  0.61752683  0.65530425  1
  S2-  S134  1  -0.09051610  0.87715956  0.14797277  1
  S2-  S135  1  -0.01317431  0.84020325  0.64971012  1
  S2-  S136  1  0.25516770  0.13285754  0.14867099  1
  S2-  S137  1  0.26713866  0.23760953  0.64235882  1
  S2-  S138  1  0.36578271  0.35208665  0.14760395  1
  S2-  S139  1  0.25957417  0.44919816  0.65685668  1
  S2-  S140  1  0.22365520  0.50570339  0.14619509  1
  S2-  S141  1  0.28659866  0.62933368  0.72772567  1
  S2-  S142  1  0.36812872  0.88422126  0.13824581  1
  S2-  S143  1  0.25119683  0.78977673  0.64593676  1
  S2-  S144  1  0.49964143  0.11645173  0.15100921  1
  S2-  S145  1  0.55841227  0.11664136  0.64585990  1
  S2-  S146  1  0.51563739  0.49089047  0.15397444  1
  S2-  S147  1  0.54236058  0.36662502  0.65008674  1
  S2-  S148  1  0.38032762  0.65303155  0.14779285  1
  S2-  S149  1  0.44810076  0.61453652  0.64651122  1
  S2-  S150  1  0.57650059  0.88710094  0.15076466  1
  S2-  S151  1  0.50754462  0.85562032  0.65206877  1
  S2-  S152  1  0.72878754  0.03405123  0.15589735  1
  S2-  S153  1  0.75373003  -0.01899299  0.64236603  1
  S2-  S154  1  0.75935973  0.47194489  0.14578913  1
  S2-  S155  1  0.75321096  0.24051144  0.64744040  1
  S2-  S156  1  0.63887488  0.65770931  0.14841659  1
  S2-  S157  1  0.88164273  0.60318890  0.64311885  1
  S2-  S158  1  0.74454530  0.81184673  0.21148248  1
  S2-  S159  1  0.72298211  0.74974997  0.63890392  1
  S2-  S160  1  0.11877721  -0.00383185  0.35084652  1
  S2-  S161  1  0.13618963  -0.03968626  0.85010521  1
  S2-  S162  1  0.12832915  0.25257728  0.34944079  1
  S2-  S163  1  0.18388410  0.33883725  0.85665547  1
  S2-  S164  1  0.19983091  0.47487352  0.34963698  1
  S2-  S165  1  0.07267123  0.51793850  0.82298038  1
  S2-  S166  1  0.00497692  0.71468295  0.35818167  1
  S2-  S167  1  0.04201265  0.73611310  0.84553503  1
  S2-  S168  1  0.35244575  0.10129922  0.35647311  1
  S2-  S169  1  0.39924335  -0.00143927  0.83963795  1
  S2-  S170  1  0.37631469  0.33167352  0.34485118  1
  S2-  S171  1  0.41916787  0.27170565  0.84328902  1
  S2-  S172  1  0.39874533  0.53529133  0.30229410  1
  S2-  S173  1  0.29294101  0.52281090  0.85500323  1
  S2-  S174  1  0.38577469  0.77654536  0.34434729  1
  S2-  S175  1  0.27098306  0.77038279  0.85701747  1
  S2-  S176  1  0.65788037  0.11693865  0.36198356  1
  S2-  S177  1  0.64887816  -0.01693085  0.84074617  1
  S2-  S178  1  0.63556680  0.36097393  0.36025154  1
  S2-  S179  1  0.72154120  0.22950905  0.85963315  1
  S2-  S180  1  0.62639620  0.59537935  0.35297446  1
  S2-  S181  1  0.52069349  0.49802179  0.86872327  1
  S2-  S182  1  0.61327975  0.87667999  0.34943297  1
  S2-  S183  1  0.51147608  0.74139247  0.86152310  1
  S2-  S184  1  0.87029592  -0.00449602  0.34091017  1
  S2-  S185  1  0.89828297  0.02342419  0.84951348  1
  S2-  S186  1  0.86727952  0.25472444  0.35209464  1
  S2-  S187  1  1.01136658  0.21773545  0.85730726  1
  S2-  S188  1  0.86105619  0.51829143  0.34723958  1
  S2-  S189  1  0.87000694  0.39557864  0.84860174  1
  S2-  S190  1  0.78054744  0.74712228  0.35098342  1
  S2-  S191  1  0.84993730  0.63379444  0.86088654  1
  S2-  S192  1  -0.00012260  0.11405975  0.45465853  1
  S2-  S193  1  0.00573209  0.11885176  0.96208246  1
  S2-  S194  1  -0.00171809  0.35968430  0.45544525  1
  S2-  S195  1  0.00712856  0.38078628  0.94414084  1
  S2-  S196  1  -0.00039014  0.60553789  0.46222072  1
  S2-  S197  1  0.01190471  0.62173850  0.95447316  1
  S2-  S198  1  0.00055553  0.86602388  0.44960975  1
  S2-  S199  1  0.00689338  0.87261967  0.95556158  1
  S2-  S200  1  0.24607199  0.10907167  0.46307735  1
  S2-  S201  1  0.25314677  0.12425077  0.94390032  1
  S2-  S202  1  0.25193908  0.36015697  0.45962525  1
  S2-  S203  1  0.26238589  0.37389451  0.96284996  1
  S2-  S204  1  0.25151239  0.61115491  0.44127081  1
  S2-  S205  1  0.25987056  0.62536428  0.95968249  1
  S2-  S206  1  0.24620122  0.86208521  0.44990198  1
  S2-  S207  1  0.25651684  0.87996519  0.95937421  1
  S2-  S208  1  0.49879538  0.10986045  0.44969758  1
  S2-  S209  1  0.50895247  0.12415944  0.94734251  1
  S2-  S210  1  0.49264106  0.36575172  0.44955114  1
  S2-  S211  1  0.50840572  0.36907087  0.96508108  1
  S2-  S212  1  0.48931367  0.60368763  0.44706949  1
  S2-  S213  1  0.50673652  0.62515801  0.96932004  1
  S2-  S214  1  0.49656270  0.86227076  0.45065140  1
  S2-  S215  1  0.50595153  0.87916009  0.95621200  1
  S2-  S216  1  0.75295986  0.11444435  0.46745933  1
  S2-  S217  1  0.75700588  0.12180210  0.96223059  1
  S2-  S218  1  0.75173651  0.36082503  0.46490340  1
  S2-  S219  1  0.75087144  0.38063867  0.95542607  1
  S2-  S220  1  0.75229969  0.61123374  0.45967921  1
  S2-  S221  1  0.74977598  0.62252909  0.96428943  1
  S2-  S222  1  0.75295760  0.86233020  0.45608365  1
  S2-  S223  1  0.75906100  0.86859981  0.94010262  1
  S2-  S224  1  0.13017086  -0.00156708  0.04970128  1
  S2-  S225  1  0.12500360  -0.01364139  0.55256710  1
  S2-  S226  1  0.12844657  0.25255163  0.04327306  1
  S2-  S227  1  0.12091182  0.23771802  0.55187055  1
  S2-  S228  1  0.12857991  0.50132245  0.03689035  1
  S2-  S229  1  0.12551863  0.48316842  0.54854556  1
  S2-  S230  1  0.13243078  0.74951462  0.04465266  1
  S2-  S231  1  0.12322501  0.74030991  0.53974383  1
  S2-  S232  1  0.37891741  0.00382299  0.04124559  1
  S2-  S233  1  0.37217733  -0.01590649  0.54230074  1
  S2-  S234  1  0.38180264  0.24433068  0.04416478  1
  S2-  S235  1  0.37623564  0.23786060  0.53895557  1
  S2-  S236  1  0.38298795  0.49956399  0.04637118  1
  S2-  S237  1  0.37037472  0.49018023  0.55043045  1
  S2-  S238  1  0.37987829  0.75260385  0.04052343  1
  S2-  S239  1  0.37138984  0.73403148  0.54464213  1
  S2-  S240  1  0.63429043  -0.00365629  0.04525937  1
  S2-  S241  1  0.62058150  -0.01404316  0.53981030  1
  S2-  S242  1  0.63308583  0.25017927  0.05279842  1
  S2-  S243  1  0.62003797  0.23947771  0.54164133  1
  S2-  S244  1  0.62950633  0.49679501  0.04824989  1
  S2-  S245  1  0.62490358  0.49090338  0.54689542  1
  S2-  S246  1  0.63408034  0.76034459  0.04659673  1
  S2-  S247  1  0.61838921  0.73364321  0.53390662  1
  S2-  S248  1  0.87952756  -0.00253671  0.05055928  1
  S2-  S249  1  0.87945449  -0.01117326  0.54615747  1
  S2-  S250  1  0.88279519  0.25513420  0.03351335  1
  S2-  S251  1  0.87912661  0.23831852  0.55264586  1
  S2-  S252  1  0.88201450  0.50054919  0.03681567  1
  S2-  S253  1  0.87310225  0.48088271  0.54911579  1
  S2-  S254  1  0.87634675  0.75192837  0.04204941  1
  S2-  S255  1  0.87863713  0.73951788  0.54104240  1
