# generated using pymatgen
data_La6Ce6Pr19Nd20Sm13(BiS2)64
_symmetry_space_group_name_H-M   'P 1'
_cell_length_a   16.13904647
_cell_length_b   16.02779346
_cell_length_c   27.28707199
_cell_angle_alpha   90.35543085
_cell_angle_beta   89.98905635
_cell_angle_gamma   90.04072832
_symmetry_Int_Tables_number   1
_chemical_formula_structural   La6Ce6Pr19Nd20Sm13(BiS2)64
_chemical_formula_sum   'La6 Ce6 Pr19 Nd20 Sm13 Bi64 S128'
_cell_volume   7058.29933479
_cell_formula_units_Z   1
loop_
 _symmetry_equiv_pos_site_id
 _symmetry_equiv_pos_as_xyz
  1  'x, y, z'
loop_
 _atom_type_symbol
 _atom_type_oxidation_number
  La3+  3.0
  Ce3+  3.0
  Pr3+  3.0
  Nd3+  3.0
  Sm3+  3.0
  Bi2+  2.0
  S2-  -2.0
loop_
 _atom_site_type_symbol
 _atom_site_label
 _atom_site_symmetry_multiplicity
 _atom_site_fract_x
 _atom_site_fract_y
 _atom_site_fract_z
 _atom_site_occupancy
  La3+  La0  1  0.25791481  0.84581871  0.57884513  1
  La3+  La1  1  0.00335270  0.85853839  0.56823797  1
  La3+  La2  1  0.36726777  -0.00751149  0.90878729  1
  La3+  La3  1  -0.00074012  0.11876043  0.09878964  1
  La3+  La4  1  0.00496207  0.37343937  0.10329005  1
  La3+  La5  1  0.62582172  0.73935579  0.92999891  1
  Ce3+  Ce6  1  0.75085345  0.87083939  0.05477750  1
  Ce3+  Ce7  1  0.87836956  -0.02506875  0.43599925  1
  Ce3+  Ce8  1  0.62988232  0.22446891  0.44654263  1
  Ce3+  Ce9  1  0.37814174  0.49490271  0.94008725  1
  Ce3+  Ce10  1  0.37310716  0.73895496  0.92819026  1
  Ce3+  Ce11  1  0.50147857  0.35402155  0.55529860  1
  Pr3+  Pr12  1  0.38022723  0.21836617  0.42995472  1
  Pr3+  Pr13  1  0.12465090  0.48947109  0.93452458  1
  Pr3+  Pr14  1  0.25062728  0.10781766  0.06915520  1
  Pr3+  Pr15  1  0.87673213  0.72380593  0.43037953  1
  Pr3+  Pr16  1  0.62455880  0.23811848  0.94226542  1
  Pr3+  Pr17  1  0.50379165  0.10163879  0.56062229  1
  Pr3+  Pr18  1  0.12937639  0.72932809  0.43475898  1
  Pr3+  Pr19  1  0.12078122  0.73503518  0.92646794  1
  Pr3+  Pr20  1  0.87833981  -0.00704888  0.93384603  1
  Pr3+  Pr21  1  0.12706779  0.23915810  0.94552589  1
  Pr3+  Pr22  1  0.50091441  0.36908028  0.07077584  1
  Pr3+  Pr23  1  0.00353493  0.86861012  0.06096673  1
  Pr3+  Pr24  1  0.25614663  0.59562704  0.56356833  1
  Pr3+  Pr25  1  0.63162156  0.47162928  0.43583740  1
  Pr3+  Pr26  1  0.62249684  -0.00932939  0.92426658  1
  Pr3+  Pr27  1  0.12811350  0.21829371  0.42768720  1
  Pr3+  Pr28  1  0.49331926  0.11134759  0.06541519  1
  Pr3+  Pr29  1  0.50023272  0.62304701  0.06505056  1
  Pr3+  Pr30  1  0.37788627  0.72714925  0.43110007  1
  Nd3+  Nd31  1  0.00293110  0.61648193  0.06778153  1
  Nd3+  Nd32  1  0.00474406  0.61137050  0.56279806  1
  Nd3+  Nd33  1  0.75391910  0.10189145  0.56034399  1
  Nd3+  Nd34  1  0.62366332  0.49079838  0.93397837  1
  Nd3+  Nd35  1  0.50503757  0.84852729  0.56605411  1
  Nd3+  Nd36  1  0.87606274  0.24080656  0.95301775  1
  Nd3+  Nd37  1  0.25185839  0.10365468  0.55924984  1
  Nd3+  Nd38  1  0.87515696  0.48654535  0.94617049  1
  Nd3+  Nd39  1  0.63199255  -0.03346740  0.43683019  1
  Nd3+  Nd40  1  0.12849553  -0.02807806  0.43877087  1
  Nd3+  Nd41  1  0.12101732  -0.01113138  0.92990117  1
  Nd3+  Nd42  1  0.12783023  0.47696308  0.43316033  1
  Nd3+  Nd43  1  0.74917513  0.10686636  0.07094552  1
  Nd3+  Nd44  1  0.75589337  0.60015174  0.56612501  1
  Nd3+  Nd45  1  0.00360529  0.35524985  0.55526963  1
  Nd3+  Nd46  1  0.24978408  0.86185801  0.05466186  1
  Nd3+  Nd47  1  0.75002620  0.84741352  0.57329066  1
  Nd3+  Nd48  1  0.74876905  0.36489644  0.07116335  1
  Nd3+  Nd49  1  0.75112473  0.61458701  0.06127758  1
  Nd3+  Nd50  1  0.37982848  -0.02877540  0.43402467  1
  Sm3+  Sm51  1  0.75584641  0.35635513  0.56778115  1
  Sm3+  Sm52  1  0.24915977  0.61845064  0.05769725  1
  Sm3+  Sm53  1  0.24595803  0.36733837  0.05882840  1
  Sm3+  Sm54  1  0.50287479  0.59969520  0.55121554  1
  Sm3+  Sm55  1  0.87928264  0.47321872  0.43409336  1
  Sm3+  Sm56  1  0.00327419  0.10573432  0.56326587  1
  Sm3+  Sm57  1  0.87580315  0.73769979  0.94684190  1
  Sm3+  Sm58  1  0.37774590  0.46920230  0.42740018  1
  Sm3+  Sm59  1  0.25180591  0.35323666  0.55152651  1
  Sm3+  Sm60  1  0.37659790  0.24098448  0.94409944  1
  Sm3+  Sm61  1  0.49852930  0.86844354  0.05400473  1
  Sm3+  Sm62  1  0.87746208  0.22497874  0.43632481  1
  Sm3+  Sm63  1  0.63198367  0.72157645  0.44388641  1
  Bi2+  Bi64  1  -0.00904267  0.18275923  0.30674521  1
  Bi2+  Bi65  1  -0.04193963  0.14206530  0.74332239  1
  Bi2+  Bi66  1  -0.05380919  0.44729416  0.29850459  1
  Bi2+  Bi67  1  -0.03941286  0.37862583  0.80820798  1
  Bi2+  Bi68  1  0.09192994  0.65949646  0.29977779  1
  Bi2+  Bi69  1  -0.00360080  0.56748451  0.78441118  1
  Bi2+  Bi70  1  0.00051834  0.82880787  0.29102633  1
  Bi2+  Bi71  1  -0.01738697  0.87610044  0.79174564  1
  Bi2+  Bi72  1  0.24184798  0.14274318  0.29971540  1
  Bi2+  Bi73  1  0.26122949  0.14814381  0.78936354  1
  Bi2+  Bi74  1  0.31029118  0.40808181  0.20678013  1
  Bi2+  Bi75  1  0.21287720  0.40923698  0.81585853  1
  Bi2+  Bi76  1  0.29478458  0.67158715  0.30242461  1
  Bi2+  Bi77  1  0.28584880  0.58756414  0.77497414  1
  Bi2+  Bi78  1  0.25460682  0.86408683  0.28443234  1
  Bi2+  Bi79  1  0.23916192  0.88524281  0.77740204  1
  Bi2+  Bi80  1  0.48177697  0.18682083  0.29749335  1
  Bi2+  Bi81  1  0.52340153  0.12961858  0.79156621  1
  Bi2+  Bi82  1  0.46807103  0.43615969  0.29071045  1
  Bi2+  Bi83  1  0.47664577  0.38969657  0.84176224  1
  Bi2+  Bi84  1  0.49418555  0.64046119  0.28070646  1
  Bi2+  Bi85  1  0.51171400  0.56602710  0.78728589  1
  Bi2+  Bi86  1  0.48927374  0.91603439  0.28185250  1
  Bi2+  Bi87  1  0.50985142  0.84201032  0.78712125  1
  Bi2+  Bi88  1  0.72202759  0.11784272  0.30418095  1
  Bi2+  Bi89  1  0.79021551  0.12634691  0.80016534  1
  Bi2+  Bi90  1  0.68468257  0.37283783  0.27488400  1
  Bi2+  Bi91  1  0.66572110  0.36240653  0.82609288  1
  Bi2+  Bi92  1  0.74751313  0.64976049  0.30884508  1
  Bi2+  Bi93  1  0.77561486  0.64752870  0.79926814  1
  Bi2+  Bi94  1  0.74857221  0.85087379  0.28374657  1
  Bi2+  Bi95  1  0.75511484  0.93255482  0.78962276  1
  Bi2+  Bi96  1  0.14346705  -0.02553892  0.20792596  1
  Bi2+  Bi97  1  0.11817046  0.05645464  0.70310529  1
  Bi2+  Bi98  1  0.15438382  0.24606347  0.22351663  1
  Bi2+  Bi99  1  0.08599490  0.29392134  0.73188295  1
  Bi2+  Bi100  1  0.16979799  0.61698199  0.19666199  1
  Bi2+  Bi101  1  0.15320461  0.47913567  0.70795567  1
  Bi2+  Bi102  1  0.04857309  0.76461390  0.18203917  1
  Bi2+  Bi103  1  0.10084987  0.67791953  0.70892639  1
  Bi2+  Bi104  1  0.38497280  0.01591449  0.20517577  1
  Bi2+  Bi105  1  0.34894462  0.02158157  0.66949393  1
  Bi2+  Bi106  1  0.45485305  0.27962237  0.19565606  1
  Bi2+  Bi107  1  0.36030002  0.32545105  0.75906298  1
  Bi2+  Bi108  1  0.43762941  0.54514327  0.18059885  1
  Bi2+  Bi109  1  0.41454060  0.48107303  0.69595970  1
  Bi2+  Bi110  1  0.37263612  0.77056942  0.20821545  1
  Bi2+  Bi111  1  0.37901389  0.72032664  0.70637467  1
  Bi2+  Bi112  1  0.62071575  0.00824401  0.20969095  1
  Bi2+  Bi113  1  0.59931262  0.00294857  0.71453222  1
  Bi2+  Bi114  1  0.63873204  0.20776161  0.20871959  1
  Bi2+  Bi115  1  0.61793899  0.29223838  0.72466487  1
  Bi2+  Bi116  1  0.62547315  0.51816467  0.20601886  1
  Bi2+  Bi117  1  0.68614208  0.48883299  0.73821449  1
  Bi2+  Bi118  1  0.59029291  0.78155114  0.22048353  1
  Bi2+  Bi119  1  0.61888452  0.74414904  0.70824718  1
  Bi2+  Bi120  1  0.86453898  -0.01099055  0.21275268  1
  Bi2+  Bi121  1  0.84974379  -0.04164355  0.69457953  1
  Bi2+  Bi122  1  0.84572917  0.26179975  0.22453214  1
  Bi2+  Bi123  1  0.79570036  0.23087073  0.69430182  1
  Bi2+  Bi124  1  0.87773402  0.53207625  0.21058903  1
  Bi2+  Bi125  1  0.86869480  0.41245088  0.70831247  1
  Bi2+  Bi126  1  0.86327373  0.73553577  0.21404090  1
  Bi2+  Bi127  1  0.86040785  0.76420117  0.72175976  1
  S2-  S128  1  -0.00270641  0.04392407  0.25865216  1
  S2-  S129  1  -0.00618971  -0.00292220  0.64046839  1
  S2-  S130  1  0.00128977  0.25197989  0.17830152  1
  S2-  S131  1  -0.01129432  0.31344856  0.65084090  1
  S2-  S132  1  0.02122050  0.53037760  0.15492663  1
  S2-  S133  1  0.01702179  0.55051340  0.65613029  1
  S2-  S134  1  -0.00579595  0.96014308  0.14742678  1
  S2-  S135  1  0.00012135  0.75471598  0.64948900  1
  S2-  S136  1  0.15115514  0.12149575  0.15501372  1
  S2-  S137  1  0.23520521  0.15998851  0.65447673  1
  S2-  S138  1  0.17548026  0.37366247  0.14896578  1
  S2-  S139  1  0.27347807  0.45585257  0.63016988  1
  S2-  S140  1  0.25387476  0.73033296  0.13453038  1
  S2-  S141  1  0.24641779  0.69988345  0.64650627  1
  S2-  S142  1  0.26102698  0.95307367  0.14191210  1
  S2-  S143  1  0.19755194  0.91798281  0.67167588  1
  S2-  S144  1  0.37449286  0.14611770  0.14452642  1
  S2-  S145  1  0.49366397  0.11132655  0.66156453  1
  S2-  S146  1  0.62518776  0.38672639  0.14206646  1
  S2-  S147  1  0.52580845  0.37470505  0.65111554  1
  S2-  S148  1  0.49870389  0.75789797  0.13509863  1
  S2-  S149  1  0.50896291  0.64060030  0.64777826  1
  S2-  S150  1  0.50572257  0.97915314  0.13526060  1
  S2-  S151  1  0.39993404  0.85470120  0.64646105  1
  S2-  S152  1  0.84452981  0.12838874  0.15618489  1
  S2-  S153  1  0.72827220  0.07488986  0.65766714  1
  S2-  S154  1  0.84462372  0.38435681  0.15625952  1
  S2-  S155  1  0.75491343  0.47711528  0.63947482  1
  S2-  S156  1  0.74617335  0.62623928  0.16056145  1
  S2-  S157  1  0.75577319  0.71135847  0.64622155  1
  S2-  S158  1  0.73800861  0.95534084  0.13930163  1
  S2-  S159  1  0.61935667  0.86945028  0.64519503  1
  S2-  S160  1  0.12308190  0.08051995  0.35812448  1
  S2-  S161  1  0.21985217  0.01068656  0.84699770  1
  S2-  S162  1  0.13995064  0.28016767  0.33034756  1
  S2-  S163  1  0.14907655  0.25069615  0.84334580  1
  S2-  S164  1  0.09759066  0.49649018  0.33573700  1
  S2-  S165  1  0.10689089  0.59724260  0.85553206  1
  S2-  S166  1  0.13407716  0.85402056  0.36046463  1
  S2-  S167  1  0.12462577  0.81478992  0.83312719  1
  S2-  S168  1  0.37749439  0.08746838  0.35552606  1
  S2-  S169  1  0.36182516  0.01153927  0.76204060  1
  S2-  S170  1  0.38782130  0.30487477  0.34099207  1
  S2-  S171  1  0.38466512  0.16640689  0.85469052  1
  S2-  S172  1  0.33212666  0.50971954  0.33617683  1
  S2-  S173  1  0.37984727  0.60481033  0.86014187  1
  S2-  S174  1  0.38515691  0.85252683  0.35813382  1
  S2-  S175  1  0.36231189  0.83143651  0.84279498  1
  S2-  S176  1  0.61175673  0.01541364  0.34139898  1
  S2-  S177  1  0.50585839  -0.01225027  0.84601538  1
  S2-  S178  1  0.63753596  0.25452187  0.35046671  1
  S2-  S179  1  0.64395533  0.13472828  0.85910918  1
  S2-  S180  1  0.66910178  0.50665686  0.33974078  1
  S2-  S181  1  0.62970060  0.61000115  0.85717768  1
  S2-  S182  1  0.64537400  0.78229784  0.35382371  1
  S2-  S183  1  0.64655755  0.84571647  0.84840337  1
  S2-  S184  1  0.87553700  0.10292432  0.36138102  1
  S2-  S185  1  0.99115456  -0.00351350  0.85440530  1
  S2-  S186  1  0.86824949  0.34616072  0.36146564  1
  S2-  S187  1  0.86300024  0.25555732  0.85220033  1
  S2-  S188  1  0.87698307  0.59185312  0.35779447  1
  S2-  S189  1  0.86011212  0.51465067  0.84772905  1
  S2-  S190  1  0.87520276  0.85762473  0.35955204  1
  S2-  S191  1  0.88607507  0.75095604  0.84888105  1
  S2-  S192  1  0.00148704  0.10155785  0.46156311  1
  S2-  S193  1  0.00052244  0.11979705  0.95254662  1
  S2-  S194  1  0.00756969  0.34847865  0.45052045  1
  S2-  S195  1  0.00085471  0.36592027  0.95029114  1
  S2-  S196  1  0.00622280  0.60082219  0.45452000  1
  S2-  S197  1  -0.00477003  0.61351970  0.96007961  1
  S2-  S198  1  0.00152347  0.84997992  0.45994163  1
  S2-  S199  1  -0.00197866  0.86036159  0.95448498  1
  S2-  S200  1  0.25518646  0.09848253  0.45610053  1
  S2-  S201  1  0.25262903  0.11816874  0.95755653  1
  S2-  S202  1  0.25291365  0.35011325  0.44758186  1
  S2-  S203  1  0.25411340  0.36780602  0.95421368  1
  S2-  S204  1  0.25380223  0.60009104  0.45017579  1
  S2-  S205  1  0.24856863  0.61432791  0.95562996  1
  S2-  S206  1  0.25638364  0.85066737  0.46279443  1
  S2-  S207  1  0.24404022  0.86175272  0.94862111  1
  S2-  S208  1  0.50868159  0.09687664  0.45482294  1
  S2-  S209  1  0.49723605  0.11744718  0.95881941  1
  S2-  S210  1  0.50289121  0.35057393  0.44881602  1
  S2-  S211  1  0.50213105  0.36604929  0.96358542  1
  S2-  S212  1  0.50376092  0.59861829  0.44317530  1
  S2-  S213  1  0.50199958  0.61460598  0.95992923  1
  S2-  S214  1  0.50861776  0.84623740  0.45848520  1
  S2-  S215  1  0.49825485  0.86226699  0.95004946  1
  S2-  S216  1  0.75026783  0.09941447  0.45610697  1
  S2-  S217  1  0.75372122  0.11479832  0.96161444  1
  S2-  S218  1  0.75417538  0.35028867  0.46340391  1
  S2-  S219  1  0.74703570  0.36664715  0.96198384  1
  S2-  S220  1  0.75287596  0.59815914  0.45918413  1
  S2-  S221  1  0.75350364  0.61378195  0.95685884  1
  S2-  S222  1  0.75267458  0.84666944  0.46380909  1
  S2-  S223  1  0.75676051  0.86564280  0.95117601  1
  S2-  S224  1  0.12374948  -0.00849872  0.03879820  1
  S2-  S225  1  0.13033702  -0.01803070  0.54531910  1
  S2-  S226  1  0.12076537  0.24531783  0.05101703  1
  S2-  S227  1  0.12761113  0.22843605  0.54256541  1
  S2-  S228  1  0.12677254  0.49381852  0.04308140  1
  S2-  S229  1  0.12656738  0.47669216  0.54023211  1
  S2-  S230  1  0.12175024  0.73729312  0.03711717  1
  S2-  S231  1  0.13090873  0.72711766  0.54198143  1
  S2-  S232  1  0.37316384  -0.01417609  0.03464143  1
  S2-  S233  1  0.37901865  -0.02220231  0.54286277  1
  S2-  S234  1  0.37270623  0.24937325  0.04636775  1
  S2-  S235  1  0.37665888  0.23017425  0.54333589  1
  S2-  S236  1  0.37208844  0.49249021  0.04895564  1
  S2-  S237  1  0.38180223  0.47607182  0.53174446  1
  S2-  S238  1  0.37424990  0.73955553  0.03410966  1
  S2-  S239  1  0.38191742  0.72043315  0.53849844  1
  S2-  S240  1  0.62489699  -0.01090796  0.03378089  1
  S2-  S241  1  0.62983592  -0.02214625  0.54410599  1
  S2-  S242  1  0.62411368  0.23551272  0.05083137  1
  S2-  S243  1  0.63120892  0.23100279  0.55440547  1
  S2-  S244  1  0.62463950  0.49674097  0.04279608  1
  S2-  S245  1  0.62724709  0.47671005  0.54227553  1
  S2-  S246  1  0.63185997  0.74281122  0.04082932  1
  S2-  S247  1  0.62654200  0.72100272  0.54501968  1
  S2-  S248  1  0.87899325  -0.00563009  0.04130823  1
  S2-  S249  1  0.87319990  -0.02136986  0.54378573  1
  S2-  S250  1  0.87795735  0.24210507  0.05612481  1
  S2-  S251  1  0.87738647  0.22822586  0.54529588  1
  S2-  S252  1  0.87800285  0.49086836  0.05113607  1
  S2-  S253  1  0.88265018  0.47795308  0.53999791  1
  S2-  S254  1  0.87565380  0.74132298  0.05266240  1
  S2-  S255  1  0.87655135  0.72757740  0.54185244  1
