# generated using pymatgen
data_La6Ce6Pr19Nd20Sm13(BiS2)64
_symmetry_space_group_name_H-M   'P 1'
_cell_length_a   16.15187753
_cell_length_b   16.11432042
_cell_length_c   27.25552686
_cell_angle_alpha   89.85806543
_cell_angle_beta   90.01632357
_cell_angle_gamma   90.02561778
_symmetry_Int_Tables_number   1
_chemical_formula_structural   La6Ce6Pr19Nd20Sm13(BiS2)64
_chemical_formula_sum   'La6 Ce6 Pr19 Nd20 Sm13 Bi64 S128'
_cell_volume   7093.95119382
_cell_formula_units_Z   1
loop_
 _symmetry_equiv_pos_site_id
 _symmetry_equiv_pos_as_xyz
  1  'x, y, z'
loop_
 _atom_type_symbol
 _atom_type_oxidation_number
  La3+  3.0
  Ce3+  3.0
  Pr3+  3.0
  Nd3+  3.0
  Sm3+  3.0
  Bi2+  2.0
  S2-  -2.0
loop_
 _atom_site_type_symbol
 _atom_site_label
 _atom_site_symmetry_multiplicity
 _atom_site_fract_x
 _atom_site_fract_y
 _atom_site_fract_z
 _atom_site_occupancy
  La3+  La0  1  0.74417585  0.13218069  0.08986205  1
  La3+  La1  1  0.61391311  0.48647912  0.89294439  1
  La3+  La2  1  0.88223347  0.75363348  0.89648503  1
  La3+  La3  1  0.00390154  0.12038081  0.10100553  1
  La3+  La4  1  0.88338949  0.49496214  0.43947129  1
  La3+  La5  1  0.13883223  0.23635553  0.41405169  1
  Ce3+  Ce6  1  0.75867708  0.37609640  0.05737080  1
  Ce3+  Ce7  1  0.38411778  -0.00662615  0.44271093  1
  Ce3+  Ce8  1  0.87956053  0.00132460  0.94908401  1
  Ce3+  Ce9  1  0.25527192  0.86812839  0.55496696  1
  Ce3+  Ce10  1  0.38440131  0.74753061  0.44202357  1
  Ce3+  Ce11  1  0.13142494  0.74412644  0.44118799  1
  Pr3+  Pr12  1  0.25928767  0.12168619  0.56246018  1
  Pr3+  Pr13  1  0.38196447  0.25128828  0.94227063  1
  Pr3+  Pr14  1  0.25506572  0.37616352  0.06187852  1
  Pr3+  Pr15  1  0.75773094  0.61363376  0.57438972  1
  Pr3+  Pr16  1  0.62650509  0.75360964  0.92274888  1
  Pr3+  Pr17  1  0.88397348  -0.00250746  0.43686945  1
  Pr3+  Pr18  1  0.38426231  0.50090383  0.43655759  1
  Pr3+  Pr19  1  0.63564387  -0.00200198  0.93886194  1
  Pr3+  Pr20  1  0.01076954  0.36679710  0.56134313  1
  Pr3+  Pr21  1  0.25988439  0.87384248  0.06588363  1
  Pr3+  Pr22  1  0.01586445  0.61534150  0.59173366  1
  Pr3+  Pr23  1  0.38271280  0.75208569  0.93598926  1
  Pr3+  Pr24  1  0.25293474  0.12713344  0.06576388  1
  Pr3+  Pr25  1  0.12552700  0.00158886  0.94400838  1
  Pr3+  Pr26  1  0.87852404  0.49686574  0.93174346  1
  Pr3+  Pr27  1  0.75818839  0.87508475  0.06150120  1
  Pr3+  Pr28  1  0.76026597  0.36730549  0.56040154  1
  Pr3+  Pr29  1  0.88298487  0.74310894  0.44384953  1
  Pr3+  Pr30  1  0.50835356  0.36913599  0.55995030  1
  Nd3+  Nd31  1  0.01109966  0.87374479  0.07102509  1
  Nd3+  Nd32  1  0.12755297  0.75449675  0.93273289  1
  Nd3+  Nd33  1  0.01167265  0.38297900  0.08013646  1
  Nd3+  Nd34  1  0.63205950  0.24702014  0.43617649  1
  Nd3+  Nd35  1  0.12628811  0.25163653  0.94628189  1
  Nd3+  Nd36  1  0.38011956  -0.00112824  0.94370938  1
  Nd3+  Nd37  1  0.00555160  0.62603663  0.05681719  1
  Nd3+  Nd38  1  0.12560785  0.50090215  0.93764688  1
  Nd3+  Nd39  1  0.63131206  0.49743318  0.44008607  1
  Nd3+  Nd40  1  0.50844083  0.62070645  0.56336526  1
  Nd3+  Nd41  1  0.01617997  0.12253500  0.56926984  1
  Nd3+  Nd42  1  0.51030867  0.37938036  0.06138147  1
  Nd3+  Nd43  1  0.88507754  0.24406639  0.43121602  1
  Nd3+  Nd44  1  0.25698593  0.61969371  0.55824094  1
  Nd3+  Nd45  1  0.51202165  0.62669589  0.05791895  1
  Nd3+  Nd46  1  0.50514399  0.12487840  0.05908669  1
  Nd3+  Nd47  1  0.51071722  0.87074902  0.56162784  1
  Nd3+  Nd48  1  0.63259067  0.24648160  0.93942240  1
  Nd3+  Nd49  1  0.51550851  0.86973208  0.07978108  1
  Nd3+  Nd50  1  0.87722844  0.25233428  0.94917162  1
  Sm3+  Sm51  1  0.13197216  0.49468718  0.43819503  1
  Sm3+  Sm52  1  0.63557569  0.74540427  0.44694221  1
  Sm3+  Sm53  1  0.75926624  0.11968272  0.55259829  1
  Sm3+  Sm54  1  0.38136230  0.50149642  0.94439211  1
  Sm3+  Sm55  1  0.63339339  -0.00407833  0.44122105  1
  Sm3+  Sm56  1  0.76318134  0.86956580  0.55922656  1
  Sm3+  Sm57  1  0.25639172  0.36947959  0.55006400  1
  Sm3+  Sm58  1  0.13321545  -0.00331520  0.44204299  1
  Sm3+  Sm59  1  0.75810053  0.62857433  0.04424168  1
  Sm3+  Sm60  1  0.38199340  0.24655008  0.43587037  1
  Sm3+  Sm61  1  0.50907793  0.12036354  0.55078019  1
  Sm3+  Sm62  1  0.00727159  0.86973411  0.55520908  1
  Sm3+  Sm63  1  0.25714563  0.62679116  0.05024911  1
  Bi2+  Bi64  1  -0.02797626  0.12554348  0.30839495  1
  Bi2+  Bi65  1  -0.00255234  0.15870659  0.79484747  1
  Bi2+  Bi66  1  -0.00851233  0.39592862  0.29615612  1
  Bi2+  Bi67  1  0.02329870  0.35721168  0.79938975  1
  Bi2+  Bi68  1  -0.01379622  0.64160704  0.29127306  1
  Bi2+  Bi69  1  0.01065878  0.61424423  0.78367038  1
  Bi2+  Bi70  1  -0.00312381  0.83921234  0.28682954  1
  Bi2+  Bi71  1  0.03590559  0.89549673  0.79013018  1
  Bi2+  Bi72  1  0.25884143  0.11086909  0.29282928  1
  Bi2+  Bi73  1  0.26859045  0.12791794  0.80565516  1
  Bi2+  Bi74  1  0.26086184  0.41675107  0.28430096  1
  Bi2+  Bi75  1  0.27423547  0.37348280  0.75073294  1
  Bi2+  Bi76  1  0.24425452  0.68013669  0.27868312  1
  Bi2+  Bi77  1  0.26527044  0.63579304  0.79846495  1
  Bi2+  Bi78  1  0.25666230  0.87681249  0.27164061  1
  Bi2+  Bi79  1  0.26924986  0.82663532  0.81231696  1
  Bi2+  Bi80  1  0.46307013  0.17108199  0.27968601  1
  Bi2+  Bi81  1  0.58230074  0.14776743  0.80584348  1
  Bi2+  Bi82  1  0.55661024  0.36880592  0.30058105  1
  Bi2+  Bi83  1  0.45558979  0.36687829  0.78809883  1
  Bi2+  Bi84  1  0.49507158  0.57866736  0.30165373  1
  Bi2+  Bi85  1  0.49037395  0.63939105  0.78689449  1
  Bi2+  Bi86  1  0.43632474  0.85953192  0.31293003  1
  Bi2+  Bi87  1  0.52168769  0.91301419  0.79674891  1
  Bi2+  Bi88  1  0.71859620  0.09329476  0.29322336  1
  Bi2+  Bi89  1  0.76280262  0.12996389  0.86008504  1
  Bi2+  Bi90  1  0.71192023  0.44431326  0.24311354  1
  Bi2+  Bi91  1  0.76588031  0.30231572  0.79774832  1
  Bi2+  Bi92  1  0.75594453  0.63983582  0.31600680  1
  Bi2+  Bi93  1  0.75974337  0.61967744  0.77504583  1
  Bi2+  Bi94  1  0.63571068  0.88048698  0.25193758  1
  Bi2+  Bi95  1  0.79269445  0.97820013  0.78944656  1
  Bi2+  Bi96  1  0.10100442  -0.04653125  0.21981625  1
  Bi2+  Bi97  1  0.16933710  -0.00191484  0.71895577  1
  Bi2+  Bi98  1  0.10776291  0.25567231  0.21075819  1
  Bi2+  Bi99  1  0.12132126  0.24412358  0.70435882  1
  Bi2+  Bi100  1  0.13891729  0.52292974  0.20482939  1
  Bi2+  Bi101  1  0.14603157  0.48765255  0.70081330  1
  Bi2+  Bi102  1  0.05208536  0.73205664  0.19299880  1
  Bi2+  Bi103  1  0.17524466  0.75449378  0.71862150  1
  Bi2+  Bi104  1  0.33908882  0.09864237  0.18673558  1
  Bi2+  Bi105  1  0.36048681  -0.02449406  0.73902646  1
  Bi2+  Bi106  1  0.34392002  0.28778592  0.21435314  1
  Bi2+  Bi107  1  0.40212604  0.17006029  0.72789045  1
  Bi2+  Bi108  1  0.35315570  0.54253971  0.21427621  1
  Bi2+  Bi109  1  0.36026169  0.54570041  0.71176223  1
  Bi2+  Bi110  1  0.39694360  0.76679607  0.21163723  1
  Bi2+  Bi111  1  0.37470904  0.74480615  0.71291804  1
  Bi2+  Bi112  1  0.50373678  0.00911948  0.21663464  1
  Bi2+  Bi113  1  0.65129776  0.03663388  0.72097280  1
  Bi2+  Bi114  1  0.59802181  0.25309542  0.20708096  1
  Bi2+  Bi115  1  0.60267347  0.22630064  0.69792676  1
  Bi2+  Bi116  1  0.54711199  0.50684132  0.19080875  1
  Bi2+  Bi117  1  0.61924341  0.47029870  0.70458073  1
  Bi2+  Bi118  1  0.60237780  0.68806694  0.22895954  1
  Bi2+  Bi119  1  0.62527772  0.76703864  0.69262496  1
  Bi2+  Bi120  1  0.80983454  -0.07184493  0.20085268  1
  Bi2+  Bi121  1  0.94347599  0.02597979  0.71600383  1
  Bi2+  Bi122  1  0.84400997  0.25731161  0.22102962  1
  Bi2+  Bi123  1  0.86576390  0.21865476  0.71278479  1
  Bi2+  Bi124  1  0.85890143  0.54073475  0.20194956  1
  Bi2+  Bi125  1  0.89164628  0.41368279  0.72064783  1
  Bi2+  Bi126  1  0.85590322  0.73981519  0.20211284  1
  Bi2+  Bi127  1  0.86982037  0.79369286  0.70200161  1
  S2-  S128  1  -0.02250605  0.14930098  0.20705705  1
  S2-  S129  1  -0.00217147  0.24934988  0.63794120  1
  S2-  S130  1  -0.03785218  0.33377671  0.17537822  1
  S2-  S131  1  0.00283898  0.46667578  0.64766533  1
  S2-  S132  1  0.00457314  0.53168062  0.14154262  1
  S2-  S133  1  -0.02514421  0.67746293  0.68563249  1
  S2-  S134  1  -0.03117594  0.96445699  0.15508565  1
  S2-  S135  1  -0.02693948  0.89647773  0.64929693  1
  S2-  S136  1  0.15966346  0.12505142  0.15238457  1
  S2-  S137  1  0.15438009  0.11557665  0.64214054  1
  S2-  S138  1  0.16424743  0.38206387  0.14728711  1
  S2-  S139  1  0.23495008  0.34915854  0.64663234  1
  S2-  S140  1  0.24571857  0.62745343  0.14777306  1
  S2-  S141  1  0.17053816  0.62141249  0.64407326  1
  S2-  S142  1  0.14616567  0.85344947  0.14225321  1
  S2-  S143  1  0.21063822  0.87683938  0.64884565  1
  S2-  S144  1  0.58493207  0.11724821  0.14721733  1
  S2-  S145  1  0.49122391  0.11642920  0.64721711  1
  S2-  S146  1  0.47263888  0.34701199  0.15684957  1
  S2-  S147  1  0.51136750  0.36480000  0.66008904  1
  S2-  S148  1  0.51913878  0.72246617  0.14109962  1
  S2-  S149  1  0.56262326  0.60949414  0.65705617  1
  S2-  S150  1  0.37795522  0.88446637  0.14296703  1
  S2-  S151  1  0.49681872  0.84872799  0.65980495  1
  S2-  S152  1  0.77926684  0.09417455  0.19089478  1
  S2-  S153  1  0.74129887  0.14080073  0.64895094  1
  S2-  S154  1  0.73571250  0.29717583  0.14469639  1
  S2-  S155  1  0.75631341  0.44020177  0.65194445  1
  S2-  S156  1  0.75424377  0.63578802  0.14512926  1
  S2-  S157  1  0.76643118  0.66137481  0.67083524  1
  S2-  S158  1  0.66118317  0.88603981  0.14606696  1
  S2-  S159  1  0.72787569  0.87987387  0.65484268  1
  S2-  S160  1  0.11950249  0.06954776  0.35402890  1
  S2-  S161  1  0.15224732  -0.04262582  0.84726049  1
  S2-  S162  1  0.08189966  0.26792889  0.31678451  1
  S2-  S163  1  0.13053743  0.22315954  0.84722334  1
  S2-  S164  1  0.13159636  0.47259659  0.34017617  1
  S2-  S165  1  0.10039625  0.49526449  0.83898047  1
  S2-  S166  1  0.12250163  0.72164770  0.34452807  1
  S2-  S167  1  0.03860723  0.74494591  0.84609799  1
  S2-  S168  1  0.37895121  0.01262680  0.34604612  1
  S2-  S169  1  0.39452528  0.01694957  0.84456969  1
  S2-  S170  1  0.28611644  0.23968165  0.35510151  1
  S2-  S171  1  0.34697093  0.26332374  0.84462001  1
  S2-  S172  1  0.40946172  0.43946820  0.34373066  1
  S2-  S173  1  0.44825107  0.49978727  0.85305701  1
  S2-  S174  1  0.38745629  0.68501480  0.35114380  1
  S2-  S175  1  0.47589026  0.77138845  0.85162262  1
  S2-  S176  1  0.63325893  -0.01446342  0.34345580  1
  S2-  S177  1  0.64557282  -0.10604974  0.85610170  1
  S2-  S178  1  0.65547729  0.22978364  0.33856029  1
  S2-  S179  1  0.57454509  0.31478091  0.85312017  1
  S2-  S180  1  0.67973689  0.48467234  0.34574551  1
  S2-  S181  1  0.69587497  0.45566347  0.79967185  1
  S2-  S182  1  0.63747612  0.73019273  0.34985842  1
  S2-  S183  1  0.63404070  0.64020808  0.84236425  1
  S2-  S184  1  0.85933286  0.01593544  0.33708099  1
  S2-  S185  1  0.90697430  -0.07161559  0.86020667  1
  S2-  S186  1  0.87751901  0.27603414  0.33177116  1
  S2-  S187  1  0.89065578  0.35506309  0.86549716  1
  S2-  S188  1  0.89551764  0.52091747  0.34001022  1
  S2-  S189  1  0.88620004  0.58831243  0.84297795  1
  S2-  S190  1  0.86470983  0.76564719  0.34457609  1
  S2-  S191  1  0.80883964  0.76556195  0.80007255  1
  S2-  S192  1  0.00823920  0.12140271  0.45723294  1
  S2-  S193  1  0.00222575  0.12859910  0.95132515  1
  S2-  S194  1  0.01091008  0.36737900  0.44858705  1
  S2-  S195  1  0.00807169  0.37691224  0.96480655  1
  S2-  S196  1  0.00962511  0.61858094  0.45086019  1
  S2-  S197  1  0.00475964  0.62709643  0.95181902  1
  S2-  S198  1  0.00857141  0.87262669  0.44938425  1
  S2-  S199  1  0.00721091  0.87276907  0.96292349  1
  S2-  S200  1  0.26129322  0.11655202  0.45675966  1
  S2-  S201  1  0.25453830  0.12663604  0.95717133  1
  S2-  S202  1  0.25938396  0.37421135  0.44757575  1
  S2-  S203  1  0.25509673  0.37832741  0.95346028  1
  S2-  S204  1  0.25567377  0.61937921  0.45216088  1
  S2-  S205  1  0.25467502  0.62466609  0.94498674  1
  S2-  S206  1  0.25567360  0.87111052  0.44728715  1
  S2-  S207  1  0.25516637  0.87491675  0.95668265  1
  S2-  S208  1  0.50778788  0.12142835  0.44586858  1
  S2-  S209  1  0.50536650  0.12381531  0.95239529  1
  S2-  S210  1  0.50664012  0.36955553  0.45280142  1
  S2-  S211  1  0.50291814  0.37950109  0.95778777  1
  S2-  S212  1  0.51085838  0.62315196  0.45673721  1
  S2-  S213  1  0.50650362  0.62085059  0.95308689  1
  S2-  S214  1  0.51278180  0.87000245  0.45462976  1
  S2-  S215  1  0.50349145  0.87879430  0.96204959  1
  S2-  S216  1  0.75615191  0.12107965  0.44813529  1
  S2-  S217  1  0.75476382  0.12750739  0.97256675  1
  S2-  S218  1  0.75773647  0.36800426  0.45200218  1
  S2-  S219  1  0.74340298  0.38081604  0.95178907  1
  S2-  S220  1  0.75593337  0.62014331  0.46139996  1
  S2-  S221  1  0.76015430  0.63138212  0.94289704  1
  S2-  S222  1  0.75684586  0.87224364  0.45364793  1
  S2-  S223  1  0.76365051  0.87097788  0.95536557  1
  S2-  S224  1  0.12778393  0.00374507  0.04941528  1
  S2-  S225  1  0.13066945  -0.00750031  0.54429648  1
  S2-  S226  1  0.12496141  0.24995314  0.05071078  1
  S2-  S227  1  0.13826130  0.24522666  0.53435642  1
  S2-  S228  1  0.13520808  0.50394106  0.04212027  1
  S2-  S229  1  0.13468863  0.49341715  0.54199803  1
  S2-  S230  1  0.13283218  0.74467032  0.03895943  1
  S2-  S231  1  0.12698508  0.74440148  0.54656763  1
  S2-  S232  1  0.38087159  0.00491637  0.04801906  1
  S2-  S233  1  0.38418859  -0.00581222  0.55010474  1
  S2-  S234  1  0.38118112  0.25223934  0.04948840  1
  S2-  S235  1  0.38318300  0.24524249  0.54248873  1
  S2-  S236  1  0.38131894  0.50231857  0.04980830  1
  S2-  S237  1  0.38175562  0.49559838  0.54721022  1
  S2-  S238  1  0.38116377  0.74637730  0.04197898  1
  S2-  S239  1  0.38304684  0.74495074  0.55001880  1
  S2-  S240  1  0.62883931  0.00097999  0.04518926  1
  S2-  S241  1  0.63468844  -0.00375141  0.54713366  1
  S2-  S242  1  0.62613968  0.25328646  0.04403519  1
  S2-  S243  1  0.63313929  0.24289581  0.54318873  1
  S2-  S244  1  0.63552982  0.50259950  0.05388396  1
  S2-  S245  1  0.63212738  0.49423572  0.54619878  1
  S2-  S246  1  0.63441232  0.74969402  0.03646327  1
  S2-  S247  1  0.63670021  0.74582252  0.55157226  1
  S2-  S248  1  0.87697229  0.00862735  0.05438176  1
  S2-  S249  1  0.88348806  -0.00190365  0.54518989  1
  S2-  S250  1  0.88629250  0.24891799  0.05617362  1
  S2-  S251  1  0.88064792  0.24151853  0.53863012  1
  S2-  S252  1  0.87909825  0.50079333  0.04104801  1
  S2-  S253  1  0.88456145  0.49611979  0.54694490  1
  S2-  S254  1  0.88343527  0.74950533  0.05560366  1
  S2-  S255  1  0.88469507  0.74267960  0.55136687  1
