# generated using pymatgen
data_La6Ce6Pr19Nd20Sm13(BiS2)64
_symmetry_space_group_name_H-M   'P 1'
_cell_length_a   16.09355041
_cell_length_b   16.08569580
_cell_length_c   27.44990659
_cell_angle_alpha   90.17598795
_cell_angle_beta   90.16175029
_cell_angle_gamma   89.81198124
_symmetry_Int_Tables_number   1
_chemical_formula_structural   La6Ce6Pr19Nd20Sm13(BiS2)64
_chemical_formula_sum   'La6 Ce6 Pr19 Nd20 Sm13 Bi64 S128'
_cell_volume   7106.02091907
_cell_formula_units_Z   1
loop_
 _symmetry_equiv_pos_site_id
 _symmetry_equiv_pos_as_xyz
  1  'x, y, z'
loop_
 _atom_type_symbol
 _atom_type_oxidation_number
  La3+  3.0
  Ce3+  3.0
  Pr3+  3.0
  Nd3+  3.0
  Sm3+  3.0
  Bi2+  2.0
  S2-  -2.0
loop_
 _atom_site_type_symbol
 _atom_site_label
 _atom_site_symmetry_multiplicity
 _atom_site_fract_x
 _atom_site_fract_y
 _atom_site_fract_z
 _atom_site_occupancy
  La3+  La0  1  0.61643037  0.02167686  0.39041890  1
  La3+  La1  1  0.00398164  0.36401884  0.07761905  1
  La3+  La2  1  0.11330771  0.48240460  0.38399620  1
  La3+  La3  1  0.37376584  0.47405546  0.90877184  1
  La3+  La4  1  0.74977198  0.10863203  0.10890838  1
  La3+  La5  1  0.75965483  0.63627564  0.60357300  1
  Ce3+  Ce6  1  0.12061271  0.01339121  0.43934102  1
  Ce3+  Ce7  1  0.87776303  0.72929004  0.93373125  1
  Ce3+  Ce8  1  0.00350713  0.10620117  0.07020456  1
  Ce3+  Ce9  1  0.50776265  0.39117896  0.56319852  1
  Ce3+  Ce10  1  -0.00119564  0.39549185  0.56180284  1
  Ce3+  Ce11  1  0.12976803  0.46873472  0.93259535  1
  Pr3+  Pr12  1  0.75965387  0.38922903  0.57236563  1
  Pr3+  Pr13  1  0.38248861  0.76205085  0.43492685  1
  Pr3+  Pr14  1  0.62848283  -0.01802843  0.94408197  1
  Pr3+  Pr15  1  0.75406631  0.85759897  0.05961742  1
  Pr3+  Pr16  1  -0.00686611  0.13853819  0.57397848  1
  Pr3+  Pr17  1  0.37576753  0.26542234  0.44494843  1
  Pr3+  Pr18  1  0.86930548  0.51455033  0.43386058  1
  Pr3+  Pr19  1  0.25909034  0.35798567  0.07209954  1
  Pr3+  Pr20  1  0.62681884  0.23403040  0.94180486  1
  Pr3+  Pr21  1  0.25223786  0.10464778  0.07055122  1
  Pr3+  Pr22  1  0.50447127  0.85140126  0.05940532  1
  Pr3+  Pr23  1  0.87852402  0.01141085  0.43466779  1
  Pr3+  Pr24  1  0.24957268  0.13900218  0.55923189  1
  Pr3+  Pr25  1  0.25434407  0.64244593  0.56731928  1
  Pr3+  Pr26  1  0.62627578  0.71999036  0.92436916  1
  Pr3+  Pr27  1  0.49971076  0.10511434  0.07086424  1
  Pr3+  Pr28  1  0.25363144  0.60484274  0.05690794  1
  Pr3+  Pr29  1  0.75213904  0.88641969  0.56574058  1
  Pr3+  Pr30  1  0.62897170  0.26279292  0.44368398  1
  Nd3+  Nd31  1  0.37600309  0.73112122  0.93560618  1
  Nd3+  Nd32  1  0.75443086  0.60593594  0.05104778  1
  Nd3+  Nd33  1  0.50616013  0.88805230  0.56295559  1
  Nd3+  Nd34  1  0.87594106  0.76055324  0.43884602  1
  Nd3+  Nd35  1  0.62905814  0.51712565  0.44720905  1
  Nd3+  Nd36  1  0.12786669  0.72726956  0.93636947  1
  Nd3+  Nd37  1  0.25073760  0.88576719  0.55825929  1
  Nd3+  Nd38  1  0.00158762  0.88271585  0.55444760  1
  Nd3+  Nd39  1  0.88042776  0.26513098  0.43871944  1
  Nd3+  Nd40  1  0.12601052  -0.01399221  0.93325218  1
  Nd3+  Nd41  1  0.37491890  0.51631477  0.44043076  1
  Nd3+  Nd42  1  0.87854576  0.46511421  0.92967299  1
  Nd3+  Nd43  1  0.49865049  0.64381208  0.57857263  1
  Nd3+  Nd44  1  0.50772966  0.35693305  0.06555973  1
  Nd3+  Nd45  1  0.37913479  0.01389642  0.44555200  1
  Nd3+  Nd46  1  0.00288917  0.85845981  0.05376231  1
  Nd3+  Nd47  1  0.13490991  0.75036947  0.42423803  1
  Nd3+  Nd48  1  0.75117666  0.13570819  0.55726156  1
  Nd3+  Nd49  1  0.12568411  0.22839959  0.94323972  1
  Nd3+  Nd50  1  0.37511342  0.23020488  0.94179890  1
  Sm3+  Sm51  1  0.62821935  0.47502650  0.93277517  1
  Sm3+  Sm52  1  0.37798229  -0.01813150  0.94366516  1
  Sm3+  Sm53  1  0.00292389  0.63706625  0.54879018  1
  Sm3+  Sm54  1  0.75265910  0.35969017  0.07030365  1
  Sm3+  Sm55  1  0.62842901  0.76743246  0.44744865  1
  Sm3+  Sm56  1  0.25081144  0.85609845  0.05272164  1
  Sm3+  Sm57  1  0.50338574  0.60556171  0.04946228  1
  Sm3+  Sm58  1  0.00266973  0.60444534  0.04474001  1
  Sm3+  Sm59  1  0.87585706  0.22791296  0.95756743  1
  Sm3+  Sm60  1  0.25287593  0.39270484  0.56437599  1
  Sm3+  Sm61  1  0.12605539  0.26593861  0.45428998  1
  Sm3+  Sm62  1  0.50265801  0.13748471  0.55955977  1
  Sm3+  Sm63  1  0.87522164  -0.01700129  0.94537328  1
  Bi2+  Bi64  1  0.03571659  0.09628596  0.26889417  1
  Bi2+  Bi65  1  -0.04462388  0.14174015  0.81468741  1
  Bi2+  Bi66  1  -0.01989276  0.34245051  0.29610736  1
  Bi2+  Bi67  1  0.04344175  0.38056953  0.76798190  1
  Bi2+  Bi68  1  -0.01262748  0.69454796  0.27426549  1
  Bi2+  Bi69  1  0.02937341  0.64224406  0.78947819  1
  Bi2+  Bi70  1  0.01384106  0.88767294  0.29870459  1
  Bi2+  Bi71  1  -0.03723161  0.92834344  0.76080392  1
  Bi2+  Bi72  1  0.23284895  0.08716229  0.28511689  1
  Bi2+  Bi73  1  0.32707613  0.12410492  0.81076507  1
  Bi2+  Bi74  1  0.25221758  0.35570559  0.29179987  1
  Bi2+  Bi75  1  0.23702224  0.35222975  0.79759775  1
  Bi2+  Bi76  1  0.26566585  0.63499531  0.29490571  1
  Bi2+  Bi77  1  0.23448677  0.64456837  0.79367894  1
  Bi2+  Bi78  1  0.21436239  0.89003238  0.28858370  1
  Bi2+  Bi79  1  0.24515247  0.87294001  0.78588072  1
  Bi2+  Bi80  1  0.47297995  0.14814193  0.29842746  1
  Bi2+  Bi81  1  0.52722577  0.12249847  0.79989171  1
  Bi2+  Bi82  1  0.51275141  0.43287234  0.28670319  1
  Bi2+  Bi83  1  0.52020421  0.31861501  0.78961775  1
  Bi2+  Bi84  1  0.50785167  0.61386207  0.34651758  1
  Bi2+  Bi85  1  0.50989030  0.65552122  0.78944864  1
  Bi2+  Bi86  1  0.49444505  0.80177076  0.31030220  1
  Bi2+  Bi87  1  0.49683401  0.95502312  0.73276254  1
  Bi2+  Bi88  1  0.74158638  0.14917377  0.28628415  1
  Bi2+  Bi89  1  0.73916129  0.11999634  0.79024093  1
  Bi2+  Bi90  1  0.71381811  0.44062393  0.26856306  1
  Bi2+  Bi91  1  0.77819825  0.34455509  0.79738997  1
  Bi2+  Bi92  1  0.70089623  0.62869635  0.30719495  1
  Bi2+  Bi93  1  0.75756481  0.64061385  0.79945289  1
  Bi2+  Bi94  1  0.78946212  0.86409530  0.30202976  1
  Bi2+  Bi95  1  0.72671932  0.90304107  0.78049921  1
  Bi2+  Bi96  1  0.14979882  0.02165895  0.18068003  1
  Bi2+  Bi97  1  0.13087837  0.03116968  0.77179087  1
  Bi2+  Bi98  1  0.13222799  0.21556110  0.18922685  1
  Bi2+  Bi99  1  0.14236332  0.23033104  0.71662209  1
  Bi2+  Bi100  1  0.12425187  0.53647169  0.19187319  1
  Bi2+  Bi101  1  0.14108470  0.53310743  0.71264006  1
  Bi2+  Bi102  1  0.11357462  0.79332586  0.20540533  1
  Bi2+  Bi103  1  0.10925961  0.74713611  0.70473999  1
  Bi2+  Bi104  1  0.34753938  -0.03671870  0.20770265  1
  Bi2+  Bi105  1  0.31056897  0.00163770  0.70881616  1
  Bi2+  Bi106  1  0.32863142  0.22592605  0.21283712  1
  Bi2+  Bi107  1  0.39227333  0.22620378  0.72064132  1
  Bi2+  Bi108  1  0.36977197  0.49833369  0.21905424  1
  Bi2+  Bi109  1  0.36603971  0.48325638  0.71557510  1
  Bi2+  Bi110  1  0.42363866  0.68790711  0.23093559  1
  Bi2+  Bi111  1  0.35023255  0.74310617  0.70992899  1
  Bi2+  Bi112  1  0.60368940  -0.03674385  0.20065850  1
  Bi2+  Bi113  1  0.62703949  0.00399823  0.65547851  1
  Bi2+  Bi114  1  0.53614801  0.28251455  0.19989335  1
  Bi2+  Bi115  1  0.65123991  0.21475303  0.71008912  1
  Bi2+  Bi116  1  0.58736805  0.53230261  0.19422234  1
  Bi2+  Bi117  1  0.61346171  0.48231949  0.71200048  1
  Bi2+  Bi118  1  0.64773368  0.77263774  0.23392461  1
  Bi2+  Bi119  1  0.61067828  0.78833288  0.70504633  1
  Bi2+  Bi120  1  0.88420909  -0.04242712  0.21635293  1
  Bi2+  Bi121  1  0.81285725  0.00709220  0.69890201  1
  Bi2+  Bi122  1  0.91733551  0.24697804  0.20558304  1
  Bi2+  Bi123  1  0.94054358  0.22912927  0.71231888  1
  Bi2+  Bi124  1  0.86743815  0.51751212  0.21088232  1
  Bi2+  Bi125  1  0.92142440  0.50656822  0.71232178  1
  Bi2+  Bi126  1  0.83139220  0.71897524  0.20556507  1
  Bi2+  Bi127  1  0.90474737  0.76194117  0.70818666  1
  S2-  S128  1  -0.08427873  0.09337998  0.15392266  1
  S2-  S129  1  0.05128706  0.11288182  0.66836188  1
  S2-  S130  1  -0.12919519  0.38323271  0.14536000  1
  S2-  S131  1  -0.09676399  0.38797411  0.64212600  1
  S2-  S132  1  -0.01116924  0.57794741  0.14057290  1
  S2-  S133  1  -0.06503460  0.63346278  0.64053690  1
  S2-  S134  1  -0.02199648  0.85087429  0.15141700  1
  S2-  S135  1  0.01121061  0.87021899  0.65328028  1
  S2-  S136  1  0.37110294  0.09918299  0.14530741  1
  S2-  S137  1  0.26971247  0.15226739  0.65730057  1
  S2-  S138  1  0.13725135  0.38301350  0.14558844  1
  S2-  S139  1  0.24600019  0.40821719  0.66282643  1
  S2-  S140  1  0.27007423  0.59795165  0.15698257  1
  S2-  S141  1  0.36697252  0.61301859  0.64806154  1
  S2-  S142  1  0.25222103  0.84721017  0.14950391  1
  S2-  S143  1  0.23438186  0.78040287  0.63685149  1
  S2-  S144  1  0.58828021  0.12105682  0.15682459  1
  S2-  S145  1  0.50765719  0.17047602  0.65550738  1
  S2-  S146  1  0.39544190  0.34573565  0.14530072  1
  S2-  S147  1  0.47851125  0.41487669  0.65907982  1
  S2-  S148  1  0.51562175  0.66051335  0.14166165  1
  S2-  S149  1  0.60217394  0.62766547  0.65852327  1
  S2-  S150  1  0.47263305  0.88960738  0.15537328  1
  S2-  S151  1  0.47589971  0.79828892  0.64672352  1
  S2-  S152  1  0.75747899  0.21145297  0.19647937  1
  S2-  S153  1  0.84938954  0.14757007  0.63931639  1
  S2-  S154  1  0.62795738  0.37571109  0.14079629  1
  S2-  S155  1  0.68771747  0.36414533  0.66395658  1
  S2-  S156  1  0.74865234  0.59652040  0.15034373  1
  S2-  S157  1  0.76661944  0.56694401  0.70446760  1
  S2-  S158  1  0.75270282  0.94230250  0.14791883  1
  S2-  S159  1  0.76451762  0.79209432  0.65239354  1
  S2-  S160  1  0.01102135  0.03451318  0.36383059  1
  S2-  S161  1  0.11420344  0.11124338  0.86406976  1
  S2-  S162  1  0.12646640  0.30107417  0.35874931  1
  S2-  S163  1  0.10859446  0.33756219  0.86488599  1
  S2-  S164  1  0.11860093  0.45374631  0.27486322  1
  S2-  S165  1  0.22755015  0.50310047  0.85167285  1
  S2-  S166  1  0.11459279  0.64443013  0.34118411  1
  S2-  S167  1  0.13544074  0.77398977  0.84187725  1
  S2-  S168  1  0.44238044  0.01585150  0.35435495  1
  S2-  S169  1  0.35833531  -0.02958951  0.84733555  1
  S2-  S170  1  0.37894509  0.26304533  0.34541333  1
  S2-  S171  1  0.37887411  0.31977599  0.85593286  1
  S2-  S172  1  0.28729965  0.49360786  0.35403337  1
  S2-  S173  1  0.43641552  0.51744912  0.81212994  1
  S2-  S174  1  0.27043390  0.77031125  0.35685845  1
  S2-  S175  1  0.39635149  0.73794848  0.83760063  1
  S2-  S176  1  0.61154098  0.03924540  0.28426185  1
  S2-  S177  1  0.63438519  -0.00069768  0.84477815  1
  S2-  S178  1  0.61728535  0.20114953  0.35053671  1
  S2-  S179  1  0.63766413  0.34761600  0.86236551  1
  S2-  S180  1  0.72944680  0.48664468  0.36554554  1
  S2-  S181  1  0.62776381  0.58147730  0.85421242  1
  S2-  S182  1  0.63603545  0.84976184  0.35936584  1
  S2-  S183  1  0.65192416  0.77580200  0.82890675  1
  S2-  S184  1  0.78311288  0.01512957  0.34964014  1
  S2-  S185  1  0.90285226  -0.00790960  0.84927362  1
  S2-  S186  1  0.86171009  0.24935417  0.33969532  1
  S2-  S187  1  0.87745958  0.28736291  0.86459348  1
  S2-  S188  1  0.94800601  0.47657397  0.34648918  1
  S2-  S189  1  0.82919755  0.48953175  0.83439142  1
  S2-  S190  1  0.85453175  0.70714722  0.34375811  1
  S2-  S191  1  0.88969486  0.72622355  0.83631883  1
  S2-  S192  1  0.00311986  0.14317744  0.46536550  1
  S2-  S193  1  -0.00188124  0.10422464  0.96453977  1
  S2-  S194  1  0.00450390  0.39038540  0.45776064  1
  S2-  S195  1  -0.00033368  0.35105215  0.96812156  1
  S2-  S196  1  0.00253651  0.63392305  0.44747344  1
  S2-  S197  1  0.00327509  0.59946953  0.94066393  1
  S2-  S198  1  0.00730675  0.87885152  0.44923332  1
  S2-  S199  1  0.00319197  0.85831562  0.94742698  1
  S2-  S200  1  0.24922892  0.13814810  0.45218681  1
  S2-  S201  1  0.25466673  0.10295082  0.96141054  1
  S2-  S202  1  0.24861080  0.38868397  0.46089726  1
  S2-  S203  1  0.25533172  0.35453869  0.96270730  1
  S2-  S204  1  0.25903100  0.64017286  0.45985026  1
  S2-  S205  1  0.25491832  0.60616377  0.95144081  1
  S2-  S206  1  0.25105876  0.89299889  0.45444059  1
  S2-  S207  1  0.25029718  0.85860724  0.94879120  1
  S2-  S208  1  0.50238362  0.13839381  0.45683580  1
  S2-  S209  1  0.50094859  0.10610511  0.95571001  1
  S2-  S210  1  0.50315724  0.38990384  0.45415462  1
  S2-  S211  1  0.49927301  0.35897528  0.95892409  1
  S2-  S212  1  0.50452198  0.63964138  0.46607267  1
  S2-  S213  1  0.49486701  0.60051607  0.94662219  1
  S2-  S214  1  0.50289509  0.89060394  0.45834473  1
  S2-  S215  1  0.50255196  0.85526708  0.94946096  1
  S2-  S216  1  0.75518658  0.13924314  0.45349826  1
  S2-  S217  1  0.75380255  0.10756884  0.94763002  1
  S2-  S218  1  0.75320515  0.38350282  0.46426649  1
  S2-  S219  1  0.75377799  0.35538798  0.96566361  1
  S2-  S220  1  0.74748923  0.64399458  0.45478525  1
  S2-  S221  1  0.75843746  0.60037357  0.94764887  1
  S2-  S222  1  0.75637529  0.88527288  0.45985547  1
  S2-  S223  1  0.75369070  0.85517727  0.95057013  1
  S2-  S224  1  0.12831762  -0.01939612  0.04143046  1
  S2-  S225  1  0.12499418  0.01143132  0.54826702  1
  S2-  S226  1  0.12935352  0.23016639  0.04964883  1
  S2-  S227  1  0.12559414  0.26764310  0.55890969  1
  S2-  S228  1  0.12793884  0.48448223  0.03909438  1
  S2-  S229  1  0.12746861  0.51628606  0.56020289  1
  S2-  S230  1  0.12592990  0.73131910  0.04307867  1
  S2-  S231  1  0.12487797  0.76037327  0.53422255  1
  S2-  S232  1  0.37589761  -0.02487585  0.04529042  1
  S2-  S233  1  0.37672134  0.01244006  0.55284190  1
  S2-  S234  1  0.37741925  0.22918360  0.04475936  1
  S2-  S235  1  0.37722382  0.26503068  0.55141206  1
  S2-  S236  1  0.38232741  0.48502318  0.04903484  1
  S2-  S237  1  0.37849761  0.50962046  0.54527016  1
  S2-  S238  1  0.37638348  0.73243851  0.04219099  1
  S2-  S239  1  0.37858822  0.76741580  0.54033839  1
  S2-  S240  1  0.62687565  -0.01786091  0.04849363  1
  S2-  S241  1  0.62619512  0.01482844  0.54515875  1
  S2-  S242  1  0.63320614  0.22788016  0.04764048  1
  S2-  S243  1  0.62739636  0.26026965  0.55009426  1
  S2-  S244  1  0.62877202  0.48649731  0.03749997  1
  S2-  S245  1  0.63255569  0.51544303  0.55257838  1
  S2-  S246  1  0.63014682  0.73033586  0.03528569  1
  S2-  S247  1  0.62870906  0.76100159  0.55043988  1
  S2-  S248  1  0.87681222  -0.01696062  0.04700294  1
  S2-  S249  1  0.87861655  0.00839729  0.54332515  1
  S2-  S250  1  0.87152363  0.22851740  0.05845216  1
  S2-  S251  1  0.87811451  0.26496498  0.54274094  1
  S2-  S252  1  0.87726512  0.48429341  0.03731636  1
  S2-  S253  1  0.87403580  0.51908911  0.54197911  1
  S2-  S254  1  0.87978713  0.73141227  0.04119855  1
  S2-  S255  1  0.87748005  0.76013842  0.54392274  1
