# generated using pymatgen
data_La6Ce6Pr19Nd20Sm13(BiS2)64
_symmetry_space_group_name_H-M   'P 1'
_cell_length_a   16.11020491
_cell_length_b   16.13970151
_cell_length_c   27.10541583
_cell_angle_alpha   89.87912052
_cell_angle_beta   89.95296110
_cell_angle_gamma   89.95289188
_symmetry_Int_Tables_number   1
_chemical_formula_structural   La6Ce6Pr19Nd20Sm13(BiS2)64
_chemical_formula_sum   'La6 Ce6 Pr19 Nd20 Sm13 Bi64 S128'
_cell_volume   7047.76441195
_cell_formula_units_Z   1
loop_
 _symmetry_equiv_pos_site_id
 _symmetry_equiv_pos_as_xyz
  1  'x, y, z'
loop_
 _atom_type_symbol
 _atom_type_oxidation_number
  La3+  3.0
  Ce3+  3.0
  Pr3+  3.0
  Nd3+  3.0
  Sm3+  3.0
  Bi2+  2.0
  S2-  -2.0
loop_
 _atom_site_type_symbol
 _atom_site_label
 _atom_site_symmetry_multiplicity
 _atom_site_fract_x
 _atom_site_fract_y
 _atom_site_fract_z
 _atom_site_occupancy
  La3+  La0  1  0.12641657  0.75796159  0.42238774  1
  La3+  La1  1  0.38708129  0.76878765  0.39100302  1
  La3+  La2  1  0.87698195  0.00729890  0.43332541  1
  La3+  La3  1  0.48870006  0.37082718  0.07304865  1
  La3+  La4  1  0.61590570  0.24327837  0.39235203  1
  La3+  La5  1  0.12198300  0.73962107  0.91598068  1
  Ce3+  Ce6  1  0.47861141  0.61957083  0.07311225  1
  Ce3+  Ce7  1  0.23667434  0.11881532  0.06299195  1
  Ce3+  Ce8  1  0.49815645  0.87974938  0.56217836  1
  Ce3+  Ce9  1  0.00304917  0.87763049  0.55996703  1
  Ce3+  Ce10  1  0.25070989  0.87920107  0.56035194  1
  Ce3+  Ce11  1  0.75488661  0.13034051  0.56128591  1
  Pr3+  Pr12  1  0.23098582  0.61941692  0.06558437  1
  Pr3+  Pr13  1  0.48230656  0.11637295  0.07106900  1
  Pr3+  Pr14  1  0.36795186  0.24583904  0.94047851  1
  Pr3+  Pr15  1  0.37834109  0.00804384  0.44312973  1
  Pr3+  Pr16  1  0.49963360  0.13059887  0.56948181  1
  Pr3+  Pr17  1  0.73414322  0.11468941  0.08261558  1
  Pr3+  Pr18  1  0.73864300  0.86539787  0.06880913  1
  Pr3+  Pr19  1  0.11967928  0.24293543  0.92658254  1
  Pr3+  Pr20  1  0.48437981  0.86845404  0.06192375  1
  Pr3+  Pr21  1  0.61017420  0.49805596  0.93470789  1
  Pr3+  Pr22  1  0.85565800  0.49728959  0.93463219  1
  Pr3+  Pr23  1  0.00330648  0.37758987  0.55872295  1
  Pr3+  Pr24  1  0.25208109  0.37711056  0.56507321  1
  Pr3+  Pr25  1  0.24390314  0.12861338  0.60986629  1
  Pr3+  Pr26  1  0.62483082  0.00548054  0.44394040  1
  Pr3+  Pr27  1  0.50408295  0.37989248  0.55589408  1
  Pr3+  Pr28  1  0.10905202  -0.00378883  0.91704098  1
  Pr3+  Pr29  1  0.13035517  0.00621437  0.44558578  1
  Pr3+  Pr30  1  0.22327517  0.36694261  0.06982680  1
  Nd3+  Nd31  1  -0.00306687  0.12916813  0.56179332  1
  Nd3+  Nd32  1  0.36158570  -0.00658784  0.93249883  1
  Nd3+  Nd33  1  0.00925144  0.63146346  0.56822885  1
  Nd3+  Nd34  1  0.86230447  0.74419115  0.93800895  1
  Nd3+  Nd35  1  0.49944728  0.63135233  0.54901268  1
  Nd3+  Nd36  1  0.10307155  0.49287144  0.93008463  1
  Nd3+  Nd37  1  -0.00816784  0.62551489  0.06466598  1
  Nd3+  Nd38  1  0.23104515  0.86854796  0.05968598  1
  Nd3+  Nd39  1  0.25235461  0.63285005  0.55327537  1
  Nd3+  Nd40  1  0.73821586  0.61642259  0.07337416  1
  Nd3+  Nd41  1  0.75060631  0.37999650  0.55497702  1
  Nd3+  Nd42  1  0.62862697  0.75297293  0.43943408  1
  Nd3+  Nd43  1  0.62825452  0.50749396  0.43231109  1
  Nd3+  Nd44  1  0.13103361  0.50628279  0.43854407  1
  Nd3+  Nd45  1  0.75136226  0.62919792  0.56534357  1
  Nd3+  Nd46  1  0.85492057  -0.00554020  0.93296857  1
  Nd3+  Nd47  1  0.87807430  0.50467068  0.44625804  1
  Nd3+  Nd48  1  0.87904208  0.75080688  0.43405689  1
  Nd3+  Nd49  1  0.75276254  0.87746280  0.55549600  1
  Nd3+  Nd50  1  0.85648148  0.23995608  0.94270944  1
  Sm3+  Sm51  1  0.87299757  0.25789656  0.43367646  1
  Sm3+  Sm52  1  0.60890038  -0.00616563  0.93767150  1
  Sm3+  Sm53  1  0.73812200  0.36854929  0.05616383  1
  Sm3+  Sm54  1  0.36160004  0.74214491  0.94328402  1
  Sm3+  Sm55  1  -0.01175388  0.87171225  0.04936497  1
  Sm3+  Sm56  1  -0.01504375  0.36872715  0.05324165  1
  Sm3+  Sm57  1  0.12860741  0.25583739  0.44053955  1
  Sm3+  Sm58  1  0.37901107  0.50283126  0.43662106  1
  Sm3+  Sm59  1  0.37605512  0.25532677  0.44514099  1
  Sm3+  Sm60  1  0.36033676  0.49360694  0.95200065  1
  Sm3+  Sm61  1  -0.01317614  0.11783432  0.05322125  1
  Sm3+  Sm62  1  0.61110830  0.74336699  0.94913987  1
  Sm3+  Sm63  1  0.60831793  0.24124542  0.94309892  1
  Bi2+  Bi64  1  0.01591696  0.14400414  0.27486937  1
  Bi2+  Bi65  1  -0.04930098  0.12381991  0.78320164  1
  Bi2+  Bi66  1  0.01665114  0.32848806  0.31283505  1
  Bi2+  Bi67  1  0.04204930  0.38217190  0.79504351  1
  Bi2+  Bi68  1  -0.01825219  0.61334774  0.28488900  1
  Bi2+  Bi69  1  -0.00405875  0.63511869  0.79718467  1
  Bi2+  Bi70  1  0.01763864  0.87127960  0.28226121  1
  Bi2+  Bi71  1  -0.07107107  0.86029939  0.78858195  1
  Bi2+  Bi72  1  0.22236553  0.10822450  0.27857494  1
  Bi2+  Bi73  1  0.25110022  0.12567176  0.80244226  1
  Bi2+  Bi74  1  0.20370399  0.37782127  0.27464660  1
  Bi2+  Bi75  1  0.24217087  0.39195840  0.78906579  1
  Bi2+  Bi76  1  0.24977171  0.61025397  0.29007073  1
  Bi2+  Bi77  1  0.25459189  0.60779065  0.77917587  1
  Bi2+  Bi78  1  0.24982562  0.90672486  0.28568919  1
  Bi2+  Bi79  1  0.29702799  0.85561979  0.78021526  1
  Bi2+  Bi80  1  0.49854240  0.13123455  0.27794975  1
  Bi2+  Bi81  1  0.49800614  0.12393318  0.78727182  1
  Bi2+  Bi82  1  0.45224594  0.37255378  0.29511529  1
  Bi2+  Bi83  1  0.51368733  0.38464939  0.80384703  1
  Bi2+  Bi84  1  0.55638593  0.59701406  0.27402469  1
  Bi2+  Bi85  1  0.50935045  0.58224461  0.80685390  1
  Bi2+  Bi86  1  0.53745749  0.92015272  0.29305320  1
  Bi2+  Bi87  1  0.49519687  0.85062371  0.79958332  1
  Bi2+  Bi88  1  0.78980508  0.13183018  0.27044364  1
  Bi2+  Bi89  1  0.73710471  0.17520755  0.81964933  1
  Bi2+  Bi90  1  0.83035629  0.38961249  0.29032805  1
  Bi2+  Bi91  1  0.71276118  0.37788017  0.79234450  1
  Bi2+  Bi92  1  0.72251766  0.66864112  0.32309086  1
  Bi2+  Bi93  1  0.69073441  0.60003930  0.76853928  1
  Bi2+  Bi94  1  0.80042835  0.84614986  0.30989530  1
  Bi2+  Bi95  1  0.69072919  0.89394894  0.78786563  1
  Bi2+  Bi96  1  0.12684359  -0.00112429  0.19818255  1
  Bi2+  Bi97  1  0.06760115  0.01278249  0.72135666  1
  Bi2+  Bi98  1  0.12416453  0.19358280  0.17672311  1
  Bi2+  Bi99  1  0.10841597  0.27602101  0.71240269  1
  Bi2+  Bi100  1  0.06527953  0.47795676  0.21518148  1
  Bi2+  Bi101  1  0.13923475  0.49672744  0.71020388  1
  Bi2+  Bi102  1  0.12431995  0.74738457  0.19792078  1
  Bi2+  Bi103  1  0.11496324  0.75884247  0.69295038  1
  Bi2+  Bi104  1  0.38681981  0.00511788  0.21850429  1
  Bi2+  Bi105  1  0.37515020  -0.03320180  0.69849733  1
  Bi2+  Bi106  1  0.30571103  0.24760844  0.20960305  1
  Bi2+  Bi107  1  0.38407737  0.25921565  0.72325443  1
  Bi2+  Bi108  1  0.40407510  0.49846187  0.20200432  1
  Bi2+  Bi109  1  0.37854205  0.45880809  0.71316352  1
  Bi2+  Bi110  1  0.40440363  0.75299814  0.20109643  1
  Bi2+  Bi111  1  0.40480458  0.70432760  0.73029825  1
  Bi2+  Bi112  1  0.64970422  0.01478865  0.21746010  1
  Bi2+  Bi113  1  0.61524508  0.02678060  0.71182732  1
  Bi2+  Bi114  1  0.64988562  0.28367602  0.19480555  1
  Bi2+  Bi115  1  0.64589928  0.22009280  0.71993735  1
  Bi2+  Bi116  1  0.72760767  0.52705298  0.23306000  1
  Bi2+  Bi117  1  0.59228350  0.47878773  0.69649712  1
  Bi2+  Bi118  1  0.66456189  0.79441831  0.23288106  1
  Bi2+  Bi119  1  0.59303385  0.74218929  0.70557798  1
  Bi2+  Bi120  1  0.89459081  -0.01830243  0.22006961  1
  Bi2+  Bi121  1  0.81372400  0.01077239  0.71611240  1
  Bi2+  Bi122  1  0.92818884  0.29361408  0.20670276  1
  Bi2+  Bi123  1  0.84476739  0.24195285  0.70831528  1
  Bi2+  Bi124  1  0.89641240  0.56350823  0.17886949  1
  Bi2+  Bi125  1  0.86763437  0.42862321  0.72413446  1
  Bi2+  Bi126  1  0.87826330  0.75410618  0.21059411  1
  Bi2+  Bi127  1  0.85092708  0.75621212  0.70360800  1
  S2-  S128  1  -0.01126704  0.05548467  0.14631952  1
  S2-  S129  1  0.07690621  0.14157579  0.65085738  1
  S2-  S130  1  0.07454460  0.35852357  0.13734665  1
  S2-  S131  1  0.01024871  0.40683918  0.65766021  1
  S2-  S132  1  0.11095442  0.61011138  0.14211329  1
  S2-  S133  1  -0.02085739  0.65872625  0.66642910  1
  S2-  S134  1  0.00596252  0.80660837  0.14133105  1
  S2-  S135  1  0.00798298  0.88914328  0.65952284  1
  S2-  S136  1  0.35039212  0.11466958  0.14188261  1
  S2-  S137  1  0.22723310  0.05597931  0.70822914  1
  S2-  S138  1  0.28415504  0.40699639  0.16525298  1
  S2-  S139  1  0.24646604  0.28901397  0.65272004  1
  S2-  S140  1  0.33692499  0.62669423  0.14954281  1
  S2-  S141  1  0.18823542  0.63522956  0.64721329  1
  S2-  S142  1  0.26059304  0.82978180  0.15798684  1
  S2-  S143  1  0.24487449  0.85753086  0.65883830  1
  S2-  S144  1  0.59266335  0.13449172  0.14958027  1
  S2-  S145  1  0.40543492  0.12313714  0.65509056  1
  S2-  S146  1  0.50078046  0.35897894  0.17441616  1
  S2-  S147  1  0.48456141  0.35355501  0.65545367  1
  S2-  S148  1  0.53229486  0.62872689  0.16750419  1
  S2-  S149  1  0.51244957  0.61866465  0.64831562  1
  S2-  S150  1  0.48927402  0.89059233  0.16227557  1
  S2-  S151  1  0.51695262  0.88636565  0.65984377  1
  S2-  S152  1  0.79806554  0.20202656  0.16840168  1
  S2-  S153  1  0.86651001  0.12112940  0.63693987  1
  S2-  S154  1  0.71215990  0.42121585  0.14847274  1
  S2-  S155  1  0.74057816  0.41845565  0.65211038  1
  S2-  S156  1  0.73932690  0.74175916  0.14580798  1
  S2-  S157  1  0.74820658  0.64630509  0.66525631  1
  S2-  S158  1  0.76350709  0.97522268  0.14681909  1
  S2-  S159  1  0.76741997  0.87531085  0.65484040  1
  S2-  S160  1  0.11380651  -0.05336546  0.35114447  1
  S2-  S161  1  0.25098474  -0.02169027  0.85199488  1
  S2-  S162  1  0.18152664  0.26862391  0.34633154  1
  S2-  S163  1  0.10530429  0.13252845  0.84610425  1
  S2-  S164  1  0.11837985  0.55739365  0.34393500  1
  S2-  S165  1  0.13629919  0.59691417  0.85154164  1
  S2-  S166  1  0.23178824  0.75139410  0.34068219  1
  S2-  S167  1  0.07266964  0.79027968  0.81628794  1
  S2-  S168  1  0.37970899  -0.06578329  0.35078888  1
  S2-  S169  1  0.49096953  0.00161371  0.86042413  1
  S2-  S170  1  0.42485725  0.23349796  0.35157429  1
  S2-  S171  1  0.26225504  0.26184482  0.85989867  1
  S2-  S172  1  0.33608575  0.48090672  0.34168698  1
  S2-  S173  1  0.38919991  0.48980810  0.85460961  1
  S2-  S174  1  0.40342531  0.68664487  0.29533220  1
  S2-  S175  1  0.29035520  0.73943177  0.85329476  1
  S2-  S176  1  0.60349105  0.07947699  0.35337588  1
  S2-  S177  1  0.72589673  0.00704551  0.86230384  1
  S2-  S178  1  0.59494743  0.27897882  0.29031485  1
  S2-  S179  1  0.49727983  0.24405517  0.86545235  1
  S2-  S180  1  0.57432462  0.47025350  0.34000751  1
  S2-  S181  1  0.72994591  0.51515307  0.85906170  1
  S2-  S182  1  0.55588603  0.79173164  0.35225233  1
  S2-  S183  1  0.62016070  0.76423877  0.85082316  1
  S2-  S184  1  0.83257558  0.01659152  0.33612622  1
  S2-  S185  1  0.96063956  -0.01669873  0.85155302  1
  S2-  S186  1  0.78135635  0.24604189  0.34992669  1
  S2-  S187  1  0.88778608  0.24986549  0.84435885  1
  S2-  S188  1  0.86777999  0.52919308  0.34783950  1
  S2-  S189  1  0.96372301  0.49678712  0.85449225  1
  S2-  S190  1  0.98874932  0.74575503  0.35561185  1
  S2-  S191  1  0.86537101  0.71359167  0.83787140  1
  S2-  S192  1  0.00182439  0.13531048  0.44803686  1
  S2-  S193  1  -0.01700055  0.11887468  0.95071806  1
  S2-  S194  1  0.00309982  0.37974928  0.45068046  1
  S2-  S195  1  -0.01570560  0.36206248  0.95071806  1
  S2-  S196  1  0.00339047  0.62625288  0.45947714  1
  S2-  S197  1  -0.01446351  0.62223217  0.95588763  1
  S2-  S198  1  -0.00100069  0.88108991  0.45428529  1
  S2-  S199  1  -0.00986270  0.86450878  0.94695531  1
  S2-  S200  1  0.25296700  0.13333912  0.44527974  1
  S2-  S201  1  0.24101452  0.11753372  0.95687405  1
  S2-  S202  1  0.25369013  0.37979914  0.45598944  1
  S2-  S203  1  0.23424457  0.37606956  0.95902154  1
  S2-  S204  1  0.25884080  0.62827756  0.44811593  1
  S2-  S205  1  0.24058455  0.61585995  0.95823958  1
  S2-  S206  1  0.25598046  0.87875135  0.45349817  1
  S2-  S207  1  0.23751242  0.86681563  0.95357064  1
  S2-  S208  1  0.50286483  0.13491475  0.46137761  1
  S2-  S209  1  0.48937874  0.11647658  0.96483426  1
  S2-  S210  1  0.50470917  0.37607604  0.44930000  1
  S2-  S211  1  0.49035571  0.37445929  0.96340006  1
  S2-  S212  1  0.49785404  0.63078214  0.44178601  1
  S2-  S213  1  0.48493149  0.62001335  0.96002442  1
  S2-  S214  1  0.50061238  0.87933631  0.45767257  1
  S2-  S215  1  0.48639611  0.86417356  0.95528687  1
  S2-  S216  1  0.74980686  0.13339670  0.45498465  1
  S2-  S217  1  0.73044025  0.12132529  0.96534204  1
  S2-  S218  1  0.74950702  0.38121463  0.44815576  1
  S2-  S219  1  0.73199409  0.36574411  0.95176644  1
  S2-  S220  1  0.75324400  0.62899989  0.45772147  1
  S2-  S221  1  0.73518143  0.62400310  0.96418883  1
  S2-  S222  1  0.75163551  0.87810464  0.44893872  1
  S2-  S223  1  0.73394637  0.86518185  0.95922708  1
  S2-  S224  1  0.11077813  -0.00521566  0.03938256  1
  S2-  S225  1  0.12780631  0.00795667  0.55220508  1
  S2-  S226  1  0.10819484  0.23973919  0.03571484  1
  S2-  S227  1  0.12801806  0.25171150  0.54452116  1
  S2-  S228  1  0.10550213  0.49252560  0.03762375  1
  S2-  S229  1  0.12850929  0.50341659  0.54619164  1
  S2-  S230  1  0.11175735  0.74617415  0.03457900  1
  S2-  S231  1  0.12674753  0.75536554  0.53896580  1
  S2-  S232  1  0.35821548  -0.01074099  0.04254482  1
  S2-  S233  1  0.37132642  0.00748544  0.55043176  1
  S2-  S234  1  0.35912025  0.25076043  0.04864041  1
  S2-  S235  1  0.37613237  0.25426588  0.54833712  1
  S2-  S236  1  0.35766151  0.49030988  0.05386992  1
  S2-  S237  1  0.37564617  0.50427828  0.54509478  1
  S2-  S238  1  0.35832435  0.74600079  0.04619067  1
  S2-  S239  1  0.37629892  0.75381680  0.55689944  1
  S2-  S240  1  0.61085565  -0.00980276  0.04651214  1
  S2-  S241  1  0.62807271  0.00506052  0.55203498  1
  S2-  S242  1  0.61437437  0.24828564  0.04765338  1
  S2-  S243  1  0.62893429  0.25394199  0.55962140  1
  S2-  S244  1  0.61351251  0.49795128  0.04606701  1
  S2-  S245  1  0.62712379  0.50730612  0.54052132  1
  S2-  S246  1  0.60779920  0.74055099  0.05255582  1
  S2-  S247  1  0.62665147  0.75408735  0.54705944  1
  S2-  S248  1  0.86546585  -0.00692842  0.03961596  1
  S2-  S249  1  0.87743995  -0.00032576  0.54092437  1
  S2-  S250  1  0.86325849  0.24447045  0.04907829  1
  S2-  S251  1  0.87616122  0.25858103  0.53951369  1
  S2-  S252  1  0.86264938  0.49320120  0.04357695  1
  S2-  S253  1  0.87882575  0.50663179  0.55300456  1
  S2-  S254  1  0.86557554  0.74348159  0.04457469  1
  S2-  S255  1  0.87741813  0.75164705  0.54452080  1
