# generated using pymatgen
data_La6Ce6Pr19Nd20Sm13(BiS2)64
_symmetry_space_group_name_H-M   'P 1'
_cell_length_a   16.11764443
_cell_length_b   16.08905526
_cell_length_c   27.33220759
_cell_angle_alpha   90.45988503
_cell_angle_beta   89.81181678
_cell_angle_gamma   90.03357114
_symmetry_Int_Tables_number   1
_chemical_formula_structural   La6Ce6Pr19Nd20Sm13(BiS2)64
_chemical_formula_sum   'La6 Ce6 Pr19 Nd20 Sm13 Bi64 S128'
_cell_volume   7087.45679064
_cell_formula_units_Z   1
loop_
 _symmetry_equiv_pos_site_id
 _symmetry_equiv_pos_as_xyz
  1  'x, y, z'
loop_
 _atom_type_symbol
 _atom_type_oxidation_number
  La3+  3.0
  Ce3+  3.0
  Pr3+  3.0
  Nd3+  3.0
  Sm3+  3.0
  Bi2+  2.0
  S2-  -2.0
loop_
 _atom_site_type_symbol
 _atom_site_label
 _atom_site_symmetry_multiplicity
 _atom_site_fract_x
 _atom_site_fract_y
 _atom_site_fract_z
 _atom_site_occupancy
  La3+  La0  1  0.36338560  0.74675350  0.88435298  1
  La3+  La1  1  0.74644231  0.11647779  0.07272274  1
  La3+  La2  1  0.10774108  0.49558874  0.41739572  1
  La3+  La3  1  0.75266752  0.86042059  0.10791375  1
  La3+  La4  1  0.23920094  0.87913804  0.57429610  1
  La3+  La5  1  0.63038492  0.73226929  0.92077860  1
  Ce3+  Ce6  1  0.49461482  0.12604524  0.55650654  1
  Ce3+  Ce7  1  0.49361584  0.62805909  0.56081177  1
  Ce3+  Ce8  1  0.11869212  0.75336711  0.44048496  1
  Ce3+  Ce9  1  0.62360511  0.24978021  0.44440592  1
  Ce3+  Ce10  1  0.88041401  0.48770518  0.94316844  1
  Ce3+  Ce11  1  0.00126683  0.61652278  0.05736987  1
  Pr3+  Pr12  1  0.63054609  0.48398681  0.93291508  1
  Pr3+  Pr13  1  0.61967031  0.50292442  0.43380078  1
  Pr3+  Pr14  1  0.74030499  0.11948198  0.57033352  1
  Pr3+  Pr15  1  0.75220454  0.36670357  0.06977143  1
  Pr3+  Pr16  1  0.36384099  0.50128439  0.43493306  1
  Pr3+  Pr17  1  0.60988352  0.74811418  0.43274093  1
  Pr3+  Pr18  1  -0.00719607  0.87245812  0.57207849  1
  Pr3+  Pr19  1  0.36993154  0.24997940  0.43229146  1
  Pr3+  Pr20  1  0.25184777  0.37087622  0.11312782  1
  Pr3+  Pr21  1  0.63020160  -0.01557105  0.93610038  1
  Pr3+  Pr22  1  0.13224392  -0.01401506  0.93768752  1
  Pr3+  Pr23  1  0.86718701  0.49798899  0.43947366  1
  Pr3+  Pr24  1  0.87251913  0.75168602  0.43249455  1
  Pr3+  Pr25  1  0.48918490  0.88575978  0.58287816  1
  Pr3+  Pr26  1  0.11230245  0.24612303  0.42972903  1
  Pr3+  Pr27  1  0.37958608  -0.01438546  0.94309759  1
  Pr3+  Pr28  1  0.13297581  0.49074686  0.94422112  1
  Pr3+  Pr29  1  0.50551611  0.11593738  0.05346709  1
  Pr3+  Pr30  1  0.24201833  0.13132730  0.55948002  1
  Nd3+  Nd31  1  0.49935106  0.36944389  0.06378616  1
  Nd3+  Nd32  1  0.50306215  0.61862454  0.05318610  1
  Nd3+  Nd33  1  -0.00736302  0.12631616  0.56033518  1
  Nd3+  Nd34  1  0.13343227  0.24091796  0.94795045  1
  Nd3+  Nd35  1  0.74481285  0.38042770  0.57788901  1
  Nd3+  Nd36  1  0.25233949  0.11319506  0.07040569  1
  Nd3+  Nd37  1  0.25423083  0.86886773  0.07035964  1
  Nd3+  Nd38  1  0.61232628  -0.00817960  0.42986106  1
  Nd3+  Nd39  1  0.86423973  -0.00022263  0.44263351  1
  Nd3+  Nd40  1  0.36592491  0.75561503  0.44333375  1
  Nd3+  Nd41  1  0.24021324  0.37755615  0.55216708  1
  Nd3+  Nd42  1  0.73924814  0.87194768  0.56476039  1
  Nd3+  Nd43  1  0.63174721  0.24170726  0.93424531  1
  Nd3+  Nd44  1  0.87596148  0.73927783  0.93105265  1
  Nd3+  Nd45  1  -0.00342444  0.86477287  0.05705068  1
  Nd3+  Nd46  1  -0.00658820  0.62586562  0.56248046  1
  Nd3+  Nd47  1  -0.00802492  0.38341888  0.57108553  1
  Nd3+  Nd48  1  0.87640218  -0.01152076  0.94125730  1
  Nd3+  Nd49  1  0.74044767  0.62810423  0.56502409  1
  Nd3+  Nd50  1  0.24094002  0.62559786  0.55534640  1
  Sm3+  Sm51  1  0.25535631  0.61555192  0.05964321  1
  Sm3+  Sm52  1  0.86429909  0.25040158  0.45187783  1
  Sm3+  Sm53  1  0.13192003  0.74041804  0.94780756  1
  Sm3+  Sm54  1  0.49381449  0.37819241  0.55262136  1
  Sm3+  Sm55  1  0.36781299  0.00045455  0.44263220  1
  Sm3+  Sm56  1  0.37702324  0.24173113  0.94758265  1
  Sm3+  Sm57  1  0.50913850  0.86062910  0.05353294  1
  Sm3+  Sm58  1  0.75096593  0.61851723  0.05575049  1
  Sm3+  Sm59  1  0.00510425  0.36809066  0.05675160  1
  Sm3+  Sm60  1  0.11696495  0.00353414  0.43700431  1
  Sm3+  Sm61  1  0.37894821  0.49344882  0.93854598  1
  Sm3+  Sm62  1  0.00432089  0.11665618  0.05610154  1
  Sm3+  Sm63  1  0.87945633  0.23792510  0.94587753  1
  Bi2+  Bi64  1  0.01154847  0.11774382  0.28551773  1
  Bi2+  Bi65  1  -0.00805917  0.22233336  0.78654545  1
  Bi2+  Bi66  1  -0.01809216  0.36950350  0.29187179  1
  Bi2+  Bi67  1  -0.00121314  0.41914912  0.77015559  1
  Bi2+  Bi68  1  0.05167798  0.60262175  0.28543978  1
  Bi2+  Bi69  1  -0.04648279  0.69759134  0.80567713  1
  Bi2+  Bi70  1  -0.01682136  0.84869843  0.28850026  1
  Bi2+  Bi71  1  -0.01049090  0.89525903  0.79556007  1
  Bi2+  Bi72  1  0.27748494  0.02791761  0.30381084  1
  Bi2+  Bi73  1  0.26820876  0.18477677  0.77839206  1
  Bi2+  Bi74  1  0.26565224  0.39247936  0.29961797  1
  Bi2+  Bi75  1  0.23434202  0.36768376  0.81255098  1
  Bi2+  Bi76  1  0.28933801  0.65379935  0.27438567  1
  Bi2+  Bi77  1  0.13098763  0.62480499  0.78622025  1
  Bi2+  Bi78  1  0.24253357  0.83751822  0.31349274  1
  Bi2+  Bi79  1  0.23188065  0.89311529  0.79363102  1
  Bi2+  Bi80  1  0.51103702  0.13518404  0.24158958  1
  Bi2+  Bi81  1  0.51774558  0.15854002  0.77157054  1
  Bi2+  Bi82  1  0.54241182  0.41073888  0.27311807  1
  Bi2+  Bi83  1  0.49041481  0.35767755  0.78867488  1
  Bi2+  Bi84  1  0.50500903  0.60964548  0.29465889  1
  Bi2+  Bi85  1  0.51176172  0.60234665  0.78503133  1
  Bi2+  Bi86  1  0.48348417  0.86875754  0.29365852  1
  Bi2+  Bi87  1  0.49235520  0.87447744  0.77873894  1
  Bi2+  Bi88  1  0.75804392  0.17213426  0.31041257  1
  Bi2+  Bi89  1  0.71418409  0.16117372  0.79205786  1
  Bi2+  Bi90  1  0.71686285  0.40077991  0.32798259  1
  Bi2+  Bi91  1  0.75799372  0.35989445  0.79308758  1
  Bi2+  Bi92  1  0.73358590  0.57125103  0.27426213  1
  Bi2+  Bi93  1  0.77442094  0.60779409  0.78672366  1
  Bi2+  Bi94  1  0.76899762  0.91193560  0.31546327  1
  Bi2+  Bi95  1  0.74481121  0.88888473  0.78978815  1
  Bi2+  Bi96  1  0.12681553  -0.03966979  0.23269027  1
  Bi2+  Bi97  1  0.10164290  0.02703398  0.71574071  1
  Bi2+  Bi98  1  0.13540655  0.20199495  0.21696703  1
  Bi2+  Bi99  1  0.11833641  0.29703435  0.70907824  1
  Bi2+  Bi100  1  0.08878065  0.51112794  0.19243459  1
  Bi2+  Bi101  1  0.16909981  0.49004565  0.70042868  1
  Bi2+  Bi102  1  0.16430874  0.76820418  0.21087314  1
  Bi2+  Bi103  1  0.10367430  0.76290547  0.70895607  1
  Bi2+  Bi104  1  0.37672853  0.00021589  0.20575394  1
  Bi2+  Bi105  1  0.36717961  0.03912048  0.70774568  1
  Bi2+  Bi106  1  0.37758268  0.26594863  0.23241103  1
  Bi2+  Bi107  1  0.39376110  0.25561508  0.69829632  1
  Bi2+  Bi108  1  0.39838854  0.52870401  0.20576432  1
  Bi2+  Bi109  1  0.35064343  0.49155200  0.75690001  1
  Bi2+  Bi110  1  0.36048954  0.80405113  0.20737937  1
  Bi2+  Bi111  1  0.38053434  0.72936577  0.68439352  1
  Bi2+  Bi112  1  0.63198271  -0.00637557  0.21012567  1
  Bi2+  Bi113  1  0.63625872  0.03383513  0.71183052  1
  Bi2+  Bi114  1  0.62307823  0.28970512  0.19305241  1
  Bi2+  Bi115  1  0.66064355  0.22886193  0.67889243  1
  Bi2+  Bi116  1  0.66517998  0.47742150  0.17652797  1
  Bi2+  Bi117  1  0.62990578  0.41775711  0.71160013  1
  Bi2+  Bi118  1  0.61988912  0.72917766  0.20618142  1
  Bi2+  Bi119  1  0.62543713  0.69379841  0.70812930  1
  Bi2+  Bi120  1  0.92198765  0.00879964  0.20809562  1
  Bi2+  Bi121  1  0.87899747  -0.00812378  0.71408419  1
  Bi2+  Bi122  1  0.82571383  0.29543050  0.23632499  1
  Bi2+  Bi123  1  0.84800279  0.21756327  0.70705791  1
  Bi2+  Bi124  1  0.85768620  0.48240880  0.20194865  1
  Bi2+  Bi125  1  0.87833308  0.51048565  0.69899355  1
  Bi2+  Bi126  1  0.89180355  0.73256486  0.21306382  1
  Bi2+  Bi127  1  0.86228585  0.79330587  0.71287086  1
  S2-  S128  1  0.00745899  0.12782360  0.15425878  1
  S2-  S129  1  -0.00893212  0.09554399  0.65854221  1
  S2-  S130  1  -0.01071406  0.38956430  0.15347916  1
  S2-  S131  1  0.02345870  0.51556314  0.63944505  1
  S2-  S132  1  -0.00522427  0.64969143  0.15409871  1
  S2-  S133  1  -0.01944168  0.73796929  0.64211531  1
  S2-  S134  1  -0.07825319  0.86089247  0.14696962  1
  S2-  S135  1  0.11412281  0.90007521  0.64855940  1
  S2-  S136  1  0.26770741  0.20546039  0.15561788  1
  S2-  S137  1  0.23115290  0.08913648  0.65691728  1
  S2-  S138  1  0.18136603  0.36434553  0.21065983  1
  S2-  S139  1  0.25102338  0.35271321  0.65016159  1
  S2-  S140  1  0.25105630  0.54153732  0.14829060  1
  S2-  S141  1  0.23117424  0.67984764  0.64985927  1
  S2-  S142  1  0.23947780  0.98942883  0.14273107  1
  S2-  S143  1  0.34790515  0.89005131  0.65308332  1
  S2-  S144  1  0.58162384  0.11890838  0.14280768  1
  S2-  S145  1  0.50172623  0.04080916  0.64090291  1
  S2-  S146  1  0.41456942  0.37629848  0.15145801  1
  S2-  S147  1  0.49111949  0.37063151  0.65021979  1
  S2-  S148  1  0.51041527  0.62352067  0.15422371  1
  S2-  S149  1  0.49838563  0.60432617  0.65839088  1
  S2-  S150  1  0.58108127  0.86399206  0.14372118  1
  S2-  S151  1  0.54258328  0.82604817  0.67850091  1
  S2-  S152  1  0.77206731  0.01961961  0.15587014  1
  S2-  S153  1  0.74989733  -0.00833790  0.64185386  1
  S2-  S154  1  0.76856288  0.24587859  0.14261491  1
  S2-  S155  1  0.87621118  0.35838143  0.64828720  1
  S2-  S156  1  0.75611363  0.69418675  0.14500772  1
  S2-  S157  1  0.72797991  0.51598158  0.64446719  1
  S2-  S158  1  0.73305390  0.85348061  0.22442682  1
  S2-  S159  1  0.74150005  0.75026722  0.63968029  1
  S2-  S160  1  0.12208842  0.11150648  0.35946648  1
  S2-  S161  1  0.13071362  -0.00367567  0.83708790  1
  S2-  S162  1  0.11531828  0.35131335  0.34895281  1
  S2-  S163  1  0.13717258  0.22924843  0.84940434  1
  S2-  S164  1  0.19873229  0.54598353  0.33337831  1
  S2-  S165  1  0.10779634  0.48069182  0.84509656  1
  S2-  S166  1  0.05825834  0.73752014  0.34986544  1
  S2-  S167  1  0.19113166  0.75612987  0.85654035  1
  S2-  S168  1  0.43224713  0.00116877  0.35100101  1
  S2-  S169  1  0.36966244  -0.06829688  0.84785468  1
  S2-  S170  1  0.33044306  0.24913835  0.33413632  1
  S2-  S171  1  0.37586722  0.26063085  0.84991869  1
  S2-  S172  1  0.41208506  0.46928643  0.33972619  1
  S2-  S173  1  0.36858014  0.57335712  0.85061759  1
  S2-  S174  1  0.45013563  0.74066272  0.35705632  1
  S2-  S175  1  0.35388083  0.76532598  0.77598703  1
  S2-  S176  1  0.66750870  0.04987942  0.33820318  1
  S2-  S177  1  0.61130037  -0.04255445  0.83625742  1
  S2-  S178  1  0.61718172  0.25801453  0.34712483  1
  S2-  S179  1  0.62482301  0.35456925  0.85958468  1
  S2-  S180  1  0.63580678  0.62181077  0.35876326  1
  S2-  S181  1  0.63398395  0.57914214  0.84722684  1
  S2-  S182  1  0.62158339  0.86007697  0.35580694  1
  S2-  S183  1  0.52417173  0.75413947  0.83928647  1
  S2-  S184  1  0.89930180  0.01509056  0.34481009  1
  S2-  S185  1  0.86537588  -0.01408380  0.84167560  1
  S2-  S186  1  0.89830763  0.25979652  0.35607034  1
  S2-  S187  1  0.84962122  0.23490774  0.85003292  1
  S2-  S188  1  0.96031540  0.50749471  0.35296743  1
  S2-  S189  1  0.84475164  0.48138956  0.84856316  1
  S2-  S190  1  0.84750213  0.76024292  0.33233593  1
  S2-  S191  1  0.76677656  0.74628207  0.85032138  1
  S2-  S192  1  -0.01231988  0.12506520  0.45648034  1
  S2-  S193  1  0.00573787  0.11467831  0.95020724  1
  S2-  S194  1  -0.01100405  0.37145494  0.46196795  1
  S2-  S195  1  0.00498269  0.36196454  0.95154743  1
  S2-  S196  1  -0.00669465  0.62631747  0.45599647  1
  S2-  S197  1  0.00621662  0.61722795  0.95039649  1
  S2-  S198  1  -0.00497576  0.88104267  0.45431148  1
  S2-  S199  1  0.00441597  0.86253221  0.95006887  1
  S2-  S200  1  0.24580720  0.12595148  0.45405582  1
  S2-  S201  1  0.25601844  0.11410628  0.95869763  1
  S2-  S202  1  0.24215381  0.37232242  0.44781570  1
  S2-  S203  1  0.25730631  0.36637362  0.95122599  1
  S2-  S204  1  0.24266300  0.62866253  0.44839683  1
  S2-  S205  1  0.25564059  0.61874847  0.95651832  1
  S2-  S206  1  0.24107575  0.88193543  0.45567104  1
  S2-  S207  1  0.25533640  0.86263056  0.96272501  1
  S2-  S208  1  0.49443219  0.12552184  0.45056098  1
  S2-  S209  1  0.50384618  0.11701885  0.94542500  1
  S2-  S210  1  0.49505215  0.37589339  0.44821214  1
  S2-  S211  1  0.49751120  0.36526033  0.95722958  1
  S2-  S212  1  0.48731386  0.62221304  0.45651413  1
  S2-  S213  1  0.50240672  0.61193716  0.94997988  1
  S2-  S214  1  0.48688333  0.87873977  0.46300732  1
  S2-  S215  1  0.50191878  0.85992135  0.95072273  1
  S2-  S216  1  0.74291397  0.12399360  0.46115601  1
  S2-  S217  1  0.75258972  0.11602347  0.95466992  1
  S2-  S218  1  0.74363712  0.37598479  0.46460702  1
  S2-  S219  1  0.75814813  0.36130442  0.96125280  1
  S2-  S220  1  0.74765080  0.62689820  0.45734411  1
  S2-  S221  1  0.75719894  0.61086798  0.95341927  1
  S2-  S222  1  0.74403748  0.87351381  0.45647992  1
  S2-  S223  1  0.75555065  0.86522553  0.94814638  1
  S2-  S224  1  0.12278663  -0.01076235  0.04420517  1
  S2-  S225  1  0.11641265  0.00523621  0.54100651  1
  S2-  S226  1  0.12975402  0.24475621  0.05408377  1
  S2-  S227  1  0.11302146  0.25402194  0.54654651  1
  S2-  S228  1  0.13000651  0.49004232  0.04950087  1
  S2-  S229  1  0.12075454  0.50068783  0.53380167  1
  S2-  S230  1  0.13014254  0.74245983  0.05283997  1
  S2-  S231  1  0.11900650  0.75234003  0.54348211  1
  S2-  S232  1  0.38466150  -0.01229350  0.04895107  1
  S2-  S233  1  0.36455753  0.00569062  0.54512129  1
  S2-  S234  1  0.37797155  0.24086396  0.05035105  1
  S2-  S235  1  0.36961471  0.25393207  0.54106535  1
  S2-  S236  1  0.37638276  0.49257192  0.04364697  1
  S2-  S237  1  0.36700100  0.49967449  0.54437577  1
  S2-  S238  1  0.37633258  0.74256634  0.05940742  1
  S2-  S239  1  0.36707452  0.75230886  0.54831417  1
  S2-  S240  1  0.62891510  -0.01344899  0.04167357  1
  S2-  S241  1  0.61706087  -0.00055838  0.53970679  1
  S2-  S242  1  0.62440563  0.24736392  0.03947931  1
  S2-  S243  1  0.61878082  0.25357234  0.54981612  1
  S2-  S244  1  0.62721982  0.49155920  0.04244676  1
  S2-  S245  1  0.61538490  0.49996872  0.54135746  1
  S2-  S246  1  0.62956820  0.73820917  0.03798041  1
  S2-  S247  1  0.61039749  0.75388561  0.54322363  1
  S2-  S248  1  0.88043446  -0.00485150  0.04586862  1
  S2-  S249  1  0.87227811  -0.00175825  0.54738933  1
  S2-  S250  1  0.88516056  0.24193237  0.04786923  1
  S2-  S251  1  0.86484549  0.24617510  0.55294420  1
  S2-  S252  1  0.87710721  0.49178384  0.04976671  1
  S2-  S253  1  0.86560185  0.50233372  0.54481496  1
  S2-  S254  1  0.87577869  0.73959828  0.03873174  1
  S2-  S255  1  0.86809734  0.75208453  0.53952994  1
