# generated using pymatgen
data_La6Ce6Pr19Nd20Sm13(BiS2)64
_symmetry_space_group_name_H-M   'P 1'
_cell_length_a   16.08568890
_cell_length_b   16.12388980
_cell_length_c   27.21608746
_cell_angle_alpha   90.12632742
_cell_angle_beta   90.05728828
_cell_angle_gamma   90.07215483
_symmetry_Int_Tables_number   1
_chemical_formula_structural   La6Ce6Pr19Nd20Sm13(BiS2)64
_chemical_formula_sum   'La6 Ce6 Pr19 Nd20 Sm13 Bi64 S128'
_cell_volume   7058.84360802
_cell_formula_units_Z   1
loop_
 _symmetry_equiv_pos_site_id
 _symmetry_equiv_pos_as_xyz
  1  'x, y, z'
loop_
 _atom_type_symbol
 _atom_type_oxidation_number
  La3+  3.0
  Ce3+  3.0
  Pr3+  3.0
  Nd3+  3.0
  Sm3+  3.0
  Bi2+  2.0
  S2-  -2.0
loop_
 _atom_site_type_symbol
 _atom_site_label
 _atom_site_symmetry_multiplicity
 _atom_site_fract_x
 _atom_site_fract_y
 _atom_site_fract_z
 _atom_site_occupancy
  La3+  La0  1  0.62412935  0.23825184  0.92239432  1
  La3+  La1  1  0.11313996  0.75672343  0.88438992  1
  La3+  La2  1  0.77282444  0.63835848  0.60359032  1
  La3+  La3  1  0.26534818  0.89077327  0.58466344  1
  La3+  La4  1  0.39214149  -0.00462321  0.41162135  1
  La3+  La5  1  0.12795713  0.51837088  0.42006045  1
  Ce3+  Ce6  1  0.63935060  0.50488979  0.44044126  1
  Ce3+  Ce7  1  0.48998898  0.86659491  0.05339954  1
  Ce3+  Ce8  1  -0.00167804  0.11998732  0.05911670  1
  Ce3+  Ce9  1  0.11611580  0.50134837  0.93915301  1
  Ce3+  Ce10  1  0.36170510  0.73902855  0.94240912  1
  Ce3+  Ce11  1  0.88379906  0.25519353  0.44788350  1
  Pr3+  Pr12  1  0.61741531  -0.00363770  0.93978241  1
  Pr3+  Pr13  1  0.36507476  -0.00284526  0.93753447  1
  Pr3+  Pr14  1  -0.00535533  0.86850388  0.05231322  1
  Pr3+  Pr15  1  0.51466147  0.63110990  0.56613681  1
  Pr3+  Pr16  1  0.11885206  0.24690007  0.93380016  1
  Pr3+  Pr17  1  0.64964527  0.25760076  0.40910955  1
  Pr3+  Pr18  1  0.86260602  0.74497773  0.92880695  1
  Pr3+  Pr19  1  0.38953473  0.26117487  0.42006814  1
  Pr3+  Pr20  1  0.14138323  0.00366050  0.43685944  1
  Pr3+  Pr21  1  0.76211022  0.13069636  0.56375344  1
  Pr3+  Pr22  1  0.88366705  0.00354027  0.43832399  1
  Pr3+  Pr23  1  0.61939820  0.74268946  0.93467138  1
  Pr3+  Pr24  1  0.12012501  0.00142434  0.92999596  1
  Pr3+  Pr25  1  0.26317161  0.62149883  0.57003081  1
  Pr3+  Pr26  1  0.49704059  0.36883183  0.06003101  1
  Pr3+  Pr27  1  0.51188242  0.88410418  0.56585712  1
  Pr3+  Pr28  1  0.74089916  0.87112349  0.07026281  1
  Pr3+  Pr29  1  0.37015858  0.24775272  0.94402037  1
  Pr3+  Pr30  1  0.01597545  0.62213423  0.57400746  1
  Nd3+  Nd31  1  0.23349928  0.61578914  0.07275115  1
  Nd3+  Nd32  1  0.38678726  0.75506259  0.44622601  1
  Nd3+  Nd33  1  0.86441602  0.49381804  0.93631540  1
  Nd3+  Nd34  1  0.24036912  0.86862442  0.05659774  1
  Nd3+  Nd35  1  0.73757721  0.11556073  0.07311526  1
  Nd3+  Nd36  1  0.73919133  0.36091331  0.06457504  1
  Nd3+  Nd37  1  0.14011241  0.25569958  0.44085616  1
  Nd3+  Nd38  1  -0.00962874  0.37011193  0.05984756  1
  Nd3+  Nd39  1  0.27827582  0.13399972  0.55729248  1
  Nd3+  Nd40  1  0.24076648  0.37356677  0.06770546  1
  Nd3+  Nd41  1  0.51528670  0.38058232  0.55748707  1
  Nd3+  Nd42  1  0.75920628  0.37944893  0.56843368  1
  Nd3+  Nd43  1  0.38935554  0.50750630  0.43253737  1
  Nd3+  Nd44  1  0.62510304  0.48755728  0.90149459  1
  Nd3+  Nd45  1  0.64269641  -0.00873548  0.41868910  1
  Nd3+  Nd46  1  0.23762648  0.12538184  0.07601348  1
  Nd3+  Nd47  1  0.36884364  0.49420159  0.94202537  1
  Nd3+  Nd48  1  -0.01363150  0.62181296  0.06144947  1
  Nd3+  Nd49  1  0.01740757  0.13072833  0.55586924  1
  Nd3+  Nd50  1  0.76303559  0.88540657  0.56955565  1
  Sm3+  Sm51  1  0.01673938  0.38153204  0.56054927  1
  Sm3+  Sm52  1  0.49538958  0.61772633  0.05319673  1
  Sm3+  Sm53  1  0.88679437  0.75333896  0.44922980  1
  Sm3+  Sm54  1  0.63939112  0.75364323  0.44944979  1
  Sm3+  Sm55  1  0.51493210  0.13083917  0.53844945  1
  Sm3+  Sm56  1  0.86453283  0.24466207  0.94527527  1
  Sm3+  Sm57  1  0.01254611  0.88073781  0.55910841  1
  Sm3+  Sm58  1  0.48383728  0.11544834  0.07317155  1
  Sm3+  Sm59  1  0.74414945  0.61757681  0.05973060  1
  Sm3+  Sm60  1  0.26556665  0.38344961  0.55007261  1
  Sm3+  Sm61  1  0.13978226  0.75671079  0.45405966  1
  Sm3+  Sm62  1  0.86725844  -0.00574495  0.94662863  1
  Sm3+  Sm63  1  0.88663288  0.50713558  0.45175859  1
  Bi2+  Bi64  1  -0.02534947  0.11538858  0.27490869  1
  Bi2+  Bi65  1  -0.00111318  0.17419127  0.80199647  1
  Bi2+  Bi66  1  -0.03168482  0.40324158  0.28310501  1
  Bi2+  Bi67  1  0.01650748  0.36198912  0.83659259  1
  Bi2+  Bi68  1  -0.01332742  0.65021925  0.29939941  1
  Bi2+  Bi69  1  -0.00347560  0.53645160  0.78628073  1
  Bi2+  Bi70  1  -0.03884448  0.83799341  0.26581869  1
  Bi2+  Bi71  1  -0.02815665  0.98634336  0.78165700  1
  Bi2+  Bi72  1  0.21038711  0.11199095  0.30535052  1
  Bi2+  Bi73  1  0.27033444  0.14978396  0.78785429  1
  Bi2+  Bi74  1  0.26214076  0.35189580  0.29458800  1
  Bi2+  Bi75  1  0.21046109  0.35782144  0.80570149  1
  Bi2+  Bi76  1  0.33003257  0.61565603  0.31768887  1
  Bi2+  Bi77  1  0.25692992  0.62547862  0.78856776  1
  Bi2+  Bi78  1  0.21367662  0.81212474  0.31424350  1
  Bi2+  Bi79  1  0.24860909  0.88640081  0.78432382  1
  Bi2+  Bi80  1  0.49204923  0.11058381  0.27700207  1
  Bi2+  Bi81  1  0.54457092  0.10189776  0.75493962  1
  Bi2+  Bi82  1  0.50765614  0.43699603  0.27850824  1
  Bi2+  Bi83  1  0.44128186  0.37337795  0.80929288  1
  Bi2+  Bi84  1  0.52961247  0.61216337  0.33611257  1
  Bi2+  Bi85  1  0.51294166  0.71034790  0.80590519  1
  Bi2+  Bi86  1  0.50477816  0.79427304  0.29275567  1
  Bi2+  Bi87  1  0.52355578  0.90505321  0.79334050  1
  Bi2+  Bi88  1  0.77264520  0.14160020  0.28701591  1
  Bi2+  Bi89  1  0.74330112  0.09305992  0.80067026  1
  Bi2+  Bi90  1  0.77588183  0.40986161  0.29568138  1
  Bi2+  Bi91  1  0.78422346  0.35357069  0.78472160  1
  Bi2+  Bi92  1  0.72389462  0.60275376  0.30347459  1
  Bi2+  Bi93  1  0.83079879  0.64272043  0.79580828  1
  Bi2+  Bi94  1  0.75670878  0.86939521  0.29066873  1
  Bi2+  Bi95  1  0.71796852  0.88049324  0.79000549  1
  Bi2+  Bi96  1  0.09277406  -0.02035773  0.21002085  1
  Bi2+  Bi97  1  0.09806740  0.01300915  0.69774598  1
  Bi2+  Bi98  1  0.11488055  0.23940846  0.21039488  1
  Bi2+  Bi99  1  0.15822534  0.25597763  0.71159094  1
  Bi2+  Bi100  1  0.12458394  0.49793235  0.21338569  1
  Bi2+  Bi101  1  0.14840328  0.47502572  0.71624778  1
  Bi2+  Bi102  1  0.13575073  0.71607708  0.22607373  1
  Bi2+  Bi103  1  0.10584665  0.73172147  0.68380205  1
  Bi2+  Bi104  1  0.34761489  -0.05071761  0.20861747  1
  Bi2+  Bi105  1  0.37727638  0.04186054  0.70276953  1
  Bi2+  Bi106  1  0.39595501  0.23436135  0.19712907  1
  Bi2+  Bi107  1  0.34807110  0.25533718  0.68739370  1
  Bi2+  Bi108  1  0.37546151  0.54153421  0.21505117  1
  Bi2+  Bi109  1  0.35961205  0.44399573  0.71683504  1
  Bi2+  Bi110  1  0.33390096  0.73528655  0.22226410  1
  Bi2+  Bi111  1  0.41336750  0.75609238  0.71076495  1
  Bi2+  Bi112  1  0.61106722  -0.07441666  0.21729113  1
  Bi2+  Bi113  1  0.61143294  -0.05256855  0.68795084  1
  Bi2+  Bi114  1  0.63462368  0.28649464  0.19702643  1
  Bi2+  Bi115  1  0.63652996  0.27130838  0.72430526  1
  Bi2+  Bi116  1  0.63178526  0.53467735  0.20655312  1
  Bi2+  Bi117  1  0.59811169  0.49512686  0.71447194  1
  Bi2+  Bi118  1  0.62165239  0.73183034  0.20087105  1
  Bi2+  Bi119  1  0.62672497  0.73977465  0.71064566  1
  Bi2+  Bi120  1  0.87381906  -0.00759441  0.20556948  1
  Bi2+  Bi121  1  0.79762855  0.02051854  0.69520973  1
  Bi2+  Bi122  1  0.91294886  0.26384948  0.20804983  1
  Bi2+  Bi123  1  0.88445380  0.20095070  0.70784640  1
  Bi2+  Bi124  1  0.86638471  0.55070227  0.22788635  1
  Bi2+  Bi125  1  0.93274261  0.39295436  0.71439841  1
  Bi2+  Bi126  1  0.80936337  0.77699924  0.18928033  1
  Bi2+  Bi127  1  0.89115237  0.78940351  0.72188917  1
  S2-  S128  1  0.09713980  0.11173896  0.14108117  1
  S2-  S129  1  0.02940065  0.15538850  0.65409912  1
  S2-  S130  1  0.03106532  0.37442418  0.15693175  1
  S2-  S131  1  0.03156353  0.47896390  0.64054001  1
  S2-  S132  1  0.08553542  0.61561157  0.14917187  1
  S2-  S133  1  -0.06783639  0.66487386  0.66208551  1
  S2-  S134  1  -0.01069355  0.87856567  0.15388388  1
  S2-  S135  1  -0.01335559  0.89337393  0.65640172  1
  S2-  S136  1  0.35502998  0.08831449  0.14839409  1
  S2-  S137  1  0.24119066  0.04904100  0.64135287  1
  S2-  S138  1  0.24485200  0.26935960  0.14982208  1
  S2-  S139  1  0.26385436  0.47515430  0.63357649  1
  S2-  S140  1  0.25014270  0.49199592  0.14582335  1
  S2-  S141  1  0.26625869  0.68221619  0.66732468  1
  S2-  S142  1  0.21998715  0.90274073  0.15539198  1
  S2-  S143  1  0.19140038  0.87112215  0.68060519  1
  S2-  S144  1  0.54544097  0.14975329  0.16673755  1
  S2-  S145  1  0.43518593  0.14605498  0.62613314  1
  S2-  S146  1  0.48240042  0.35992935  0.16152976  1
  S2-  S147  1  0.49433635  0.37907534  0.65742550  1
  S2-  S148  1  0.49644501  0.62029169  0.15208973  1
  S2-  S149  1  0.50120973  0.61713196  0.66613675  1
  S2-  S150  1  0.48429816  0.89310023  0.15014797  1
  S2-  S151  1  0.40791618  0.88915560  0.64781387  1
  S2-  S152  1  0.75939353  0.22076586  0.15316155  1
  S2-  S153  1  0.71811517  0.17033538  0.65928150  1
  S2-  S154  1  0.72648133  0.42170984  0.15876131  1
  S2-  S155  1  0.71669312  0.39083955  0.66607300  1
  S2-  S156  1  0.86004115  0.63577245  0.13547368  1
  S2-  S157  1  0.72369892  0.59282791  0.69870536  1
  S2-  S158  1  0.73075085  0.99009583  0.14657241  1
  S2-  S159  1  0.76458492  0.79318647  0.65450277  1
  S2-  S160  1  0.12939181  -0.03318548  0.33856003  1
  S2-  S161  1  0.10997594  -0.08204774  0.84000980  1
  S2-  S162  1  0.13648536  0.26413233  0.34136584  1
  S2-  S163  1  0.14017927  0.13173435  0.85810898  1
  S2-  S164  1  0.19825340  0.48839696  0.32590518  1
  S2-  S165  1  0.12882658  0.58496861  0.85396202  1
  S2-  S166  1  0.12524684  0.68904473  0.36456189  1
  S2-  S167  1  0.13119335  0.74574213  0.77583664  1
  S2-  S168  1  0.33406201  0.01274268  0.30816621  1
  S2-  S169  1  0.33093914  -0.00688606  0.83751700  1
  S2-  S170  1  0.35883853  0.20913991  0.32124742  1
  S2-  S171  1  0.39769472  0.22358304  0.84493498  1
  S2-  S172  1  0.39813175  0.39909180  0.35300065  1
  S2-  S173  1  0.35534627  0.52150819  0.84311634  1
  S2-  S174  1  0.37559070  0.83445273  0.35796639  1
  S2-  S175  1  0.29272051  0.75357865  0.85188348  1
  S2-  S176  1  0.52933700  0.00743348  0.34455614  1
  S2-  S177  1  0.60287464  0.09854665  0.85810593  1
  S2-  S178  1  0.61565058  0.20112989  0.31047660  1
  S2-  S179  1  0.59533656  0.34599648  0.84284396  1
  S2-  S180  1  0.63754569  0.40954168  0.35528773  1
  S2-  S181  1  0.57618667  0.55756486  0.81109199  1
  S2-  S182  1  0.63967116  0.83079433  0.36127371  1
  S2-  S183  1  0.73099341  0.74202156  0.85581583  1
  S2-  S184  1  0.78224972  0.00890246  0.35574875  1
  S2-  S185  1  0.84407271  -0.03450846  0.85042432  1
  S2-  S186  1  0.81182248  0.25555179  0.35919583  1
  S2-  S187  1  0.78248799  0.23175792  0.85872437  1
  S2-  S188  1  0.97215110  0.51217187  0.36575352  1
  S2-  S189  1  0.77778737  0.49240808  0.84843614  1
  S2-  S190  1  0.88474544  0.77117963  0.35098713  1
  S2-  S191  1  0.94711338  0.73619696  0.83973512  1
  S2-  S192  1  0.01159870  0.12994763  0.44838505  1
  S2-  S193  1  -0.01284065  0.12191808  0.95303192  1
  S2-  S194  1  0.01057281  0.37706782  0.45661964  1
  S2-  S195  1  -0.01082633  0.36941431  0.95457485  1
  S2-  S196  1  0.00801472  0.63515490  0.46754565  1
  S2-  S197  1  -0.01432818  0.61887342  0.95446767  1
  S2-  S198  1  0.01181528  0.87849209  0.45323488  1
  S2-  S199  1  -0.00710945  0.87132357  0.94654257  1
  S2-  S200  1  0.26702190  0.12986176  0.44643529  1
  S2-  S201  1  0.24598875  0.12370634  0.96250074  1
  S2-  S202  1  0.25765156  0.38596111  0.44717531  1
  S2-  S203  1  0.24193255  0.37259329  0.95557301  1
  S2-  S204  1  0.26356198  0.63040029  0.45956520  1
  S2-  S205  1  0.24544819  0.61530062  0.96367246  1
  S2-  S206  1  0.26061594  0.87875996  0.46057659  1
  S2-  S207  1  0.23973100  0.86856080  0.95152598  1
  S2-  S208  1  0.51846742  0.13753857  0.43756963  1
  S2-  S209  1  0.49027560  0.11989761  0.96257678  1
  S2-  S210  1  0.51814832  0.37991482  0.45263890  1
  S2-  S211  1  0.49881954  0.37364925  0.95308079  1
  S2-  S212  1  0.51440068  0.63165391  0.45900524  1
  S2-  S213  1  0.49739707  0.61581347  0.94766251  1
  S2-  S214  1  0.51544128  0.87759220  0.45940768  1
  S2-  S215  1  0.49054594  0.86724841  0.94625958  1
  S2-  S216  1  0.75750702  0.12921506  0.45738513  1
  S2-  S217  1  0.74571077  0.11611840  0.96446214  1
  S2-  S218  1  0.76403382  0.38243151  0.46132806  1
  S2-  S219  1  0.73995205  0.36923389  0.95677545  1
  S2-  S220  1  0.76429728  0.63085609  0.45285562  1
  S2-  S221  1  0.73568760  0.61138289  0.95585955  1
  S2-  S222  1  0.76458358  0.87710052  0.46380057  1
  S2-  S223  1  0.74032602  0.87364103  0.96031532  1
  S2-  S224  1  0.11970174  -0.00565889  0.03906876  1
  S2-  S225  1  0.13559741  0.00487911  0.54316261  1
  S2-  S226  1  0.11646750  0.25047083  0.04139714  1
  S2-  S227  1  0.14290935  0.25752697  0.54809379  1
  S2-  S228  1  0.11161488  0.49429638  0.04448035  1
  S2-  S229  1  0.13711574  0.50199618  0.53350892  1
  S2-  S230  1  0.11683001  0.74411378  0.05315097  1
  S2-  S231  1  0.13788848  0.75702728  0.55776984  1
  S2-  S232  1  0.36577929  -0.00858996  0.04362540  1
  S2-  S233  1  0.39104626  0.00629981  0.53277802  1
  S2-  S234  1  0.36922144  0.24629624  0.04975592  1
  S2-  S235  1  0.38959285  0.26352538  0.52889555  1
  S2-  S236  1  0.37221565  0.49538232  0.04765027  1
  S2-  S237  1  0.39342716  0.50490413  0.53945062  1
  S2-  S238  1  0.36531674  0.73894387  0.05069421  1
  S2-  S239  1  0.38538732  0.75328940  0.55156956  1
  S2-  S240  1  0.60961233  -0.00551975  0.04642742  1
  S2-  S241  1  0.63661244  0.00779413  0.54699956  1
  S2-  S242  1  0.61473235  0.23796131  0.04785952  1
  S2-  S243  1  0.63589396  0.25465097  0.54778767  1
  S2-  S244  1  0.61983553  0.49778130  0.05220637  1
  S2-  S245  1  0.64250242  0.50981911  0.55323716  1
  S2-  S246  1  0.61984926  0.74274434  0.04512209  1
  S2-  S247  1  0.64064935  0.75580337  0.55436893  1
  S2-  S248  1  0.87033849  -0.00385121  0.05037305  1
  S2-  S249  1  0.89042355  0.00695647  0.54705469  1
  S2-  S250  1  0.86966834  0.24205039  0.04893394  1
  S2-  S251  1  0.89004218  0.25762172  0.55482254  1
  S2-  S252  1  0.86254994  0.48897001  0.04393988  1
  S2-  S253  1  0.88118220  0.50569307  0.55551962  1
  S2-  S254  1  0.86241344  0.75052562  0.03690806  1
  S2-  S255  1  0.88758550  0.75817192  0.55202838  1
