# generated using pymatgen
data_La6Ce6Pr19Nd20Sm13(BiS2)64
_symmetry_space_group_name_H-M   'P 1'
_cell_length_a   16.06839748
_cell_length_b   16.08901011
_cell_length_c   27.32252350
_cell_angle_alpha   90.20082390
_cell_angle_beta   90.16888551
_cell_angle_gamma   90.14774610
_symmetry_Int_Tables_number   1
_chemical_formula_structural   La6Ce6Pr19Nd20Sm13(BiS2)64
_chemical_formula_sum   'La6 Ce6 Pr19 Nd20 Sm13 Bi64 S128'
_cell_volume   7063.44697007
_cell_formula_units_Z   1
loop_
 _symmetry_equiv_pos_site_id
 _symmetry_equiv_pos_as_xyz
  1  'x, y, z'
loop_
 _atom_type_symbol
 _atom_type_oxidation_number
  La3+  3.0
  Ce3+  3.0
  Pr3+  3.0
  Nd3+  3.0
  Sm3+  3.0
  Bi2+  2.0
  S2-  -2.0
loop_
 _atom_site_type_symbol
 _atom_site_label
 _atom_site_symmetry_multiplicity
 _atom_site_fract_x
 _atom_site_fract_y
 _atom_site_fract_z
 _atom_site_occupancy
  La3+  La0  1  0.38452396  -0.00888494  0.92560316  1
  La3+  La1  1  0.01224447  0.11550355  0.60722401  1
  La3+  La2  1  0.75670633  0.62415933  0.10756280  1
  La3+  La3  1  0.38889562  0.73800403  0.92247549  1
  La3+  La4  1  0.13300349  0.50739908  0.91414372  1
  La3+  La5  1  0.63363895  0.25356582  0.92912613  1
  Ce3+  Ce6  1  0.74625035  0.87366211  0.56308188  1
  Ce3+  Ce7  1  0.86740436  0.74090162  0.43300024  1
  Ce3+  Ce8  1  0.11404223  0.74304027  0.44166981  1
  Ce3+  Ce9  1  0.11077104  0.24983500  0.44164093  1
  Ce3+  Ce10  1  0.25524037  0.62504689  0.05997224  1
  Ce3+  Ce11  1  0.86089007  0.49368292  0.43090190  1
  Pr3+  Pr12  1  0.76619432  0.12713516  0.07409665  1
  Pr3+  Pr13  1  0.26838493  0.12567764  0.07135337  1
  Pr3+  Pr14  1  0.61466610  0.24774431  0.43865918  1
  Pr3+  Pr15  1  0.73682481  0.36942916  0.56627530  1
  Pr3+  Pr16  1  0.63790426  0.74742132  0.93957478  1
  Pr3+  Pr17  1  0.86738965  0.25111287  0.44148216  1
  Pr3+  Pr18  1  0.01133082  0.62186710  0.06614556  1
  Pr3+  Pr19  1  0.26179910  0.87080156  0.06490200  1
  Pr3+  Pr20  1  0.36912350  0.49813052  0.42744531  1
  Pr3+  Pr21  1  0.13729050  0.24211514  0.93299697  1
  Pr3+  Pr22  1  0.88586562  0.00407812  0.94053305  1
  Pr3+  Pr23  1  0.76427056  0.37178676  0.07010980  1
  Pr3+  Pr24  1  -0.01705878  0.37697427  0.57720941  1
  Pr3+  Pr25  1  -0.00156145  0.62172384  0.57517248  1
  Pr3+  Pr26  1  0.25326465  0.62443815  0.56644580  1
  Pr3+  Pr27  1  0.50867489  0.63304295  0.06978861  1
  Pr3+  Pr28  1  0.02303709  0.37653146  0.06371878  1
  Pr3+  Pr29  1  0.01189194  0.87316859  0.07073203  1
  Pr3+  Pr30  1  0.49179225  0.37067089  0.56711602  1
  Nd3+  Nd31  1  0.88469026  0.74632686  0.94389125  1
  Nd3+  Nd32  1  0.36441273  0.24763126  0.43918195  1
  Nd3+  Nd33  1  0.12711737  0.75113154  0.93268179  1
  Nd3+  Nd34  1  0.61437611  0.74957817  0.44090399  1
  Nd3+  Nd35  1  0.11261330  0.49972458  0.44438264  1
  Nd3+  Nd36  1  0.88782705  0.24482904  0.93806625  1
  Nd3+  Nd37  1  0.51202878  0.37462611  0.06243511  1
  Nd3+  Nd38  1  0.36723174  0.74926972  0.42774957  1
  Nd3+  Nd39  1  0.01691384  0.12642273  0.07126008  1
  Nd3+  Nd40  1  0.88704557  0.48824608  0.93871253  1
  Nd3+  Nd41  1  0.36356498  -0.00733429  0.42216729  1
  Nd3+  Nd42  1  0.61320616  0.49732690  0.43363911  1
  Nd3+  Nd43  1  0.76520420  0.87443852  0.07143492  1
  Nd3+  Nd44  1  0.38369985  0.24052819  0.92968552  1
  Nd3+  Nd45  1  0.63524297  0.00331948  0.93349423  1
  Nd3+  Nd46  1  0.61764631  -0.00295725  0.44050002  1
  Nd3+  Nd47  1  0.86754067  -0.00261441  0.44648778  1
  Nd3+  Nd48  1  0.23996373  0.37133518  0.55690729  1
  Nd3+  Nd49  1  -0.00751345  0.87104932  0.56073716  1
  Nd3+  Nd50  1  0.48615612  0.87724162  0.56179660  1
  Sm3+  Sm51  1  0.11082887  -0.00206792  0.43643335  1
  Sm3+  Sm52  1  0.74072121  0.62182180  0.56092662  1
  Sm3+  Sm53  1  0.23977759  0.12096482  0.54826493  1
  Sm3+  Sm54  1  0.48964804  0.11864080  0.55053348  1
  Sm3+  Sm55  1  0.51445801  0.87277280  0.05920608  1
  Sm3+  Sm56  1  0.13553117  -0.00275676  0.94884245  1
  Sm3+  Sm57  1  0.50142675  0.62360200  0.56494655  1
  Sm3+  Sm58  1  0.51161283  0.12136815  0.05926750  1
  Sm3+  Sm59  1  0.63851212  0.49651382  0.94790077  1
  Sm3+  Sm60  1  0.38578601  0.50060691  0.94662934  1
  Sm3+  Sm61  1  0.74517647  0.12200454  0.55839709  1
  Sm3+  Sm62  1  0.26111922  0.37411170  0.04647498  1
  Sm3+  Sm63  1  0.24100713  0.87445091  0.54860945  1
  Bi2+  Bi64  1  0.01667681  0.14429498  0.27618339  1
  Bi2+  Bi65  1  0.00128315  0.12275297  0.79522941  1
  Bi2+  Bi66  1  0.01976341  0.36079166  0.29659299  1
  Bi2+  Bi67  1  -0.00398517  0.38923292  0.79973160  1
  Bi2+  Bi68  1  0.02035332  0.62058333  0.29392780  1
  Bi2+  Bi69  1  0.02423835  0.65782958  0.79082897  1
  Bi2+  Bi70  1  -0.01818586  0.94461896  0.28767751  1
  Bi2+  Bi71  1  0.03587556  0.89912769  0.79655642  1
  Bi2+  Bi72  1  0.30720202  0.11077710  0.28728146  1
  Bi2+  Bi73  1  0.31077632  0.17322710  0.75785936  1
  Bi2+  Bi74  1  0.28457375  0.40800835  0.26660333  1
  Bi2+  Bi75  1  0.31511384  0.37034796  0.78727555  1
  Bi2+  Bi76  1  0.23771690  0.63803068  0.28035044  1
  Bi2+  Bi77  1  0.30326404  0.64557662  0.78561779  1
  Bi2+  Bi78  1  0.26101834  0.91068921  0.28151304  1
  Bi2+  Bi79  1  0.24018555  0.87340938  0.77152197  1
  Bi2+  Bi80  1  0.50119681  0.11512319  0.28416767  1
  Bi2+  Bi81  1  0.48970604  0.12028802  0.80081700  1
  Bi2+  Bi82  1  0.48289871  0.34587820  0.28673887  1
  Bi2+  Bi83  1  0.52063390  0.39527972  0.79282916  1
  Bi2+  Bi84  1  0.48220349  0.60538089  0.28970717  1
  Bi2+  Bi85  1  0.53616607  0.60843491  0.78772222  1
  Bi2+  Bi86  1  0.52313798  0.93118109  0.24201320  1
  Bi2+  Bi87  1  0.48258154  0.85866403  0.79102174  1
  Bi2+  Bi88  1  0.81234554  0.16274148  0.29712565  1
  Bi2+  Bi89  1  0.72697790  0.11914812  0.77135166  1
  Bi2+  Bi90  1  0.74667261  0.34951451  0.29290316  1
  Bi2+  Bi91  1  0.73678206  0.32038444  0.78909735  1
  Bi2+  Bi92  1  0.72322842  0.65131086  0.32476924  1
  Bi2+  Bi93  1  0.74247572  0.59531173  0.79443156  1
  Bi2+  Bi94  1  0.72478811  0.90910762  0.29417790  1
  Bi2+  Bi95  1  0.75484590  0.79302272  0.81066567  1
  Bi2+  Bi96  1  0.09521900  0.00398991  0.20775175  1
  Bi2+  Bi97  1  0.14646199  0.00928824  0.71158077  1
  Bi2+  Bi98  1  0.20688921  0.23927749  0.21899626  1
  Bi2+  Bi99  1  0.15612557  0.26809884  0.71159416  1
  Bi2+  Bi100  1  0.12920781  0.48209146  0.19882699  1
  Bi2+  Bi101  1  0.13879823  0.51448223  0.71375245  1
  Bi2+  Bi102  1  0.12987661  0.75124596  0.21380925  1
  Bi2+  Bi103  1  0.09665080  0.77383871  0.70707638  1
  Bi2+  Bi104  1  0.35261777  0.00240790  0.19448284  1
  Bi2+  Bi105  1  0.40424447  -0.02189603  0.69686014  1
  Bi2+  Bi106  1  0.38482488  0.30211615  0.18543192  1
  Bi2+  Bi107  1  0.41583000  0.30384460  0.69104528  1
  Bi2+  Bi108  1  0.36509150  0.55401697  0.19910891  1
  Bi2+  Bi109  1  0.41025095  0.50358983  0.71696264  1
  Bi2+  Bi110  1  0.32867140  0.74767976  0.19849565  1
  Bi2+  Bi111  1  0.36427811  0.75673447  0.70075947  1
  Bi2+  Bi112  1  0.62216634  0.00695083  0.15174242  1
  Bi2+  Bi113  1  0.66180817  -0.06629666  0.74443477  1
  Bi2+  Bi114  1  0.65395548  0.16945591  0.21767520  1
  Bi2+  Bi115  1  0.59059093  0.21252655  0.70351352  1
  Bi2+  Bi116  1  0.62359491  0.47842415  0.21952021  1
  Bi2+  Bi117  1  0.70380260  0.46445765  0.70141976  1
  Bi2+  Bi118  1  0.58973340  0.75110127  0.21359881  1
  Bi2+  Bi119  1  0.65376292  0.71730939  0.71772304  1
  Bi2+  Bi120  1  0.80067124  0.00908483  0.20804045  1
  Bi2+  Bi121  1  0.86195408  -0.09530084  0.73764833  1
  Bi2+  Bi122  1  0.89809103  0.25284579  0.20238043  1
  Bi2+  Bi123  1  0.85999484  0.25207454  0.70534945  1
  Bi2+  Bi124  1  0.88720318  0.50794542  0.22137612  1
  Bi2+  Bi125  1  0.88863171  0.58406382  0.71677791  1
  Bi2+  Bi126  1  0.86831594  0.76827612  0.21390179  1
  Bi2+  Bi127  1  0.90857966  0.75670907  0.66752287  1
  S2-  S128  1  -0.09850988  0.11190730  0.14743254  1
  S2-  S129  1  -0.07525735  0.10324986  0.69863780  1
  S2-  S130  1  -0.02238288  0.39833758  0.16243541  1
  S2-  S131  1  0.01937658  0.27350302  0.65834499  1
  S2-  S132  1  -0.08130605  0.63875111  0.15415579  1
  S2-  S133  1  0.00617340  0.50387630  0.65307363  1
  S2-  S134  1  -0.10346857  0.88102035  0.14896807  1
  S2-  S135  1  0.03907243  0.94853534  0.64680181  1
  S2-  S136  1  0.14281528  0.13679098  0.14594474  1
  S2-  S137  1  0.18983255  0.12612646  0.64263617  1
  S2-  S138  1  0.18071774  0.37543077  0.13366732  1
  S2-  S139  1  0.21953957  0.39367889  0.65539518  1
  S2-  S140  1  0.14421266  0.61893987  0.13823716  1
  S2-  S141  1  0.15634442  0.63969772  0.65275899  1
  S2-  S142  1  0.14229525  0.87089586  0.14371618  1
  S2-  S143  1  0.28245318  0.88709350  0.64262449  1
  S2-  S144  1  0.40627151  0.14293210  0.13877323  1
  S2-  S145  1  0.49327917  0.08403395  0.64676929  1
  S2-  S146  1  0.54457668  0.36874727  0.16152001  1
  S2-  S147  1  0.61141201  0.37104986  0.64229841  1
  S2-  S148  1  0.59433236  0.60136855  0.15758055  1
  S2-  S149  1  0.38615892  0.62277745  0.63753524  1
  S2-  S150  1  0.47956806  0.77617969  0.13942031  1
  S2-  S151  1  0.50024942  0.84503761  0.65915446  1
  S2-  S152  1  0.74967794  0.25319602  0.14844303  1
  S2-  S153  1  0.72980334  0.16958345  0.65247289  1
  S2-  S154  1  0.76318628  0.46710373  0.15681433  1
  S2-  S155  1  0.83477593  0.39314458  0.64828507  1
  S2-  S156  1  0.76811673  0.62733611  0.23509135  1
  S2-  S157  1  0.62988260  0.61140845  0.63874882  1
  S2-  S158  1  0.72274205  0.78140467  0.15615668  1
  S2-  S159  1  0.74477642  0.92497945  0.65616475  1
  S2-  S160  1  0.12369447  -0.01926435  0.33918995  1
  S2-  S161  1  0.11233561  0.02479730  0.85170146  1
  S2-  S162  1  0.11283805  0.24499875  0.34354905  1
  S2-  S163  1  0.07812732  0.24944456  0.83701941  1
  S2-  S164  1  0.10223213  0.48693532  0.34390462  1
  S2-  S165  1  0.16617099  0.44333839  0.81420993  1
  S2-  S166  1  0.09886287  0.74016756  0.34392573  1
  S2-  S167  1  0.17029437  0.65575012  0.85078438  1
  S2-  S168  1  0.37099764  -0.12987767  0.35143384  1
  S2-  S169  1  0.34230536  0.11804071  0.85510838  1
  S2-  S170  1  0.35630496  0.30878097  0.34728647  1
  S2-  S171  1  0.50013496  0.25893183  0.85476823  1
  S2-  S172  1  0.49917017  0.48023187  0.35560720  1
  S2-  S173  1  0.38992931  0.57913335  0.85885378  1
  S2-  S174  1  0.35005260  0.62762387  0.35604356  1
  S2-  S175  1  0.34273885  0.86093793  0.85203961  1
  S2-  S176  1  0.59612072  0.00054522  0.34243078  1
  S2-  S177  1  0.52287994  -0.02396432  0.85501770  1
  S2-  S178  1  0.61968617  0.27278740  0.33989026  1
  S2-  S179  1  0.66659749  0.12475307  0.85941405  1
  S2-  S180  1  0.72211133  0.48618841  0.35505179  1
  S2-  S181  1  0.64884183  0.40605778  0.86228563  1
  S2-  S182  1  0.57139658  0.73135686  0.34433077  1
  S2-  S183  1  0.53544001  0.73795981  0.85637201  1
  S2-  S184  1  0.84779020  0.01104201  0.34777618  1
  S2-  S185  1  0.88969278  0.11851163  0.86293191  1
  S2-  S186  1  0.89018061  0.35935735  0.36085375  1
  S2-  S187  1  0.86930722  0.35559211  0.85777372  1
  S2-  S188  1  0.89210252  0.61276139  0.36106353  1
  S2-  S189  1  0.98099603  0.52440632  0.85521455  1
  S2-  S190  1  0.81598052  0.79932103  0.34199146  1
  S2-  S191  1  0.98778229  0.77197097  0.86444427  1
  S2-  S192  1  -0.01011057  0.12209702  0.44150369  1
  S2-  S193  1  0.01535106  0.12275553  0.96408617  1
  S2-  S194  1  -0.00732104  0.37529195  0.46549974  1
  S2-  S195  1  0.01817358  0.36993082  0.95444398  1
  S2-  S196  1  -0.00663333  0.62214107  0.46555405  1
  S2-  S197  1  0.00784251  0.62344212  0.95932230  1
  S2-  S198  1  -0.00944792  0.87142411  0.45236826  1
  S2-  S199  1  0.00808147  0.88012252  0.96362304  1
  S2-  S200  1  0.23990228  0.11967687  0.44341372  1
  S2-  S201  1  0.25889015  0.11848859  0.96241734  1
  S2-  S202  1  0.24040224  0.37445027  0.45070510  1
  S2-  S203  1  0.26257053  0.37457874  0.94171948  1
  S2-  S204  1  0.24057649  0.62247041  0.45798993  1
  S2-  S205  1  0.25951337  0.62324106  0.95658918  1
  S2-  S206  1  0.23533431  0.87377223  0.44598194  1
  S2-  S207  1  0.25329236  0.87176899  0.95771065  1
  S2-  S208  1  0.48709558  0.11973850  0.44521584  1
  S2-  S209  1  0.50784206  0.12135047  0.95764047  1
  S2-  S210  1  0.48889375  0.36827898  0.45958611  1
  S2-  S211  1  0.50590969  0.37914595  0.95776994  1
  S2-  S212  1  0.49125612  0.62580031  0.45952712  1
  S2-  S213  1  0.51584203  0.61736358  0.96233189  1
  S2-  S214  1  0.49179800  0.87642898  0.45405840  1
  S2-  S215  1  0.51155672  0.86976153  0.95813102  1
  S2-  S216  1  0.74200288  0.12329491  0.45262215  1
  S2-  S217  1  0.76109071  0.12624549  0.96667081  1
  S2-  S218  1  0.73713896  0.36942031  0.45987633  1
  S2-  S219  1  0.76026525  0.37036690  0.96421000  1
  S2-  S220  1  0.73658991  0.62486498  0.45781267  1
  S2-  S221  1  0.76222764  0.61833472  0.94107126  1
  S2-  S222  1  0.74130995  0.87342675  0.45621983  1
  S2-  S223  1  0.76129448  0.87628608  0.95330505  1
  S2-  S224  1  0.13941633  0.00000597  0.04999731  1
  S2-  S225  1  0.11732821  -0.00064380  0.53932065  1
  S2-  S226  1  0.14245563  0.24768891  0.03922679  1
  S2-  S227  1  0.11558147  0.24440132  0.54555863  1
  S2-  S228  1  0.14074048  0.49916628  0.03144938  1
  S2-  S229  1  0.12255807  0.49875922  0.54837195  1
  S2-  S230  1  0.13379744  0.74990372  0.03972101  1
  S2-  S231  1  0.11951624  0.75089963  0.54774803  1
  S2-  S232  1  0.38912213  -0.00748080  0.04539624  1
  S2-  S233  1  0.36344276  -0.00046514  0.53320526  1
  S2-  S234  1  0.38651878  0.25353707  0.03675706  1
  S2-  S235  1  0.36576699  0.24342796  0.54619045  1
  S2-  S236  1  0.38439179  0.49969563  0.05168061  1
  S2-  S237  1  0.37003568  0.49233061  0.54122462  1
  S2-  S238  1  0.38153821  0.74769095  0.03660888  1
  S2-  S239  1  0.36867620  0.75415531  0.53707286  1
  S2-  S240  1  0.63714321  -0.00384287  0.04012030  1
  S2-  S241  1  0.61795241  -0.00094339  0.54630473  1
  S2-  S242  1  0.62915173  0.24677980  0.04599633  1
  S2-  S243  1  0.61258177  0.23836411  0.54370899  1
  S2-  S244  1  0.63711461  0.50073946  0.04973836  1
  S2-  S245  1  0.61460910  0.49721998  0.53903008  1
  S2-  S246  1  0.64032033  0.74888263  0.04531507  1
  S2-  S247  1  0.61644248  0.75475039  0.54768985  1
  S2-  S248  1  0.88715880  -0.00104611  0.04569367  1
  S2-  S249  1  0.87377475  0.00364492  0.55284946  1
  S2-  S250  1  0.89536389  0.25208323  0.04647499  1
  S2-  S251  1  0.86858128  0.24186023  0.54819796  1
  S2-  S252  1  0.88836979  0.49684997  0.04607148  1
  S2-  S253  1  0.86285856  0.50499738  0.54510839  1
  S2-  S254  1  0.88044231  0.74591324  0.04716180  1
  S2-  S255  1  0.86522811  0.74575530  0.54354729  1
