# generated using pymatgen
data_La6Ce6Pr19Nd20Sm13(BiS2)64
_symmetry_space_group_name_H-M   'P 1'
_cell_length_a   16.05588598
_cell_length_b   16.05011093
_cell_length_c   27.43140024
_cell_angle_alpha   90.35141804
_cell_angle_beta   89.82246454
_cell_angle_gamma   89.92921998
_symmetry_Int_Tables_number   1
_chemical_formula_structural   La6Ce6Pr19Nd20Sm13(BiS2)64
_chemical_formula_sum   'La6 Ce6 Pr19 Nd20 Sm13 Bi64 S128'
_cell_volume   7068.86512479
_cell_formula_units_Z   1
loop_
 _symmetry_equiv_pos_site_id
 _symmetry_equiv_pos_as_xyz
  1  'x, y, z'
loop_
 _atom_type_symbol
 _atom_type_oxidation_number
  La3+  3.0
  Ce3+  3.0
  Pr3+  3.0
  Nd3+  3.0
  Sm3+  3.0
  Bi2+  2.0
  S2-  -2.0
loop_
 _atom_site_type_symbol
 _atom_site_label
 _atom_site_symmetry_multiplicity
 _atom_site_fract_x
 _atom_site_fract_y
 _atom_site_fract_z
 _atom_site_occupancy
  La3+  La0  1  0.75043219  0.83912576  0.60065764  1
  La3+  La1  1  0.73495103  0.13441333  0.07396338  1
  La3+  La2  1  0.36080372  0.51592157  0.89245207  1
  La3+  La3  1  0.88070581  0.45804624  0.40124303  1
  La3+  La4  1  0.86886521  0.03160733  0.88804855  1
  La3+  La5  1  0.47580580  0.62470085  0.09863794  1
  Ce3+  Ce6  1  0.62281539  0.70854038  0.42518537  1
  Ce3+  Ce7  1  0.50260285  0.83468372  0.55064302  1
  Ce3+  Ce8  1  0.23849353  0.63005299  0.05643948  1
  Ce3+  Ce9  1  0.36431885  0.01017343  0.93248254  1
  Ce3+  Ce10  1  0.85770171  0.76333450  0.93769461  1
  Ce3+  Ce11  1  0.12104390  0.71078900  0.44347127  1
  Pr3+  Pr12  1  -0.00549314  0.59587611  0.56244955  1
  Pr3+  Pr13  1  0.12343025  -0.03315419  0.44674291  1
  Pr3+  Pr14  1  0.24060814  0.33973244  0.58431075  1
  Pr3+  Pr15  1  0.50344216  0.09127666  0.56341345  1
  Pr3+  Pr16  1  0.61018490  0.00398123  0.93631392  1
  Pr3+  Pr17  1  0.37327072  0.70922406  0.42357790  1
  Pr3+  Pr18  1  0.74763929  0.34323012  0.55767108  1
  Pr3+  Pr19  1  0.23981266  0.13302157  0.06816520  1
  Pr3+  Pr20  1  0.23255690  0.38386577  0.05778952  1
  Pr3+  Pr21  1  0.48766910  0.13450199  0.06693061  1
  Pr3+  Pr22  1  0.86964288  -0.03566401  0.43864253  1
  Pr3+  Pr23  1  0.73296981  0.39831641  0.07939960  1
  Pr3+  Pr24  1  -0.00762967  0.08729104  0.56112255  1
  Pr3+  Pr25  1  0.37153556  0.46338817  0.44103679  1
  Pr3+  Pr26  1  0.25030411  0.09028029  0.57110476  1
  Pr3+  Pr27  1  0.61388105  0.25935717  0.94442430  1
  Pr3+  Pr28  1  0.12241713  0.21810053  0.44570520  1
  Pr3+  Pr29  1  0.62269298  0.21927676  0.42927823  1
  Pr3+  Pr30  1  -0.01411127  0.88551604  0.06183085  1
  Nd3+  Nd31  1  0.24318350  0.88252677  0.05717735  1
  Nd3+  Nd32  1  0.86979183  0.71462073  0.43519786  1
  Nd3+  Nd33  1  0.37042196  -0.03145510  0.43632757  1
  Nd3+  Nd34  1  0.61978263  -0.03085398  0.42684070  1
  Nd3+  Nd35  1  0.62213678  0.46188552  0.43183677  1
  Nd3+  Nd36  1  0.48222028  0.38788268  0.05752323  1
  Nd3+  Nd37  1  -0.01555469  0.64009542  0.06803397  1
  Nd3+  Nd38  1  0.10697962  0.25591478  0.94421194  1
  Nd3+  Nd39  1  0.25144385  0.59172072  0.56410201  1
  Nd3+  Nd40  1  0.37083242  0.22181234  0.44463019  1
  Nd3+  Nd41  1  0.60633292  0.75241538  0.95325805  1
  Nd3+  Nd42  1  0.47939450  0.88241574  0.06806940  1
  Nd3+  Nd43  1  -0.00607377  0.34063229  0.56920473  1
  Nd3+  Nd44  1  0.74102965  0.63941251  0.07933396  1
  Nd3+  Nd45  1  0.35858831  0.26134746  0.93714363  1
  Nd3+  Nd46  1  0.50180169  0.58789216  0.56282411  1
  Nd3+  Nd47  1  0.85470508  0.51674756  0.93585851  1
  Nd3+  Nd48  1  0.10881422  0.50733305  0.93342161  1
  Nd3+  Nd49  1  0.72610990  0.88191927  0.06861180  1
  Nd3+  Nd50  1  0.36055348  0.75493806  0.93507679  1
  Sm3+  Sm51  1  0.10909801  0.75738101  0.94451124  1
  Sm3+  Sm52  1  0.85797388  0.25795968  0.95107796  1
  Sm3+  Sm53  1  -0.01979789  0.12527547  0.06912951  1
  Sm3+  Sm54  1  0.74563926  0.09050571  0.55077045  1
  Sm3+  Sm55  1  0.60965166  0.51038384  0.94800401  1
  Sm3+  Sm56  1  0.11024762  0.00831946  0.93979448  1
  Sm3+  Sm57  1  0.12074428  0.46166595  0.44340969  1
  Sm3+  Sm58  1  0.25323512  0.84050239  0.54956315  1
  Sm3+  Sm59  1  -0.01758810  0.38526115  0.05815813  1
  Sm3+  Sm60  1  0.49882660  0.33979690  0.56999701  1
  Sm3+  Sm61  1  -0.00488832  0.84090002  0.55414773  1
  Sm3+  Sm62  1  0.74691549  0.59552543  0.55045075  1
  Sm3+  Sm63  1  0.87449736  0.21876210  0.43820810  1
  Bi2+  Bi64  1  0.00673949  0.08994772  0.28112602  1
  Bi2+  Bi65  1  0.13373026  0.14818794  0.81073234  1
  Bi2+  Bi66  1  0.06362396  0.37676929  0.27465138  1
  Bi2+  Bi67  1  -0.04747423  0.45037398  0.82061362  1
  Bi2+  Bi68  1  -0.00447532  0.62642641  0.29558226  1
  Bi2+  Bi69  1  0.00344533  0.63821950  0.81199060  1
  Bi2+  Bi70  1  0.05721321  0.89841810  0.26163613  1
  Bi2+  Bi71  1  0.00925160  0.87025674  0.79277676  1
  Bi2+  Bi72  1  0.20226098  0.14984545  0.29617726  1
  Bi2+  Bi73  1  0.32617928  0.13618143  0.82568943  1
  Bi2+  Bi74  1  0.25073797  0.40921463  0.30013763  1
  Bi2+  Bi75  1  0.22903834  0.38162200  0.78525738  1
  Bi2+  Bi76  1  0.24142709  0.64228467  0.29819062  1
  Bi2+  Bi77  1  0.22310088  0.65276158  0.78420572  1
  Bi2+  Bi78  1  0.25382364  0.92565021  0.27863023  1
  Bi2+  Bi79  1  0.26981003  0.94646690  0.80534108  1
  Bi2+  Bi80  1  0.40092661  0.14572534  0.29711155  1
  Bi2+  Bi81  1  0.48839796  0.09517087  0.75912097  1
  Bi2+  Bi82  1  0.47389319  0.38138521  0.29446250  1
  Bi2+  Bi83  1  0.50537619  0.33071245  0.78286403  1
  Bi2+  Bi84  1  0.49131736  0.64339165  0.29580070  1
  Bi2+  Bi85  1  0.56495016  0.63051294  0.79872374  1
  Bi2+  Bi86  1  0.56375419  0.98075718  0.29106925  1
  Bi2+  Bi87  1  0.45483706  0.89660991  0.77482651  1
  Bi2+  Bi88  1  0.81978298  0.13938347  0.30751559  1
  Bi2+  Bi89  1  0.73362035  0.15601412  0.79011350  1
  Bi2+  Bi90  1  0.74062979  0.30710932  0.28202785  1
  Bi2+  Bi91  1  0.75313100  0.41028217  0.80217085  1
  Bi2+  Bi92  1  0.73617668  0.64328509  0.29364726  1
  Bi2+  Bi93  1  0.76259578  0.62838699  0.74134583  1
  Bi2+  Bi94  1  0.77080967  0.92696747  0.28496550  1
  Bi2+  Bi95  1  0.71631899  0.86672132  0.80312003  1
  Bi2+  Bi96  1  0.17142764  0.01623713  0.19093673  1
  Bi2+  Bi97  1  0.18118878  0.02990789  0.71140428  1
  Bi2+  Bi98  1  0.17086179  0.21588356  0.18632653  1
  Bi2+  Bi99  1  0.09215853  0.23321926  0.70976835  1
  Bi2+  Bi100  1  0.11890083  0.54543537  0.21871747  1
  Bi2+  Bi101  1  0.05779559  0.49466500  0.72293969  1
  Bi2+  Bi102  1  0.13283022  0.74272157  0.21056900  1
  Bi2+  Bi103  1  0.16078412  0.83468886  0.72300934  1
  Bi2+  Bi104  1  0.44348943  0.00967962  0.20154964  1
  Bi2+  Bi105  1  0.37125567  -0.00225764  0.68561743  1
  Bi2+  Bi106  1  0.36314609  0.27123284  0.20738695  1
  Bi2+  Bi107  1  0.34605312  0.25564677  0.72804480  1
  Bi2+  Bi108  1  0.33735211  0.50238651  0.21345535  1
  Bi2+  Bi109  1  0.39708819  0.52918726  0.70294381  1
  Bi2+  Bi110  1  0.36025098  0.76907426  0.21205769  1
  Bi2+  Bi111  1  0.35667450  0.74402543  0.71684900  1
  Bi2+  Bi112  1  0.71127555  0.07114979  0.21323812  1
  Bi2+  Bi113  1  0.62496084  0.01219673  0.69103388  1
  Bi2+  Bi114  1  0.55440223  0.22359683  0.23608559  1
  Bi2+  Bi115  1  0.63862247  0.27503083  0.69946863  1
  Bi2+  Bi116  1  0.60156341  0.43427026  0.21660695  1
  Bi2+  Bi117  1  0.64850596  0.46871275  0.70859917  1
  Bi2+  Bi118  1  0.62713037  0.81659295  0.21978981  1
  Bi2+  Bi119  1  0.60133160  0.72968417  0.70437050  1
  Bi2+  Bi120  1  0.87810746  -0.02315595  0.19151472  1
  Bi2+  Bi121  1  0.89022631  0.00366239  0.69245530  1
  Bi2+  Bi122  1  0.97617920  0.23720721  0.20610366  1
  Bi2+  Bi123  1  0.89556535  0.28646262  0.76391462  1
  Bi2+  Bi124  1  0.84310475  0.47158460  0.20474128  1
  Bi2+  Bi125  1  0.86587588  0.45713821  0.70196760  1
  Bi2+  Bi126  1  0.88127633  0.74094948  0.20882710  1
  Bi2+  Bi127  1  0.92744263  0.73477003  0.72332583  1
  S2-  S128  1  0.02022716  0.00097307  0.13892611  1
  S2-  S129  1  -0.01623660  0.14228832  0.65586618  1
  S2-  S130  1  -0.02879274  0.39520303  0.15541050  1
  S2-  S131  1  0.09367246  0.36653034  0.64907777  1
  S2-  S132  1  -0.11602552  0.60907480  0.14990892  1
  S2-  S133  1  0.01414088  0.62100734  0.66155063  1
  S2-  S134  1  0.00185765  0.77257242  0.14260588  1
  S2-  S135  1  -0.07686017  0.84758665  0.64178902  1
  S2-  S136  1  0.36786791  0.11674950  0.14328772  1
  S2-  S137  1  0.24749799  0.19872356  0.65036300  1
  S2-  S138  1  0.25180331  0.37996809  0.15757013  1
  S2-  S139  1  0.31743566  0.40145791  0.67220743  1
  S2-  S140  1  0.31444158  0.63851126  0.14598020  1
  S2-  S141  1  0.26621256  0.61179852  0.66331323  1
  S2-  S142  1  0.34773676  0.87574490  0.13997603  1
  S2-  S143  1  0.28555465  0.85040288  0.64479193  1
  S2-  S144  1  0.60461630  0.14685315  0.14558701  1
  S2-  S145  1  0.52156691  0.21271724  0.63894367  1
  S2-  S146  1  0.47979486  0.46286298  0.14946055  1
  S2-  S147  1  0.52071430  0.46528820  0.64098610  1
  S2-  S148  1  0.51658264  0.69067436  0.19273951  1
  S2-  S149  1  0.47793634  0.69141363  0.64277491  1
  S2-  S150  1  0.57633834  0.91731420  0.15068722  1
  S2-  S151  1  0.58094258  0.87454157  0.63467248  1
  S2-  S152  1  0.86577783  0.14143748  0.14810194  1
  S2-  S153  1  0.75635087  0.08901381  0.64833658  1
  S2-  S154  1  0.74514722  0.33523979  0.17547437  1
  S2-  S155  1  0.79622276  0.32002984  0.65325971  1
  S2-  S156  1  0.70008301  0.53007117  0.15531710  1
  S2-  S157  1  0.73421906  0.67460788  0.63912398  1
  S2-  S158  1  0.74464111  0.77515766  0.15002771  1
  S2-  S159  1  0.74895940  0.89887057  0.70268203  1
  S2-  S160  1  0.17329451  -0.00075590  0.35420837  1
  S2-  S161  1  0.03659478  0.01201302  0.85154325  1
  S2-  S162  1  0.13453619  0.28340951  0.35322904  1
  S2-  S163  1  0.11174866  0.30741025  0.84905454  1
  S2-  S164  1  0.03826901  0.48458161  0.35682578  1
  S2-  S165  1  0.20053953  0.51502367  0.84650004  1
  S2-  S166  1  0.11448350  0.72489444  0.34690090  1
  S2-  S167  1  0.12194478  0.76300594  0.84660328  1
  S2-  S168  1  0.40371962  -0.01482078  0.34035451  1
  S2-  S169  1  0.48257210  -0.00516041  0.86147332  1
  S2-  S170  1  0.36080762  0.33550174  0.36828498  1
  S2-  S171  1  0.35476143  0.34928690  0.85118703  1
  S2-  S172  1  0.38084495  0.56919076  0.35803862  1
  S2-  S173  1  0.45781392  0.50714958  0.80182327  1
  S2-  S174  1  0.37221181  0.76225578  0.32321735  1
  S2-  S175  1  0.34856018  0.68177247  0.84392133  1
  S2-  S176  1  0.62341322  0.09319291  0.35583459  1
  S2-  S177  1  0.70200102  0.02061859  0.84970197  1
  S2-  S178  1  0.62310508  0.34052219  0.35456845  1
  S2-  S179  1  0.60564626  0.25092284  0.84317973  1
  S2-  S180  1  0.61319659  0.57184823  0.35380742  1
  S2-  S181  1  0.66584997  0.52719427  0.85543872  1
  S2-  S182  1  0.60939439  0.76299998  0.32709315  1
  S2-  S183  1  0.60730891  0.78266139  0.85358040  1
  S2-  S184  1  0.90654844  -0.02484757  0.34164147  1
  S2-  S185  1  0.86546817  0.05141309  0.77948541  1
  S2-  S186  1  0.87689232  0.29809894  0.35100945  1
  S2-  S187  1  0.86068830  0.20722915  0.85728724  1
  S2-  S188  1  0.81696880  0.50531316  0.30809405  1
  S2-  S189  1  0.85804902  0.64234324  0.86589383  1
  S2-  S190  1  0.87376355  0.72411083  0.33500061  1
  S2-  S191  1  0.86000520  0.86116705  0.85327631  1
  S2-  S192  1  -0.00381456  0.09196807  0.45296239  1
  S2-  S193  1  -0.01764101  0.13116331  0.96112353  1
  S2-  S194  1  -0.00488723  0.34354270  0.46174832  1
  S2-  S195  1  -0.01829021  0.38461270  0.95445905  1
  S2-  S196  1  -0.00710448  0.58924558  0.45649030  1
  S2-  S197  1  -0.01010023  0.63332474  0.96103389  1
  S2-  S198  1  -0.00224342  0.84062142  0.44979856  1
  S2-  S199  1  -0.00868224  0.88361525  0.95586644  1
  S2-  S200  1  0.24939268  0.09481703  0.46256340  1
  S2-  S201  1  0.23402881  0.13423594  0.95672783  1
  S2-  S202  1  0.24192619  0.34311868  0.47075911  1
  S2-  S203  1  0.23050800  0.38357501  0.95401629  1
  S2-  S204  1  0.24238126  0.58688522  0.45660939  1
  S2-  S205  1  0.23326155  0.63108004  0.95203312  1
  S2-  S206  1  0.24874610  0.83874476  0.44564015  1
  S2-  S207  1  0.23562576  0.88261398  0.95105769  1
  S2-  S208  1  0.49275443  0.09504222  0.45561952  1
  S2-  S209  1  0.48520539  0.13909877  0.95833394  1
  S2-  S210  1  0.49909467  0.34091659  0.46472008  1
  S2-  S211  1  0.48590827  0.38688642  0.95114644  1
  S2-  S212  1  0.49840441  0.58874590  0.45813243  1
  S2-  S213  1  0.48225745  0.62576358  0.94211339  1
  S2-  S214  1  0.49590890  0.84238287  0.44275619  1
  S2-  S215  1  0.48093071  0.87786524  0.96124801  1
  S2-  S216  1  0.75220285  0.09500693  0.44826875  1
  S2-  S217  1  0.73767198  0.13414729  0.96080775  1
  S2-  S218  1  0.75600673  0.34508250  0.45221015  1
  S2-  S219  1  0.73777309  0.38687046  0.95900628  1
  S2-  S220  1  0.75802229  0.58109689  0.44690867  1
  S2-  S221  1  0.73231091  0.63305430  0.96814583  1
  S2-  S222  1  0.74420267  0.84150540  0.43316307  1
  S2-  S223  1  0.72757254  0.87745810  0.96286144  1
  S2-  S224  1  0.12005391  0.00854551  0.04110737  1
  S2-  S225  1  0.12376845  -0.03696811  0.55383531  1
  S2-  S226  1  0.10387836  0.25449861  0.05081226  1
  S2-  S227  1  0.11734908  0.21240631  0.55057094  1
  S2-  S228  1  0.10623811  0.50941955  0.04709884  1
  S2-  S229  1  0.12104390  0.47211429  0.54805381  1
  S2-  S230  1  0.11928656  0.75912117  0.04661425  1
  S2-  S231  1  0.12487941  0.72114373  0.55071186  1
  S2-  S232  1  0.36096928  0.01013404  0.03814487  1
  S2-  S233  1  0.37637347  -0.03367458  0.54269796  1
  S2-  S234  1  0.36009165  0.26096098  0.04440782  1
  S2-  S235  1  0.37383848  0.21748849  0.54858207  1
  S2-  S236  1  0.35851127  0.50730033  0.04572248  1
  S2-  S237  1  0.37168648  0.46477393  0.54890750  1
  S2-  S238  1  0.36440939  0.74984894  0.04031555  1
  S2-  S239  1  0.37058771  0.71495703  0.53485662  1
  S2-  S240  1  0.60799659  0.00824569  0.04329356  1
  S2-  S241  1  0.62616569  -0.03119503  0.53202815  1
  S2-  S242  1  0.61362443  0.27058709  0.05005155  1
  S2-  S243  1  0.62739550  0.21630905  0.53681752  1
  S2-  S244  1  0.60399470  0.51579129  0.04927745  1
  S2-  S245  1  0.62789707  0.46822211  0.53949371  1
  S2-  S246  1  0.59820256  0.74915210  0.05770023  1
  S2-  S247  1  0.62750480  0.71719465  0.53308846  1
  S2-  S248  1  0.85400100  0.00302840  0.05318447  1
  S2-  S249  1  0.86489698  -0.03872238  0.54376247  1
  S2-  S250  1  0.85816243  0.26606471  0.05252268  1
  S2-  S251  1  0.87219100  0.21494710  0.54257873  1
  S2-  S252  1  0.86137990  0.50855019  0.04349977  1
  S2-  S253  1  0.87198703  0.47094982  0.55631218  1
  S2-  S254  1  0.85985758  0.76168483  0.04391355  1
  S2-  S255  1  0.86882308  0.72192093  0.54086881  1
