# generated using pymatgen
data_La6Ce6Pr19Nd20Sm13(BiS2)64
_symmetry_space_group_name_H-M   'P 1'
_cell_length_a   16.14511155
_cell_length_b   16.17278415
_cell_length_c   27.28750363
_cell_angle_alpha   89.88633197
_cell_angle_beta   90.27680998
_cell_angle_gamma   89.93365303
_symmetry_Int_Tables_number   1
_chemical_formula_structural   La6Ce6Pr19Nd20Sm13(BiS2)64
_chemical_formula_sum   'La6 Ce6 Pr19 Nd20 Sm13 Bi64 S128'
_cell_volume   7124.97636283
_cell_formula_units_Z   1
loop_
 _symmetry_equiv_pos_site_id
 _symmetry_equiv_pos_as_xyz
  1  'x, y, z'
loop_
 _atom_type_symbol
 _atom_type_oxidation_number
  La3+  3.0
  Ce3+  3.0
  Pr3+  3.0
  Nd3+  3.0
  Sm3+  3.0
  Bi2+  2.0
  S2-  -2.0
loop_
 _atom_site_type_symbol
 _atom_site_label
 _atom_site_symmetry_multiplicity
 _atom_site_fract_x
 _atom_site_fract_y
 _atom_site_fract_z
 _atom_site_occupancy
  La3+  La0  1  0.86908244  0.49371950  0.42740979  1
  La3+  La1  1  0.37131445  0.50562850  0.91500325  1
  La3+  La2  1  0.37234102  0.75184913  0.93381278  1
  La3+  La3  1  0.26275046  0.62158846  0.08676660  1
  La3+  La4  1  0.26695179  0.12445819  0.07351459  1
  La3+  La5  1  0.76428910  0.62282492  0.58970026  1
  Ce3+  Ce6  1  -0.00010790  0.37224532  0.56287108  1
  Ce3+  Ce7  1  0.63634399  0.50984363  0.91632013  1
  Ce3+  Ce8  1  0.50318133  0.12186304  0.55832797  1
  Ce3+  Ce9  1  0.50249654  0.86868684  0.55039982  1
  Ce3+  Ce10  1  0.87497838  0.24964121  0.93858944  1
  Ce3+  Ce11  1  0.25672298  0.37092841  0.56043752  1
  Pr3+  Pr12  1  0.39233980  0.73121256  0.41286596  1
  Pr3+  Pr13  1  0.63445894  0.75292789  0.92345447  1
  Pr3+  Pr14  1  0.13359239  0.73912615  0.42525540  1
  Pr3+  Pr15  1  0.00393036  0.37675949  0.06452900  1
  Pr3+  Pr16  1  0.12707697  0.50252618  0.94614831  1
  Pr3+  Pr17  1  0.63306983  0.25963093  0.91127919  1
  Pr3+  Pr18  1  0.25852615  0.37857404  0.06552010  1
  Pr3+  Pr19  1  0.00457276  0.62223103  0.55485866  1
  Pr3+  Pr20  1  0.62670940  0.00057057  0.92928184  1
  Pr3+  Pr21  1  0.75363718  0.87216859  0.56548727  1
  Pr3+  Pr22  1  0.36743102  -0.00019368  0.92814844  1
  Pr3+  Pr23  1  0.87855326  -0.00256859  0.43722746  1
  Pr3+  Pr24  1  -0.00306799  0.63487943  0.09965565  1
  Pr3+  Pr25  1  0.63169189  0.74355985  0.44368409  1
  Pr3+  Pr26  1  0.51640410  0.35762383  0.60094391  1
  Pr3+  Pr27  1  0.75006921  0.12759208  0.06341940  1
  Pr3+  Pr28  1  0.74986542  0.37192476  0.06102763  1
  Pr3+  Pr29  1  0.25877672  0.62177057  0.56141265  1
  Pr3+  Pr30  1  0.37931794  0.24982193  0.44082376  1
  Nd3+  Nd31  1  0.75166752  0.12030500  0.56065475  1
  Nd3+  Nd32  1  0.62979363  -0.00294422  0.43749046  1
  Nd3+  Nd33  1  0.87744850  0.50145047  0.94106219  1
  Nd3+  Nd34  1  0.00677593  0.87128772  0.54825894  1
  Nd3+  Nd35  1  0.50457532  0.37740177  0.04175896  1
  Nd3+  Nd36  1  0.50564782  0.87367644  0.05601783  1
  Nd3+  Nd37  1  0.12487650  0.49484579  0.43895639  1
  Nd3+  Nd38  1  0.26296532  0.87538142  0.07143699  1
  Nd3+  Nd39  1  0.75093368  0.61942661  0.06705862  1
  Nd3+  Nd40  1  0.87698544  0.74544428  0.43716731  1
  Nd3+  Nd41  1  0.75275011  0.87337683  0.05852487  1
  Nd3+  Nd42  1  0.13151695  -0.00335320  0.43785208  1
  Nd3+  Nd43  1  0.62882696  0.24916549  0.44241953  1
  Nd3+  Nd44  1  0.50325284  0.62255425  0.05207446  1
  Nd3+  Nd45  1  0.12676532  0.74684882  0.95355501  1
  Nd3+  Nd46  1  0.63333098  0.49462565  0.45582184  1
  Nd3+  Nd47  1  0.00653046  0.87443213  0.06187430  1
  Nd3+  Nd48  1  0.12624113  0.25042898  0.94968681  1
  Nd3+  Nd49  1  0.25838139  0.86810741  0.54795654  1
  Nd3+  Nd50  1  0.37874334  -0.00281941  0.43207828  1
  Sm3+  Sm51  1  0.87809914  0.24533922  0.44563947  1
  Sm3+  Sm52  1  0.38078446  0.49630543  0.44774871  1
  Sm3+  Sm53  1  0.00423752  0.12507581  0.06016145  1
  Sm3+  Sm54  1  0.12656331  0.00023637  0.95110740  1
  Sm3+  Sm55  1  0.76207940  0.37037433  0.57219105  1
  Sm3+  Sm56  1  0.50417464  0.12512517  0.04126045  1
  Sm3+  Sm57  1  0.12879015  0.24789753  0.44822630  1
  Sm3+  Sm58  1  0.37102838  0.25057121  0.93569587  1
  Sm3+  Sm59  1  0.00618074  0.11892000  0.55509963  1
  Sm3+  Sm60  1  0.87709914  0.75096947  0.94164381  1
  Sm3+  Sm61  1  0.87702665  0.00152416  0.94808016  1
  Sm3+  Sm62  1  0.50498534  0.62064994  0.56725283  1
  Sm3+  Sm63  1  0.25584934  0.12212500  0.55625943  1
  Bi2+  Bi64  1  -0.02058129  0.10501638  0.29449004  1
  Bi2+  Bi65  1  0.01185146  0.22688533  0.81655605  1
  Bi2+  Bi66  1  0.00826020  0.34042674  0.29252263  1
  Bi2+  Bi67  1  0.01170149  0.42942893  0.81859946  1
  Bi2+  Bi68  1  0.01002139  0.62456021  0.30233554  1
  Bi2+  Bi69  1  0.01896692  0.68703076  0.79077670  1
  Bi2+  Bi70  1  -0.06718816  0.92171019  0.25043224  1
  Bi2+  Bi71  1  0.01782694  0.96341793  0.78631622  1
  Bi2+  Bi72  1  0.24330204  0.13948915  0.30971600  1
  Bi2+  Bi73  1  0.28225428  0.08448177  0.80653842  1
  Bi2+  Bi74  1  0.34101659  0.37646064  0.29303286  1
  Bi2+  Bi75  1  0.22189105  0.36353015  0.79361428  1
  Bi2+  Bi76  1  0.25880704  0.63415035  0.29247347  1
  Bi2+  Bi77  1  0.22330264  0.63177302  0.79438322  1
  Bi2+  Bi78  1  0.23404143  0.89800840  0.30124648  1
  Bi2+  Bi79  1  0.26102924  0.89465654  0.77988302  1
  Bi2+  Bi80  1  0.49181141  0.16393353  0.23363990  1
  Bi2+  Bi81  1  0.48086669  0.05984645  0.79397446  1
  Bi2+  Bi82  1  0.53714369  0.36682847  0.29679746  1
  Bi2+  Bi83  1  0.49282767  0.33342457  0.79085654  1
  Bi2+  Bi84  1  0.50326402  0.61250428  0.28603849  1
  Bi2+  Bi85  1  0.48224247  0.62597084  0.77524829  1
  Bi2+  Bi86  1  0.58276258  0.88751568  0.25704550  1
  Bi2+  Bi87  1  0.48691772  0.86103397  0.78238094  1
  Bi2+  Bi88  1  0.69263479  0.10602681  0.28372685  1
  Bi2+  Bi89  1  0.85259157  0.12092764  0.78567652  1
  Bi2+  Bi90  1  0.73399671  0.37683993  0.29456596  1
  Bi2+  Bi91  1  0.83007796  0.37762067  0.79312469  1
  Bi2+  Bi92  1  0.70593170  0.64526977  0.30647354  1
  Bi2+  Bi93  1  0.74748573  0.63925362  0.78820538  1
  Bi2+  Bi94  1  0.75772948  0.90884788  0.30649083  1
  Bi2+  Bi95  1  0.75058003  0.89509876  0.78902992  1
  Bi2+  Bi96  1  0.07319976  0.03780964  0.20316387  1
  Bi2+  Bi97  1  0.12354209  0.08513001  0.71893815  1
  Bi2+  Bi98  1  0.17179771  0.26874982  0.23152932  1
  Bi2+  Bi99  1  0.13278996  0.27900027  0.70861999  1
  Bi2+  Bi100  1  0.11064791  0.44493086  0.21236131  1
  Bi2+  Bi101  1  0.08735802  0.52885497  0.73058824  1
  Bi2+  Bi102  1  0.10807960  0.78858834  0.21799452  1
  Bi2+  Bi103  1  0.10873298  0.81985438  0.72182979  1
  Bi2+  Bi104  1  0.37562298  0.02080799  0.20759529  1
  Bi2+  Bi105  1  0.39409409  -0.02112855  0.69994037  1
  Bi2+  Bi106  1  0.35265278  0.28731370  0.18986249  1
  Bi2+  Bi107  1  0.37265208  0.17272218  0.71889699  1
  Bi2+  Bi108  1  0.39284717  0.49879728  0.20607108  1
  Bi2+  Bi109  1  0.34538340  0.49679775  0.69797837  1
  Bi2+  Bi110  1  0.36515828  0.76811179  0.20119750  1
  Bi2+  Bi111  1  0.34397804  0.73973657  0.68435815  1
  Bi2+  Bi112  1  0.68255500  0.00235566  0.18432824  1
  Bi2+  Bi113  1  0.68132830  -0.00047779  0.68951472  1
  Bi2+  Bi114  1  0.61330521  0.29886445  0.19487596  1
  Bi2+  Bi115  1  0.64021415  0.20722646  0.71494754  1
  Bi2+  Bi116  1  0.62760582  0.51632830  0.21733567  1
  Bi2+  Bi117  1  0.65128018  0.44762280  0.73866978  1
  Bi2+  Bi118  1  0.61994181  0.71974810  0.20256791  1
  Bi2+  Bi119  1  0.62503778  0.81597558  0.70769688  1
  Bi2+  Bi120  1  0.86602275  0.07035817  0.18084475  1
  Bi2+  Bi121  1  0.87381838  -0.02972564  0.70407996  1
  Bi2+  Bi122  1  0.85599701  0.24091423  0.24976252  1
  Bi2+  Bi123  1  0.94060879  0.24407297  0.70691913  1
  Bi2+  Bi124  1  0.86332322  0.50319522  0.20511953  1
  Bi2+  Bi125  1  0.89182424  0.50466087  0.71307476  1
  Bi2+  Bi126  1  0.81532340  0.74948716  0.23302759  1
  Bi2+  Bi127  1  0.89727675  0.75816291  0.70991749  1
  S2-  S128  1  0.00542684  0.17130713  0.15383260  1
  S2-  S129  1  -0.00484166  0.10148217  0.65186899  1
  S2-  S130  1  -0.04629028  0.39414259  0.16041695  1
  S2-  S131  1  -0.10595290  0.37844518  0.64048699  1
  S2-  S132  1  0.03053263  0.58775704  0.19923347  1
  S2-  S133  1  -0.07793912  0.62362724  0.64272205  1
  S2-  S134  1  -0.00434653  0.79506749  0.14866100  1
  S2-  S135  1  -0.00760250  0.86122186  0.64595751  1
  S2-  S136  1  0.23745699  0.08139842  0.17006810  1
  S2-  S137  1  0.26710510  0.08650159  0.65149380  1
  S2-  S138  1  0.25013570  0.47478280  0.14852302  1
  S2-  S139  1  0.27348679  0.36354245  0.65800240  1
  S2-  S140  1  0.22724697  0.67071931  0.18866112  1
  S2-  S141  1  0.22915087  0.62001996  0.66026740  1
  S2-  S142  1  0.22726285  0.86700828  0.17047508  1
  S2-  S143  1  0.23464922  0.84016502  0.64488108  1
  S2-  S144  1  0.44571087  0.11552442  0.13271638  1
  S2-  S145  1  0.50335362  0.19763644  0.64776152  1
  S2-  S146  1  0.48003885  0.38495262  0.14162188  1
  S2-  S147  1  0.48200197  0.41341447  0.69480669  1
  S2-  S148  1  0.42131649  0.63664981  0.14166397  1
  S2-  S149  1  0.46916354  0.61687925  0.66468993  1
  S2-  S150  1  0.42637132  0.88627250  0.14456232  1
  S2-  S151  1  0.47528902  0.84306532  0.64536004  1
  S2-  S152  1  0.73490288  0.24924343  0.13575001  1
  S2-  S153  1  0.75627110  0.16066477  0.65706039  1
  S2-  S154  1  0.72972426  0.48486535  0.13809143  1
  S2-  S155  1  0.66975678  0.35112236  0.65582987  1
  S2-  S156  1  0.84594963  0.64277213  0.15180108  1
  S2-  S157  1  0.71418319  0.56765575  0.68816679  1
  S2-  S158  1  0.73450970  0.83687633  0.15472767  1
  S2-  S159  1  0.75961841  0.77082244  0.64722973  1
  S2-  S160  1  0.11888458  0.01569312  0.34006304  1
  S2-  S161  1  0.15057684  -0.01035580  0.85446816  1
  S2-  S162  1  0.13195162  0.26101314  0.35129115  1
  S2-  S163  1  0.17061674  0.23176777  0.85442399  1
  S2-  S164  1  0.15404853  0.55714599  0.34708322  1
  S2-  S165  1  0.21824136  0.49572588  0.85936270  1
  S2-  S166  1  0.10751665  0.77161247  0.32661802  1
  S2-  S167  1  0.14653723  0.74580655  0.85362109  1
  S2-  S168  1  0.34976325  0.00259636  0.33321890  1
  S2-  S169  1  0.36561538  -0.12627241  0.85838411  1
  S2-  S170  1  0.37290344  0.22041376  0.34218878  1
  S2-  S171  1  0.36222952  0.29748396  0.84147853  1
  S2-  S172  1  0.37892916  0.57792781  0.36079035  1
  S2-  S173  1  0.44600585  0.49017719  0.81953471  1
  S2-  S174  1  0.34507921  0.78468165  0.31709608  1
  S2-  S175  1  0.36581389  0.65690062  0.84731531  1
  S2-  S176  1  0.59301701  -0.00846655  0.34070479  1
  S2-  S177  1  0.62030393  -0.11370775  0.85326700  1
  S2-  S178  1  0.62971838  0.23641446  0.34320934  1
  S2-  S179  1  0.59139815  0.18540504  0.81800024  1
  S2-  S180  1  0.71845706  0.50029574  0.36735735  1
  S2-  S181  1  0.62969297  0.39376278  0.84209402  1
  S2-  S182  1  0.55125049  0.72618137  0.35590438  1
  S2-  S183  1  0.61145804  0.64053099  0.84406455  1
  S2-  S184  1  0.83635384  0.05579412  0.34613544  1
  S2-  S185  1  0.87282137  -0.01185420  0.85079124  1
  S2-  S186  1  0.86154964  0.29659494  0.35357896  1
  S2-  S187  1  0.78784113  0.24252400  0.85418495  1
  S2-  S188  1  0.95673033  0.49031118  0.33996380  1
  S2-  S189  1  0.79457875  0.52636180  0.85288197  1
  S2-  S190  1  0.86872665  0.69676115  0.34208346  1
  S2-  S191  1  0.79994660  0.75848163  0.85313456  1
  S2-  S192  1  0.00533197  0.12355164  0.45025651  1
  S2-  S193  1  0.00217139  0.12286710  0.95483279  1
  S2-  S194  1  0.00277846  0.36881957  0.45634684  1
  S2-  S195  1  0.00162343  0.37431864  0.95709291  1
  S2-  S196  1  0.00289975  0.62228787  0.44911682  1
  S2-  S197  1  -0.00102099  0.62730946  0.94420428  1
  S2-  S198  1  0.00523229  0.87070410  0.44172327  1
  S2-  S199  1  0.00116840  0.87639698  0.95475286  1
  S2-  S200  1  0.25284237  0.12367822  0.45217005  1
  S2-  S201  1  0.24998170  0.12458075  0.96176311  1
  S2-  S202  1  0.25304325  0.37428375  0.45274705  1
  S2-  S203  1  0.25113444  0.37251153  0.95930509  1
  S2-  S204  1  0.25556805  0.61864253  0.45593910  1
  S2-  S205  1  0.24970695  0.62623588  0.96333665  1
  S2-  S206  1  0.25673283  0.86806316  0.44175638  1
  S2-  S207  1  0.24496370  0.87689242  0.96349365  1
  S2-  S208  1  0.50395293  0.12125278  0.45049218  1
  S2-  S209  1  0.49634959  0.12477606  0.93823916  1
  S2-  S210  1  0.50489466  0.37529911  0.44693865  1
  S2-  S211  1  0.49509562  0.37423396  0.93900016  1
  S2-  S212  1  0.50792826  0.61463875  0.46238417  1
  S2-  S213  1  0.50298580  0.62821879  0.94846999  1
  S2-  S214  1  0.50181393  0.87224788  0.44506703  1
  S2-  S215  1  0.50340244  0.87725607  0.95286919  1
  S2-  S216  1  0.75238722  0.12363953  0.45451877  1
  S2-  S217  1  0.75123747  0.12063863  0.95420836  1
  S2-  S218  1  0.75468161  0.36527171  0.46638758  1
  S2-  S219  1  0.75402199  0.37735944  0.95419506  1
  S2-  S220  1  0.75579298  0.62474745  0.46430381  1
  S2-  S221  1  0.75611368  0.62964285  0.95985871  1
  S2-  S222  1  0.75404388  0.87222374  0.45459192  1
  S2-  S223  1  0.75539112  0.87878616  0.95478260  1
  S2-  S224  1  0.12995722  0.00091283  0.05584216  1
  S2-  S225  1  0.13263163  -0.00329838  0.54468442  1
  S2-  S226  1  0.13270478  0.24938995  0.05665386  1
  S2-  S227  1  0.12875606  0.24416141  0.55323364  1
  S2-  S228  1  0.12046199  0.50863780  0.05342881  1
  S2-  S229  1  0.12930234  0.49555648  0.54794188  1
  S2-  S230  1  0.13233913  0.74771689  0.05833205  1
  S2-  S231  1  0.13044557  0.74586063  0.53674081  1
  S2-  S232  1  0.38034076  -0.00114883  0.03552391  1
  S2-  S233  1  0.37783219  -0.00250085  0.53990031  1
  S2-  S234  1  0.38041089  0.25131056  0.03990336  1
  S2-  S235  1  0.37950724  0.24752309  0.54763770  1
  S2-  S236  1  0.37897337  0.50020552  0.03735428  1
  S2-  S237  1  0.38652218  0.49201401  0.55280825  1
  S2-  S238  1  0.37874584  0.75225717  0.04272844  1
  S2-  S239  1  0.38229104  0.74202167  0.53754853  1
  S2-  S240  1  0.62724479  0.00100579  0.03997642  1
  S2-  S241  1  0.62729270  -0.00470809  0.54501304  1
  S2-  S242  1  0.62292673  0.24770579  0.02996178  1
  S2-  S243  1  0.62888249  0.24718054  0.54740980  1
  S2-  S244  1  0.62519552  0.50100048  0.03230516  1
  S2-  S245  1  0.62948290  0.49640373  0.56111559  1
  S2-  S246  1  0.62871380  0.74902372  0.04345884  1
  S2-  S247  1  0.62776834  0.74265620  0.55039899  1
  S2-  S248  1  0.87911194  -0.00015807  0.05206494  1
  S2-  S249  1  0.87947162  -0.00313465  0.54491537  1
  S2-  S250  1  0.88178005  0.24829871  0.04436212  1
  S2-  S251  1  0.88104748  0.23901185  0.54860330  1
  S2-  S252  1  0.88419918  0.50519498  0.04600889  1
  S2-  S253  1  0.87816938  0.49814393  0.54013333  1
  S2-  S254  1  0.87849902  0.75093889  0.04516117  1
  S2-  S255  1  0.88096607  0.75113854  0.54196973  1
