# generated using pymatgen
data_La6Ce6Pr19Nd20Sm13(BiS2)64
_symmetry_space_group_name_H-M   'P 1'
_cell_length_a   16.14781987
_cell_length_b   16.14039193
_cell_length_c   27.21040781
_cell_angle_alpha   89.89447691
_cell_angle_beta   90.05695651
_cell_angle_gamma   89.97797198
_symmetry_Int_Tables_number   1
_chemical_formula_structural   La6Ce6Pr19Nd20Sm13(BiS2)64
_chemical_formula_sum   'La6 Ce6 Pr19 Nd20 Sm13 Bi64 S128'
_cell_volume   7091.89079769
_cell_formula_units_Z   1
loop_
 _symmetry_equiv_pos_site_id
 _symmetry_equiv_pos_as_xyz
  1  'x, y, z'
loop_
 _atom_type_symbol
 _atom_type_oxidation_number
  La3+  3.0
  Ce3+  3.0
  Pr3+  3.0
  Nd3+  3.0
  Sm3+  3.0
  Bi2+  2.0
  S2-  -2.0
loop_
 _atom_site_type_symbol
 _atom_site_label
 _atom_site_symmetry_multiplicity
 _atom_site_fract_x
 _atom_site_fract_y
 _atom_site_fract_z
 _atom_site_occupancy
  La3+  La0  1  0.11521755  0.51031897  0.91435001  1
  La3+  La1  1  0.88112513  0.74868722  0.39545642  1
  La3+  La2  1  0.51030147  0.61179591  0.57782516  1
  La3+  La3  1  0.24593967  0.36080601  0.59838377  1
  La3+  La4  1  0.86595963  -0.00813454  0.90552272  1
  La3+  La5  1  0.73300780  0.61664225  0.10913240  1
  Ce3+  Ce6  1  0.12421826  0.49081791  0.45322321  1
  Ce3+  Ce7  1  0.24756073  0.61843300  0.05827235  1
  Ce3+  Ce8  1  0.87622545  0.24406110  0.43857258  1
  Ce3+  Ce9  1  -0.00029914  0.62272846  0.06472700  1
  Ce3+  Ce10  1  0.75347321  0.61603935  0.55299457  1
  Ce3+  Ce11  1  0.61985997  0.25085953  0.93785139  1
  Pr3+  Pr12  1  0.36671454  0.25194071  0.92998469  1
  Pr3+  Pr13  1  0.12057015  -0.00069379  0.94272719  1
  Pr3+  Pr14  1  0.75499707  0.36404043  0.56872168  1
  Pr3+  Pr15  1  0.37257843  0.24419231  0.43976386  1
  Pr3+  Pr16  1  -0.00077937  0.11244889  0.56872759  1
  Pr3+  Pr17  1  0.12268794  0.24195432  0.44278264  1
  Pr3+  Pr18  1  0.62628298  0.24261822  0.43655932  1
  Pr3+  Pr19  1  0.25968587  0.62024429  0.57839452  1
  Pr3+  Pr20  1  0.11091428  0.25301614  0.92079172  1
  Pr3+  Pr21  1  0.12245961  0.74148975  0.44404069  1
  Pr3+  Pr22  1  0.24659945  0.87278896  0.07121797  1
  Pr3+  Pr23  1  0.88420669  0.49073014  0.43094151  1
  Pr3+  Pr24  1  0.62017197  0.72767959  0.42954109  1
  Pr3+  Pr25  1  0.75488305  0.87974566  0.07800484  1
  Pr3+  Pr26  1  0.00155845  0.86604933  0.57273134  1
  Pr3+  Pr27  1  0.74951656  0.12373434  0.06409607  1
  Pr3+  Pr28  1  0.49464805  0.12689176  0.05914493  1
  Pr3+  Pr29  1  0.00308963  0.87876284  0.07477177  1
  Pr3+  Pr30  1  0.36829700  -0.00052568  0.94763918  1
  Nd3+  Nd31  1  0.62734425  0.48488902  0.43698840  1
  Nd3+  Nd32  1  0.87054809  0.50521179  0.94142477  1
  Nd3+  Nd33  1  0.25162591  0.11748655  0.56051943  1
  Nd3+  Nd34  1  0.50173992  0.36436084  0.56912305  1
  Nd3+  Nd35  1  0.37363980  0.73849007  0.44036708  1
  Nd3+  Nd36  1  0.49544782  0.37341412  0.05415962  1
  Nd3+  Nd37  1  0.62834733  -0.01482791  0.43584681  1
  Nd3+  Nd38  1  0.75069511  0.11260873  0.55993179  1
  Nd3+  Nd39  1  0.62431640  0.75084207  0.94699304  1
  Nd3+  Nd40  1  0.87546557  -0.00924339  0.44004404  1
  Nd3+  Nd41  1  0.62231149  -0.00075116  0.94123266  1
  Nd3+  Nd42  1  -0.00139126  0.36202522  0.57647606  1
  Nd3+  Nd43  1  0.86894694  0.24991849  0.93825290  1
  Nd3+  Nd44  1  0.37382239  0.49048174  0.45129292  1
  Nd3+  Nd45  1  0.50109545  0.86599011  0.55206786  1
  Nd3+  Nd46  1  0.49878764  0.87205270  0.05761184  1
  Nd3+  Nd47  1  -0.00224582  0.37779822  0.05938268  1
  Nd3+  Nd48  1  0.50077760  0.11770935  0.55338713  1
  Nd3+  Nd49  1  0.25298740  0.86693014  0.55686264  1
  Nd3+  Nd50  1  0.11885894  0.75119660  0.94326931  1
  Sm3+  Sm51  1  0.49580534  0.61886646  0.06336989  1
  Sm3+  Sm52  1  0.24455052  0.37772675  0.04331026  1
  Sm3+  Sm53  1  0.24338501  0.13242346  0.05695825  1
  Sm3+  Sm54  1  0.86814192  0.75517825  0.95556894  1
  Sm3+  Sm55  1  0.37092077  0.74848774  0.94538959  1
  Sm3+  Sm56  1  0.75100386  0.86355138  0.55528857  1
  Sm3+  Sm57  1  0.00087706  0.61516476  0.56171773  1
  Sm3+  Sm58  1  0.37501705  -0.00779722  0.43750220  1
  Sm3+  Sm59  1  0.37707505  0.50965311  0.92185322  1
  Sm3+  Sm60  1  0.74709059  0.37808641  0.05202172  1
  Sm3+  Sm61  1  0.12215910  -0.01090413  0.44472245  1
  Sm3+  Sm62  1  -0.00317061  0.12669707  0.05341772  1
  Sm3+  Sm63  1  0.62134705  0.50386255  0.94033677  1
  Bi2+  Bi64  1  0.00034377  0.15906587  0.29099599  1
  Bi2+  Bi65  1  0.04207196  0.11991137  0.79889517  1
  Bi2+  Bi66  1  0.01667554  0.35416303  0.29784990  1
  Bi2+  Bi67  1  -0.01270496  0.38070487  0.78842964  1
  Bi2+  Bi68  1  0.01793617  0.60726936  0.29345485  1
  Bi2+  Bi69  1  -0.02731599  0.65113985  0.79517470  1
  Bi2+  Bi70  1  0.03037260  0.89242196  0.29083023  1
  Bi2+  Bi71  1  -0.01234291  0.86070461  0.78761584  1
  Bi2+  Bi72  1  0.29810618  0.12678833  0.26497285  1
  Bi2+  Bi73  1  0.25903798  0.09395230  0.73023866  1
  Bi2+  Bi74  1  0.26810122  0.35279387  0.29445795  1
  Bi2+  Bi75  1  0.29126608  0.33838428  0.79484517  1
  Bi2+  Bi76  1  0.26387458  0.66297608  0.29777155  1
  Bi2+  Bi77  1  0.23831571  0.71914662  0.78671236  1
  Bi2+  Bi78  1  0.24408584  0.86137268  0.29023064  1
  Bi2+  Bi79  1  0.24174992  0.90480978  0.80109018  1
  Bi2+  Bi80  1  0.53458025  0.15711495  0.29069693  1
  Bi2+  Bi81  1  0.47827764  0.10348244  0.75677466  1
  Bi2+  Bi82  1  0.47696875  0.37783083  0.29376706  1
  Bi2+  Bi83  1  0.55386212  0.35227309  0.80061285  1
  Bi2+  Bi84  1  0.43924489  0.63581526  0.22706829  1
  Bi2+  Bi85  1  0.52041682  0.65868382  0.79933284  1
  Bi2+  Bi86  1  0.44671657  0.86206840  0.28428093  1
  Bi2+  Bi87  1  0.45905377  0.91876920  0.79415444  1
  Bi2+  Bi88  1  0.81069931  0.16020559  0.31363665  1
  Bi2+  Bi89  1  0.66446456  0.11103580  0.77741785  1
  Bi2+  Bi90  1  0.74919755  0.35048542  0.29128577  1
  Bi2+  Bi91  1  0.76568109  0.40188622  0.78739637  1
  Bi2+  Bi92  1  0.71460286  0.64073654  0.30329941  1
  Bi2+  Bi93  1  0.77613853  0.60167461  0.79893251  1
  Bi2+  Bi94  1  0.74057813  0.90986442  0.29761592  1
  Bi2+  Bi95  1  0.73871778  0.85946736  0.79517827  1
  Bi2+  Bi96  1  0.14284436  0.03487195  0.21706074  1
  Bi2+  Bi97  1  0.13640909  -0.05475581  0.70125114  1
  Bi2+  Bi98  1  0.12875516  0.25187905  0.18605833  1
  Bi2+  Bi99  1  0.11549884  0.23596120  0.71781982  1
  Bi2+  Bi100  1  0.17406435  0.50576200  0.24739691  1
  Bi2+  Bi101  1  0.11312361  0.50295467  0.72764883  1
  Bi2+  Bi102  1  0.12557511  0.76270690  0.21605565  1
  Bi2+  Bi103  1  0.06271191  0.75607122  0.70310120  1
  Bi2+  Bi104  1  0.43919782  0.02399170  0.21367296  1
  Bi2+  Bi105  1  0.36310159  -0.04316832  0.67739315  1
  Bi2+  Bi106  1  0.38416559  0.29116217  0.20495607  1
  Bi2+  Bi107  1  0.47949239  0.28253316  0.69987776  1
  Bi2+  Bi108  1  0.32839752  0.50315437  0.17637235  1
  Bi2+  Bi109  1  0.37578084  0.52450481  0.72022687  1
  Bi2+  Bi110  1  0.31588840  0.77445032  0.18994360  1
  Bi2+  Bi111  1  0.40122961  0.77654824  0.72021892  1
  Bi2+  Bi112  1  0.63567161  0.02347555  0.22366264  1
  Bi2+  Bi113  1  0.61991980  -0.05190555  0.71649897  1
  Bi2+  Bi114  1  0.65144279  0.22115954  0.20397252  1
  Bi2+  Bi115  1  0.67491969  0.30034301  0.69096555  1
  Bi2+  Bi116  1  0.61393535  0.41497459  0.21622344  1
  Bi2+  Bi117  1  0.64359002  0.49532548  0.70660838  1
  Bi2+  Bi118  1  0.58404175  0.77324986  0.21372345  1
  Bi2+  Bi119  1  0.66327884  0.71557866  0.72537755  1
  Bi2+  Bi120  1  0.88436399  0.04460151  0.20920582  1
  Bi2+  Bi121  1  0.85592959  0.01801665  0.70447467  1
  Bi2+  Bi122  1  0.85318328  0.24261075  0.21006414  1
  Bi2+  Bi123  1  0.86464779  0.26082023  0.71955330  1
  Bi2+  Bi124  1  0.88522032  0.47261824  0.20145725  1
  Bi2+  Bi125  1  0.85799512  0.52645708  0.70452645  1
  Bi2+  Bi126  1  0.88438572  0.74334747  0.19985806  1
  Bi2+  Bi127  1  0.86206475  0.75947997  0.71593286  1
  S2-  S128  1  0.02100882  0.11958470  0.15154825  1
  S2-  S129  1  -0.00913674  0.20034084  0.65754467  1
  S2-  S130  1  0.01482061  0.36517082  0.15911708  1
  S2-  S131  1  0.10353926  0.37742574  0.65920654  1
  S2-  S132  1  -0.03220391  0.59866731  0.16060727  1
  S2-  S133  1  0.00123349  0.58104974  0.65904517  1
  S2-  S134  1  -0.08430349  0.89564032  0.16242120  1
  S2-  S135  1  -0.01060881  0.98833443  0.64679651  1
  S2-  S136  1  0.24858597  0.11534825  0.15514645  1
  S2-  S137  1  0.24990456  0.19614293  0.64873939  1
  S2-  S138  1  0.24198897  0.34021767  0.14060262  1
  S2-  S139  1  0.32365859  0.37615173  0.69255399  1
  S2-  S140  1  0.18504161  0.58133519  0.14643963  1
  S2-  S141  1  0.22778950  0.56390321  0.67339941  1
  S2-  S142  1  0.13401841  0.89590776  0.14767440  1
  S2-  S143  1  0.25383082  0.82890670  0.65352350  1
  S2-  S144  1  0.49010883  0.19405778  0.15104813  1
  S2-  S145  1  0.50453292  0.13658345  0.65163381  1
  S2-  S146  1  0.48406118  0.42800343  0.14727323  1
  S2-  S147  1  0.50740151  0.46878383  0.65082353  1
  S2-  S148  1  0.56942086  0.63063013  0.15210968  1
  S2-  S149  1  0.39799279  0.64805680  0.65184048  1
  S2-  S150  1  0.51258372  0.89547950  0.15489929  1
  S2-  S151  1  0.51682400  0.85769499  0.65093218  1
  S2-  S152  1  0.74663696  0.01856829  0.14586862  1
  S2-  S153  1  0.76579223  0.14336364  0.65761614  1
  S2-  S154  1  0.74454651  0.43846859  0.14310997  1
  S2-  S155  1  0.87106844  0.38009423  0.64536454  1
  S2-  S156  1  0.78002973  0.59694442  0.21001296  1
  S2-  S157  1  0.66198977  0.63024295  0.63735450  1
  S2-  S158  1  0.72718719  0.77955946  0.15985915  1
  S2-  S159  1  0.75799402  0.92419755  0.64894036  1
  S2-  S160  1  0.11195786  -0.00506955  0.34654482  1
  S2-  S161  1  0.08645344  -0.02891666  0.84613270  1
  S2-  S162  1  0.13475679  0.25147555  0.34123706  1
  S2-  S163  1  0.19116157  0.20906054  0.83464315  1
  S2-  S164  1  0.06072448  0.48622561  0.36185192  1
  S2-  S165  1  0.14821068  0.42802461  0.82361567  1
  S2-  S166  1  0.04466254  0.74416858  0.35296282  1
  S2-  S167  1  0.12262062  0.66528680  0.85551284  1
  S2-  S168  1  0.35723527  -0.03036182  0.34135450  1
  S2-  S169  1  0.34625743  0.01540979  0.84941531  1
  S2-  S170  1  0.38466845  0.19327671  0.34320485  1
  S2-  S171  1  0.42795471  0.25435956  0.83584516  1
  S2-  S172  1  0.36278017  0.46130750  0.35125353  1
  S2-  S173  1  0.35762379  0.47812894  0.82406263  1
  S2-  S174  1  0.40945536  0.71950532  0.34426776  1
  S2-  S175  1  0.37442165  0.68872582  0.85374393  1
  S2-  S176  1  0.62232378  0.02180859  0.33883408  1
  S2-  S177  1  0.70778783  -0.00232089  0.85551859  1
  S2-  S178  1  0.61773966  0.35957068  0.36149622  1
  S2-  S179  1  0.67215101  0.23953933  0.84476416  1
  S2-  S180  1  0.59921783  0.59068877  0.35947191  1
  S2-  S181  1  0.56920069  0.51366838  0.84675770  1
  S2-  S182  1  0.64563848  0.79475862  0.33597048  1
  S2-  S183  1  0.61350047  0.77253131  0.84818721  1
  S2-  S184  1  0.89192142  -0.08154996  0.35147846  1
  S2-  S185  1  0.89442282  0.05797376  0.80654381  1
  S2-  S186  1  0.88327703  0.35618175  0.36235919  1
  S2-  S187  1  0.96893410  0.25342569  0.85585181  1
  S2-  S188  1  0.87023981  0.59141877  0.34540786  1
  S2-  S189  1  0.96093652  0.50788598  0.85627195  1
  S2-  S190  1  0.83674501  0.76849359  0.29024146  1
  S2-  S191  1  0.87229537  0.82947298  0.86567451  1
  S2-  S192  1  0.00003177  0.11345994  0.45503014  1
  S2-  S193  1  -0.01163604  0.11790060  0.94906811  1
  S2-  S194  1  0.00236286  0.36363848  0.46740328  1
  S2-  S195  1  -0.00672282  0.37804794  0.95407016  1
  S2-  S196  1  -0.00171913  0.62121328  0.45864520  1
  S2-  S197  1  -0.00923073  0.63272392  0.95871627  1
  S2-  S198  1  -0.00005449  0.86712881  0.46320358  1
  S2-  S199  1  -0.00315689  0.87469881  0.96285321  1
  S2-  S200  1  0.24867388  0.11248297  0.45204870  1
  S2-  S201  1  0.24371374  0.12692800  0.95229479  1
  S2-  S202  1  0.24763335  0.36600087  0.45522225  1
  S2-  S203  1  0.24700764  0.38196536  0.93982206  1
  S2-  S204  1  0.24950801  0.61696941  0.45996226  1
  S2-  S205  1  0.24996079  0.62346983  0.95238279  1
  S2-  S206  1  0.25042563  0.86794993  0.45019373  1
  S2-  S207  1  0.24676481  0.87100090  0.95998107  1
  S2-  S208  1  0.50156649  0.11381167  0.44774526  1
  S2-  S209  1  0.49550747  0.12461831  0.95053779  1
  S2-  S210  1  0.49693237  0.36473894  0.46220399  1
  S2-  S211  1  0.49552723  0.37936539  0.94715508  1
  S2-  S212  1  0.49465020  0.61254453  0.46520561  1
  S2-  S213  1  0.49757216  0.62644124  0.95746863  1
  S2-  S214  1  0.49829064  0.86688355  0.44538294  1
  S2-  S215  1  0.49491211  0.87384262  0.95169891  1
  S2-  S216  1  0.74893808  0.11468126  0.45239193  1
  S2-  S217  1  0.74830123  0.12423703  0.95603049  1
  S2-  S218  1  0.75256261  0.36357802  0.46145738  1
  S2-  S219  1  0.74610768  0.37899391  0.94716812  1
  S2-  S220  1  0.75679127  0.61724428  0.45021562  1
  S2-  S221  1  0.74641037  0.62766045  0.94751132  1
  S2-  S222  1  0.75397657  0.86095941  0.45061779  1
  S2-  S223  1  0.74465019  0.87792802  0.96604675  1
  S2-  S224  1  0.12504805  0.00778778  0.04729160  1
  S2-  S225  1  0.12961183  -0.00894641  0.54949940  1
  S2-  S226  1  0.12035487  0.25170033  0.03495323  1
  S2-  S227  1  0.12477548  0.23910402  0.54903590  1
  S2-  S228  1  0.12065461  0.49812335  0.03543007  1
  S2-  S229  1  0.12829389  0.49369543  0.55589203  1
  S2-  S230  1  0.12468933  0.74689779  0.04965978  1
  S2-  S231  1  0.12667872  0.73992228  0.55213998  1
  S2-  S232  1  0.36858167  0.00048165  0.05459667  1
  S2-  S233  1  0.37648205  -0.00690848  0.54236957  1
  S2-  S234  1  0.36823695  0.25195153  0.03841805  1
  S2-  S235  1  0.37518729  0.24324275  0.54744555  1
  S2-  S236  1  0.37238355  0.49811467  0.03392063  1
  S2-  S237  1  0.36934462  0.48335337  0.55619283  1
  S2-  S238  1  0.37416864  0.74614674  0.05052094  1
  S2-  S239  1  0.37761999  0.74429420  0.54555016  1
  S2-  S240  1  0.61786800  0.00153399  0.04716093  1
  S2-  S241  1  0.62561763  -0.00981966  0.54326600  1
  S2-  S242  1  0.62490965  0.25213070  0.04575456  1
  S2-  S243  1  0.62675112  0.24056722  0.54504791  1
  S2-  S244  1  0.62198560  0.50068269  0.04426940  1
  S2-  S245  1  0.63071515  0.48461564  0.54430401  1
  S2-  S246  1  0.61974550  0.74512999  0.05104792  1
  S2-  S247  1  0.62649206  0.74574596  0.53824270  1
  S2-  S248  1  0.87932174  0.00394746  0.04883350  1
  S2-  S249  1  0.87282026  -0.01162583  0.54427587  1
  S2-  S250  1  0.87172293  0.25240401  0.04612966  1
  S2-  S251  1  0.87455593  0.23554735  0.54518656  1
  S2-  S252  1  0.87004605  0.50172502  0.04634177  1
  S2-  S253  1  0.87806279  0.49431446  0.54276817  1
  S2-  S254  1  0.87131894  0.74633836  0.05861355  1
  S2-  S255  1  0.87648444  0.74216011  0.56281405  1
