# generated using pymatgen
data_La6Ce6Pr19Nd20Sm13(BiS2)64
_symmetry_space_group_name_H-M   'P 1'
_cell_length_a   16.18942562
_cell_length_b   16.20748088
_cell_length_c   27.19811852
_cell_angle_alpha   89.94230550
_cell_angle_beta   90.00036824
_cell_angle_gamma   89.97763205
_symmetry_Int_Tables_number   1
_chemical_formula_structural   La6Ce6Pr19Nd20Sm13(BiS2)64
_chemical_formula_sum   'La6 Ce6 Pr19 Nd20 Sm13 Bi64 S128'
_cell_volume   7136.50488637
_cell_formula_units_Z   1
loop_
 _symmetry_equiv_pos_site_id
 _symmetry_equiv_pos_as_xyz
  1  'x, y, z'
loop_
 _atom_type_symbol
 _atom_type_oxidation_number
  La3+  3.0
  Ce3+  3.0
  Pr3+  3.0
  Nd3+  3.0
  Sm3+  3.0
  Bi2+  2.0
  S2-  -2.0
loop_
 _atom_site_type_symbol
 _atom_site_label
 _atom_site_symmetry_multiplicity
 _atom_site_fract_x
 _atom_site_fract_y
 _atom_site_fract_z
 _atom_site_occupancy
  La3+  La0  1  0.50551047  0.38295595  0.58278096  1
  La3+  La1  1  0.50077042  0.63859680  0.60255234  1
  La3+  La2  1  0.75772156  0.63281097  0.57195893  1
  La3+  La3  1  0.38229227  0.25190886  0.93218417  1
  La3+  La4  1  0.38530858  -0.00239725  0.93345161  1
  La3+  La5  1  0.11914074  0.23514525  0.88542784  1
  Ce3+  Ce6  1  0.00712950  0.87136074  0.05655573  1
  Ce3+  Ce7  1  0.26153852  0.62063330  0.05828879  1
  Ce3+  Ce8  1  0.87567882  0.50738971  0.44194469  1
  Ce3+  Ce9  1  0.75411833  0.37106572  0.06142731  1
  Ce3+  Ce10  1  0.12747739  0.25838380  0.43333919  1
  Ce3+  Ce11  1  0.00461164  0.62872967  0.56593089  1
  Pr3+  Pr12  1  0.62343701  0.00662546  0.44006933  1
  Pr3+  Pr13  1  0.25374319  0.13303634  0.56057190  1
  Pr3+  Pr14  1  0.49977665  0.13058793  0.56435315  1
  Pr3+  Pr15  1  0.25520692  0.38634558  0.55063110  1
  Pr3+  Pr16  1  0.51307095  0.62110253  0.06282064  1
  Pr3+  Pr17  1  0.75178607  0.38157865  0.56614902  1
  Pr3+  Pr18  1  0.01163858  0.37081009  0.06674162  1
  Pr3+  Pr19  1  0.50802266  0.12018076  0.06667279  1
  Pr3+  Pr20  1  0.00571469  0.38201442  0.55561870  1
  Pr3+  Pr21  1  0.25911040  0.12293372  0.05680406  1
  Pr3+  Pr22  1  0.38576126  0.49874471  0.93697197  1
  Pr3+  Pr23  1  0.51353856  0.87353199  0.07338993  1
  Pr3+  Pr24  1  0.38609056  0.74677766  0.94134423  1
  Pr3+  Pr25  1  0.00881875  0.61989984  0.06228420  1
  Pr3+  Pr26  1  0.11641981  0.51407942  0.40423037  1
  Pr3+  Pr27  1  0.00549853  0.87921605  0.55892848  1
  Pr3+  Pr28  1  0.37349099  0.00568777  0.44081830  1
  Pr3+  Pr29  1  0.75134533  0.88140882  0.55596839  1
  Pr3+  Pr30  1  0.38957543  0.51035804  0.41098565  1
  Nd3+  Nd31  1  0.63273297  0.49491337  0.93880126  1
  Nd3+  Nd32  1  0.49931400  0.87736236  0.56029322  1
  Nd3+  Nd33  1  0.75860839  0.12266943  0.06268556  1
  Nd3+  Nd34  1  0.13150869  -0.00294589  0.93688854  1
  Nd3+  Nd35  1  0.87812920  0.00496241  0.44238049  1
  Nd3+  Nd36  1  0.75205855  0.12982544  0.55883898  1
  Nd3+  Nd37  1  0.37625446  0.26165166  0.44173368  1
  Nd3+  Nd38  1  0.63501314  0.74779483  0.93191840  1
  Nd3+  Nd39  1  0.25907890  0.87214154  0.05344108  1
  Nd3+  Nd40  1  0.62340362  0.25697603  0.44375974  1
  Nd3+  Nd41  1  0.00440544  0.13068397  0.55730245  1
  Nd3+  Nd42  1  0.88286250  -0.00207621  0.94481065  1
  Nd3+  Nd43  1  0.51455518  0.36325452  0.07586725  1
  Nd3+  Nd44  1  0.13245420  0.49020473  0.94070708  1
  Nd3+  Nd45  1  0.62958413  0.24788270  0.93599860  1
  Nd3+  Nd46  1  0.26613803  0.37295327  0.06757763  1
  Nd3+  Nd47  1  0.37737019  0.75128956  0.43496036  1
  Nd3+  Nd48  1  0.62429272  0.50674891  0.45061222  1
  Nd3+  Nd49  1  0.01130914  0.12350242  0.05986354  1
  Nd3+  Nd50  1  0.63538168  -0.00140630  0.94207065  1
  Sm3+  Sm51  1  0.12657932  0.75011009  0.44171795  1
  Sm3+  Sm52  1  0.75728243  0.87064586  0.05821706  1
  Sm3+  Sm53  1  0.13096606  0.74539663  0.94587305  1
  Sm3+  Sm54  1  0.87619235  0.25611112  0.44438276  1
  Sm3+  Sm55  1  0.75689990  0.62163959  0.05380847  1
  Sm3+  Sm56  1  0.25450781  0.87690484  0.55475389  1
  Sm3+  Sm57  1  0.88311397  0.74572887  0.94425016  1
  Sm3+  Sm58  1  0.12705339  0.00567051  0.44771768  1
  Sm3+  Sm59  1  0.88271869  0.49542345  0.94902455  1
  Sm3+  Sm60  1  0.25868383  0.62745960  0.55217178  1
  Sm3+  Sm61  1  0.87760368  0.75465224  0.44389348  1
  Sm3+  Sm62  1  0.62483712  0.75251420  0.44677406  1
  Sm3+  Sm63  1  0.88328208  0.24795375  0.94415964  1
  Bi2+  Bi64  1  0.01401900  0.06616339  0.28216225  1
  Bi2+  Bi65  1  -0.10102694  0.12938255  0.77773668  1
  Bi2+  Bi66  1  -0.02428417  0.38396440  0.28798404  1
  Bi2+  Bi67  1  -0.02914737  0.38466909  0.79141601  1
  Bi2+  Bi68  1  -0.00955752  0.64155414  0.28927098  1
  Bi2+  Bi69  1  0.04434356  0.62577511  0.79705979  1
  Bi2+  Bi70  1  -0.03926485  0.86707680  0.30492889  1
  Bi2+  Bi71  1  0.01293547  0.87922607  0.79972170  1
  Bi2+  Bi72  1  0.25700877  0.07006101  0.29589340  1
  Bi2+  Bi73  1  0.24615671  0.11274736  0.78494741  1
  Bi2+  Bi74  1  0.23901441  0.32036255  0.29871391  1
  Bi2+  Bi75  1  0.24049501  0.37557771  0.78529907  1
  Bi2+  Bi76  1  0.26508545  0.68076291  0.27805710  1
  Bi2+  Bi77  1  0.23047688  0.58334777  0.77181384  1
  Bi2+  Bi78  1  0.26830077  0.87051208  0.30200866  1
  Bi2+  Bi79  1  0.20510469  0.87172304  0.77295368  1
  Bi2+  Bi80  1  0.51338898  0.13341424  0.30402731  1
  Bi2+  Bi81  1  0.51233239  0.11893162  0.78944776  1
  Bi2+  Bi82  1  0.49652831  0.37082985  0.29986650  1
  Bi2+  Bi83  1  0.50088180  0.37509864  0.78980695  1
  Bi2+  Bi84  1  0.53932325  0.63405644  0.29803916  1
  Bi2+  Bi85  1  0.50168835  0.62061547  0.79495890  1
  Bi2+  Bi86  1  0.53494106  0.85611023  0.28145834  1
  Bi2+  Bi87  1  0.47100982  0.83418212  0.80476244  1
  Bi2+  Bi88  1  0.77411338  0.13377704  0.29862358  1
  Bi2+  Bi89  1  0.73130064  0.18951528  0.82505549  1
  Bi2+  Bi90  1  0.74847354  0.41723613  0.28201410  1
  Bi2+  Bi91  1  0.75357232  0.37573385  0.79593362  1
  Bi2+  Bi92  1  0.73530765  0.61086096  0.28331103  1
  Bi2+  Bi93  1  0.84759328  0.62271292  0.78115520  1
  Bi2+  Bi94  1  0.75160317  0.87037912  0.25205152  1
  Bi2+  Bi95  1  0.78518139  0.88420934  0.79045233  1
  Bi2+  Bi96  1  0.14797247  -0.02234709  0.21214980  1
  Bi2+  Bi97  1  0.06462568  0.00588111  0.72141112  1
  Bi2+  Bi98  1  0.11144246  0.23266119  0.19805586  1
  Bi2+  Bi99  1  0.13382614  0.24715535  0.67584908  1
  Bi2+  Bi100  1  0.12813553  0.49170390  0.20194859  1
  Bi2+  Bi101  1  0.08803945  0.53643018  0.69600123  1
  Bi2+  Bi102  1  0.10941030  0.78703485  0.24060680  1
  Bi2+  Bi103  1  0.13440870  0.72752530  0.70273964  1
  Bi2+  Bi104  1  0.35818959  0.01157987  0.20712677  1
  Bi2+  Bi105  1  0.37745866  -0.05164683  0.72818282  1
  Bi2+  Bi106  1  0.36686177  0.26032701  0.19863698  1
  Bi2+  Bi107  1  0.37747303  0.21308070  0.70156515  1
  Bi2+  Bi108  1  0.37008961  0.52267107  0.21540749  1
  Bi2+  Bi109  1  0.35081215  0.48925901  0.69571748  1
  Bi2+  Bi110  1  0.38581798  0.80125106  0.21479151  1
  Bi2+  Bi111  1  0.36346330  0.75916001  0.71139899  1
  Bi2+  Bi112  1  0.61785506  -0.00717501  0.21210795  1
  Bi2+  Bi113  1  0.61925287  -0.03154628  0.74502146  1
  Bi2+  Bi114  1  0.64885864  0.24475147  0.21096876  1
  Bi2+  Bi115  1  0.67109755  0.24338614  0.72076458  1
  Bi2+  Bi116  1  0.62295304  0.51037689  0.20680412  1
  Bi2+  Bi117  1  0.67669925  0.50379008  0.71544516  1
  Bi2+  Bi118  1  0.60021576  0.73627618  0.19482891  1
  Bi2+  Bi119  1  0.63895327  0.78065136  0.71488682  1
  Bi2+  Bi120  1  0.88454264  -0.00744122  0.20860577  1
  Bi2+  Bi121  1  0.82510822  -0.00251799  0.70270423  1
  Bi2+  Bi122  1  0.84424251  0.26750799  0.23103537  1
  Bi2+  Bi123  1  0.86596244  0.28711113  0.70889563  1
  Bi2+  Bi124  1  0.87820847  0.52701669  0.21946152  1
  Bi2+  Bi125  1  0.86781982  0.48532550  0.69505796  1
  Bi2+  Bi126  1  0.90518480  0.79670518  0.19849742  1
  Bi2+  Bi127  1  0.93828068  0.76073436  0.71504935  1
  S2-  S128  1  -0.00181108  0.14701852  0.15822105  1
  S2-  S129  1  0.00758640  0.13116582  0.65632414  1
  S2-  S130  1  0.02108605  0.36933829  0.16768320  1
  S2-  S131  1  0.03538920  0.38601164  0.65484239  1
  S2-  S132  1  0.01205594  0.59537128  0.16184071  1
  S2-  S133  1  -0.10498844  0.63613208  0.64223844  1
  S2-  S134  1  0.01425175  0.91302276  0.15004200  1
  S2-  S135  1  -0.01177530  0.90121346  0.65767851  1
  S2-  S136  1  0.25631702  0.14433602  0.15767266  1
  S2-  S137  1  0.24934848  0.11761703  0.66128880  1
  S2-  S138  1  0.22498751  0.35835067  0.16743652  1
  S2-  S139  1  0.25382762  0.36229112  0.65102123  1
  S2-  S140  1  0.24553291  0.59265955  0.15513812  1
  S2-  S141  1  0.32805367  0.63604397  0.64269088  1
  S2-  S142  1  0.26543009  0.88649271  0.15187286  1
  S2-  S143  1  0.28225897  0.88344828  0.65076917  1
  S2-  S144  1  0.50166836  0.22557150  0.14878130  1
  S2-  S145  1  0.49473892  0.11780755  0.66460567  1
  S2-  S146  1  0.41180278  0.40581004  0.15375670  1
  S2-  S147  1  0.45864717  0.35010726  0.68239920  1
  S2-  S148  1  0.47680416  0.61544130  0.16201086  1
  S2-  S149  1  0.50169300  0.55517048  0.69613503  1
  S2-  S150  1  0.48887601  1.00222903  0.14444433  1
  S2-  S151  1  0.50215529  0.79660578  0.64821739  1
  S2-  S152  1  0.70848618  0.11637913  0.15806923  1
  S2-  S153  1  0.73950305  0.11831567  0.65705524  1
  S2-  S154  1  0.65573444  0.37881033  0.14184473  1
  S2-  S155  1  0.65300442  0.37631396  0.64920003  1
  S2-  S156  1  0.71792791  0.62754375  0.14860526  1
  S2-  S157  1  0.66505037  0.64597854  0.65719996  1
  S2-  S158  1  0.65484175  0.86616562  0.13673141  1
  S2-  S159  1  0.75075355  0.85537106  0.65497457  1
  S2-  S160  1  0.12349335  0.00017220  0.35057638  1
  S2-  S161  1  0.12703473  0.06906099  0.84626728  1
  S2-  S162  1  0.11586168  0.23764380  0.33558405  1
  S2-  S163  1  0.12915430  0.24311304  0.77262946  1
  S2-  S164  1  0.13650345  0.45138303  0.30629716  1
  S2-  S165  1  0.11920547  0.40799188  0.85280565  1
  S2-  S166  1  0.12377179  0.66762721  0.35505055  1
  S2-  S167  1  0.12619431  0.76950973  0.84911688  1
  S2-  S168  1  0.41611925  0.02580999  0.34434380  1
  S2-  S169  1  0.38257573  0.04900792  0.83702110  1
  S2-  S170  1  0.38602202  0.25034218  0.34191443  1
  S2-  S171  1  0.28481381  0.24594576  0.84724152  1
  S2-  S172  1  0.34852734  0.45503147  0.31475281  1
  S2-  S173  1  0.38110842  0.44304844  0.84016372  1
  S2-  S174  1  0.38587453  0.65782824  0.35137175  1
  S2-  S175  1  0.38254331  0.69303422  0.84539411  1
  S2-  S176  1  0.63812220  0.04450281  0.34217437  1
  S2-  S177  1  0.60935466  0.00990138  0.84433831  1
  S2-  S178  1  0.60843814  0.26545623  0.34466067  1
  S2-  S179  1  0.51340795  0.25791618  0.85780133  1
  S2-  S180  1  0.54718334  0.48661930  0.36079203  1
  S2-  S181  1  0.59409839  0.49644392  0.84171737  1
  S2-  S182  1  0.62413502  0.75606126  0.34850864  1
  S2-  S183  1  0.61085742  0.73333440  0.83320944  1
  S2-  S184  1  0.87308955  0.01673826  0.34425233  1
  S2-  S185  1  0.88105327  -0.00818518  0.84574153  1
  S2-  S186  1  0.86730189  0.25277128  0.34650457  1
  S2-  S187  1  0.95241856  0.24706628  0.85342133  1
  S2-  S188  1  0.95555875  0.50706843  0.35487109  1
  S2-  S189  1  0.87503242  0.48464806  0.85119691  1
  S2-  S190  1  0.87791760  0.73434534  0.34651054  1
  S2-  S191  1  0.84785013  0.74855265  0.84909718  1
  S2-  S192  1  0.00147933  0.13060297  0.45029159  1
  S2-  S193  1  0.00653178  0.12331982  0.95398991  1
  S2-  S194  1  0.00135967  0.37947809  0.44942131  1
  S2-  S195  1  0.00197439  0.37321006  0.96001856  1
  S2-  S196  1  0.00067938  0.63186807  0.45885916  1
  S2-  S197  1  0.00671947  0.62076856  0.95353315  1
  S2-  S198  1  0.00504721  0.87799867  0.45176205  1
  S2-  S199  1  0.00606532  0.86994646  0.95063320  1
  S2-  S200  1  0.25046383  0.13155802  0.45156665  1
  S2-  S201  1  0.25516768  0.11928763  0.95088772  1
  S2-  S202  1  0.25168079  0.38978658  0.44206046  1
  S2-  S203  1  0.26122463  0.37890840  0.95920063  1
  S2-  S204  1  0.25229296  0.62539248  0.44962654  1
  S2-  S205  1  0.25406429  0.62194055  0.95026029  1
  S2-  S206  1  0.24845017  0.87679372  0.44944692  1
  S2-  S207  1  0.25574943  0.86989514  0.94656659  1
  S2-  S208  1  0.49874384  0.13252215  0.45635870  1
  S2-  S209  1  0.51022405  0.11986862  0.95666785  1
  S2-  S210  1  0.50082821  0.37980121  0.46407178  1
  S2-  S211  1  0.51136345  0.37617340  0.96228991  1
  S2-  S212  1  0.50393784  0.63251796  0.45610370  1
  S2-  S213  1  0.51249698  0.62347243  0.95399687  1
  S2-  S214  1  0.50057211  0.87833025  0.45193503  1
  S2-  S215  1  0.51248827  0.87174536  0.95491796  1
  S2-  S216  1  0.75230671  0.13163489  0.45293366  1
  S2-  S217  1  0.76047438  0.12342313  0.95571085  1
  S2-  S218  1  0.75121111  0.37956030  0.45592868  1
  S2-  S219  1  0.75897841  0.37077285  0.95378939  1
  S2-  S220  1  0.75147592  0.63259284  0.45647085  1
  S2-  S221  1  0.75880723  0.62092363  0.94845290  1
  S2-  S222  1  0.75144872  0.87930087  0.44836728  1
  S2-  S223  1  0.75940089  0.87152921  0.95311715  1
  S2-  S224  1  0.13307749  -0.00369369  0.04462254  1
  S2-  S225  1  0.13139546  0.00378281  0.55218164  1
  S2-  S226  1  0.13484982  0.24812097  0.05375878  1
  S2-  S227  1  0.12872098  0.25579020  0.54118739  1
  S2-  S228  1  0.13452868  0.49608022  0.04805800  1
  S2-  S229  1  0.12972841  0.50985519  0.54680308  1
  S2-  S230  1  0.13354974  0.74633941  0.05148941  1
  S2-  S231  1  0.13264031  0.75252261  0.54734759  1
  S2-  S232  1  0.38207343  -0.00594340  0.04156986  1
  S2-  S233  1  0.37587800  0.00302556  0.54814931  1
  S2-  S234  1  0.38314238  0.24713434  0.04304388  1
  S2-  S235  1  0.37895035  0.25804392  0.54909914  1
  S2-  S236  1  0.38626981  0.50039472  0.04476054  1
  S2-  S237  1  0.38351321  0.50659227  0.55198448  1
  S2-  S238  1  0.38701268  0.74950562  0.04960478  1
  S2-  S239  1  0.37653449  0.75577701  0.54044872  1
  S2-  S240  1  0.63736504  -0.00162744  0.04521196  1
  S2-  S241  1  0.62424885  0.00478519  0.54877251  1
  S2-  S242  1  0.63613974  0.24300206  0.04149191  1
  S2-  S243  1  0.62677848  0.25274856  0.55005492  1
  S2-  S244  1  0.63473116  0.49898376  0.04416555  1
  S2-  S245  1  0.62518364  0.51116994  0.55463012  1
  S2-  S246  1  0.63614999  0.74529204  0.03854548  1
  S2-  S247  1  0.62625095  0.75640076  0.54874633  1
  S2-  S248  1  0.88069541  -0.00355795  0.05115266  1
  S2-  S249  1  0.87892460  0.00627640  0.54818183  1
  S2-  S250  1  0.88245129  0.24724048  0.05154497  1
  S2-  S251  1  0.87714689  0.25525694  0.55016489  1
  S2-  S252  1  0.88017034  0.49664754  0.05447397  1
  S2-  S253  1  0.87730679  0.50210062  0.54597713  1
  S2-  S254  1  0.88014127  0.74570893  0.04967703  1
  S2-  S255  1  0.87919955  0.76004409  0.54663425  1
