# generated using pymatgen
data_La6Ce6Pr19Nd20Sm13(BiS2)64
_symmetry_space_group_name_H-M   'P 1'
_cell_length_a   16.12659033
_cell_length_b   16.13383274
_cell_length_c   27.21818323
_cell_angle_alpha   90.11282411
_cell_angle_beta   90.00153249
_cell_angle_gamma   90.07154721
_symmetry_Int_Tables_number   1
_chemical_formula_structural   La6Ce6Pr19Nd20Sm13(BiS2)64
_chemical_formula_sum   'La6 Ce6 Pr19 Nd20 Sm13 Bi64 S128'
_cell_volume   7081.70866739
_cell_formula_units_Z   1
loop_
 _symmetry_equiv_pos_site_id
 _symmetry_equiv_pos_as_xyz
  1  'x, y, z'
loop_
 _atom_type_symbol
 _atom_type_oxidation_number
  La3+  3.0
  Ce3+  3.0
  Pr3+  3.0
  Nd3+  3.0
  Sm3+  3.0
  Bi2+  2.0
  S2-  -2.0
loop_
 _atom_site_type_symbol
 _atom_site_label
 _atom_site_symmetry_multiplicity
 _atom_site_fract_x
 _atom_site_fract_y
 _atom_site_fract_z
 _atom_site_occupancy
  La3+  La0  1  0.13592218  0.75955648  0.40431289  1
  La3+  La1  1  0.63514982  -0.00279626  0.90274771  1
  La3+  La2  1  0.75097747  0.86230676  0.08684944  1
  La3+  La3  1  0.62552526  -0.01170346  0.43006852  1
  La3+  La4  1  0.63727305  0.73499289  0.91329159  1
  La3+  La5  1  0.00265118  0.36114100  0.06657933  1
  Ce3+  Ce6  1  0.63142866  0.48782696  0.93194918  1
  Ce3+  Ce7  1  0.50555808  0.10453400  0.05650874  1
  Ce3+  Ce8  1  0.00213574  0.61722227  0.05733455  1
  Ce3+  Ce9  1  0.75551341  0.62524872  0.55893274  1
  Ce3+  Ce10  1  0.00339780  0.37201132  0.56089330  1
  Ce3+  Ce11  1  0.50939963  0.87612900  0.57148759  1
  Pr3+  Pr12  1  0.75242060  0.12366491  0.56260938  1
  Pr3+  Pr13  1  0.88100829  0.75044147  0.44158874  1
  Pr3+  Pr14  1  0.00726908  0.86214827  0.06642125  1
  Pr3+  Pr15  1  0.00652688  0.62656001  0.56056147  1
  Pr3+  Pr16  1  0.88134866  0.50064250  0.43765899  1
  Pr3+  Pr17  1  0.76488634  0.87974544  0.58730345  1
  Pr3+  Pr18  1  0.12938148  0.48508140  0.93552041  1
  Pr3+  Pr19  1  0.25600282  0.36577757  0.07292939  1
  Pr3+  Pr20  1  0.37979522  0.50179432  0.44455579  1
  Pr3+  Pr21  1  0.74785139  0.36629554  0.06881592  1
  Pr3+  Pr22  1  0.74353621  0.11212278  0.06797788  1
  Pr3+  Pr23  1  0.50829581  0.62463697  0.56924266  1
  Pr3+  Pr24  1  0.00704385  0.87529134  0.56535568  1
  Pr3+  Pr25  1  0.25529363  0.11451054  0.06742285  1
  Pr3+  Pr26  1  0.37531010  -0.01406540  0.93589797  1
  Pr3+  Pr27  1  0.25591167  0.87951459  0.58002214  1
  Pr3+  Pr28  1  0.25638309  0.37564385  0.55957734  1
  Pr3+  Pr29  1  0.88045749  0.24717794  0.43195494  1
  Pr3+  Pr30  1  0.12638054  0.73232282  0.92841834  1
  Nd3+  Nd31  1  0.13124430  0.24848636  0.44424429  1
  Nd3+  Nd32  1  0.87527960  0.23573469  0.94763349  1
  Nd3+  Nd33  1  0.62784408  0.50072673  0.43932153  1
  Nd3+  Nd34  1  0.50957900  0.86113248  0.04885563  1
  Nd3+  Nd35  1  0.25388295  0.61276875  0.06817411  1
  Nd3+  Nd36  1  0.24975726  0.85768364  0.07218857  1
  Nd3+  Nd37  1  0.87701588  0.48454709  0.94056454  1
  Nd3+  Nd38  1  0.87955494  0.74188242  0.93279722  1
  Nd3+  Nd39  1  0.37769617  0.23627474  0.94395133  1
  Nd3+  Nd40  1  0.50944921  0.37357863  0.55867675  1
  Nd3+  Nd41  1  0.13357997  -0.00243373  0.44503412  1
  Nd3+  Nd42  1  0.37841779  0.73885749  0.93514767  1
  Nd3+  Nd43  1  0.37863924  0.24778909  0.44373299  1
  Nd3+  Nd44  1  0.87991442  -0.00551781  0.43687690  1
  Nd3+  Nd45  1  0.63095498  0.24528810  0.43392776  1
  Nd3+  Nd46  1  0.00002268  0.10868663  0.05946599  1
  Nd3+  Nd47  1  0.12644552  -0.01334092  0.93716398  1
  Nd3+  Nd48  1  0.37782627  0.48785524  0.94365150  1
  Nd3+  Nd49  1  0.25685131  0.12529748  0.57273875  1
  Nd3+  Nd50  1  0.75271182  0.61749699  0.05819766  1
  Sm3+  Sm51  1  0.12924795  0.50016423  0.44242368  1
  Sm3+  Sm52  1  0.00344279  0.12563702  0.55157755  1
  Sm3+  Sm53  1  0.75617655  0.37470951  0.55254762  1
  Sm3+  Sm54  1  0.37603128  0.75065222  0.44891619  1
  Sm3+  Sm55  1  0.62915064  0.75233112  0.45087916  1
  Sm3+  Sm56  1  0.50573264  0.36449727  0.04859313  1
  Sm3+  Sm57  1  0.13014349  0.24146267  0.93873142  1
  Sm3+  Sm58  1  0.63066117  0.23751115  0.93633940  1
  Sm3+  Sm59  1  0.50981568  0.12373322  0.55335916  1
  Sm3+  Sm60  1  0.37699430  -0.00438530  0.44886097  1
  Sm3+  Sm61  1  0.50764044  0.61820330  0.05111410  1
  Sm3+  Sm62  1  0.25542130  0.62759093  0.55994820  1
  Sm3+  Sm63  1  0.88118278  -0.01368803  0.93702614  1
  Bi2+  Bi64  1  0.07774669  0.15141761  0.27140960  1
  Bi2+  Bi65  1  0.02623851  0.12000816  0.79864611  1
  Bi2+  Bi66  1  0.00569453  0.40577636  0.31105763  1
  Bi2+  Bi67  1  -0.00552649  0.31927999  0.79515947  1
  Bi2+  Bi68  1  -0.05191072  0.56729013  0.23858641  1
  Bi2+  Bi69  1  0.00969867  0.61810348  0.78980478  1
  Bi2+  Bi70  1  -0.00007866  0.85200327  0.29200423  1
  Bi2+  Bi71  1  0.02614828  0.86834006  0.78239980  1
  Bi2+  Bi72  1  0.26268375  0.11789476  0.30674895  1
  Bi2+  Bi73  1  0.21833481  0.16225664  0.81548002  1
  Bi2+  Bi74  1  0.28869084  0.35477106  0.29559898  1
  Bi2+  Bi75  1  0.26944104  0.35212439  0.79684233  1
  Bi2+  Bi76  1  0.31009560  0.65594431  0.28216041  1
  Bi2+  Bi77  1  0.19436391  0.58754613  0.75928198  1
  Bi2+  Bi78  1  0.27278205  0.91761094  0.29727120  1
  Bi2+  Bi79  1  0.23366780  0.96095242  0.82191504  1
  Bi2+  Bi80  1  0.44285680  0.13458752  0.25520786  1
  Bi2+  Bi81  1  0.50133444  0.20287196  0.77107577  1
  Bi2+  Bi82  1  0.48855211  0.43755343  0.29312571  1
  Bi2+  Bi83  1  0.52978684  0.39517372  0.77958250  1
  Bi2+  Bi84  1  0.50383628  0.66603052  0.30594729  1
  Bi2+  Bi85  1  0.45654804  0.57953348  0.79409249  1
  Bi2+  Bi86  1  0.49875999  0.86216458  0.28831299  1
  Bi2+  Bi87  1  0.47067317  0.86709076  0.78132328  1
  Bi2+  Bi88  1  0.76552189  0.14834697  0.30231317  1
  Bi2+  Bi89  1  0.75893965  0.15022080  0.79457338  1
  Bi2+  Bi90  1  0.76110038  0.40399297  0.28556710  1
  Bi2+  Bi91  1  0.71443678  0.37640701  0.81496047  1
  Bi2+  Bi92  1  0.68870612  0.62136291  0.27369787  1
  Bi2+  Bi93  1  0.76128238  0.57039696  0.79771172  1
  Bi2+  Bi94  1  0.75878191  0.90853973  0.31855320  1
  Bi2+  Bi95  1  0.74981143  0.86523311  0.79213610  1
  Bi2+  Bi96  1  0.19921313  0.03623793  0.20616532  1
  Bi2+  Bi97  1  0.13913156  -0.01554553  0.71680833  1
  Bi2+  Bi98  1  0.15218754  0.31058113  0.21560295  1
  Bi2+  Bi99  1  0.11964611  0.20099725  0.70508961  1
  Bi2+  Bi100  1  0.19901067  0.50563137  0.23964825  1
  Bi2+  Bi101  1  0.11627291  0.41044027  0.72284082  1
  Bi2+  Bi102  1  0.13193567  0.75874669  0.20604271  1
  Bi2+  Bi103  1  0.10279918  0.78663568  0.68726678  1
  Bi2+  Bi104  1  0.38144069  0.02777101  0.16463442  1
  Bi2+  Bi105  1  0.36326498  0.05424946  0.74073225  1
  Bi2+  Bi106  1  0.39167570  0.29904111  0.20018143  1
  Bi2+  Bi107  1  0.31629136  0.22543195  0.70057853  1
  Bi2+  Bi108  1  0.42138154  0.55881632  0.20788937  1
  Bi2+  Bi109  1  0.36154783  0.50490478  0.69543400  1
  Bi2+  Bi110  1  0.36611991  0.84587664  0.20402769  1
  Bi2+  Bi111  1  0.23948809  0.78133459  0.77722584  1
  Bi2+  Bi112  1  0.63183511  0.01683756  0.20214971  1
  Bi2+  Bi113  1  0.61251328  0.00429435  0.69858928  1
  Bi2+  Bi114  1  0.57719734  0.28200371  0.24143847  1
  Bi2+  Bi115  1  0.67674527  0.23719614  0.70628494  1
  Bi2+  Bi116  1  0.60596510  0.49829984  0.19225124  1
  Bi2+  Bi117  1  0.61047962  0.49570872  0.69102861  1
  Bi2+  Bi118  1  0.60674585  0.75383155  0.20658806  1
  Bi2+  Bi119  1  0.59698898  0.73218588  0.71099837  1
  Bi2+  Bi120  1  0.89963107  0.00084980  0.21191511  1
  Bi2+  Bi121  1  0.87881460  0.05926886  0.72344289  1
  Bi2+  Bi122  1  0.91436899  0.25372050  0.20786233  1
  Bi2+  Bi123  1  0.89397292  0.24988242  0.69107743  1
  Bi2+  Bi124  1  0.79838877  0.48597884  0.18271663  1
  Bi2+  Bi125  1  0.85123068  0.42964611  0.73645837  1
  Bi2+  Bi126  1  0.87450983  0.73462094  0.20901981  1
  Bi2+  Bi127  1  0.86212220  0.72374065  0.69456533  1
  S2-  S128  1  -0.00336595  0.11661732  0.15910561  1
  S2-  S129  1  -0.00989989  0.10976591  0.64847200  1
  S2-  S130  1  0.00511466  0.37205929  0.16747393  1
  S2-  S131  1  -0.02688854  0.40115241  0.65566108  1
  S2-  S132  1  0.01548896  0.65437180  0.15368956  1
  S2-  S133  1  -0.00825704  0.64134535  0.66169707  1
  S2-  S134  1  -0.09784554  0.86855311  0.14740314  1
  S2-  S135  1  -0.08609211  0.86292084  0.65021061  1
  S2-  S136  1  0.24772077  0.23712395  0.14409797  1
  S2-  S137  1  0.26779645  0.01524739  0.64981464  1
  S2-  S138  1  0.24228879  0.49197447  0.14503220  1
  S2-  S139  1  0.25552456  0.37823789  0.65942730  1
  S2-  S140  1  0.26195269  0.73003292  0.14506588  1
  S2-  S141  1  0.24137960  0.59101187  0.65448211  1
  S2-  S142  1  0.12464828  0.88405262  0.14593659  1
  S2-  S143  1  0.26428245  0.80431648  0.67308643  1
  S2-  S144  1  0.59717414  0.12700517  0.13753918  1
  S2-  S145  1  0.55683007  0.14263872  0.64673936  1
  S2-  S146  1  0.53767382  0.35780909  0.14489565  1
  S2-  S147  1  0.48911608  0.39861745  0.65607548  1
  S2-  S148  1  0.49873110  0.67276449  0.14475303  1
  S2-  S149  1  0.47476221  0.63714841  0.66830529  1
  S2-  S150  1  0.59430660  0.88338908  0.13782526  1
  S2-  S151  1  0.50152633  0.87280176  0.67138839  1
  S2-  S152  1  0.78351352  0.07978049  0.16711841  1
  S2-  S153  1  0.75868345  0.02860931  0.64694571  1
  S2-  S154  1  0.78160715  0.30628612  0.16309496  1
  S2-  S155  1  0.70541576  0.37288023  0.64624187  1
  S2-  S156  1  0.74868753  0.71073271  0.14360940  1
  S2-  S157  1  0.73938094  0.61165390  0.65645006  1
  S2-  S158  1  0.75599592  0.89773718  0.22399399  1
  S2-  S159  1  0.71853818  0.82966042  0.68469799  1
  S2-  S160  1  0.12126421  -0.08125214  0.35661187  1
  S2-  S161  1  0.00746661  -0.01658073  0.86183841  1
  S2-  S162  1  0.09419358  0.26485385  0.34801177  1
  S2-  S163  1  0.13266102  0.35661291  0.86308769  1
  S2-  S164  1  0.12532010  0.49947073  0.34400412  1
  S2-  S165  1  0.14163699  0.59897171  0.85722732  1
  S2-  S166  1  0.08431975  0.71870304  0.30799840  1
  S2-  S167  1  -0.00031885  0.75198814  0.85500641  1
  S2-  S168  1  0.41330334  -0.03475576  0.35452589  1
  S2-  S169  1  0.41731288  -0.00289081  0.83837832  1
  S2-  S170  1  0.38597073  0.22899133  0.34559141  1
  S2-  S171  1  0.38060191  0.23960229  0.84445503  1
  S2-  S172  1  0.35716238  0.49720555  0.34603270  1
  S2-  S173  1  0.34832510  0.49001248  0.84551160  1
  S2-  S174  1  0.29569060  0.75971280  0.36113637  1
  S2-  S175  1  0.38430340  0.72739713  0.83469761  1
  S2-  S176  1  0.65046513  0.04795911  0.33319651  1
  S2-  S177  1  0.61024033  -0.02905590  0.79445774  1
  S2-  S178  1  0.64822803  0.26021743  0.33578276  1
  S2-  S179  1  0.61270882  0.15693413  0.85021524  1
  S2-  S180  1  0.66090777  0.48608388  0.34192014  1
  S2-  S181  1  0.61441269  0.58200674  0.84959663  1
  S2-  S182  1  0.62352325  0.83789118  0.36625992  1
  S2-  S183  1  0.59721622  0.78220052  0.81421630  1
  S2-  S184  1  0.88281291  0.03414644  0.33830112  1
  S2-  S185  1  0.79166481  -0.00128470  0.84971186  1
  S2-  S186  1  0.87123027  0.28433417  0.33306641  1
  S2-  S187  1  0.85413355  0.26652588  0.85071766  1
  S2-  S188  1  0.89663720  0.52887762  0.33910136  1
  S2-  S189  1  0.91842987  0.52035968  0.84513978  1
  S2-  S190  1  0.87216967  0.77880212  0.34255050  1
  S2-  S191  1  0.78433276  0.73082129  0.84577969  1
  S2-  S192  1  0.00693943  0.12169426  0.44673216  1
  S2-  S193  1  0.00539555  0.11947502  0.95415412  1
  S2-  S194  1  0.00587200  0.37410052  0.45421932  1
  S2-  S195  1  0.00014850  0.35958700  0.95839042  1
  S2-  S196  1  0.01206564  0.62890418  0.45092404  1
  S2-  S197  1  0.00010082  0.60910499  0.95444998  1
  S2-  S198  1  0.00778916  0.87294092  0.45763275  1
  S2-  S199  1  0.00575489  0.86357562  0.96028433  1
  S2-  S200  1  0.25616123  0.12314600  0.46161671  1
  S2-  S201  1  0.25114801  0.11488708  0.95691061  1
  S2-  S202  1  0.25363767  0.37492399  0.45255851  1
  S2-  S203  1  0.25728781  0.36155883  0.96473895  1
  S2-  S204  1  0.25051004  0.62515359  0.45472835  1
  S2-  S205  1  0.25760286  0.61295532  0.95980445  1
  S2-  S206  1  0.25500643  0.87437936  0.46651680  1
  S2-  S207  1  0.24979393  0.85941156  0.95320913  1
  S2-  S208  1  0.50286220  0.12140281  0.44822503  1
  S2-  S209  1  0.50248811  0.11156259  0.95072980  1
  S2-  S210  1  0.50550473  0.37229624  0.45010774  1
  S2-  S211  1  0.50479347  0.36180555  0.94311073  1
  S2-  S212  1  0.50504341  0.62856450  0.45853858  1
  S2-  S213  1  0.50139074  0.61397522  0.94832187  1
  S2-  S214  1  0.49825681  0.87017896  0.46478296  1
  S2-  S215  1  0.50651077  0.86331500  0.94097611  1
  S2-  S216  1  0.75542131  0.12181462  0.45238801  1
  S2-  S217  1  0.75204554  0.11429602  0.95577060  1
  S2-  S218  1  0.75408422  0.37460553  0.44817943  1
  S2-  S219  1  0.75130968  0.36183022  0.95988372  1
  S2-  S220  1  0.75196712  0.62638266  0.44963086  1
  S2-  S221  1  0.75676637  0.60949154  0.95260891  1
  S2-  S222  1  0.75722146  0.87339651  0.46249472  1
  S2-  S223  1  0.75438098  0.86731168  0.94223796  1
  S2-  S224  1  0.13187471  -0.00798980  0.04299813  1
  S2-  S225  1  0.12855474  0.00433696  0.55116470  1
  S2-  S226  1  0.12539649  0.23627974  0.04401490  1
  S2-  S227  1  0.13061949  0.24757026  0.55212752  1
  S2-  S228  1  0.12433278  0.48820168  0.04402323  1
  S2-  S229  1  0.12998608  0.49947024  0.54861532  1
  S2-  S230  1  0.13029627  0.73504165  0.03964954  1
  S2-  S231  1  0.13380054  0.75024839  0.55554827  1
  S2-  S232  1  0.37477405  -0.01943809  0.04278891  1
  S2-  S233  1  0.38637068  0.00274334  0.55228735  1
  S2-  S234  1  0.38642966  0.23767663  0.04870380  1
  S2-  S235  1  0.38358686  0.24736557  0.55054268  1
  S2-  S236  1  0.38623808  0.49074823  0.04940155  1
  S2-  S237  1  0.38209935  0.50090401  0.55008324  1
  S2-  S238  1  0.38052622  0.73977518  0.04085430  1
  S2-  S239  1  0.38065497  0.74875266  0.55438736  1
  S2-  S240  1  0.63172898  -0.01468629  0.03620779  1
  S2-  S241  1  0.62989820  -0.00226305  0.54297060  1
  S2-  S242  1  0.62721919  0.24243956  0.03948846  1
  S2-  S243  1  0.63194976  0.25016469  0.54011061  1
  S2-  S244  1  0.62720244  0.49168840  0.04132847  1
  S2-  S245  1  0.63106844  0.49896267  0.54439000  1
  S2-  S246  1  0.63140944  0.73863428  0.03301197  1
  S2-  S247  1  0.63332384  0.75246315  0.55552112  1
  S2-  S248  1  0.87388161  -0.01086753  0.04347969  1
  S2-  S249  1  0.88297219  0.00186287  0.54334622  1
  S2-  S250  1  0.87493109  0.23600701  0.05291799  1
  S2-  S251  1  0.87776105  0.24844179  0.54099399  1
  S2-  S252  1  0.87688586  0.48888239  0.04867483  1
  S2-  S253  1  0.87936529  0.49874974  0.54562611  1
  S2-  S254  1  0.87642410  0.74069368  0.04091201  1
  S2-  S255  1  0.87879951  0.74891928  0.54795864  1
