# generated using pymatgen
data_La6Ce6Pr19Nd20Sm13(BiS2)64
_symmetry_space_group_name_H-M   'P 1'
_cell_length_a   16.09473239
_cell_length_b   16.11557080
_cell_length_c   27.27861106
_cell_angle_alpha   90.20730960
_cell_angle_beta   90.18235891
_cell_angle_gamma   89.82226608
_symmetry_Int_Tables_number   1
_chemical_formula_structural   La6Ce6Pr19Nd20Sm13(BiS2)64
_chemical_formula_sum   'La6 Ce6 Pr19 Nd20 Sm13 Bi64 S128'
_cell_volume   7075.29560875
_cell_formula_units_Z   1
loop_
 _symmetry_equiv_pos_site_id
 _symmetry_equiv_pos_as_xyz
  1  'x, y, z'
loop_
 _atom_type_symbol
 _atom_type_oxidation_number
  La3+  3.0
  Ce3+  3.0
  Pr3+  3.0
  Nd3+  3.0
  Sm3+  3.0
  Bi2+  2.0
  S2-  -2.0
loop_
 _atom_site_type_symbol
 _atom_site_label
 _atom_site_symmetry_multiplicity
 _atom_site_fract_x
 _atom_site_fract_y
 _atom_site_fract_z
 _atom_site_occupancy
  La3+  La0  1  0.11972625  -0.02290377  0.43535140  1
  La3+  La1  1  0.00249988  0.87191230  0.05794529  1
  La3+  La2  1  0.37409064  0.73259083  0.42889180  1
  La3+  La3  1  0.24898258  0.12909383  0.09331478  1
  La3+  La4  1  0.61959868  0.48938383  0.89936769  1
  La3+  La5  1  0.00783983  0.85720590  0.58695082  1
  Ce3+  Ce6  1  0.38060616  0.49318046  0.93865556  1
  Ce3+  Ce7  1  0.87876186  0.24980526  0.93777312  1
  Ce3+  Ce8  1  0.75161562  0.35706875  0.56248807  1
  Ce3+  Ce9  1  0.25440310  0.60583980  0.55833211  1
  Ce3+  Ce10  1  0.01192048  0.60981064  0.57569289  1
  Ce3+  Ce11  1  0.87845334  0.22977686  0.44554430  1
  Pr3+  Pr12  1  0.50599313  0.36957827  0.06568606  1
  Pr3+  Pr13  1  0.88331276  -0.01224196  0.91007396  1
  Pr3+  Pr14  1  0.12759733  0.74003950  0.93482875  1
  Pr3+  Pr15  1  0.12964578  -0.00164870  0.93609047  1
  Pr3+  Pr16  1  0.00890942  0.11238644  0.57562271  1
  Pr3+  Pr17  1  0.74148971  0.86190471  0.57432479  1
  Pr3+  Pr18  1  0.11495581  0.72636188  0.43374195  1
  Pr3+  Pr19  1  0.51719155  0.12713838  0.09536597  1
  Pr3+  Pr20  1  0.75944451  0.10995823  0.57003661  1
  Pr3+  Pr21  1  0.36837666  -0.02019049  0.42515813  1
  Pr3+  Pr22  1  0.62967237  0.22289202  0.42957195  1
  Pr3+  Pr23  1  0.12800842  0.49501871  0.94704363  1
  Pr3+  Pr24  1  0.87560947  0.48265272  0.44909836  1
  Pr3+  Pr25  1  0.62547403  0.23989982  0.93261279  1
  Pr3+  Pr26  1  0.25344556  0.62362834  0.06870763  1
  Pr3+  Pr27  1  0.00298356  0.11723474  0.06493279  1
  Pr3+  Pr28  1  0.50364247  0.87796455  0.05523474  1
  Pr3+  Pr29  1  0.50405443  0.62070845  0.05406913  1
  Pr3+  Pr30  1  -0.00082268  0.62790314  0.07893337  1
  Nd3+  Nd31  1  0.38225052  0.22384724  0.42127212  1
  Nd3+  Nd32  1  0.25415013  0.11312974  0.56156628  1
  Nd3+  Nd33  1  0.12880004  0.22953508  0.43109129  1
  Nd3+  Nd34  1  0.50435873  0.10884409  0.56102186  1
  Nd3+  Nd35  1  0.00785498  0.36035894  0.55454196  1
  Nd3+  Nd36  1  0.00378588  0.37191644  0.06490288  1
  Nd3+  Nd37  1  0.37902559  0.74612815  0.94148875  1
  Nd3+  Nd38  1  0.13010965  0.24356310  0.94315484  1
  Nd3+  Nd39  1  0.62641632  0.47946108  0.44468236  1
  Nd3+  Nd40  1  0.62697467  -0.00190299  0.92981222  1
  Nd3+  Nd41  1  0.38295119  0.48600895  0.42902539  1
  Nd3+  Nd42  1  0.62906849  0.74625951  0.93941029  1
  Nd3+  Nd43  1  0.87927941  0.73804347  0.92596792  1
  Nd3+  Nd44  1  0.74668653  0.61000051  0.57619804  1
  Nd3+  Nd45  1  0.62745474  0.72846731  0.43967979  1
  Nd3+  Nd46  1  0.75509695  0.62064067  0.05661104  1
  Nd3+  Nd47  1  0.63062848  -0.02098487  0.43694987  1
  Nd3+  Nd48  1  0.75478393  0.12019675  0.05115603  1
  Nd3+  Nd49  1  0.87923248  0.49341297  0.93446705  1
  Nd3+  Nd50  1  0.37261937  0.00008348  0.94037641  1
  Sm3+  Sm51  1  0.25794352  0.35473352  0.54227292  1
  Sm3+  Sm52  1  0.25439659  0.87554198  0.05845767  1
  Sm3+  Sm53  1  0.75208488  0.37179056  0.05189703  1
  Sm3+  Sm54  1  0.75375955  0.87394157  0.04629341  1
  Sm3+  Sm55  1  0.25321015  0.85706524  0.55847158  1
  Sm3+  Sm56  1  0.87148030  0.73128455  0.45023699  1
  Sm3+  Sm57  1  0.50218005  0.35060104  0.56356711  1
  Sm3+  Sm58  1  0.12606935  0.48593509  0.43728279  1
  Sm3+  Sm59  1  0.25671229  0.36792557  0.06029280  1
  Sm3+  Sm60  1  0.88345618  -0.02150069  0.45174488  1
  Sm3+  Sm61  1  0.50309177  0.60170007  0.56865914  1
  Sm3+  Sm62  1  0.38117798  0.24245727  0.95041380  1
  Sm3+  Sm63  1  0.49910552  0.85665009  0.55647439  1
  Bi2+  Bi64  1  0.00014177  0.12160210  0.29332077  1
  Bi2+  Bi65  1  0.00319027  0.13239554  0.78903846  1
  Bi2+  Bi66  1  -0.04929610  0.42884971  0.29595801  1
  Bi2+  Bi67  1  0.04017868  0.38191271  0.80475485  1
  Bi2+  Bi68  1  -0.02875252  0.64281396  0.29418520  1
  Bi2+  Bi69  1  -0.01483796  0.56471442  0.77566885  1
  Bi2+  Bi70  1  0.01463046  0.86956010  0.29381261  1
  Bi2+  Bi71  1  -0.00284640  0.87410042  0.78284649  1
  Bi2+  Bi72  1  0.27075743  0.13837952  0.29643846  1
  Bi2+  Bi73  1  0.27465463  0.13149853  0.79143377  1
  Bi2+  Bi74  1  0.22046672  0.43809457  0.27436431  1
  Bi2+  Bi75  1  0.23416927  0.40173078  0.77052498  1
  Bi2+  Bi76  1  0.23322065  0.63603100  0.29518551  1
  Bi2+  Bi77  1  0.25084205  0.59398430  0.79475587  1
  Bi2+  Bi78  1  0.26629932  0.88449159  0.28493586  1
  Bi2+  Bi79  1  0.23427961  0.85497135  0.79831782  1
  Bi2+  Bi80  1  0.53107869  0.15360605  0.29034792  1
  Bi2+  Bi81  1  0.47283232  0.13999641  0.79712196  1
  Bi2+  Bi82  1  0.48728910  0.45267115  0.27788261  1
  Bi2+  Bi83  1  0.43142932  0.38157053  0.77377641  1
  Bi2+  Bi84  1  0.47333050  0.72291427  0.29736722  1
  Bi2+  Bi85  1  0.43144968  0.65931744  0.76697877  1
  Bi2+  Bi86  1  0.62593221  0.84283406  0.30938409  1
  Bi2+  Bi87  1  0.42555268  0.94222273  0.81039882  1
  Bi2+  Bi88  1  0.77053257  0.09076196  0.29196034  1
  Bi2+  Bi89  1  0.74164095  0.17075906  0.79073630  1
  Bi2+  Bi90  1  0.77730063  0.33627336  0.29294033  1
  Bi2+  Bi91  1  0.76661455  0.39161585  0.79316343  1
  Bi2+  Bi92  1  0.71545208  0.60469375  0.30358255  1
  Bi2+  Bi93  1  0.75418580  0.67402462  0.79658424  1
  Bi2+  Bi94  1  0.81567804  0.88469505  0.28955031  1
  Bi2+  Bi95  1  0.61343999  0.90585052  0.79337176  1
  Bi2+  Bi96  1  0.11683792  0.02167067  0.20753713  1
  Bi2+  Bi97  1  0.15255417  -0.02146526  0.71390609  1
  Bi2+  Bi98  1  0.13434294  0.29078544  0.21567931  1
  Bi2+  Bi99  1  0.15600735  0.24002177  0.70190294  1
  Bi2+  Bi100  1  0.06924105  0.52835621  0.22017257  1
  Bi2+  Bi101  1  0.07150912  0.46536230  0.69018329  1
  Bi2+  Bi102  1  0.11757283  0.77232279  0.20393357  1
  Bi2+  Bi103  1  0.18984702  0.72320041  0.71268653  1
  Bi2+  Bi104  1  0.40247094  -0.05343971  0.21585508  1
  Bi2+  Bi105  1  0.35512085  -0.02067338  0.69847195  1
  Bi2+  Bi106  1  0.39439887  0.30803926  0.22118371  1
  Bi2+  Bi107  1  0.36482133  0.19621200  0.69358596  1
  Bi2+  Bi108  1  0.34989352  0.49637680  0.19395109  1
  Bi2+  Bi109  1  0.34954073  0.51702657  0.70085634  1
  Bi2+  Bi110  1  0.35522823  0.68909246  0.20595689  1
  Bi2+  Bi111  1  0.37322960  0.78320521  0.67972575  1
  Bi2+  Bi112  1  0.64675115  -0.03399386  0.19755934  1
  Bi2+  Bi113  1  0.55358058  0.01706315  0.70349209  1
  Bi2+  Bi114  1  0.67531244  0.24480620  0.20942802  1
  Bi2+  Bi115  1  0.60675600  0.29357502  0.74382586  1
  Bi2+  Bi116  1  0.62227839  0.51122894  0.20828018  1
  Bi2+  Bi117  1  0.61667041  0.49839439  0.69946123  1
  Bi2+  Bi118  1  0.62682316  0.70724947  0.21946505  1
  Bi2+  Bi119  1  0.56711742  0.76728959  0.71470195  1
  Bi2+  Bi120  1  0.87045645  0.01133419  0.20410244  1
  Bi2+  Bi121  1  0.82808368  0.00065814  0.70968141  1
  Bi2+  Bi122  1  0.87542732  0.20849906  0.21568055  1
  Bi2+  Bi123  1  0.89142644  0.24256650  0.72699484  1
  Bi2+  Bi124  1  0.81823127  0.48365035  0.21447126  1
  Bi2+  Bi125  1  0.87315827  0.44063591  0.70261937  1
  Bi2+  Bi126  1  0.85285153  0.74502650  0.20737775  1
  Bi2+  Bi127  1  0.87992846  0.72606729  0.71886215  1
  S2-  S128  1  0.09418111  0.15815619  0.15199270  1
  S2-  S129  1  -0.11640281  0.12764837  0.64785944  1
  S2-  S130  1  0.02336921  0.38246826  0.16350631  1
  S2-  S131  1  0.03025281  0.30351457  0.64738452  1
  S2-  S132  1  -0.01891074  0.77146437  0.14196296  1
  S2-  S133  1  -0.00471406  0.72053799  0.65190659  1
  S2-  S134  1  -0.00540904  0.98581855  0.13660854  1
  S2-  S135  1  -0.00854501  0.94960588  0.68134323  1
  S2-  S136  1  0.27469146  0.06335765  0.18953956  1
  S2-  S137  1  0.14615577  0.10846824  0.64164828  1
  S2-  S138  1  0.26100440  0.28895170  0.14842244  1
  S2-  S139  1  0.27248398  0.31704694  0.63752512  1
  S2-  S140  1  0.13883039  0.62673432  0.14538150  1
  S2-  S141  1  0.16171045  0.59451214  0.64107876  1
  S2-  S142  1  0.23454091  0.84882415  0.15582047  1
  S2-  S143  1  0.16644413  0.85300263  0.64425182  1
  S2-  S144  1  0.48758996  0.07927531  0.19516148  1
  S2-  S145  1  0.49561588  0.22421002  0.63572726  1
  S2-  S146  1  0.51473837  0.27897071  0.15180169  1
  S2-  S147  1  0.48297146  0.46887823  0.63873680  1
  S2-  S148  1  0.49825438  0.64445157  0.15323603  1
  S2-  S149  1  0.61303253  0.63276056  0.64726359  1
  S2-  S150  1  0.51910422  0.87887135  0.15563848  1
  S2-  S151  1  0.59064366  0.87506114  0.63899967  1
  S2-  S152  1  0.67755207  0.10715633  0.14036863  1
  S2-  S153  1  0.68993071  0.07122672  0.66137284  1
  S2-  S154  1  0.73912757  0.36783371  0.15023523  1
  S2-  S155  1  0.68885383  0.35255683  0.65401002  1
  S2-  S156  1  0.84858071  0.61358608  0.14161836  1
  S2-  S157  1  0.81466899  0.58899039  0.66967995  1
  S2-  S158  1  0.75727185  0.87425737  0.14545335  1
  S2-  S159  1  0.79587859  0.85429414  0.67156238  1
  S2-  S160  1  0.21858972  0.00426186  0.35103368  1
  S2-  S161  1  0.02900480  0.00679796  0.85010572  1
  S2-  S162  1  0.12184585  0.21737400  0.33102157  1
  S2-  S163  1  0.10674015  0.23433140  0.84382295  1
  S2-  S164  1  0.10597042  0.58660342  0.35985038  1
  S2-  S165  1  0.11056766  0.54864470  0.85257649  1
  S2-  S166  1  0.18378270  0.78239908  0.34108811  1
  S2-  S167  1  0.09721856  0.77732059  0.83671088  1
  S2-  S168  1  0.40563248  0.09033574  0.34847795  1
  S2-  S169  1  0.25733959  0.00805026  0.86263946  1
  S2-  S170  1  0.34958419  0.27675017  0.32526413  1
  S2-  S171  1  0.36646557  0.24923597  0.85127260  1
  S2-  S172  1  0.37520313  0.60605874  0.35650770  1
  S2-  S173  1  0.45744223  0.48634342  0.85130054  1
  S2-  S174  1  0.39073925  0.85342192  0.35221693  1
  S2-  S175  1  0.37433005  0.77258684  0.84348596  1
  S2-  S176  1  0.63582179  0.07922182  0.35532413  1
  S2-  S177  1  0.61433204  0.11650649  0.85681259  1
  S2-  S178  1  0.59132416  0.28027421  0.33515883  1
  S2-  S179  1  0.62673034  0.33724385  0.84791628  1
  S2-  S180  1  0.58593044  0.52318458  0.35236216  1
  S2-  S181  1  0.66072579  0.54172613  0.80116055  1
  S2-  S182  1  0.74705441  0.73430403  0.36857476  1
  S2-  S183  1  0.62263126  0.74817051  0.84054667  1
  S2-  S184  1  0.98302379  -0.01328675  0.36641595  1
  S2-  S185  1  0.81651312  0.03097272  0.81532449  1
  S2-  S186  1  0.87234717  0.21259223  0.34882219  1
  S2-  S187  1  0.89339026  0.36334807  0.86161300  1
  S2-  S188  1  0.85967744  0.53973264  0.35506152  1
  S2-  S189  1  0.88103516  0.60514718  0.85670121  1
  S2-  S190  1  0.97056805  0.75673382  0.36933675  1
  S2-  S191  1  0.87263280  0.82953618  0.83948895  1
  S2-  S192  1  0.00370858  0.11180980  0.46392234  1
  S2-  S193  1  0.00094470  0.12407867  0.95577920  1
  S2-  S194  1  0.00556455  0.35806171  0.44658952  1
  S2-  S195  1  0.00700234  0.36991543  0.95994562  1
  S2-  S196  1  -0.00215926  0.60329968  0.46780754  1
  S2-  S197  1  0.00415730  0.62005852  0.96373443  1
  S2-  S198  1  -0.00185699  0.85433904  0.47313652  1
  S2-  S199  1  0.00398370  0.86732486  0.94971592  1
  S2-  S200  1  0.25210842  0.11001984  0.45451479  1
  S2-  S201  1  0.25534399  0.12650303  0.96446129  1
  S2-  S202  1  0.25259212  0.36190931  0.43771454  1
  S2-  S203  1  0.25545107  0.36868679  0.95496728  1
  S2-  S204  1  0.25132635  0.60425465  0.45508795  1
  S2-  S205  1  0.25712668  0.61961614  0.95712446  1
  S2-  S206  1  0.24834904  0.85351787  0.45628252  1
  S2-  S207  1  0.25289303  0.86699915  0.95527140  1
  S2-  S208  1  0.50339117  0.10235297  0.45572866  1
  S2-  S209  1  0.49741004  0.11737669  0.95690942  1
  S2-  S210  1  0.50013023  0.35543750  0.45002712  1
  S2-  S211  1  0.50347164  0.36944002  0.95797818  1
  S2-  S212  1  0.50398669  0.60718876  0.46210266  1
  S2-  S213  1  0.50604269  0.62039249  0.94762392  1
  S2-  S214  1  0.50589749  0.85787300  0.45355266  1
  S2-  S215  1  0.50257205  0.87352334  0.94846773  1
  S2-  S216  1  0.75883005  0.10210047  0.45912161  1
  S2-  S217  1  0.76128560  0.11854024  0.94610752  1
  S2-  S218  1  0.75095289  0.35460424  0.45298749  1
  S2-  S219  1  0.74716875  0.37398060  0.95022212  1
  S2-  S220  1  0.74869544  0.60367179  0.46795669  1
  S2-  S221  1  0.74208947  0.61294787  0.95007497  1
  S2-  S222  1  0.75452248  0.86085960  0.46350541  1
  S2-  S223  1  0.75085269  0.87334127  0.94153802  1
  S2-  S224  1  0.13671040  -0.00019312  0.04434980  1
  S2-  S225  1  0.13261296  -0.01624163  0.54417355  1
  S2-  S226  1  0.12907011  0.24965173  0.04707033  1
  S2-  S227  1  0.13196258  0.23610640  0.53670105  1
  S2-  S228  1  0.13275915  0.49159955  0.05273438  1
  S2-  S229  1  0.13384161  0.47739127  0.54011269  1
  S2-  S230  1  0.13366846  0.74828396  0.04190214  1
  S2-  S231  1  0.13310659  0.73041885  0.54287807  1
  S2-  S232  1  0.37796208  0.00234844  0.05550637  1
  S2-  S233  1  0.37688988  -0.01742574  0.54579636  1
  S2-  S234  1  0.38254673  0.24135963  0.05338645  1
  S2-  S235  1  0.37911473  0.23197654  0.53074541  1
  S2-  S236  1  0.37780432  0.49434642  0.04784633  1
  S2-  S237  1  0.37795284  0.47918093  0.53574854  1
  S2-  S238  1  0.37778796  0.74843379  0.04825740  1
  S2-  S239  1  0.38026653  0.72971917  0.54434161  1
  S2-  S240  1  0.62865821  -0.00218736  0.03683707  1
  S2-  S241  1  0.62526392  -0.01281287  0.54110496  1
  S2-  S242  1  0.63020398  0.24548572  0.04122964  1
  S2-  S243  1  0.62998796  0.23112891  0.53926136  1
  S2-  S244  1  0.62952509  0.49597502  0.05355145  1
  S2-  S245  1  0.62638811  0.47899873  0.54871846  1
  S2-  S246  1  0.62919778  0.74784672  0.04583074  1
  S2-  S247  1  0.62294360  0.73297588  0.54381596  1
  S2-  S248  1  0.87438974  -0.00492419  0.03258351  1
  S2-  S249  1  0.88000255  -0.02052166  0.55453615  1
  S2-  S250  1  0.87825884  0.24779136  0.04790165  1
  S2-  S251  1  0.88090779  0.23891446  0.54860226  1
  S2-  S252  1  0.87821438  0.49248763  0.04244505  1
  S2-  S253  1  0.87878768  0.48217332  0.55577927  1
  S2-  S254  1  0.87069048  0.74731885  0.03337618  1
  S2-  S255  1  0.86901053  0.73178116  0.55466016  1
