# generated using pymatgen
data_La6Ce6Pr19Nd20Sm13(BiS2)64
_symmetry_space_group_name_H-M   'P 1'
_cell_length_a   16.12522204
_cell_length_b   16.03927768
_cell_length_c   27.33510157
_cell_angle_alpha   90.26524635
_cell_angle_beta   90.09360949
_cell_angle_gamma   90.07091045
_symmetry_Int_Tables_number   1
_chemical_formula_structural   La6Ce6Pr19Nd20Sm13(BiS2)64
_chemical_formula_sum   'La6 Ce6 Pr19 Nd20 Sm13 Bi64 S128'
_cell_volume   7069.77563780
_cell_formula_units_Z   1
loop_
 _symmetry_equiv_pos_site_id
 _symmetry_equiv_pos_as_xyz
  1  'x, y, z'
loop_
 _atom_type_symbol
 _atom_type_oxidation_number
  La3+  3.0
  Ce3+  3.0
  Pr3+  3.0
  Nd3+  3.0
  Sm3+  3.0
  Bi2+  2.0
  S2-  -2.0
loop_
 _atom_site_type_symbol
 _atom_site_label
 _atom_site_symmetry_multiplicity
 _atom_site_fract_x
 _atom_site_fract_y
 _atom_site_fract_z
 _atom_site_occupancy
  La3+  La0  1  0.38227477  0.27364324  0.89081951  1
  La3+  La1  1  0.49800265  0.13829733  0.07457694  1
  La3+  La2  1  0.63486701  0.73108406  0.43216408  1
  La3+  La3  1  0.12880044  0.72651476  0.43335989  1
  La3+  La4  1  0.49889730  0.88605723  0.10686831  1
  La3+  La5  1  0.88186734  0.74152789  0.40659297  1
  Ce3+  Ce6  1  0.75141367  0.13025311  0.06539193  1
  Ce3+  Ce7  1  -0.00124975  0.38411628  0.07144717  1
  Ce3+  Ce8  1  0.00796160  0.85351859  0.56655002  1
  Ce3+  Ce9  1  0.87604782  0.50874054  0.93467149  1
  Ce3+  Ce10  1  0.75643538  0.10445423  0.57276204  1
  Ce3+  Ce11  1  0.13168317  -0.01731659  0.44672676  1
  Pr3+  Pr12  1  0.50037640  0.38413374  0.07363576  1
  Pr3+  Pr13  1  0.51082867  0.85905834  0.56067150  1
  Pr3+  Pr14  1  0.00009428  0.13348919  0.06911701  1
  Pr3+  Pr15  1  0.37549648  0.01369675  0.93642604  1
  Pr3+  Pr16  1  0.25699831  0.88436720  0.05898464  1
  Pr3+  Pr17  1  -0.00218990  0.63542539  0.06900783  1
  Pr3+  Pr18  1  0.00828395  0.60604004  0.56738886  1
  Pr3+  Pr19  1  0.38317250  0.72757461  0.43425222  1
  Pr3+  Pr20  1  0.63619820  0.48467883  0.42896300  1
  Pr3+  Pr21  1  0.76040983  0.60850292  0.56298365  1
  Pr3+  Pr22  1  0.25956371  0.60588860  0.56947813  1
  Pr3+  Pr23  1  0.63529677  -0.02098337  0.42823727  1
  Pr3+  Pr24  1  0.76169275  0.85425505  0.56042211  1
  Pr3+  Pr25  1  0.38216905  0.22776420  0.42764850  1
  Pr3+  Pr26  1  0.37544611  0.75841116  0.92939876  1
  Pr3+  Pr27  1  0.88387370  0.23388584  0.43959504  1
  Pr3+  Pr28  1  0.61883040  0.50356062  0.93682578  1
  Pr3+  Pr29  1  0.12291023  0.25675186  0.94169447  1
  Pr3+  Pr30  1  0.86822157  0.76164708  0.92170780  1
  Nd3+  Nd31  1  0.88640169  0.48357457  0.43610482  1
  Nd3+  Nd32  1  0.38336425  0.48582515  0.43374266  1
  Nd3+  Nd33  1  0.12273812  0.50748940  0.94310462  1
  Nd3+  Nd34  1  0.13719419  0.23079480  0.44620120  1
  Nd3+  Nd35  1  0.26249549  0.85611537  0.55560412  1
  Nd3+  Nd36  1  0.38376980  -0.02495897  0.42555268  1
  Nd3+  Nd37  1  0.01017891  0.35508310  0.56882839  1
  Nd3+  Nd38  1  0.37426711  0.50592911  0.94717728  1
  Nd3+  Nd39  1  0.61858417  0.75980859  0.93564483  1
  Nd3+  Nd40  1  0.26524082  0.35466769  0.55659921  1
  Nd3+  Nd41  1  0.62054942  0.25529964  0.94385799  1
  Nd3+  Nd42  1  0.63362488  0.23181001  0.44224974  1
  Nd3+  Nd43  1  0.62183112  0.00721219  0.95452969  1
  Nd3+  Nd44  1  0.50145167  0.63610055  0.06326043  1
  Nd3+  Nd45  1  0.75167391  0.38471055  0.05773306  1
  Nd3+  Nd46  1  0.87125714  0.01011288  0.93564198  1
  Nd3+  Nd47  1  0.26904401  0.10370816  0.57181781  1
  Nd3+  Nd48  1  0.87411252  0.25852907  0.93478558  1
  Nd3+  Nd49  1  0.75275922  0.87270871  0.07027198  1
  Nd3+  Nd50  1  0.88429256  -0.01024601  0.43952181  1
  Sm3+  Sm51  1  0.12301667  0.00807076  0.94343691  1
  Sm3+  Sm52  1  0.51278820  0.10758990  0.55632389  1
  Sm3+  Sm53  1  0.13443064  0.48254620  0.44089627  1
  Sm3+  Sm54  1  0.25048017  0.38179622  0.05443004  1
  Sm3+  Sm55  1  0.25247551  0.63711631  0.05479445  1
  Sm3+  Sm56  1  0.51015154  0.35833025  0.55172124  1
  Sm3+  Sm57  1  0.01131099  0.10035270  0.56784659  1
  Sm3+  Sm58  1  0.75944377  0.36174565  0.56112724  1
  Sm3+  Sm59  1  0.12095006  0.76006010  0.94689080  1
  Sm3+  Sm60  1  0.74909978  0.63686133  0.05175172  1
  Sm3+  Sm61  1  0.25476121  0.13460460  0.05435937  1
  Sm3+  Sm62  1  -0.00213079  0.88548216  0.06835655  1
  Sm3+  Sm63  1  0.51148435  0.60617444  0.56210190  1
  Bi2+  Bi64  1  -0.00437241  0.16958366  0.29700750  1
  Bi2+  Bi65  1  -0.01649988  0.13237243  0.75780619  1
  Bi2+  Bi66  1  -0.09148898  0.35071932  0.32458115  1
  Bi2+  Bi67  1  -0.06802873  0.32956782  0.73418613  1
  Bi2+  Bi68  1  0.01655401  0.62289441  0.29042079  1
  Bi2+  Bi69  1  -0.02239376  0.50477188  0.79929892  1
  Bi2+  Bi70  1  0.01338454  0.89791272  0.28667687  1
  Bi2+  Bi71  1  -0.01503685  0.81686219  0.78135771  1
  Bi2+  Bi72  1  0.18142134  0.10213775  0.27777183  1
  Bi2+  Bi73  1  0.21985795  0.13333298  0.79999869  1
  Bi2+  Bi74  1  0.25591461  0.36554042  0.30298313  1
  Bi2+  Bi75  1  0.18786634  0.38204106  0.78490239  1
  Bi2+  Bi76  1  0.25410402  0.56152506  0.28534682  1
  Bi2+  Bi77  1  0.25283766  0.69340796  0.81086692  1
  Bi2+  Bi78  1  0.21821745  0.81699442  0.28117509  1
  Bi2+  Bi79  1  0.28257013  0.88330898  0.78900640  1
  Bi2+  Bi80  1  0.51287252  0.16229580  0.29664980  1
  Bi2+  Bi81  1  0.50895747  0.05690775  0.78812676  1
  Bi2+  Bi82  1  0.51182974  0.44090968  0.28839034  1
  Bi2+  Bi83  1  0.54971464  0.41493922  0.80035417  1
  Bi2+  Bi84  1  0.50101959  0.64208003  0.28882590  1
  Bi2+  Bi85  1  0.48761189  0.66545976  0.75698490  1
  Bi2+  Bi86  1  0.49418552  0.90662626  0.29566140  1
  Bi2+  Bi87  1  0.47696298  0.85881511  0.79476329  1
  Bi2+  Bi88  1  0.79937532  0.16199769  0.27341599  1
  Bi2+  Bi89  1  0.73340815  0.17835288  0.81641095  1
  Bi2+  Bi90  1  0.70795297  0.39792676  0.31062175  1
  Bi2+  Bi91  1  0.76331846  0.36995772  0.79177447  1
  Bi2+  Bi92  1  0.75591789  0.58061102  0.28377850  1
  Bi2+  Bi93  1  0.76011424  0.64828594  0.78756747  1
  Bi2+  Bi94  1  0.74256473  0.90745744  0.29500092  1
  Bi2+  Bi95  1  0.74546474  0.91093601  0.79946451  1
  Bi2+  Bi96  1  0.14727006  -0.05373984  0.20629436  1
  Bi2+  Bi97  1  0.08911415  -0.03001830  0.74220902  1
  Bi2+  Bi98  1  0.12326501  0.26533730  0.21302285  1
  Bi2+  Bi99  1  0.10927911  0.26494821  0.69388707  1
  Bi2+  Bi100  1  0.07274397  0.42617190  0.27312727  1
  Bi2+  Bi101  1  0.15324419  0.51171888  0.69467571  1
  Bi2+  Bi102  1  0.12192788  0.69642085  0.20722066  1
  Bi2+  Bi103  1  0.10474619  0.69426503  0.72273134  1
  Bi2+  Bi104  1  0.34929540  0.01774061  0.21530678  1
  Bi2+  Bi105  1  0.38027852  -0.00967564  0.70818879  1
  Bi2+  Bi106  1  0.34244110  0.26911538  0.20437304  1
  Bi2+  Bi107  1  0.34982947  0.24336822  0.69255947  1
  Bi2+  Bi108  1  0.35891040  0.46668014  0.20519407  1
  Bi2+  Bi109  1  0.34253444  0.53705485  0.76664282  1
  Bi2+  Bi110  1  0.35426846  0.74440756  0.21733041  1
  Bi2+  Bi111  1  0.28196528  0.75649108  0.69364752  1
  Bi2+  Bi112  1  0.63706917  0.05246319  0.21605269  1
  Bi2+  Bi113  1  0.62959678  -0.02445340  0.70065028  1
  Bi2+  Bi114  1  0.61504200  0.34301446  0.20726690  1
  Bi2+  Bi115  1  0.58836551  0.20833523  0.72379530  1
  Bi2+  Bi116  1  0.54436095  0.52322170  0.18065787  1
  Bi2+  Bi117  1  0.62264654  0.39838014  0.69259523  1
  Bi2+  Bi118  1  0.62137212  0.71760926  0.21248201  1
  Bi2+  Bi119  1  0.63398772  0.74763201  0.70249722  1
  Bi2+  Bi120  1  0.90458503  0.02820762  0.21805278  1
  Bi2+  Bi121  1  0.81011509  0.06120482  0.73381653  1
  Bi2+  Bi122  1  0.86356501  0.30809554  0.20657764  1
  Bi2+  Bi123  1  0.76751334  0.26118312  0.68113928  1
  Bi2+  Bi124  1  0.88681654  0.50723153  0.21093544  1
  Bi2+  Bi125  1  0.84448772  0.52863270  0.71893039  1
  Bi2+  Bi126  1  0.86814406  0.76907829  0.20615025  1
  Bi2+  Bi127  1  0.88527222  0.84520443  0.68561772  1
  S2-  S128  1  0.01441482  0.00923454  0.14285632  1
  S2-  S129  1  -0.01951737  0.17860548  0.65272141  1
  S2-  S130  1  -0.00631486  0.25767051  0.14395297  1
  S2-  S131  1  0.01570542  0.47843226  0.64163707  1
  S2-  S132  1  0.00248051  0.50661020  0.14143629  1
  S2-  S133  1  -0.00346740  0.73210797  0.64195068  1
  S2-  S134  1  -0.00987071  0.76438545  0.14239996  1
  S2-  S135  1  0.01094197  0.95419627  0.64965050  1
  S2-  S136  1  0.27749020  0.12996803  0.15298808  1
  S2-  S137  1  0.21213251  0.14099201  0.66812974  1
  S2-  S138  1  0.22835665  0.37634367  0.15234550  1
  S2-  S139  1  0.24482260  0.36843273  0.65448864  1
  S2-  S140  1  0.25413855  0.64502811  0.15252568  1
  S2-  S141  1  0.31469309  0.58335920  0.66414450  1
  S2-  S142  1  0.33683037  0.88273217  0.14907793  1
  S2-  S143  1  0.26665625  0.91737137  0.64883935  1
  S2-  S144  1  0.48933729  0.04268135  0.16078309  1
  S2-  S145  1  0.40736110  0.10836991  0.63542641  1
  S2-  S146  1  0.49215859  0.26743366  0.15153027  1
  S2-  S147  1  0.47268918  0.34906504  0.64695871  1
  S2-  S148  1  0.48407451  0.72365793  0.14838053  1
  S2-  S149  1  0.54682539  0.61842982  0.65845866  1
  S2-  S150  1  0.59441406  0.87835898  0.19962674  1
  S2-  S151  1  0.51254330  0.86736603  0.66151582  1
  S2-  S152  1  0.71959738  0.15450622  0.16092926  1
  S2-  S153  1  0.61823254  0.11448668  0.63806104  1
  S2-  S154  1  0.75582182  0.42208852  0.15546752  1
  S2-  S155  1  0.75476319  0.48146707  0.63614010  1
  S2-  S156  1  0.75647174  0.70221741  0.14304775  1
  S2-  S157  1  0.76095646  0.73355216  0.63989973  1
  S2-  S158  1  0.81035086  0.91176769  0.16404737  1
  S2-  S159  1  0.77584206  0.96839224  0.64122221  1
  S2-  S160  1  0.12260843  -0.00902900  0.34999466  1
  S2-  S161  1  0.12376702  0.02222546  0.84476338  1
  S2-  S162  1  0.17899102  0.23225084  0.35025661  1
  S2-  S163  1  0.12160302  0.25366801  0.84045176  1
  S2-  S164  1  0.14368939  0.58619538  0.36200052  1
  S2-  S165  1  0.13109229  0.50971737  0.84323411  1
  S2-  S166  1  0.02857437  0.76161092  0.35126217  1
  S2-  S167  1  0.09871484  0.75495799  0.85051311  1
  S2-  S168  1  0.39946405  0.04679598  0.33256773  1
  S2-  S169  1  0.37172194  0.10748442  0.85141757  1
  S2-  S170  1  0.40851496  0.27244867  0.33100906  1
  S2-  S171  1  0.33311655  0.27600784  0.78668444  1
  S2-  S172  1  0.37651343  0.60202843  0.35857160  1
  S2-  S173  1  0.39886815  0.45100166  0.85409151  1
  S2-  S174  1  0.39097132  0.84094555  0.35458819  1
  S2-  S175  1  0.49848723  0.72745764  0.85745652  1
  S2-  S176  1  0.63406955  0.03821821  0.32883274  1
  S2-  S177  1  0.64553274  0.02766330  0.85518004  1
  S2-  S178  1  0.63778130  0.25008539  0.34371354  1
  S2-  S179  1  0.54595440  0.27235901  0.85388512  1
  S2-  S180  1  0.62979936  0.60898405  0.35603521  1
  S2-  S181  1  0.64604935  0.53700072  0.83850494  1
  S2-  S182  1  0.61736847  0.84535262  0.35321723  1
  S2-  S183  1  0.72083216  0.77141201  0.85374812  1
  S2-  S184  1  0.87660557  -0.09487129  0.35170987  1
  S2-  S185  1  0.88643540  -0.09800263  0.85686527  1
  S2-  S186  1  0.87186469  0.11693848  0.36354501  1
  S2-  S187  1  0.87907522  0.13703947  0.86123453  1
  S2-  S188  1  0.88768927  0.58373093  0.35452757  1
  S2-  S189  1  0.89340485  0.38500170  0.86245323  1
  S2-  S190  1  0.79188033  0.74960457  0.30356045  1
  S2-  S191  1  0.88752807  0.62235862  0.85717116  1
  S2-  S192  1  0.01225907  0.11226268  0.46197330  1
  S2-  S193  1  0.00144090  0.12992570  0.96100967  1
  S2-  S194  1  0.01383676  0.35712914  0.45805316  1
  S2-  S195  1  0.00217775  0.38252956  0.96254955  1
  S2-  S196  1  0.01021671  0.60152892  0.45987211  1
  S2-  S197  1  0.00460093  0.63390930  0.96089279  1
  S2-  S198  1  0.00742744  0.86063077  0.45883046  1
  S2-  S199  1  0.00307114  0.88556654  0.96167913  1
  S2-  S200  1  0.26187471  0.10443691  0.45467510  1
  S2-  S201  1  0.24667005  0.13351586  0.95190368  1
  S2-  S202  1  0.26147416  0.35964239  0.45055491  1
  S2-  S203  1  0.25245211  0.37886680  0.94849582  1
  S2-  S204  1  0.25918997  0.60451226  0.46299439  1
  S2-  S205  1  0.24904222  0.63377431  0.95034058  1
  S2-  S206  1  0.25481603  0.85428028  0.45023231  1
  S2-  S207  1  0.24859617  0.88374295  0.94978102  1
  S2-  S208  1  0.50926275  0.10614092  0.44919259  1
  S2-  S209  1  0.49872990  0.13449824  0.96109233  1
  S2-  S210  1  0.50767864  0.35978877  0.44567525  1
  S2-  S211  1  0.49560575  0.38030518  0.96359047  1
  S2-  S212  1  0.50847258  0.60487852  0.45775618  1
  S2-  S213  1  0.49711582  0.62932636  0.95843210  1
  S2-  S214  1  0.50729606  0.85619491  0.45598891  1
  S2-  S215  1  0.49690478  0.88669459  0.94624275  1
  S2-  S216  1  0.75384570  0.10995516  0.46238975  1
  S2-  S217  1  0.74642044  0.13337685  0.96129649  1
  S2-  S218  1  0.75832187  0.35871092  0.45561434  1
  S2-  S219  1  0.74485852  0.38144454  0.95205342  1
  S2-  S220  1  0.76272922  0.60670779  0.45528213  1
  S2-  S221  1  0.74263194  0.63143827  0.95121572  1
  S2-  S222  1  0.76134617  0.85760900  0.45307479  1
  S2-  S223  1  0.74750553  0.88488048  0.96189324  1
  S2-  S224  1  0.13141058  0.00831312  0.04645483  1
  S2-  S225  1  0.13923329  -0.01487631  0.55061346  1
  S2-  S226  1  0.13004777  0.25687572  0.04737091  1
  S2-  S227  1  0.13688947  0.23064535  0.55133989  1
  S2-  S228  1  0.13209464  0.51102291  0.04709740  1
  S2-  S229  1  0.13912594  0.47844175  0.54373399  1
  S2-  S230  1  0.12948035  0.76139698  0.05010624  1
  S2-  S231  1  0.13880424  0.73097683  0.54642506  1
  S2-  S232  1  0.37864665  0.00947978  0.04408165  1
  S2-  S233  1  0.38642423  -0.01900365  0.53586863  1
  S2-  S234  1  0.37107213  0.26176194  0.05007215  1
  S2-  S235  1  0.38819290  0.23307385  0.53537152  1
  S2-  S236  1  0.37366727  0.50955867  0.05293943  1
  S2-  S237  1  0.38691741  0.48290585  0.54325979  1
  S2-  S238  1  0.37662171  0.75787201  0.03793809  1
  S2-  S239  1  0.38709380  0.72946900  0.54803259  1
  S2-  S240  1  0.62503367  0.00143239  0.06000957  1
  S2-  S241  1  0.63351700  -0.01890969  0.53835223  1
  S2-  S242  1  0.62779893  0.26006662  0.05025010  1
  S2-  S243  1  0.63450157  0.23964004  0.54621778  1
  S2-  S244  1  0.62576623  0.51014702  0.04540691  1
  S2-  S245  1  0.63062817  0.48214588  0.53707001  1
  S2-  S246  1  0.62069038  0.76176803  0.04544787  1
  S2-  S247  1  0.62958907  0.72968780  0.54140649  1
  S2-  S248  1  0.87243803  0.00581182  0.04570353  1
  S2-  S249  1  0.88811013  -0.01397170  0.54424002  1
  S2-  S250  1  0.87093791  0.25733719  0.04277862  1
  S2-  S251  1  0.88302345  0.23562149  0.54681581  1
  S2-  S252  1  0.87013861  0.51235336  0.04283566  1
  S2-  S253  1  0.88650927  0.47756660  0.54107328  1
  S2-  S254  1  0.87490913  0.75841506  0.03665805  1
  S2-  S255  1  0.88531417  0.73091353  0.53727042  1
