# generated using pymatgen
data_La6Ce6Pr19Nd20Sm13(BiS2)64
_symmetry_space_group_name_H-M   'P 1'
_cell_length_a   16.09280168
_cell_length_b   16.09736565
_cell_length_c   27.28117242
_cell_angle_alpha   89.98817061
_cell_angle_beta   90.03589834
_cell_angle_gamma   89.89741317
_symmetry_Int_Tables_number   1
_chemical_formula_structural   La6Ce6Pr19Nd20Sm13(BiS2)64
_chemical_formula_sum   'La6 Ce6 Pr19 Nd20 Sm13 Bi64 S128'
_cell_volume   7067.22158194
_cell_formula_units_Z   1
loop_
 _symmetry_equiv_pos_site_id
 _symmetry_equiv_pos_as_xyz
  1  'x, y, z'
loop_
 _atom_type_symbol
 _atom_type_oxidation_number
  La3+  3.0
  Ce3+  3.0
  Pr3+  3.0
  Nd3+  3.0
  Sm3+  3.0
  Bi2+  2.0
  S2-  -2.0
loop_
 _atom_site_type_symbol
 _atom_site_label
 _atom_site_symmetry_multiplicity
 _atom_site_fract_x
 _atom_site_fract_y
 _atom_site_fract_z
 _atom_site_occupancy
  La3+  La0  1  0.62705681  0.50575586  0.89258486  1
  La3+  La1  1  0.38371314  0.50670592  0.43173044  1
  La3+  La2  1  0.50585044  0.35470586  0.07357952  1
  La3+  La3  1  0.87628384  0.50823438  0.41250170  1
  La3+  La4  1  0.50952648  0.35506995  0.61209394  1
  La3+  La5  1  0.37749784  0.25097884  0.39850358  1
  Ce3+  Ce6  1  0.24789755  0.86448458  0.06148408  1
  Ce3+  Ce7  1  0.87131958  0.24433127  0.93959326  1
  Ce3+  Ce8  1  0.87919627  0.25726971  0.43108953  1
  Ce3+  Ce9  1  0.62749501  0.73882075  0.95287472  1
  Ce3+  Ce10  1  0.13157146  0.75784586  0.44490759  1
  Ce3+  Ce11  1  -0.00234823  0.13522906  0.55736878  1
  Pr3+  Pr12  1  0.25410400  0.89132901  0.57644311  1
  Pr3+  Pr13  1  0.50028304  0.86782441  0.06220872  1
  Pr3+  Pr14  1  0.62856413  0.00934772  0.43404977  1
  Pr3+  Pr15  1  0.26243454  0.38484074  0.56193106  1
  Pr3+  Pr16  1  0.12367551  0.73962681  0.94581025  1
  Pr3+  Pr17  1  0.37546129  0.48776988  0.94473339  1
  Pr3+  Pr18  1  0.00134514  0.35959706  0.06752024  1
  Pr3+  Pr19  1  0.75432101  0.86467940  0.08824958  1
  Pr3+  Pr20  1  0.61972567  0.76215954  0.40955642  1
  Pr3+  Pr21  1  0.75740606  0.13797471  0.56476259  1
  Pr3+  Pr22  1  0.75342561  0.87687119  0.55956564  1
  Pr3+  Pr23  1  0.74899391  0.37109604  0.06395319  1
  Pr3+  Pr24  1  0.50437826  0.11231818  0.06314697  1
  Pr3+  Pr25  1  0.37794321  0.73763904  0.94279157  1
  Pr3+  Pr26  1  0.62444439  0.50402687  0.42778770  1
  Pr3+  Pr27  1  0.75330375  0.63418381  0.55102019  1
  Pr3+  Pr28  1  0.25138718  0.35790091  0.07553857  1
  Pr3+  Pr29  1  0.37752874  0.75899598  0.43938241  1
  Pr3+  Pr30  1  0.13737580  0.50564471  0.42524368  1
  Nd3+  Nd31  1  0.50857201  0.12189080  0.56946004  1
  Nd3+  Nd32  1  0.87342896  0.48960442  0.94000622  1
  Nd3+  Nd33  1  0.87821042  0.00417146  0.42938021  1
  Nd3+  Nd34  1  0.75118182  0.61372621  0.07277159  1
  Nd3+  Nd35  1  0.87229356  0.73681855  0.94481257  1
  Nd3+  Nd36  1  0.00348217  0.60629709  0.07241763  1
  Nd3+  Nd37  1  0.62670444  -0.00874698  0.93501767  1
  Nd3+  Nd38  1  0.00423911  0.38650616  0.55119903  1
  Nd3+  Nd39  1  0.12815400  0.49047685  0.94042601  1
  Nd3+  Nd40  1  0.12337538  0.24228184  0.93363242  1
  Nd3+  Nd41  1  0.50471247  0.62495321  0.55990501  1
  Nd3+  Nd42  1  0.00069602  0.88038904  0.55421245  1
  Nd3+  Nd43  1  0.36976127  0.24234449  0.93472247  1
  Nd3+  Nd44  1  0.49951989  0.61460891  0.07211051  1
  Nd3+  Nd45  1  0.12277482  -0.01080379  0.94620080  1
  Nd3+  Nd46  1  0.87633398  0.75754658  0.42199232  1
  Nd3+  Nd47  1  0.61882615  0.24164431  0.92661635  1
  Nd3+  Nd48  1  0.25518263  0.63917792  0.57003215  1
  Nd3+  Nd49  1  0.00205764  0.62825215  0.55202553  1
  Nd3+  Nd50  1  0.62565981  0.25370048  0.43874244  1
  Sm3+  Sm51  1  0.37420591  -0.00870309  0.94717508  1
  Sm3+  Sm52  1  0.74815681  0.11694449  0.05631365  1
  Sm3+  Sm53  1  0.13034324  0.00764352  0.44785408  1
  Sm3+  Sm54  1  -0.00204242  0.11813900  0.06066268  1
  Sm3+  Sm55  1  -0.00246540  0.86496065  0.06413391  1
  Sm3+  Sm56  1  0.24910003  0.11702807  0.05982170  1
  Sm3+  Sm57  1  0.13363295  0.25669579  0.44436045  1
  Sm3+  Sm58  1  0.50439404  0.88198881  0.55811683  1
  Sm3+  Sm59  1  0.87459645  -0.01029992  0.94501611  1
  Sm3+  Sm60  1  0.37701658  0.00844054  0.43821935  1
  Sm3+  Sm61  1  0.75158556  0.39094986  0.55583743  1
  Sm3+  Sm62  1  0.25118744  0.61287799  0.06456255  1
  Sm3+  Sm63  1  0.25870501  0.13485924  0.56058610  1
  Bi2+  Bi64  1  -0.06218085  0.14174226  0.31883689  1
  Bi2+  Bi65  1  0.01657525  0.21055947  0.80242992  1
  Bi2+  Bi66  1  0.03008071  0.32288740  0.29410596  1
  Bi2+  Bi67  1  0.02582779  0.42417145  0.82936534  1
  Bi2+  Bi68  1  0.01354197  0.73559497  0.27958680  1
  Bi2+  Bi69  1  0.00492901  0.61195189  0.79225182  1
  Bi2+  Bi70  1  -0.00838144  0.95384242  0.30019470  1
  Bi2+  Bi71  1  -0.00780145  0.89543195  0.78502196  1
  Bi2+  Bi72  1  0.23314786  0.08494688  0.27850174  1
  Bi2+  Bi73  1  0.27788541  0.12124541  0.79430468  1
  Bi2+  Bi74  1  0.20990315  0.40818026  0.29360994  1
  Bi2+  Bi75  1  0.22112753  0.38348731  0.79053625  1
  Bi2+  Bi76  1  0.27125086  0.67178582  0.28900622  1
  Bi2+  Bi77  1  0.23986896  0.63239920  0.79754620  1
  Bi2+  Bi78  1  0.25613825  0.87110440  0.30204642  1
  Bi2+  Bi79  1  0.24094870  0.91277523  0.78788881  1
  Bi2+  Bi80  1  0.49342648  0.08984523  0.27867557  1
  Bi2+  Bi81  1  0.49841198  0.07329217  0.79194646  1
  Bi2+  Bi82  1  0.53739328  0.36591507  0.29389399  1
  Bi2+  Bi83  1  0.46602829  0.35837830  0.80849763  1
  Bi2+  Bi84  1  0.53284968  0.63420990  0.28009870  1
  Bi2+  Bi85  1  0.48917544  0.64945505  0.79706347  1
  Bi2+  Bi86  1  0.45183671  0.89101096  0.29332990  1
  Bi2+  Bi87  1  0.53249445  0.87810243  0.78347103  1
  Bi2+  Bi88  1  0.74430113  0.16127030  0.33699897  1
  Bi2+  Bi89  1  0.76052815  0.09097659  0.79246318  1
  Bi2+  Bi90  1  0.75174202  0.34661980  0.28643373  1
  Bi2+  Bi91  1  0.84715525  0.38113438  0.78775504  1
  Bi2+  Bi92  1  0.78152575  0.59833352  0.27437691  1
  Bi2+  Bi93  1  0.76266621  0.65539098  0.79563696  1
  Bi2+  Bi94  1  0.72923858  0.98315590  0.29447837  1
  Bi2+  Bi95  1  0.73013203  0.88843042  0.79056418  1
  Bi2+  Bi96  1  0.07369642  0.00759113  0.19491059  1
  Bi2+  Bi97  1  0.11778830  0.07302852  0.73109910  1
  Bi2+  Bi98  1  0.11593850  0.19759915  0.21523813  1
  Bi2+  Bi99  1  0.13365070  0.26518206  0.70748409  1
  Bi2+  Bi100  1  0.07891200  0.57286514  0.21697672  1
  Bi2+  Bi101  1  0.10114765  0.48283007  0.71888638  1
  Bi2+  Bi102  1  0.14287814  0.82698696  0.20964953  1
  Bi2+  Bi103  1  0.12993917  0.81173404  0.71570236  1
  Bi2+  Bi104  1  0.35540985  0.01768933  0.20239356  1
  Bi2+  Bi105  1  0.37176900  -0.06472370  0.70163319  1
  Bi2+  Bi106  1  0.36370045  0.27773127  0.20544404  1
  Bi2+  Bi107  1  0.32222293  0.19552577  0.69391592  1
  Bi2+  Bi108  1  0.35266368  0.52840574  0.20026510  1
  Bi2+  Bi109  1  0.36393248  0.51202388  0.70151398  1
  Bi2+  Bi110  1  0.39357370  0.75583447  0.21371269  1
  Bi2+  Bi111  1  0.44142055  0.75293005  0.70115261  1
  Bi2+  Bi112  1  0.54715936  -0.00511613  0.17528839  1
  Bi2+  Bi113  1  0.65187446  -0.05466557  0.69119471  1
  Bi2+  Bi114  1  0.61839872  0.17550093  0.20391779  1
  Bi2+  Bi115  1  0.63573053  0.22306587  0.71505176  1
  Bi2+  Bi116  1  0.63339472  0.44321857  0.20422899  1
  Bi2+  Bi117  1  0.65719709  0.48184263  0.69791759  1
  Bi2+  Bi118  1  0.66811386  0.85082317  0.21794349  1
  Bi2+  Bi119  1  0.63757032  0.75107987  0.70340566  1
  Bi2+  Bi120  1  0.87541251  0.03743571  0.21118675  1
  Bi2+  Bi121  1  0.91982369  0.06067924  0.72981822  1
  Bi2+  Bi122  1  0.87776558  0.23881308  0.21461836  1
  Bi2+  Bi123  1  0.91526415  0.27019850  0.70619030  1
  Bi2+  Bi124  1  0.88990816  0.43624714  0.21645799  1
  Bi2+  Bi125  1  0.89780277  0.54494197  0.70154761  1
  Bi2+  Bi126  1  0.85667683  0.78094542  0.22005527  1
  Bi2+  Bi127  1  0.89899983  0.79490176  0.69954507  1
  S2-  S128  1  0.00183968  0.22685578  0.13833651  1
  S2-  S129  1  -0.10471217  0.13849111  0.63603635  1
  S2-  S130  1  0.02366753  0.46158495  0.15133759  1
  S2-  S131  1  -0.02056716  0.40975119  0.64954328  1
  S2-  S132  1  -0.02899034  0.66226597  0.16554120  1
  S2-  S133  1  -0.01608288  0.66425445  0.65035089  1
  S2-  S134  1  -0.09888575  0.88332242  0.14532346  1
  S2-  S135  1  0.00637219  0.89713202  0.65309621  1
  S2-  S136  1  0.24399536  0.21272543  0.14153654  1
  S2-  S137  1  0.26600538  0.03642116  0.64275649  1
  S2-  S138  1  0.25061716  0.40784654  0.17714349  1
  S2-  S139  1  0.34060328  0.37206475  0.65448980  1
  S2-  S140  1  0.22356401  0.62374892  0.16126724  1
  S2-  S141  1  0.22854106  0.55260377  0.65660879  1
  S2-  S142  1  0.29259436  0.86843935  0.15535814  1
  S2-  S143  1  0.24225307  0.76785676  0.64795691  1
  S2-  S144  1  0.47667252  0.21243614  0.14530168  1
  S2-  S145  1  0.48502689  0.19493514  0.66159561  1
  S2-  S146  1  0.46427464  0.40990637  0.17029084  1
  S2-  S147  1  0.53251683  0.36409078  0.72059889  1
  S2-  S148  1  0.50325429  0.61676784  0.17400306  1
  S2-  S149  1  0.51089574  0.52963761  0.64540045  1
  S2-  S150  1  0.52604333  0.82003750  0.15797050  1
  S2-  S151  1  0.50155446  0.97998833  0.63910405  1
  S2-  S152  1  0.73904469  0.07252611  0.15162420  1
  S2-  S153  1  0.67937859  0.10628868  0.65360879  1
  S2-  S154  1  0.66433999  0.30799921  0.14615443  1
  S2-  S155  1  0.68993161  0.33173328  0.64393768  1
  S2-  S156  1  0.76787678  0.49509609  0.14886223  1
  S2-  S157  1  0.77755070  0.52205141  0.62865969  1
  S2-  S158  1  0.73955947  0.72496003  0.15309091  1
  S2-  S159  1  0.77071949  0.75537545  0.63457109  1
  S2-  S160  1  0.14731156  -0.00665798  0.35052124  1
  S2-  S161  1  0.10945885  -0.02796559  0.84825021  1
  S2-  S162  1  0.19013275  0.26541777  0.35204832  1
  S2-  S163  1  0.24041906  0.25182827  0.85961647  1
  S2-  S164  1  0.07117500  0.48580563  0.32830233  1
  S2-  S165  1  0.24793897  0.50044916  0.86584988  1
  S2-  S166  1  0.14812528  0.73570946  0.34838998  1
  S2-  S167  1  0.12316387  0.70818441  0.84630938  1
  S2-  S168  1  0.36639036  0.09368483  0.35178097  1
  S2-  S169  1  0.36823447  -0.00762051  0.84934650  1
  S2-  S170  1  0.37480809  0.33625966  0.30563010  1
  S2-  S171  1  0.45215368  0.20656482  0.84653721  1
  S2-  S172  1  0.27027618  0.52961894  0.35314050  1
  S2-  S173  1  0.45985378  0.51424061  0.85633211  1
  S2-  S174  1  0.46579048  0.74239778  0.35163342  1
  S2-  S175  1  0.35101375  0.73244754  0.84294616  1
  S2-  S176  1  0.60689978  -0.08732153  0.35070330  1
  S2-  S177  1  0.62786203  0.10126038  0.85657218  1
  S2-  S178  1  0.54416917  0.22694649  0.34809256  1
  S2-  S179  1  0.61543038  0.34759799  0.84727368  1
  S2-  S180  1  0.50484505  0.51990697  0.34726225  1
  S2-  S181  1  0.62177985  0.54058015  0.78258342  1
  S2-  S182  1  0.67761450  0.70719148  0.31495779  1
  S2-  S183  1  0.62545950  0.68800909  0.86080016  1
  S2-  S184  1  0.85827041  -0.11073042  0.35279477  1
  S2-  S185  1  0.86144090  -0.03060705  0.84758658  1
  S2-  S186  1  0.89111182  0.36139526  0.35292091  1
  S2-  S187  1  0.82736019  0.23325753  0.84485370  1
  S2-  S188  1  0.73243204  0.49889033  0.34505886  1
  S2-  S189  1  0.79217022  0.51096618  0.85234534  1
  S2-  S190  1  0.89754161  0.64486274  0.34362381  1
  S2-  S191  1  0.88588718  0.71664382  0.84488679  1
  S2-  S192  1  0.00667290  0.13107786  0.45177364  1
  S2-  S193  1  -0.00169687  0.11558188  0.95439526  1
  S2-  S194  1  0.01386721  0.38076924  0.44771440  1
  S2-  S195  1  0.00089489  0.36465661  0.95811811  1
  S2-  S196  1  0.01123215  0.62959476  0.44623814  1
  S2-  S197  1  0.00037797  0.61324838  0.95921158  1
  S2-  S198  1  0.00663377  0.88317415  0.44852721  1
  S2-  S199  1  -0.00314631  0.86495324  0.95831724  1
  S2-  S200  1  0.25366316  0.13092925  0.45720641  1
  S2-  S201  1  0.24747104  0.11123790  0.95575187  1
  S2-  S202  1  0.26136903  0.37405259  0.45414570  1
  S2-  S203  1  0.24593519  0.36441533  0.96565184  1
  S2-  S204  1  0.25515083  0.63568607  0.46052420  1
  S2-  S205  1  0.24971623  0.61887767  0.96180419  1
  S2-  S206  1  0.25446855  0.88552417  0.46074764  1
  S2-  S207  1  0.25011201  0.86585946  0.95431282  1
  S2-  S208  1  0.49968375  0.12694678  0.45662697  1
  S2-  S209  1  0.49740162  0.10975936  0.95748190  1
  S2-  S210  1  0.49961339  0.37267685  0.43950724  1
  S2-  S211  1  0.49564073  0.36008440  0.95908013  1
  S2-  S212  1  0.50660104  0.63755091  0.45489077  1
  S2-  S213  1  0.50195288  0.61561549  0.96448112  1
  S2-  S214  1  0.50005733  0.88567878  0.45504556  1
  S2-  S215  1  0.50049293  0.86786177  0.95312128  1
  S2-  S216  1  0.75730748  0.12895825  0.45616091  1
  S2-  S217  1  0.75349369  0.11316935  0.95363128  1
  S2-  S218  1  0.75042472  0.37588788  0.45069025  1
  S2-  S219  1  0.74796764  0.36829873  0.95553367  1
  S2-  S220  1  0.74669320  0.64050358  0.44380620  1
  S2-  S221  1  0.75039619  0.61306961  0.96408259  1
  S2-  S222  1  0.74870997  0.87841950  0.45323709  1
  S2-  S223  1  0.75207876  0.86621193  0.95464931  1
  S2-  S224  1  0.12173262  -0.00757708  0.05276779  1
  S2-  S225  1  0.12374542  0.01059691  0.55113744  1
  S2-  S226  1  0.12479984  0.23584264  0.03865720  1
  S2-  S227  1  0.13014355  0.25729360  0.55098014  1
  S2-  S228  1  0.13088132  0.48878586  0.04729907  1
  S2-  S229  1  0.13163743  0.50761920  0.54121985  1
  S2-  S230  1  0.12216905  0.73989410  0.05354712  1
  S2-  S231  1  0.12514490  0.75854833  0.54843177  1
  S2-  S232  1  0.37173942  -0.00779234  0.05135642  1
  S2-  S233  1  0.37815376  0.00728226  0.54067788  1
  S2-  S234  1  0.37289451  0.23520366  0.04115037  1
  S2-  S235  1  0.38238155  0.25172750  0.55416158  1
  S2-  S236  1  0.37377601  0.48968387  0.05465690  1
  S2-  S237  1  0.37514893  0.51367311  0.54110632  1
  S2-  S238  1  0.37376091  0.73981903  0.05103729  1
  S2-  S239  1  0.38208728  0.76086400  0.54713734  1
  S2-  S240  1  0.63243642  -0.01512407  0.04272145  1
  S2-  S241  1  0.63307178  0.00311172  0.54024957  1
  S2-  S242  1  0.62712467  0.23376560  0.03583829  1
  S2-  S243  1  0.62403839  0.25401460  0.54320050  1
  S2-  S244  1  0.61980335  0.49280919  0.05927455  1
  S2-  S245  1  0.62760165  0.50626476  0.53510725  1
  S2-  S246  1  0.62582897  0.74233561  0.05468295  1
  S2-  S247  1  0.62190592  0.75820136  0.54539362  1
  S2-  S248  1  0.87573005  -0.00584002  0.04767969  1
  S2-  S249  1  0.87683094  0.00343880  0.53833389  1
  S2-  S250  1  0.86969524  0.23870020  0.04591351  1
  S2-  S251  1  0.87822672  0.26573534  0.53817162  1
  S2-  S252  1  0.88108389  0.48974508  0.04610096  1
  S2-  S253  1  0.88139283  0.50670268  0.52561024  1
  S2-  S254  1  0.87819458  0.73946301  0.04966777  1
  S2-  S255  1  0.88337811  0.75607496  0.53024108  1
