# generated using pymatgen
data_La6Ce6Pr19Nd20Sm13(BiS2)64
_symmetry_space_group_name_H-M   'P 1'
_cell_length_a   16.08461687
_cell_length_b   16.02649866
_cell_length_c   27.14866869
_cell_angle_alpha   89.92034926
_cell_angle_beta   90.01606291
_cell_angle_gamma   89.86859821
_symmetry_Int_Tables_number   1
_chemical_formula_structural   La6Ce6Pr19Nd20Sm13(BiS2)64
_chemical_formula_sum   'La6 Ce6 Pr19 Nd20 Sm13 Bi64 S128'
_cell_volume   6998.36083133
_cell_formula_units_Z   1
loop_
 _symmetry_equiv_pos_site_id
 _symmetry_equiv_pos_as_xyz
  1  'x, y, z'
loop_
 _atom_type_symbol
 _atom_type_oxidation_number
  La3+  3.0
  Ce3+  3.0
  Pr3+  3.0
  Nd3+  3.0
  Sm3+  3.0
  Bi2+  2.0
  S2-  -2.0
loop_
 _atom_site_type_symbol
 _atom_site_label
 _atom_site_symmetry_multiplicity
 _atom_site_fract_x
 _atom_site_fract_y
 _atom_site_fract_z
 _atom_site_occupancy
  La3+  La0  1  0.49974741  0.10245585  0.60269140  1
  La3+  La1  1  0.00532698  0.61812747  0.57465507  1
  La3+  La2  1  0.38034976  0.00793498  0.41011239  1
  La3+  La3  1  0.76975441  0.87657350  0.07894258  1
  La3+  La4  1  0.63744265  0.24212361  0.89518932  1
  La3+  La5  1  0.74762138  0.37510923  0.58054747  1
  Ce3+  Ce6  1  0.26689261  0.63090952  0.05474141  1
  Ce3+  Ce7  1  0.89288589  0.75757560  0.94272559  1
  Ce3+  Ce8  1  0.62529962  0.24468777  0.45327872  1
  Ce3+  Ce9  1  0.77068027  0.37652881  0.04496311  1
  Ce3+  Ce10  1  0.52271950  0.37611708  0.05798500  1
  Ce3+  Ce11  1  0.86867463  0.00465783  0.42578021  1
  Pr3+  Pr12  1  0.77396280  0.14112908  0.08095005  1
  Pr3+  Pr13  1  0.25261427  0.63385729  0.56943125  1
  Pr3+  Pr14  1  0.89559351  0.51528538  0.91725433  1
  Pr3+  Pr15  1  0.52028105  0.62457412  0.06800962  1
  Pr3+  Pr16  1  0.89363590  0.25255882  0.92779246  1
  Pr3+  Pr17  1  0.14172644  0.51014216  0.92433704  1
  Pr3+  Pr18  1  0.00097682  0.12241555  0.56250505  1
  Pr3+  Pr19  1  0.39817102  0.76209566  0.93963917  1
  Pr3+  Pr20  1  0.87305468  0.25005823  0.43539158  1
  Pr3+  Pr21  1  0.14900790  0.76967429  0.92763373  1
  Pr3+  Pr22  1  0.75108119  0.87502501  0.56182666  1
  Pr3+  Pr23  1  0.50048427  0.87345829  0.55141860  1
  Pr3+  Pr24  1  0.64295894  0.00782779  0.95053364  1
  Pr3+  Pr25  1  0.01975003  0.87830073  0.07498763  1
  Pr3+  Pr26  1  0.25533353  0.87655851  0.54756739  1
  Pr3+  Pr27  1  0.52332534  0.13292215  0.07622101  1
  Pr3+  Pr28  1  0.12756593  0.74657084  0.42727946  1
  Pr3+  Pr29  1  0.87296960  0.49605165  0.43792896  1
  Pr3+  Pr30  1  0.75577247  0.62974057  0.58007093  1
  Nd3+  Nd31  1  0.12360483  -0.00289796  0.42576591  1
  Nd3+  Nd32  1  0.27053537  0.86782198  0.08917768  1
  Nd3+  Nd33  1  0.51797379  0.87048626  0.08721174  1
  Nd3+  Nd34  1  0.00300370  0.37141671  0.55976145  1
  Nd3+  Nd35  1  0.00219718  0.87246970  0.55101881  1
  Nd3+  Nd36  1  0.12666165  0.24730923  0.42357683  1
  Nd3+  Nd37  1  0.25207274  0.12045325  0.55984924  1
  Nd3+  Nd38  1  0.64414624  0.50183890  0.93153875  1
  Nd3+  Nd39  1  0.26799547  0.13092276  0.06218858  1
  Nd3+  Nd40  1  0.01862957  0.62655533  0.06062845  1
  Nd3+  Nd41  1  0.01874899  0.14074549  0.06967406  1
  Nd3+  Nd42  1  0.76973933  0.62440782  0.05903943  1
  Nd3+  Nd43  1  0.01710131  0.38708445  0.05774597  1
  Nd3+  Nd44  1  0.50266552  0.62542814  0.55930243  1
  Nd3+  Nd45  1  0.14317527  0.00436296  0.95276915  1
  Nd3+  Nd46  1  0.24967241  0.37196675  0.55956971  1
  Nd3+  Nd47  1  0.38340733  0.74637445  0.42167088  1
  Nd3+  Nd48  1  0.39537899  0.00445756  0.95670720  1
  Nd3+  Nd49  1  0.62744686  0.49641997  0.44361989  1
  Nd3+  Nd50  1  0.39460277  0.50520079  0.93881143  1
  Sm3+  Sm51  1  0.88929713  0.00570791  0.94992991  1
  Sm3+  Sm52  1  0.39497348  0.25303760  0.94132120  1
  Sm3+  Sm53  1  0.49959268  0.37153453  0.56387069  1
  Sm3+  Sm54  1  0.12702942  0.49955356  0.43292661  1
  Sm3+  Sm55  1  0.13910829  0.25572707  0.93188674  1
  Sm3+  Sm56  1  0.62443668  0.00236628  0.43419252  1
  Sm3+  Sm57  1  0.37678118  0.49907917  0.44614181  1
  Sm3+  Sm58  1  0.37771463  0.24337902  0.45144594  1
  Sm3+  Sm59  1  0.63099275  0.74707104  0.43038763  1
  Sm3+  Sm60  1  0.26655963  0.38157471  0.05308561  1
  Sm3+  Sm61  1  0.75770152  0.12224797  0.56967556  1
  Sm3+  Sm62  1  0.87054578  0.74697742  0.43830834  1
  Sm3+  Sm63  1  0.63876446  0.75226912  0.93981887  1
  Bi2+  Bi64  1  0.00752974  0.21063906  0.29230601  1
  Bi2+  Bi65  1  0.06121125  0.12273033  0.77964463  1
  Bi2+  Bi66  1  0.00799428  0.41338137  0.28604051  1
  Bi2+  Bi67  1  0.04048168  0.35406901  0.77901611  1
  Bi2+  Bi68  1  -0.01902746  0.61027526  0.29670191  1
  Bi2+  Bi69  1  -0.00505544  0.62361537  0.78018503  1
  Bi2+  Bi70  1  -0.05652983  0.89793779  0.30854711  1
  Bi2+  Bi71  1  0.03394078  0.84503507  0.78562753  1
  Bi2+  Bi72  1  0.25518654  0.21480415  0.28991253  1
  Bi2+  Bi73  1  0.26235153  0.13719196  0.79129722  1
  Bi2+  Bi74  1  0.29364458  0.40936306  0.29106007  1
  Bi2+  Bi75  1  0.22704308  0.33168808  0.81610930  1
  Bi2+  Bi76  1  0.23941890  0.59845742  0.27755029  1
  Bi2+  Bi77  1  0.26143549  0.52981654  0.80321208  1
  Bi2+  Bi78  1  0.19894669  0.84547257  0.26891348  1
  Bi2+  Bi79  1  0.25901456  0.93799930  0.80738706  1
  Bi2+  Bi80  1  0.51959064  0.14668666  0.30249885  1
  Bi2+  Bi81  1  0.49107824  0.10047810  0.79582478  1
  Bi2+  Bi82  1  0.49155295  0.36938141  0.29527714  1
  Bi2+  Bi83  1  0.47645044  0.40207801  0.74862145  1
  Bi2+  Bi84  1  0.54375430  0.56321855  0.28069789  1
  Bi2+  Bi85  1  0.47761763  0.63810709  0.81636230  1
  Bi2+  Bi86  1  0.44156834  0.84234276  0.28986722  1
  Bi2+  Bi87  1  0.50218223  0.88284899  0.78073121  1
  Bi2+  Bi88  1  0.75528307  0.13025374  0.29357519  1
  Bi2+  Bi89  1  0.77714156  0.07486321  0.79082279  1
  Bi2+  Bi90  1  0.77970782  0.39520825  0.27722190  1
  Bi2+  Bi91  1  0.77678151  0.34684031  0.77119410  1
  Bi2+  Bi92  1  0.78789013  0.60606678  0.28868020  1
  Bi2+  Bi93  1  0.76062298  0.62557456  0.78627882  1
  Bi2+  Bi94  1  0.74894428  0.86148271  0.28417083  1
  Bi2+  Bi95  1  0.76468658  0.85455248  0.80120365  1
  Bi2+  Bi96  1  0.05230540  0.03321278  0.26044978  1
  Bi2+  Bi97  1  0.17150412  0.03313086  0.69645595  1
  Bi2+  Bi98  1  0.16381351  0.29621030  0.20276685  1
  Bi2+  Bi99  1  0.12986041  0.21843461  0.65630978  1
  Bi2+  Bi100  1  0.10123696  0.53830664  0.20144931  1
  Bi2+  Bi101  1  0.13671881  0.49895947  0.71467644  1
  Bi2+  Bi102  1  0.10106013  0.73121457  0.17690945  1
  Bi2+  Bi103  1  0.15344340  0.77195960  0.70489089  1
  Bi2+  Bi104  1  0.32261627  0.01217902  0.20899795  1
  Bi2+  Bi105  1  0.36610173  -0.08646399  0.69622637  1
  Bi2+  Bi106  1  0.40336557  0.24898783  0.21177459  1
  Bi2+  Bi107  1  0.29664020  0.28376653  0.71184944  1
  Bi2+  Bi108  1  0.39842851  0.44437886  0.17857264  1
  Bi2+  Bi109  1  0.38903361  0.56743752  0.70420032  1
  Bi2+  Bi110  1  0.39226017  0.63266402  0.20787606  1
  Bi2+  Bi111  1  0.31680296  0.72170161  0.76761979  1
  Bi2+  Bi112  1  0.59468530  -0.00186602  0.22047021  1
  Bi2+  Bi113  1  0.65853844  -0.03665847  0.72453397  1
  Bi2+  Bi114  1  0.63334587  0.31529026  0.21932509  1
  Bi2+  Bi115  1  0.63043986  0.23101878  0.70938518  1
  Bi2+  Bi116  1  0.59711944  0.50009714  0.17408847  1
  Bi2+  Bi117  1  0.59136759  0.54156217  0.70532991  1
  Bi2+  Bi118  1  0.64200724  0.73764057  0.21941603  1
  Bi2+  Bi119  1  0.63344636  0.75415590  0.73114680  1
  Bi2+  Bi120  1  0.85277521  0.00793525  0.21924197  1
  Bi2+  Bi121  1  0.95095871  -0.00655773  0.71887987  1
  Bi2+  Bi122  1  0.89560643  0.26734839  0.20190271  1
  Bi2+  Bi123  1  0.94845207  0.22717867  0.69882853  1
  Bi2+  Bi124  1  0.80240931  0.51828576  0.18360001  1
  Bi2+  Bi125  1  0.88464327  0.50569889  0.70758906  1
  Bi2+  Bi126  1  0.92780794  0.75768599  0.22399950  1
  Bi2+  Bi127  1  0.87382171  0.80262046  0.70584921  1
  S2-  S128  1  -0.08766868  0.11797968  0.14961876  1
  S2-  S129  1  -0.11162073  0.09107884  0.64102692  1
  S2-  S130  1  0.03742284  0.28037182  0.13827413  1
  S2-  S131  1  0.00604107  0.45866317  0.64702102  1
  S2-  S132  1  -0.02298767  0.50749392  0.13300035  1
  S2-  S133  1  -0.10478490  0.64743771  0.65348565  1
  S2-  S134  1  -0.09891468  0.88031988  0.15073388  1
  S2-  S135  1  0.01685214  0.84697395  0.64990627  1
  S2-  S136  1  0.24362462  0.15428364  0.15987657  1
  S2-  S137  1  0.32571411  0.05708401  0.64454347  1
  S2-  S138  1  0.22901636  0.43171984  0.14562057  1
  S2-  S139  1  0.26052983  0.42319908  0.65525441  1
  S2-  S140  1  0.26780515  0.70453217  0.14473752  1
  S2-  S141  1  0.13580048  0.63156634  0.64641148  1
  S2-  S142  1  0.17865177  0.92411624  0.17221289  1
  S2-  S143  1  0.27857665  0.78892251  0.63516214  1
  S2-  S144  1  0.47372606  0.08410587  0.17516906  1
  S2-  S145  1  0.48180658  0.17505987  0.69805366  1
  S2-  S146  1  0.53100167  0.27682974  0.14078952  1
  S2-  S147  1  0.55765225  0.37780427  0.65687740  1
  S2-  S148  1  0.51774978  0.72072850  0.15305149  1
  S2-  S149  1  0.50191170  0.67448776  0.65578536  1
  S2-  S150  1  0.39242959  0.88963216  0.16340281  1
  S2-  S151  1  0.50968014  0.93550747  0.64702953  1
  S2-  S152  1  0.69872102  0.09507913  0.17579541  1
  S2-  S153  1  0.66208260  0.09836381  0.65291737  1
  S2-  S154  1  0.77815765  0.30372722  0.13645544  1
  S2-  S155  1  0.78873343  0.28994138  0.66838172  1
  S2-  S156  1  0.77204706  0.68140501  0.15438420  1
  S2-  S157  1  0.73598646  0.50622288  0.65392053  1
  S2-  S158  1  0.65036548  0.87631763  0.15616584  1
  S2-  S159  1  0.72949616  0.77384953  0.64478236  1
  S2-  S160  1  0.12871365  0.11741855  0.35041855  1
  S2-  S161  1  0.12092267  -0.07193094  0.86314116  1
  S2-  S162  1  0.12840150  0.38261177  0.35656567  1
  S2-  S163  1  0.02397725  0.23692551  0.85678602  1
  S2-  S164  1  0.13090609  0.61696697  0.35610048  1
  S2-  S165  1  0.02624910  0.49158853  0.84677006  1
  S2-  S166  1  0.11521568  0.86645663  0.35001971  1
  S2-  S167  1  0.10322945  0.70311988  0.83355456  1
  S2-  S168  1  0.31534883  -0.03910164  0.31175725  1
  S2-  S169  1  0.41352397  -0.01537214  0.85689735  1
  S2-  S170  1  0.37652795  0.17452446  0.35923496  1
  S2-  S171  1  0.46841988  0.22695832  0.85363847  1
  S2-  S172  1  0.40793886  0.50798256  0.34880995  1
  S2-  S173  1  0.42465514  0.47516274  0.84165221  1
  S2-  S174  1  0.31565446  0.74779163  0.32517053  1
  S2-  S175  1  0.28940047  0.79081911  0.86026965  1
  S2-  S176  1  0.52440125  -0.00080586  0.34474624  1
  S2-  S177  1  0.63423911  0.07537795  0.85430840  1
  S2-  S178  1  0.65181803  0.22881924  0.35608435  1
  S2-  S179  1  0.62515056  0.34139138  0.80491657  1
  S2-  S180  1  0.67131482  0.51119921  0.34673106  1
  S2-  S181  1  0.63296854  0.60825890  0.85244067  1
  S2-  S182  1  0.51991999  0.74763161  0.35106373  1
  S2-  S183  1  0.52557879  0.78591759  0.86643592  1
  S2-  S184  1  0.73580275  -0.00519121  0.35538185  1
  S2-  S185  1  0.87114765  -0.02694840  0.85165434  1
  S2-  S186  1  0.88269049  0.13668894  0.35537870  1
  S2-  S187  1  0.79727246  0.22163701  0.84176480  1
  S2-  S188  1  0.87455590  0.37748645  0.36079665  1
  S2-  S189  1  0.80168466  0.47366449  0.83039942  1
  S2-  S190  1  0.75937740  0.73948453  0.35989119  1
  S2-  S191  1  0.88319929  0.67474363  0.85591637  1
  S2-  S192  1  0.00299986  0.12338881  0.45580127  1
  S2-  S193  1  0.01805641  0.12510102  0.95926998  1
  S2-  S194  1  0.00488115  0.37371421  0.45592118  1
  S2-  S195  1  0.02131772  0.38119299  0.95072466  1
  S2-  S196  1  -0.00453200  0.62282219  0.45352190  1
  S2-  S197  1  0.02420377  0.63808066  0.95400411  1
  S2-  S198  1  -0.00711595  0.87324858  0.44688269  1
  S2-  S199  1  0.01380949  0.88214211  0.96538181  1
  S2-  S200  1  0.24932412  0.12268343  0.45409094  1
  S2-  S201  1  0.26724734  0.13140711  0.95272385  1
  S2-  S202  1  0.25789866  0.37226526  0.45306230  1
  S2-  S203  1  0.26753392  0.37883926  0.94746760  1
  S2-  S204  1  0.25757615  0.62248469  0.45420999  1
  S2-  S205  1  0.26948224  0.63114266  0.94822992  1
  S2-  S206  1  0.25763022  0.87599712  0.44151509  1
  S2-  S207  1  0.26949592  0.88457022  0.97226354  1
  S2-  S208  1  0.50286417  0.12351357  0.45597457  1
  S2-  S209  1  0.51596513  0.13174885  0.96570268  1
  S2-  S210  1  0.49881382  0.37182557  0.45763971  1
  S2-  S211  1  0.51939774  0.37651536  0.94940224  1
  S2-  S212  1  0.50412822  0.62002230  0.45262880  1
  S2-  S213  1  0.51831836  0.62680310  0.96045776  1
  S2-  S214  1  0.50502446  0.87465925  0.44660815  1
  S2-  S215  1  0.52114259  0.88309331  0.97338518  1
  S2-  S216  1  0.75020080  0.12389579  0.46352359  1
  S2-  S217  1  0.76989675  0.12947572  0.95815310  1
  S2-  S218  1  0.74825009  0.37240340  0.46588586  1
  S2-  S219  1  0.76285130  0.37456186  0.93992407  1
  S2-  S220  1  0.75035768  0.62071628  0.46188750  1
  S2-  S221  1  0.76361861  0.63235738  0.95334811  1
  S2-  S222  1  0.74947067  0.87325444  0.45614366  1
  S2-  S223  1  0.76535114  0.87793770  0.96184923  1
  S2-  S224  1  0.14016626  0.00872802  0.05778959  1
  S2-  S225  1  0.12641255  -0.00205423  0.53991570  1
  S2-  S226  1  0.14741699  0.25721335  0.03646047  1
  S2-  S227  1  0.12807424  0.24879044  0.53519713  1
  S2-  S228  1  0.14523417  0.50668589  0.03388648  1
  S2-  S229  1  0.13147357  0.49860328  0.53891152  1
  S2-  S230  1  0.14106711  0.75553580  0.04378583  1
  S2-  S231  1  0.12634137  0.74964589  0.53486263  1
  S2-  S232  1  0.39273290  0.00656824  0.06050524  1
  S2-  S233  1  0.37940221  0.00028165  0.53344756  1
  S2-  S234  1  0.38858786  0.25701776  0.04655322  1
  S2-  S235  1  0.37843620  0.24551272  0.55705482  1
  S2-  S236  1  0.39255794  0.50319886  0.04497848  1
  S2-  S237  1  0.37681112  0.49928703  0.55112540  1
  S2-  S238  1  0.39564052  0.75159954  0.04746822  1
  S2-  S239  1  0.38025650  0.74636103  0.53138570  1
  S2-  S240  1  0.64814092  0.00868240  0.05689139  1
  S2-  S241  1  0.62782002  -0.00017767  0.54249931  1
  S2-  S242  1  0.64712171  0.25399923  0.04215879  1
  S2-  S243  1  0.62086416  0.24309231  0.55869648  1
  S2-  S244  1  0.64538566  0.50147732  0.03934716  1
  S2-  S245  1  0.62057710  0.49801549  0.54900081  1
  S2-  S246  1  0.64500879  0.74959947  0.04547117  1
  S2-  S247  1  0.62553584  0.74768541  0.53827922  1
  S2-  S248  1  0.89397694  0.00687043  0.05116270  1
  S2-  S249  1  0.87635128  -0.00474675  0.53690868  1
  S2-  S250  1  0.89862950  0.25739274  0.03546907  1
  S2-  S251  1  0.87710164  0.24985696  0.54620321  1
  S2-  S252  1  0.89038483  0.50605987  0.02601559  1
  S2-  S253  1  0.87559699  0.49690250  0.54589258  1
  S2-  S254  1  0.89488848  0.75013227  0.04859235  1
  S2-  S255  1  0.87775825  0.74986261  0.54179269  1
