# generated using pymatgen
data_La6Ce6Pr19Nd20Sm13(BiS2)64
_symmetry_space_group_name_H-M   'P 1'
_cell_length_a   16.16158181
_cell_length_b   16.16511737
_cell_length_c   27.20336156
_cell_angle_alpha   89.96146961
_cell_angle_beta   89.95352454
_cell_angle_gamma   89.92862212
_symmetry_Int_Tables_number   1
_chemical_formula_structural   La6Ce6Pr19Nd20Sm13(BiS2)64
_chemical_formula_sum   'La6 Ce6 Pr19 Nd20 Sm13 Bi64 S128'
_cell_volume   7106.97394665
_cell_formula_units_Z   1
loop_
 _symmetry_equiv_pos_site_id
 _symmetry_equiv_pos_as_xyz
  1  'x, y, z'
loop_
 _atom_type_symbol
 _atom_type_oxidation_number
  La3+  3.0
  Ce3+  3.0
  Pr3+  3.0
  Nd3+  3.0
  Sm3+  3.0
  Bi2+  2.0
  S2-  -2.0
loop_
 _atom_site_type_symbol
 _atom_site_label
 _atom_site_symmetry_multiplicity
 _atom_site_fract_x
 _atom_site_fract_y
 _atom_site_fract_z
 _atom_site_occupancy
  La3+  La0  1  0.11957616  -0.01521995  0.40361002  1
  La3+  La1  1  0.48795105  0.38155227  0.61252962  1
  La3+  La2  1  0.00017055  0.11346013  0.55900117  1
  La3+  La3  1  0.11732970  0.00540744  0.88681193  1
  La3+  La4  1  0.38260748  0.23260695  0.41731450  1
  La3+  La5  1  0.24899875  0.61289231  0.56563931  1
  Ce3+  Ce6  1  0.49832539  0.61450107  0.56049466  1
  Ce3+  Ce7  1  0.24602697  0.12863935  0.06873424  1
  Ce3+  Ce8  1  -0.00048769  0.62966697  0.05399585  1
  Ce3+  Ce9  1  0.75044073  0.13103667  0.06207910  1
  Ce3+  Ce10  1  0.87835419  0.00707699  0.94057177  1
  Ce3+  Ce11  1  0.37891089  -0.01087387  0.43374684  1
  Pr3+  Pr12  1  0.87394436  -0.02077995  0.43098620  1
  Pr3+  Pr13  1  -0.00814365  0.12688256  0.07810153  1
  Pr3+  Pr14  1  0.63395432  0.51467567  0.90854256  1
  Pr3+  Pr15  1  0.49539578  0.13221695  0.07148284  1
  Pr3+  Pr16  1  0.37231422  0.50439364  0.93826707  1
  Pr3+  Pr17  1  0.87567609  0.50208367  0.93562584  1
  Pr3+  Pr18  1  0.24596949  0.88099022  0.05596752  1
  Pr3+  Pr19  1  0.49957202  0.87683139  0.06675008  1
  Pr3+  Pr20  1  0.62353411  0.75757178  0.93173711  1
  Pr3+  Pr21  1  0.37480968  0.74259369  0.44896774  1
  Pr3+  Pr22  1  0.74706661  0.38147825  0.05546255  1
  Pr3+  Pr23  1  0.74662832  0.35538600  0.57205415  1
  Pr3+  Pr24  1  0.12227431  0.74197135  0.44322178  1
  Pr3+  Pr25  1  0.37394430  0.00557436  0.93808941  1
  Pr3+  Pr26  1  0.12496342  0.75190281  0.92702328  1
  Pr3+  Pr27  1  0.24652305  0.63083182  0.06680363  1
  Pr3+  Pr28  1  0.87678095  0.23884773  0.43723698  1
  Pr3+  Pr29  1  0.12337476  0.48973574  0.44000118  1
  Pr3+  Pr30  1  0.74672383  0.61015073  0.56368009  1
  Nd3+  Nd31  1  0.87271104  0.48824978  0.44115668  1
  Nd3+  Nd32  1  -0.00176532  0.36413917  0.56824955  1
  Nd3+  Nd33  1  0.87623009  0.25171036  0.94045721  1
  Nd3+  Nd34  1  0.74681437  0.86536091  0.56860907  1
  Nd3+  Nd35  1  0.74899160  0.62851426  0.05634236  1
  Nd3+  Nd36  1  0.49749595  0.11825808  0.56361250  1
  Nd3+  Nd37  1  0.74738626  0.87927106  0.05448568  1
  Nd3+  Nd38  1  0.37300178  0.25325422  0.94396622  1
  Nd3+  Nd39  1  0.12433011  0.23800368  0.43658086  1
  Nd3+  Nd40  1  0.62407102  0.23990149  0.43636393  1
  Nd3+  Nd41  1  0.00053541  0.61226847  0.56455585  1
  Nd3+  Nd42  1  0.37236820  0.75513988  0.94123909  1
  Nd3+  Nd43  1  0.25094382  0.11511793  0.55096990  1
  Nd3+  Nd44  1  0.62278157  0.25352240  0.93957465  1
  Nd3+  Nd45  1  0.87606761  0.75867124  0.94115167  1
  Nd3+  Nd46  1  0.24759810  0.37897104  0.06070985  1
  Nd3+  Nd47  1  0.49814431  0.87064619  0.57075331  1
  Nd3+  Nd48  1  0.62341007  0.48654818  0.44869968  1
  Nd3+  Nd49  1  0.37558751  0.48738696  0.43907383  1
  Nd3+  Nd50  1  -0.00738583  0.86928081  0.57642862  1
  Sm3+  Sm51  1  0.87487100  0.74053171  0.45549238  1
  Sm3+  Sm52  1  0.74869323  0.11675632  0.54823915  1
  Sm3+  Sm53  1  0.00137586  0.88138596  0.05675637  1
  Sm3+  Sm54  1  0.49978011  0.62762731  0.05269331  1
  Sm3+  Sm55  1  0.62463478  -0.01413206  0.44472698  1
  Sm3+  Sm56  1  0.24648035  0.86756876  0.55823897  1
  Sm3+  Sm57  1  0.49930380  0.38192767  0.05111873  1
  Sm3+  Sm58  1  0.12424873  0.24609953  0.94836768  1
  Sm3+  Sm59  1  0.62415078  0.73982411  0.44986055  1
  Sm3+  Sm60  1  0.12493821  0.50527168  0.93876059  1
  Sm3+  Sm61  1  -0.00062672  0.37871041  0.05251528  1
  Sm3+  Sm62  1  0.25477690  0.36037452  0.55143107  1
  Sm3+  Sm63  1  0.61926397  0.00621687  0.94434518  1
  Bi2+  Bi64  1  0.01939999  0.11991483  0.28548749  1
  Bi2+  Bi65  1  -0.00722473  0.14721175  0.78840334  1
  Bi2+  Bi66  1  -0.03955552  0.36651954  0.29643215  1
  Bi2+  Bi67  1  0.05659956  0.39522386  0.80464046  1
  Bi2+  Bi68  1  0.01515046  0.64083834  0.29263230  1
  Bi2+  Bi69  1  0.02094105  0.58196370  0.78226997  1
  Bi2+  Bi70  1  -0.00103018  0.84049314  0.28848783  1
  Bi2+  Bi71  1  -0.02006043  0.86694726  0.78631835  1
  Bi2+  Bi72  1  0.25945193  0.16435485  0.28350923  1
  Bi2+  Bi73  1  0.24871382  0.14317132  0.78934722  1
  Bi2+  Bi74  1  0.27180349  0.43422616  0.27730335  1
  Bi2+  Bi75  1  0.21744464  0.35666700  0.73839065  1
  Bi2+  Bi76  1  0.21258394  0.62708491  0.27750311  1
  Bi2+  Bi77  1  0.26191068  0.59803906  0.79097250  1
  Bi2+  Bi78  1  0.27092117  0.81713044  0.29041029  1
  Bi2+  Bi79  1  0.28053908  0.85749768  0.79276111  1
  Bi2+  Bi80  1  0.50146372  0.11085497  0.28227622  1
  Bi2+  Bi81  1  0.52983835  0.11561097  0.78745704  1
  Bi2+  Bi82  1  0.50752596  0.38950625  0.30121499  1
  Bi2+  Bi83  1  0.47098811  0.35152177  0.81280484  1
  Bi2+  Bi84  1  0.50017561  0.66488205  0.25716694  1
  Bi2+  Bi85  1  0.56157916  0.64518909  0.74406787  1
  Bi2+  Bi86  1  0.51020052  0.85633246  0.31671479  1
  Bi2+  Bi87  1  0.52874995  0.85930642  0.81111128  1
  Bi2+  Bi88  1  0.77118042  0.13788205  0.27903037  1
  Bi2+  Bi89  1  0.73275937  0.07404336  0.79088076  1
  Bi2+  Bi90  1  0.77424147  0.41608832  0.30927810  1
  Bi2+  Bi91  1  0.85813481  0.37895203  0.80056797  1
  Bi2+  Bi92  1  0.69106860  0.62557978  0.29131491  1
  Bi2+  Bi93  1  0.76315244  0.68309914  0.80965367  1
  Bi2+  Bi94  1  0.78865030  0.88484569  0.29950099  1
  Bi2+  Bi95  1  0.71961276  0.87731817  0.79923588  1
  Bi2+  Bi96  1  0.12597358  -0.01564773  0.20115003  1
  Bi2+  Bi97  1  0.14194090  -0.00533045  0.68455983  1
  Bi2+  Bi98  1  0.13034863  0.29059941  0.20440711  1
  Bi2+  Bi99  1  0.05342585  0.28378886  0.69515185  1
  Bi2+  Bi100  1  0.03230276  0.49198753  0.21607007  1
  Bi2+  Bi101  1  0.08742273  0.48513194  0.68735809  1
  Bi2+  Bi102  1  0.12769536  0.74205986  0.19763906  1
  Bi2+  Bi103  1  0.15279253  0.74656732  0.70430616  1
  Bi2+  Bi104  1  0.39182634  -0.04679809  0.24678456  1
  Bi2+  Bi105  1  0.40545465  -0.02199308  0.73216443  1
  Bi2+  Bi106  1  0.39578544  0.24598998  0.19448658  1
  Bi2+  Bi107  1  0.37564135  0.17742651  0.71070931  1
  Bi2+  Bi108  1  0.44258664  0.49579189  0.21139667  1
  Bi2+  Bi109  1  0.35787056  0.50074436  0.70832166  1
  Bi2+  Bi110  1  0.37278312  0.76483483  0.19035999  1
  Bi2+  Bi111  1  0.42899387  0.78135755  0.71992264  1
  Bi2+  Bi112  1  0.66149108  -0.00886496  0.23754918  1
  Bi2+  Bi113  1  0.62719368  -0.00593570  0.70423032  1
  Bi2+  Bi114  1  0.66015313  0.28941980  0.24776011  1
  Bi2+  Bi115  1  0.64287353  0.23411242  0.71173688  1
  Bi2+  Bi116  1  0.65667107  0.47303431  0.20081807  1
  Bi2+  Bi117  1  0.67582995  0.48986547  0.73220892  1
  Bi2+  Bi118  1  0.66239773  0.76743135  0.21251402  1
  Bi2+  Bi119  1  0.61712939  0.80395028  0.67690020  1
  Bi2+  Bi120  1  0.85828164  -0.01108309  0.20678857  1
  Bi2+  Bi121  1  0.86393587  0.02105130  0.71285420  1
  Bi2+  Bi122  1  0.86698911  0.26944483  0.20952873  1
  Bi2+  Bi123  1  0.86107436  0.24756097  0.71164507  1
  Bi2+  Bi124  1  0.83897831  0.53625186  0.20688830  1
  Bi2+  Bi125  1  0.88747305  0.50871444  0.71113951  1
  Bi2+  Bi126  1  0.86060883  0.72938746  0.23104810  1
  Bi2+  Bi127  1  0.80030827  0.76252214  0.70946836  1
  S2-  S128  1  0.06602889  0.13724296  0.17200717  1
  S2-  S129  1  -0.00941873  0.07068957  0.65673420  1
  S2-  S130  1  -0.00359350  0.35567007  0.14980471  1
  S2-  S131  1  -0.12301778  0.37225789  0.64146325  1
  S2-  S132  1  0.02343959  0.63491788  0.14965236  1
  S2-  S133  1  0.02711991  0.64648232  0.66037026  1
  S2-  S134  1  -0.00882223  0.91035261  0.15525712  1
  S2-  S135  1  0.04467820  0.85646285  0.67465955  1
  S2-  S136  1  0.29308662  0.13266052  0.16476596  1
  S2-  S137  1  0.24857822  0.12688569  0.65152396  1
  S2-  S138  1  0.24468159  0.37854821  0.16153354  1
  S2-  S139  1  0.30949953  0.36899663  0.64418990  1
  S2-  S140  1  0.25067290  0.63219815  0.16726553  1
  S2-  S141  1  0.26024461  0.63347505  0.66501639  1
  S2-  S142  1  0.22645693  0.88139582  0.15664473  1
  S2-  S143  1  0.25189598  0.86893269  0.65685810  1
  S2-  S144  1  0.51964409  0.14257593  0.17178678  1
  S2-  S145  1  0.50607037  0.21426706  0.64791666  1
  S2-  S146  1  0.49275973  0.37107839  0.14850236  1
  S2-  S147  1  0.47249883  0.38309537  0.72063289  1
  S2-  S148  1  0.48037904  0.64003418  0.14966941  1
  S2-  S149  1  0.49386368  0.55864499  0.65243468  1
  S2-  S150  1  0.47803205  0.89160315  0.16603037  1
  S2-  S151  1  0.48558677  0.99561761  0.64029188  1
  S2-  S152  1  0.84813075  0.12617136  0.14255682  1
  S2-  S153  1  0.74847837  0.16643998  0.64238357  1
  S2-  S154  1  0.73878167  0.33309977  0.15219129  1
  S2-  S155  1  0.65115446  0.37660344  0.65700135  1
  S2-  S156  1  0.70762895  0.62333375  0.15219208  1
  S2-  S157  1  0.75903211  0.59872912  0.66375372  1
  S2-  S158  1  0.72743008  0.89640190  0.15251929  1
  S2-  S159  1  0.85318194  0.89098228  0.64493396  1
  S2-  S160  1  0.16232574  0.02746252  0.30279733  1
  S2-  S161  1  0.11006631  0.02505283  0.77705291  1
  S2-  S162  1  0.12074355  0.22633194  0.33593171  1
  S2-  S163  1  0.11494749  0.18109294  0.85789911  1
  S2-  S164  1  0.15949748  0.48967447  0.34175639  1
  S2-  S165  1  0.13655961  0.61143479  0.85996977  1
  S2-  S166  1  0.12620011  0.82698730  0.35563114  1
  S2-  S167  1  0.12132284  0.84248086  0.83926670  1
  S2-  S168  1  0.37247936  0.08538242  0.35060865  1
  S2-  S169  1  0.28397935  0.00330777  0.85045028  1
  S2-  S170  1  0.32272015  0.29565673  0.32608787  1
  S2-  S171  1  0.35178189  0.22634165  0.84646479  1
  S2-  S172  1  0.39729849  0.49880264  0.34012959  1
  S2-  S173  1  0.35126438  0.48080981  0.83918425  1
  S2-  S174  1  0.38809013  0.73858766  0.34938420  1
  S2-  S175  1  0.34320000  0.72573051  0.84454258  1
  S2-  S176  1  0.59490327  -0.00042036  0.34807595  1
  S2-  S177  1  0.51057106  0.00322872  0.86784862  1
  S2-  S178  1  0.53369513  0.23290991  0.35047501  1
  S2-  S179  1  0.60182128  0.24362989  0.84086662  1
  S2-  S180  1  0.62913421  0.48980013  0.34881083  1
  S2-  S181  1  0.59494142  0.45215735  0.81726614  1
  S2-  S182  1  0.63608048  0.75865213  0.35350687  1
  S2-  S183  1  0.60158513  0.65968240  0.84842330  1
  S2-  S184  1  0.97075741  -0.00307030  0.34779683  1
  S2-  S185  1  0.94930661  -0.00010494  0.85161668  1
  S2-  S186  1  0.89880152  0.21304632  0.33881455  1
  S2-  S187  1  0.85976233  0.21880975  0.84391389  1
  S2-  S188  1  0.91606627  0.51651649  0.34643645  1
  S2-  S189  1  0.78764607  0.52214889  0.85032481  1
  S2-  S190  1  0.87908469  0.78525114  0.36188864  1
  S2-  S191  1  0.92133342  0.75326899  0.84435136  1
  S2-  S192  1  0.00219883  0.11209627  0.45106191  1
  S2-  S193  1  -0.00186205  0.13006478  0.96249847  1
  S2-  S194  1  -0.00035383  0.36477046  0.45521014  1
  S2-  S195  1  0.00370703  0.37678591  0.94781014  1
  S2-  S196  1  -0.00224535  0.61591835  0.45679818  1
  S2-  S197  1  -0.00331631  0.62750723  0.94995333  1
  S2-  S198  1  -0.00136655  0.86492311  0.46430621  1
  S2-  S199  1  0.00260531  0.88077756  0.95306400  1
  S2-  S200  1  0.24166955  0.10907796  0.44499648  1
  S2-  S201  1  0.25069959  0.13076278  0.96149475  1
  S2-  S202  1  0.24969300  0.36366859  0.44714741  1
  S2-  S203  1  0.24395945  0.37748666  0.95237438  1
  S2-  S204  1  0.24931836  0.61584062  0.45515114  1
  S2-  S205  1  0.25038486  0.62815087  0.95970713  1
  S2-  S206  1  0.24905929  0.86935433  0.45273943  1
  S2-  S207  1  0.24829957  0.87754742  0.95093473  1
  S2-  S208  1  0.50462996  0.10949607  0.45639023  1
  S2-  S209  1  0.49882960  0.13277598  0.96290861  1
  S2-  S210  1  0.49953977  0.36553237  0.44681732  1
  S2-  S211  1  0.50188756  0.38265289  0.94635205  1
  S2-  S212  1  0.50113512  0.61540667  0.45326359  1
  S2-  S213  1  0.49795656  0.62794334  0.94956651  1
  S2-  S214  1  0.50242385  0.86512374  0.46249869  1
  S2-  S215  1  0.49898037  0.87601992  0.96047259  1
  S2-  S216  1  0.74932147  0.11114490  0.44246157  1
  S2-  S217  1  0.74580903  0.12769617  0.95380860  1
  S2-  S218  1  0.75027958  0.36250080  0.45579208  1
  S2-  S219  1  0.74750475  0.37799685  0.94796752  1
  S2-  S220  1  0.74971428  0.61612848  0.45539995  1
  S2-  S221  1  0.75111637  0.63408358  0.95243503  1
  S2-  S222  1  0.74730295  0.86194751  0.46164310  1
  S2-  S223  1  0.74697073  0.88353951  0.94770092  1
  S2-  S224  1  0.12072466  0.00587251  0.05617638  1
  S2-  S225  1  0.12446498  -0.01275203  0.55234072  1
  S2-  S226  1  0.12208594  0.25494107  0.05234992  1
  S2-  S227  1  0.12507728  0.24316969  0.54459938  1
  S2-  S228  1  0.12339971  0.50227868  0.04486339  1
  S2-  S229  1  0.12570673  0.48466429  0.54781694  1
  S2-  S230  1  0.12271463  0.75518577  0.04181093  1
  S2-  S231  1  0.12333801  0.74175613  0.55028895  1
  S2-  S232  1  0.37547869  0.00363495  0.05098791  1
  S2-  S233  1  0.37018060  -0.01195825  0.54055760  1
  S2-  S234  1  0.37399079  0.25808387  0.04997819  1
  S2-  S235  1  0.37215968  0.23710140  0.53640931  1
  S2-  S236  1  0.37365361  0.50443781  0.04726799  1
  S2-  S237  1  0.37549236  0.48811418  0.54528149  1
  S2-  S238  1  0.37407664  0.75266387  0.04808095  1
  S2-  S239  1  0.37468913  0.74391010  0.55610781  1
  S2-  S240  1  0.62224546  0.00632839  0.04963456  1
  S2-  S241  1  0.62906397  -0.00814422  0.54895592  1
  S2-  S242  1  0.62122529  0.25514480  0.04738853  1
  S2-  S243  1  0.62525383  0.23691772  0.54003073  1
  S2-  S244  1  0.62178666  0.50565341  0.04276200  1
  S2-  S245  1  0.62105652  0.48636160  0.55277065  1
  S2-  S246  1  0.62340591  0.75220298  0.04310819  1
  S2-  S247  1  0.62266008  0.73938676  0.55401806  1
  S2-  S248  1  0.87279654  0.00004698  0.04495248  1
  S2-  S249  1  0.87062687  -0.00681544  0.53886470  1
  S2-  S250  1  0.87442260  0.25811097  0.04539166  1
  S2-  S251  1  0.87637003  0.23815245  0.54272057  1
  S2-  S252  1  0.87533514  0.50327494  0.04470950  1
  S2-  S253  1  0.87555266  0.49117830  0.54653294  1
  S2-  S254  1  0.87353999  0.75635399  0.04927333  1
  S2-  S255  1  0.87355896  0.73539663  0.55805457  1
