# generated using pymatgen
data_La6Ce6Pr19Nd20Sm13(BiS2)64
_symmetry_space_group_name_H-M   'P 1'
_cell_length_a   16.10160845
_cell_length_b   16.10654186
_cell_length_c   27.31453700
_cell_angle_alpha   89.98592869
_cell_angle_beta   89.98977890
_cell_angle_gamma   89.93973131
_symmetry_Int_Tables_number   1
_chemical_formula_structural   La6Ce6Pr19Nd20Sm13(BiS2)64
_chemical_formula_sum   'La6 Ce6 Pr19 Nd20 Sm13 Bi64 S128'
_cell_volume   7083.78139459
_cell_formula_units_Z   1
loop_
 _symmetry_equiv_pos_site_id
 _symmetry_equiv_pos_as_xyz
  1  'x, y, z'
loop_
 _atom_type_symbol
 _atom_type_oxidation_number
  La3+  3.0
  Ce3+  3.0
  Pr3+  3.0
  Nd3+  3.0
  Sm3+  3.0
  Bi2+  2.0
  S2-  -2.0
loop_
 _atom_site_type_symbol
 _atom_site_label
 _atom_site_symmetry_multiplicity
 _atom_site_fract_x
 _atom_site_fract_y
 _atom_site_fract_z
 _atom_site_occupancy
  La3+  La0  1  0.37223606  0.27762785  0.42424184  1
  La3+  La1  1  0.86779939  0.23642636  0.90117684  1
  La3+  La2  1  0.24766948  0.39971994  0.57749258  1
  La3+  La3  1  -0.01211442  0.36045459  0.06848360  1
  La3+  La4  1  0.49874207  0.11697444  0.10979663  1
  La3+  La5  1  0.73429395  0.36183566  0.06305207  1
  Ce3+  Ce6  1  0.49859711  0.89885586  0.55958576  1
  Ce3+  Ce7  1  0.62553963  0.77080454  0.44647940  1
  Ce3+  Ce8  1  0.12339513  0.51696510  0.44075896  1
  Ce3+  Ce9  1  0.12454522  0.77116064  0.44131540  1
  Ce3+  Ce10  1  0.24781836  0.64501825  0.55782680  1
  Ce3+  Ce11  1  0.62494895  0.02174641  0.44526499  1
  Pr3+  Pr12  1  -0.01236843  0.11355774  0.06340277  1
  Pr3+  Pr13  1  0.23761297  0.37230507  0.07004259  1
  Pr3+  Pr14  1  0.75685560  0.64840857  0.56563843  1
  Pr3+  Pr15  1  0.37457697  0.52133039  0.43564840  1
  Pr3+  Pr16  1  0.62598823  0.27578524  0.43574412  1
  Pr3+  Pr17  1  0.61035775  0.24328097  0.91980090  1
  Pr3+  Pr18  1  0.48215610  0.86377150  0.06652821  1
  Pr3+  Pr19  1  0.36300070  0.74474047  0.92765921  1
  Pr3+  Pr20  1  -0.01219890  0.61564095  0.05469793  1
  Pr3+  Pr21  1  0.87247751  0.77308488  0.43122428  1
  Pr3+  Pr22  1  0.87431774  0.52307411  0.41867681  1
  Pr3+  Pr23  1  0.87226418  0.26433261  0.43251951  1
  Pr3+  Pr24  1  0.73681474  0.61809626  0.06622598  1
  Pr3+  Pr25  1  0.24063558  0.12534808  0.08386058  1
  Pr3+  Pr26  1  0.60955033  -0.00277443  0.93865061  1
  Pr3+  Pr27  1  0.48894224  0.36945879  0.06718002  1
  Pr3+  Pr28  1  0.73107177  0.86622452  0.06034236  1
  Pr3+  Pr29  1  0.74863136  0.89777614  0.57179398  1
  Pr3+  Pr30  1  0.87127043  0.01960832  0.44114862  1
  Nd3+  Nd31  1  0.61583895  0.49100975  0.93228723  1
  Nd3+  Nd32  1  0.74650312  0.15884857  0.57258809  1
  Nd3+  Nd33  1  0.11586044  0.23620352  0.94157817  1
  Nd3+  Nd34  1  0.50010067  0.64317886  0.56587643  1
  Nd3+  Nd35  1  0.75786872  0.40366108  0.57392073  1
  Nd3+  Nd36  1  0.36114071  0.24144280  0.95033112  1
  Nd3+  Nd37  1  0.48578441  0.61428298  0.05842134  1
  Nd3+  Nd38  1  0.24116678  0.86657392  0.06732364  1
  Nd3+  Nd39  1  0.73608438  0.11737412  0.06001321  1
  Nd3+  Nd40  1  0.23463079  0.61334960  0.05096485  1
  Nd3+  Nd41  1  0.12648048  0.02059905  0.44384116  1
  Nd3+  Nd42  1  0.37657182  0.76864125  0.44309742  1
  Nd3+  Nd43  1  0.61181565  0.73736009  0.92974237  1
  Nd3+  Nd44  1  0.25396446  0.14897693  0.55642503  1
  Nd3+  Nd45  1  0.86200737  0.48727140  0.94316616  1
  Nd3+  Nd46  1  -0.00082240  0.39565683  0.56676582  1
  Nd3+  Nd47  1  0.10918234  0.47858424  0.92524009  1
  Nd3+  Nd48  1  -0.00977392  0.86799310  0.05627355  1
  Nd3+  Nd49  1  0.11651205  -0.00333360  0.94008589  1
  Nd3+  Nd50  1  0.11286674  0.74435833  0.93589757  1
  Sm3+  Sm51  1  -0.00175900  0.64730450  0.55238067  1
  Sm3+  Sm52  1  0.36227837  0.48861901  0.93769809  1
  Sm3+  Sm53  1  0.36346032  -0.00421841  0.95481196  1
  Sm3+  Sm54  1  -0.00189631  0.14702820  0.55853087  1
  Sm3+  Sm55  1  0.62760703  0.52254408  0.44163974  1
  Sm3+  Sm56  1  0.12262354  0.27216842  0.44323458  1
  Sm3+  Sm57  1  0.25036374  0.89608686  0.55787598  1
  Sm3+  Sm58  1  0.49543343  0.40046988  0.56851415  1
  Sm3+  Sm59  1  -0.00014169  0.89806691  0.55643057  1
  Sm3+  Sm60  1  0.86295632  0.74283749  0.94385907  1
  Sm3+  Sm61  1  0.49876910  0.15239978  0.55123336  1
  Sm3+  Sm62  1  0.37540409  0.02133078  0.43929739  1
  Sm3+  Sm63  1  0.85930098  -0.00554031  0.94313326  1
  Bi2+  Bi64  1  -0.00323858  0.13125805  0.29353240  1
  Bi2+  Bi65  1  0.08001200  0.08304334  0.76296306  1
  Bi2+  Bi66  1  0.01062457  0.38842489  0.30059249  1
  Bi2+  Bi67  1  -0.00709655  0.41106718  0.79319178  1
  Bi2+  Bi68  1  -0.00050065  0.67978874  0.28325361  1
  Bi2+  Bi69  1  0.05695953  0.69281833  0.74281402  1
  Bi2+  Bi70  1  -0.00390089  0.87397846  0.30606089  1
  Bi2+  Bi71  1  0.08263220  0.90412503  0.81993883  1
  Bi2+  Bi72  1  0.23405773  0.06788286  0.28707197  1
  Bi2+  Bi73  1  0.26028093  0.11702851  0.80074501  1
  Bi2+  Bi74  1  0.24503941  0.47140232  0.28530874  1
  Bi2+  Bi75  1  0.24310493  0.38210549  0.80683308  1
  Bi2+  Bi76  1  0.26501483  0.66148551  0.23660829  1
  Bi2+  Bi77  1  0.32772199  0.67641564  0.77916706  1
  Bi2+  Bi78  1  0.23086476  0.86028080  0.27689954  1
  Bi2+  Bi79  1  0.27741397  0.85773105  0.81111280  1
  Bi2+  Bi80  1  0.50979491  0.08684905  0.30675557  1
  Bi2+  Bi81  1  0.49973936  0.06558195  0.76980248  1
  Bi2+  Bi82  1  0.50022002  0.34853646  0.30643606  1
  Bi2+  Bi83  1  0.52978141  0.32791311  0.75820807  1
  Bi2+  Bi84  1  0.40908060  0.62801253  0.31956534  1
  Bi2+  Bi85  1  0.52031747  0.61479764  0.79428399  1
  Bi2+  Bi86  1  0.50072916  0.80097576  0.28234755  1
  Bi2+  Bi87  1  0.56388296  0.88480553  0.80312025  1
  Bi2+  Bi88  1  0.82070733  0.05890598  0.26008363  1
  Bi2+  Bi89  1  0.72653570  0.09513277  0.79343189  1
  Bi2+  Bi90  1  0.74478394  0.37875061  0.29947767  1
  Bi2+  Bi91  1  0.72144639  0.39692746  0.79524489  1
  Bi2+  Bi92  1  0.73334629  0.69545976  0.28421633  1
  Bi2+  Bi93  1  0.77503044  0.66311675  0.78652658  1
  Bi2+  Bi94  1  0.80590521  0.88942159  0.32109301  1
  Bi2+  Bi95  1  0.76144643  0.85834784  0.81594541  1
  Bi2+  Bi96  1  0.17936749  -0.01359167  0.18417758  1
  Bi2+  Bi97  1  0.14821387  -0.09635437  0.70609944  1
  Bi2+  Bi98  1  0.15043157  0.23461253  0.25169524  1
  Bi2+  Bi99  1  0.11768900  0.25664578  0.70847040  1
  Bi2+  Bi100  1  0.10561775  0.55461746  0.20874556  1
  Bi2+  Bi101  1  0.14116033  0.52137726  0.71684224  1
  Bi2+  Bi102  1  0.14294909  0.79000514  0.18156528  1
  Bi2+  Bi103  1  0.22396833  0.72214658  0.68250730  1
  Bi2+  Bi104  1  0.38316338  -0.07127196  0.21142309  1
  Bi2+  Bi105  1  0.40964521  -0.09057692  0.72407512  1
  Bi2+  Bi106  1  0.36090336  0.24812200  0.21527714  1
  Bi2+  Bi107  1  0.37035773  0.23413889  0.70558855  1
  Bi2+  Bi108  1  0.36650111  0.47389089  0.19761188  1
  Bi2+  Bi109  1  0.41206338  0.48024970  0.73180560  1
  Bi2+  Bi110  1  0.44983583  0.68194356  0.18511822  1
  Bi2+  Bi111  1  0.44801391  0.71215009  0.68981776  1
  Bi2+  Bi112  1  0.63298932  -0.08569130  0.22804539  1
  Bi2+  Bi113  1  0.67945030  -0.07350744  0.70965595  1
  Bi2+  Bi114  1  0.64646693  0.24456119  0.20888356  1
  Bi2+  Bi115  1  0.62718957  0.16439716  0.70014201  1
  Bi2+  Bi116  1  0.53254008  0.51984762  0.25930555  1
  Bi2+  Bi117  1  0.61928680  0.48900243  0.71464621  1
  Bi2+  Bi118  1  0.63704336  0.73698567  0.17960568  1
  Bi2+  Bi119  1  0.63975765  0.72487270  0.71139798  1
  Bi2+  Bi120  1  0.98373721  0.02338600  0.19727339  1
  Bi2+  Bi121  1  0.91132434  -0.03265380  0.77319156  1
  Bi2+  Bi122  1  0.87913382  0.26504988  0.19184064  1
  Bi2+  Bi123  1  0.85546639  0.24893585  0.70154959  1
  Bi2+  Bi124  1  0.86447274  0.51432156  0.20499487  1
  Bi2+  Bi125  1  0.86954269  0.53074897  0.70834592  1
  Bi2+  Bi126  1  0.86760389  0.78804647  0.22323925  1
  Bi2+  Bi127  1  0.91127326  0.79875666  0.70296636  1
  S2-  S128  1  0.00501298  0.19314452  0.15212048  1
  S2-  S129  1  -0.00661618  0.18130179  0.65424373  1
  S2-  S130  1  -0.02072363  0.39616282  0.16840861  1
  S2-  S131  1  -0.10419985  0.39455063  0.64919121  1
  S2-  S132  1  -0.03446356  0.61416850  0.15492826  1
  S2-  S133  1  -0.03684743  0.64033893  0.64875704  1
  S2-  S134  1  -0.01433299  0.85620034  0.15461457  1
  S2-  S135  1  -0.01206195  0.91831556  0.65320282  1
  S2-  S136  1  0.35125534  0.10975787  0.16517478  1
  S2-  S137  1  0.23888839  0.16987262  0.65522913  1
  S2-  S138  1  0.22860524  0.27711256  0.15735006  1
  S2-  S139  1  0.11430566  0.38829607  0.64906929  1
  S2-  S140  1  0.21779480  0.51526611  0.13452388  1
  S2-  S141  1  0.24944944  0.55465359  0.64186924  1
  S2-  S142  1  0.35740187  0.81992148  0.13923248  1
  S2-  S143  1  0.28491493  0.93650461  0.65052644  1
  S2-  S144  1  0.55623310  0.11231147  0.21596998  1
  S2-  S145  1  0.47261272  0.14148782  0.64821478  1
  S2-  S146  1  0.50551029  0.27966735  0.15665725  1
  S2-  S147  1  0.37706172  0.36162603  0.64340210  1
  S2-  S148  1  0.49998053  0.50366194  0.13692573  1
  S2-  S149  1  0.50118740  0.52547089  0.64070440  1
  S2-  S150  1  0.52242501  0.95127676  0.15178901  1
  S2-  S151  1  0.54469085  0.91630898  0.65300217  1
  S2-  S152  1  0.75658369  0.13844315  0.16042579  1
  S2-  S153  1  0.78371100  0.09723357  0.66572923  1
  S2-  S154  1  0.74568901  0.37568247  0.16502647  1
  S2-  S155  1  0.71731104  0.28738633  0.64482901  1
  S2-  S156  1  0.73669642  0.59032726  0.16577951  1
  S2-  S157  1  0.74711038  0.53518539  0.64394129  1
  S2-  S158  1  0.75230517  0.88252704  0.15987229  1
  S2-  S159  1  0.76736135  0.77296120  0.64218842  1
  S2-  S160  1  0.09533473  0.01409329  0.34645388  1
  S2-  S161  1  0.12303682  0.11492850  0.86538457  1
  S2-  S162  1  0.14301581  0.29066162  0.34671399  1
  S2-  S163  1  0.10455433  0.33513540  0.85980258  1
  S2-  S164  1  0.10613670  0.51838514  0.34366218  1
  S2-  S165  1  0.13061057  0.51698366  0.82578275  1
  S2-  S166  1  0.11569477  0.75766629  0.34381988  1
  S2-  S167  1  0.13095243  0.73777868  0.83766257  1
  S2-  S168  1  0.36416237  0.00852940  0.34222236  1
  S2-  S169  1  0.34078286  -0.00047558  0.85598729  1
  S2-  S170  1  0.39604341  0.22164100  0.32596850  1
  S2-  S171  1  0.32958757  0.24754619  0.85002320  1
  S2-  S172  1  0.36294100  0.41476396  0.35544751  1
  S2-  S173  1  0.36034728  0.48036884  0.83884833  1
  S2-  S174  1  0.35402242  0.78812048  0.34548888  1
  S2-  S175  1  0.48896286  0.75650047  0.85742477  1
  S2-  S176  1  0.62612129  -0.00066572  0.34831216  1
  S2-  S177  1  0.58878101  0.09938103  0.85467765  1
  S2-  S178  1  0.64520249  0.25100040  0.33545844  1
  S2-  S179  1  0.72869708  0.24653857  0.84114462  1
  S2-  S180  1  0.64217586  0.49178587  0.34431184  1
  S2-  S181  1  0.58177072  0.38383037  0.85439390  1
  S2-  S182  1  0.61568963  0.73307062  0.35126093  1
  S2-  S183  1  0.65220755  0.61220746  0.85952283  1
  S2-  S184  1  0.85731614  0.11174025  0.35704239  1
  S2-  S185  1  0.86683612  0.07107981  0.85478011  1
  S2-  S186  1  0.88593753  0.30102430  0.33330817  1
  S2-  S187  1  0.92149402  0.26751433  0.79848491  1
  S2-  S188  1  0.87675614  0.48572175  0.31359414  1
  S2-  S189  1  0.86289034  0.47635733  0.84357323  1
  S2-  S190  1  0.86335127  0.66565254  0.35249577  1
  S2-  S191  1  0.88593213  0.74281076  0.84656779  1
  S2-  S192  1  0.00242522  0.14488976  0.45406875  1
  S2-  S193  1  -0.01796528  0.11730798  0.95795937  1
  S2-  S194  1  -0.00382105  0.39356800  0.45128764  1
  S2-  S195  1  -0.02115919  0.35776750  0.95584693  1
  S2-  S196  1  0.00011341  0.64556976  0.44864730  1
  S2-  S197  1  -0.01126897  0.61711992  0.94708894  1
  S2-  S198  1  -0.00027332  0.89698703  0.45195912  1
  S2-  S199  1  -0.01395937  0.87105778  0.95050058  1
  S2-  S200  1  0.24962207  0.14648836  0.44837039  1
  S2-  S201  1  0.24035332  0.11538189  0.96996691  1
  S2-  S202  1  0.24490705  0.39529725  0.46005737  1
  S2-  S203  1  0.23832895  0.36900028  0.96024255  1
  S2-  S204  1  0.24853090  0.64575043  0.45007976  1
  S2-  S205  1  0.23660763  0.61460205  0.94398481  1
  S2-  S206  1  0.25218077  0.89635589  0.45225757  1
  S2-  S207  1  0.23790835  0.86861284  0.95754066  1
  S2-  S208  1  0.49863277  0.14731731  0.44664624  1
  S2-  S209  1  0.48312714  0.11914469  0.95563973  1
  S2-  S210  1  0.50347290  0.40076519  0.45651895  1
  S2-  S211  1  0.48437023  0.36725944  0.95876580  1
  S2-  S212  1  0.50145587  0.64409558  0.45826109  1
  S2-  S213  1  0.48407213  0.61160582  0.95182548  1
  S2-  S214  1  0.49777405  0.89631686  0.45222944  1
  S2-  S215  1  0.48645276  0.87091023  0.95844307  1
  S2-  S216  1  0.74531218  0.14757666  0.46254131  1
  S2-  S217  1  0.73928940  0.12060074  0.95487481  1
  S2-  S218  1  0.75302105  0.39910281  0.45062172  1
  S2-  S219  1  0.74008915  0.36171336  0.95281137  1
  S2-  S220  1  0.75008226  0.64467211  0.45759079  1
  S2-  S221  1  0.74554361  0.62028140  0.95993431  1
  S2-  S222  1  0.74787620  0.89569567  0.46277226  1
  S2-  S223  1  0.73591819  0.86671712  0.95287319  1
  S2-  S224  1  0.11634022  -0.00877039  0.04818419  1
  S2-  S225  1  0.12617786  0.02237809  0.55021030  1
  S2-  S226  1  0.11611119  0.24101872  0.04756307  1
  S2-  S227  1  0.12341673  0.26760518  0.54620802  1
  S2-  S228  1  0.10602963  0.48900340  0.03394636  1
  S2-  S229  1  0.11881183  0.52325577  0.54478558  1
  S2-  S230  1  0.11418866  0.74225589  0.04258298  1
  S2-  S231  1  0.12306798  0.77395422  0.54882029  1
  S2-  S232  1  0.36204539  -0.00428919  0.05639872  1
  S2-  S233  1  0.37568686  0.02325109  0.54366590  1
  S2-  S234  1  0.36419262  0.24432142  0.05498272  1
  S2-  S235  1  0.37565431  0.27142308  0.53557830  1
  S2-  S236  1  0.36129866  0.49316051  0.04031063  1
  S2-  S237  1  0.37412395  0.52189748  0.54030479  1
  S2-  S238  1  0.35897762  0.73453402  0.03375227  1
  S2-  S239  1  0.37427629  0.77145992  0.54982881  1
  S2-  S240  1  0.61068243  -0.00479201  0.04608651  1
  S2-  S241  1  0.62537170  0.02744818  0.55160641  1
  S2-  S242  1  0.60979646  0.23626438  0.05016812  1
  S2-  S243  1  0.61643766  0.27904509  0.54292971  1
  S2-  S244  1  0.61718195  0.49393243  0.03902241  1
  S2-  S245  1  0.62680095  0.51943638  0.54373082  1
  S2-  S246  1  0.60869068  0.73981077  0.04038678  1
  S2-  S247  1  0.62190516  0.77039126  0.55097226  1
  S2-  S248  1  0.86111486  -0.01078824  0.04845364  1
  S2-  S249  1  0.87498164  0.02177712  0.54856000  1
  S2-  S250  1  0.86157713  0.23888913  0.05333197  1
  S2-  S251  1  0.87650206  0.27015034  0.54177965  1
  S2-  S252  1  0.86157146  0.49081697  0.04938710  1
  S2-  S253  1  0.87987146  0.52289524  0.53609539  1
  S2-  S254  1  0.86310997  0.74480053  0.04931195  1
  S2-  S255  1  0.88027741  0.77582340  0.53904822  1
