# generated using pymatgen
data_La6Ce6Pr19Nd20Sm13(BiS2)64
_symmetry_space_group_name_H-M   'P 1'
_cell_length_a   16.08601434
_cell_length_b   16.12476755
_cell_length_c   27.25636680
_cell_angle_alpha   89.99554576
_cell_angle_beta   90.17283972
_cell_angle_gamma   90.09928308
_symmetry_Int_Tables_number   1
_chemical_formula_structural   La6Ce6Pr19Nd20Sm13(BiS2)64
_chemical_formula_sum   'La6 Ce6 Pr19 Nd20 Sm13 Bi64 S128'
_cell_volume   7069.80198948
_cell_formula_units_Z   1
loop_
 _symmetry_equiv_pos_site_id
 _symmetry_equiv_pos_as_xyz
  1  'x, y, z'
loop_
 _atom_type_symbol
 _atom_type_oxidation_number
  La3+  3.0
  Ce3+  3.0
  Pr3+  3.0
  Nd3+  3.0
  Sm3+  3.0
  Bi2+  2.0
  S2-  -2.0
loop_
 _atom_site_type_symbol
 _atom_site_label
 _atom_site_symmetry_multiplicity
 _atom_site_fract_x
 _atom_site_fract_y
 _atom_site_fract_z
 _atom_site_occupancy
  La3+  La0  1  -0.00486567  0.61274362  0.57851492  1
  La3+  La1  1  0.86537054  0.72859644  0.41187025  1
  La3+  La2  1  0.02107624  0.13045228  0.08997253  1
  La3+  La3  1  -0.00432060  0.36048055  0.59113455  1
  La3+  La4  1  0.88085076  0.01460503  0.91615388  1
  La3+  La5  1  0.12092827  0.01327535  0.38573943  1
  Ce3+  Ce6  1  0.76863971  0.88092198  0.06377019  1
  Ce3+  Ce7  1  0.12988383  0.00379016  0.94070794  1
  Ce3+  Ce8  1  0.51291866  0.62874956  0.05580737  1
  Ce3+  Ce9  1  0.64340178  0.75596683  0.93955109  1
  Ce3+  Ce10  1  0.50991834  0.12955062  0.06510221  1
  Ce3+  Ce11  1  0.24815355  0.61898377  0.57127291  1
  Pr3+  Pr12  1  -0.00259615  0.10389727  0.55879627  1
  Pr3+  Pr13  1  0.24801850  0.10547293  0.56389562  1
  Pr3+  Pr14  1  0.37170351  -0.02248461  0.42767994  1
  Pr3+  Pr15  1  0.13419223  0.75916147  0.91138726  1
  Pr3+  Pr16  1  0.02279679  0.63276868  0.06355891  1
  Pr3+  Pr17  1  0.64017375  0.25400305  0.95259330  1
  Pr3+  Pr18  1  0.13829420  0.50896135  0.91069988  1
  Pr3+  Pr19  1  0.76792580  0.13094570  0.07986588  1
  Pr3+  Pr20  1  0.38408600  0.00602799  0.93545806  1
  Pr3+  Pr21  1  0.63902612  0.00598745  0.94998291  1
  Pr3+  Pr22  1  -0.00227514  0.85429350  0.55474327  1
  Pr3+  Pr23  1  0.62788106  -0.01338975  0.43274351  1
  Pr3+  Pr24  1  0.74730740  0.60626628  0.56946971  1
  Pr3+  Pr25  1  0.49467749  0.34710405  0.58397887  1
  Pr3+  Pr26  1  0.12142832  0.73981874  0.43273192  1
  Pr3+  Pr27  1  0.50936865  0.38198039  0.06301713  1
  Pr3+  Pr28  1  0.39130664  0.75287363  0.92788150  1
  Pr3+  Pr29  1  0.88626309  0.75565086  0.93705480  1
  Pr3+  Pr30  1  0.87467059  0.48658084  0.44240654  1
  Nd3+  Nd31  1  0.12310201  0.23760785  0.44716311  1
  Nd3+  Nd32  1  0.13039732  0.24641312  0.93373662  1
  Nd3+  Nd33  1  0.87659968  0.23314324  0.43632440  1
  Nd3+  Nd34  1  0.26561586  0.87787413  0.05740314  1
  Nd3+  Nd35  1  0.39079056  0.50035572  0.92665388  1
  Nd3+  Nd36  1  0.12414784  0.49439574  0.44196503  1
  Nd3+  Nd37  1  0.24571386  0.36431572  0.57364490  1
  Nd3+  Nd38  1  0.62263975  0.23393250  0.44746570  1
  Nd3+  Nd39  1  0.75891731  0.11119603  0.56793039  1
  Nd3+  Nd40  1  0.36870276  0.23236473  0.44287522  1
  Nd3+  Nd41  1  0.50104625  0.86171809  0.55703851  1
  Nd3+  Nd42  1  0.62164330  0.48019180  0.45078829  1
  Nd3+  Nd43  1  0.63969843  0.50467498  0.92974499  1
  Nd3+  Nd44  1  0.25016261  0.86264630  0.56295290  1
  Nd3+  Nd45  1  0.38632964  0.25498915  0.94327419  1
  Nd3+  Nd46  1  0.87205532  -0.01613453  0.42872862  1
  Nd3+  Nd47  1  0.37357176  0.48250378  0.44910508  1
  Nd3+  Nd48  1  0.62429659  0.73178450  0.44337050  1
  Nd3+  Nd49  1  0.75225944  0.86049838  0.56145685  1
  Nd3+  Nd50  1  0.49863921  0.60808821  0.56218606  1
  Sm3+  Sm51  1  0.50777863  0.87739171  0.05832600  1
  Sm3+  Sm52  1  0.76569918  0.63196194  0.06096530  1
  Sm3+  Sm53  1  0.25901342  0.63081589  0.04476177  1
  Sm3+  Sm54  1  0.89124531  0.50511464  0.94173240  1
  Sm3+  Sm55  1  0.01977967  0.87435277  0.07301613  1
  Sm3+  Sm56  1  0.75071651  0.35789701  0.55945855  1
  Sm3+  Sm57  1  0.50093060  0.10583586  0.55775418  1
  Sm3+  Sm58  1  0.25778244  0.38147362  0.04736725  1
  Sm3+  Sm59  1  0.26139141  0.12996173  0.06296586  1
  Sm3+  Sm60  1  0.37243111  0.73496807  0.43990449  1
  Sm3+  Sm61  1  0.01603805  0.38158845  0.05262316  1
  Sm3+  Sm62  1  0.76497566  0.38323334  0.06037737  1
  Sm3+  Sm63  1  0.88511243  0.25144399  0.95021194  1
  Bi2+  Bi64  1  -0.01273780  0.14236556  0.28121214  1
  Bi2+  Bi65  1  -0.00224795  0.10288476  0.78916219  1
  Bi2+  Bi66  1  -0.00067156  0.41408053  0.28627960  1
  Bi2+  Bi67  1  0.04755116  0.29724035  0.78657933  1
  Bi2+  Bi68  1  0.00593453  0.62554112  0.29565712  1
  Bi2+  Bi69  1  -0.02337563  0.60107378  0.80609714  1
  Bi2+  Bi70  1  0.01449781  0.88547575  0.27307720  1
  Bi2+  Bi71  1  0.02943398  0.85914976  0.77752315  1
  Bi2+  Bi72  1  0.24977854  0.15698894  0.29032951  1
  Bi2+  Bi73  1  0.26656977  0.13110298  0.80110311  1
  Bi2+  Bi74  1  0.19518036  0.42326800  0.28995629  1
  Bi2+  Bi75  1  0.27712849  0.37179311  0.78277016  1
  Bi2+  Bi76  1  0.28023446  0.64327052  0.28241125  1
  Bi2+  Bi77  1  0.36139979  0.63792158  0.78400103  1
  Bi2+  Bi78  1  0.26114229  0.84355994  0.28255309  1
  Bi2+  Bi79  1  0.27070847  0.89833758  0.78837798  1
  Bi2+  Bi80  1  0.49139381  0.15173262  0.29457240  1
  Bi2+  Bi81  1  0.56205130  0.18945749  0.77589627  1
  Bi2+  Bi82  1  0.47388816  0.42757907  0.30772101  1
  Bi2+  Bi83  1  0.48828860  0.37354824  0.78389210  1
  Bi2+  Bi84  1  0.46640281  0.69055298  0.31892193  1
  Bi2+  Bi85  1  0.54246216  0.66608000  0.82979760  1
  Bi2+  Bi86  1  0.51474479  0.96227932  0.31653339  1
  Bi2+  Bi87  1  0.53912938  0.85735715  0.79950061  1
  Bi2+  Bi88  1  0.74004674  0.13633365  0.29220170  1
  Bi2+  Bi89  1  0.75273686  0.15510666  0.79432120  1
  Bi2+  Bi90  1  0.73601649  0.41178333  0.26607387  1
  Bi2+  Bi91  1  0.75863612  0.36509052  0.78147056  1
  Bi2+  Bi92  1  0.72242180  0.59916568  0.29857402  1
  Bi2+  Bi93  1  0.73269977  0.63698604  0.79186409  1
  Bi2+  Bi94  1  0.68209853  0.87789996  0.28762772  1
  Bi2+  Bi95  1  0.73755874  0.89076330  0.79473715  1
  Bi2+  Bi96  1  0.18464984  -0.01999298  0.18514092  1
  Bi2+  Bi97  1  0.14266099  -0.01862354  0.71633943  1
  Bi2+  Bi98  1  0.14368943  0.29374335  0.20885995  1
  Bi2+  Bi99  1  0.14564959  0.17636493  0.70672252  1
  Bi2+  Bi100  1  0.07039642  0.50739803  0.18933766  1
  Bi2+  Bi101  1  0.12718211  0.45128169  0.72462008  1
  Bi2+  Bi102  1  0.11213260  0.71772697  0.20433257  1
  Bi2+  Bi103  1  0.17069904  0.69111410  0.71699808  1
  Bi2+  Bi104  1  0.38430709  -0.00217084  0.21441038  1
  Bi2+  Bi105  1  0.40004453  0.04558701  0.69070716  1
  Bi2+  Bi106  1  0.39403278  0.30478256  0.20842002  1
  Bi2+  Bi107  1  0.34369686  0.22851844  0.70334064  1
  Bi2+  Bi108  1  0.33805547  0.49134113  0.21714382  1
  Bi2+  Bi109  1  0.43327769  0.50932114  0.70835947  1
  Bi2+  Bi110  1  0.35821259  0.75533382  0.19842531  1
  Bi2+  Bi111  1  0.39856760  0.79196045  0.71252121  1
  Bi2+  Bi112  1  0.57989275  0.01955524  0.20958372  1
  Bi2+  Bi113  1  0.58428777  0.00938139  0.72680248  1
  Bi2+  Bi114  1  0.58325705  0.29728110  0.23706294  1
  Bi2+  Bi115  1  0.62298397  0.33310544  0.69732928  1
  Bi2+  Bi116  1  0.54632154  0.57235438  0.24054685  1
  Bi2+  Bi117  1  0.65342902  0.52816505  0.70132784  1
  Bi2+  Bi118  1  0.55341688  0.77501734  0.22536307  1
  Bi2+  Bi119  1  0.60844826  0.72381939  0.71742568  1
  Bi2+  Bi120  1  0.85216238  0.00396831  0.19505071  1
  Bi2+  Bi121  1  0.83062389  -0.00187814  0.69217351  1
  Bi2+  Bi122  1  0.88027390  0.31588207  0.21264193  1
  Bi2+  Bi123  1  0.88652981  0.24592517  0.72331409  1
  Bi2+  Bi124  1  0.87969411  0.53743329  0.20782198  1
  Bi2+  Bi125  1  0.85523395  0.48543311  0.71041469  1
  Bi2+  Bi126  1  0.84359195  0.74523538  0.20961292  1
  Bi2+  Bi127  1  0.88942913  0.76715430  0.69713768  1
  S2-  S128  1  -0.08303174  0.14765645  0.17449681  1
  S2-  S129  1  -0.10160759  0.12213364  0.64208465  1
  S2-  S130  1  0.02593953  0.32101794  0.14487748  1
  S2-  S131  1  0.00221248  0.49478975  0.65930263  1
  S2-  S132  1  -0.02184784  0.74135592  0.14440809  1
  S2-  S133  1  0.04315378  0.72309287  0.65777777  1
  S2-  S134  1  0.00548471  0.97087360  0.16038543  1
  S2-  S135  1  -0.04730077  0.91182361  0.64918461  1
  S2-  S136  1  0.17218561  0.13917617  0.14718327  1
  S2-  S137  1  0.26401738  -0.01309240  0.63991538  1
  S2-  S138  1  0.26562015  0.37527859  0.14586189  1
  S2-  S139  1  0.13678733  0.33249883  0.65228212  1
  S2-  S140  1  0.16657049  0.61065453  0.12793675  1
  S2-  S141  1  0.22232078  0.55527598  0.66322227  1
  S2-  S142  1  0.16054552  0.83892205  0.13446895  1
  S2-  S143  1  0.26165041  0.75660723  0.64542006  1
  S2-  S144  1  0.43966666  0.12520048  0.15386976  1
  S2-  S145  1  0.48514259  0.18901290  0.64281120  1
  S2-  S146  1  0.51520163  0.39882044  0.16209121  1
  S2-  S147  1  0.36503566  0.37613534  0.65054449  1
  S2-  S148  1  0.48259151  0.64934601  0.15052052  1
  S2-  S149  1  0.47305546  0.65756994  0.65635849  1
  S2-  S150  1  0.39328330  0.88361351  0.13245027  1
  S2-  S151  1  0.49409031  0.90803798  0.65246375  1
  S2-  S152  1  0.70975398  0.11262818  0.17688094  1
  S2-  S153  1  0.69345423  0.08238589  0.65991913  1
  S2-  S154  1  0.75548542  0.37226827  0.15784030  1
  S2-  S155  1  0.83939829  0.34891618  0.64407919  1
  S2-  S156  1  0.75297744  0.62891332  0.15964301  1
  S2-  S157  1  0.84693277  0.63126661  0.65112132  1
  S2-  S158  1  0.75888812  0.86061556  0.16213297  1
  S2-  S159  1  0.74625727  0.84739129  0.66187702  1
  S2-  S160  1  0.11961573  0.03964795  0.26974825  1
  S2-  S161  1  0.13445336  -0.09107568  0.85569539  1
  S2-  S162  1  0.10958893  0.18922471  0.35103946  1
  S2-  S163  1  0.12264094  0.12188952  0.86307360  1
  S2-  S164  1  0.12171097  0.60770464  0.36206660  1
  S2-  S165  1  0.02512084  0.44674735  0.83816188  1
  S2-  S166  1  0.12760319  0.84716791  0.34708407  1
  S2-  S167  1  0.12461828  0.63378930  0.83460637  1
  S2-  S168  1  0.28400419  0.02987481  0.34496771  1
  S2-  S169  1  0.37690602  0.01583288  0.83490109  1
  S2-  S170  1  0.36260438  0.24108763  0.34311529  1
  S2-  S171  1  0.36737692  0.25246394  0.84495880  1
  S2-  S172  1  0.32763866  0.46934151  0.35368633  1
  S2-  S173  1  0.28554113  0.49741765  0.84536590  1
  S2-  S174  1  0.38035135  0.83579013  0.35808575  1
  S2-  S175  1  0.29064973  0.76309767  0.84576558  1
  S2-  S176  1  0.74400413  -0.00379349  0.35508800  1
  S2-  S177  1  0.71816463  0.02049754  0.86088666  1
  S2-  S178  1  0.63446085  0.21346042  0.34844706  1
  S2-  S179  1  0.65760826  0.27363776  0.85378311  1
  S2-  S180  1  0.63763316  0.46555717  0.35253697  1
  S2-  S181  1  0.52160371  0.48811065  0.85616002  1
  S2-  S182  1  0.70584852  0.73862069  0.35526752  1
  S2-  S183  1  0.75617042  0.77138585  0.86231772  1
  S2-  S184  1  0.95936381  0.00484934  0.33992852  1
  S2-  S185  1  0.91103755  -0.04587856  0.81693911  1
  S2-  S186  1  0.86086567  0.21993839  0.33582218  1
  S2-  S187  1  0.88583844  0.17204129  0.86292327  1
  S2-  S188  1  0.86584267  0.57620170  0.35619609  1
  S2-  S189  1  0.82337245  0.53272628  0.85228905  1
  S2-  S190  1  0.91066572  0.78346761  0.31185930  1
  S2-  S191  1  0.97673659  0.75345542  0.85039739  1
  S2-  S192  1  -0.00039753  0.10859012  0.45223028  1
  S2-  S193  1  0.00524205  0.13008909  0.96674002  1
  S2-  S194  1  0.00088843  0.36303747  0.44324062  1
  S2-  S195  1  0.00724560  0.37361224  0.95050813  1
  S2-  S196  1  -0.00499159  0.61280191  0.46129518  1
  S2-  S197  1  0.01052313  0.62509920  0.95291976  1
  S2-  S198  1  -0.01434852  0.85329088  0.44723786  1
  S2-  S199  1  -0.00109195  0.89115275  0.95755340  1
  S2-  S200  1  0.24351209  0.10924395  0.45664207  1
  S2-  S201  1  0.26250584  0.13100966  0.95774199  1
  S2-  S202  1  0.24631094  0.36115990  0.46079039  1
  S2-  S203  1  0.25658906  0.37390044  0.94441375  1
  S2-  S204  1  0.25503660  0.61170331  0.46084160  1
  S2-  S205  1  0.26507900  0.62867223  0.94431774  1
  S2-  S206  1  0.25133776  0.85639407  0.45712735  1
  S2-  S207  1  0.26662008  0.88087847  0.95244099  1
  S2-  S208  1  0.49689847  0.10925329  0.45209944  1
  S2-  S209  1  0.51213856  0.13119042  0.95489501  1
  S2-  S210  1  0.49622587  0.35540402  0.46305291  1
  S2-  S211  1  0.51344158  0.37811388  0.95714639  1
  S2-  S212  1  0.49896871  0.60737253  0.45531553  1
  S2-  S213  1  0.51461031  0.62761591  0.95297598  1
  S2-  S214  1  0.50584925  0.85853902  0.45300939  1
  S2-  S215  1  0.51324643  0.88035185  0.95338695  1
  S2-  S216  1  0.75062701  0.11416564  0.45915031  1
  S2-  S217  1  0.76376634  0.12951971  0.97127239  1
  S2-  S218  1  0.74931325  0.35755909  0.45425559  1
  S2-  S219  1  0.76444355  0.38216870  0.95522787  1
  S2-  S220  1  0.74399348  0.60578284  0.46234309  1
  S2-  S221  1  0.75968192  0.62489241  0.95792893  1
  S2-  S222  1  0.74784559  0.85728480  0.45485704  1
  S2-  S223  1  0.76613915  0.88684567  0.96058082  1
  S2-  S224  1  0.13941613  0.00443335  0.04732103  1
  S2-  S225  1  0.11995912  -0.01845767  0.54950864  1
  S2-  S226  1  0.13866378  0.25577765  0.03940039  1
  S2-  S227  1  0.12080282  0.23219620  0.55056617  1
  S2-  S228  1  0.13756706  0.50025619  0.02744930  1
  S2-  S229  1  0.12144113  0.48465744  0.54737429  1
  S2-  S230  1  0.13904498  0.75428714  0.02684531  1
  S2-  S231  1  0.12591954  0.73586011  0.54086109  1
  S2-  S232  1  0.38703718  0.00995906  0.04112027  1
  S2-  S233  1  0.37942631  -0.01370088  0.53683735  1
  S2-  S234  1  0.38339216  0.25653867  0.04894168  1
  S2-  S235  1  0.36897619  0.23262861  0.54712304  1
  S2-  S236  1  0.38289137  0.50499734  0.04130571  1
  S2-  S237  1  0.37366779  0.48786256  0.55295393  1
  S2-  S238  1  0.38836488  0.74949375  0.03561992  1
  S2-  S239  1  0.38047388  0.73649414  0.54301512  1
  S2-  S240  1  0.63280932  0.00230382  0.05717391  1
  S2-  S241  1  0.62593206  -0.01262225  0.54286492  1
  S2-  S242  1  0.63858996  0.25721890  0.05936287  1
  S2-  S243  1  0.62783748  0.23297912  0.55197565  1
  S2-  S244  1  0.64036924  0.50496932  0.04583221  1
  S2-  S245  1  0.61965854  0.47635195  0.55719663  1
  S2-  S246  1  0.63699270  0.75649307  0.04942530  1
  S2-  S247  1  0.62410575  0.73380511  0.55143492  1
  S2-  S248  1  0.88893817  0.00583937  0.06187366  1
  S2-  S249  1  0.87113581  -0.01662607  0.53680292  1
  S2-  S250  1  0.88670671  0.25959914  0.05337239  1
  S2-  S251  1  0.87898962  0.24039281  0.54052414  1
  S2-  S252  1  0.89051307  0.50620150  0.04907516  1
  S2-  S253  1  0.87215382  0.48217960  0.54744304  1
  S2-  S254  1  0.88613505  0.75292737  0.04350319  1
  S2-  S255  1  0.86791990  0.73361763  0.54488149  1
