# generated using pymatgen
data_La6Ce6Pr19Nd20Sm13(BiS2)64
_symmetry_space_group_name_H-M   'P 1'
_cell_length_a   16.07014281
_cell_length_b   16.06345672
_cell_length_c   27.32873030
_cell_angle_alpha   90.07917214
_cell_angle_beta   89.85737827
_cell_angle_gamma   89.94976393
_symmetry_Int_Tables_number   1
_chemical_formula_structural   La6Ce6Pr19Nd20Sm13(BiS2)64
_chemical_formula_sum   'La6 Ce6 Pr19 Nd20 Sm13 Bi64 S128'
_cell_volume   7054.66296149
_cell_formula_units_Z   1
loop_
 _symmetry_equiv_pos_site_id
 _symmetry_equiv_pos_as_xyz
  1  'x, y, z'
loop_
 _atom_type_symbol
 _atom_type_oxidation_number
  La3+  3.0
  Ce3+  3.0
  Pr3+  3.0
  Nd3+  3.0
  Sm3+  3.0
  Bi2+  2.0
  S2-  -2.0
loop_
 _atom_site_type_symbol
 _atom_site_label
 _atom_site_symmetry_multiplicity
 _atom_site_fract_x
 _atom_site_fract_y
 _atom_site_fract_z
 _atom_site_occupancy
  La3+  La0  1  0.63379899  0.75116076  0.40200615  1
  La3+  La1  1  0.00531196  0.87785892  0.60913160  1
  La3+  La2  1  0.77820017  0.13015479  0.07204714  1
  La3+  La3  1  0.65556647  -0.00228751  0.92914058  1
  La3+  La4  1  0.12583448  0.75968814  0.41660821  1
  La3+  La5  1  0.00157194  0.38655427  0.56599587  1
  Ce3+  Ce6  1  0.91085930  0.75153068  0.93281307  1
  Ce3+  Ce7  1  0.50337229  0.88320147  0.54723364  1
  Ce3+  Ce8  1  -0.00284034  0.12613389  0.56571410  1
  Ce3+  Ce9  1  0.15225451  0.25256108  0.93310298  1
  Ce3+  Ce10  1  0.62654994  0.50855533  0.44331223  1
  Ce3+  Ce11  1  0.37404964  0.50869313  0.44223996  1
  Pr3+  Pr12  1  0.74903341  0.63893332  0.57142386  1
  Pr3+  Pr13  1  0.65719826  0.25263926  0.92623139  1
  Pr3+  Pr14  1  0.73399241  0.88528130  0.59068305  1
  Pr3+  Pr15  1  0.03430551  0.62442363  0.06767545  1
  Pr3+  Pr16  1  0.40147362  0.76066818  0.93087404  1
  Pr3+  Pr17  1  0.11944274  0.00368772  0.43472896  1
  Pr3+  Pr18  1  0.28242315  0.37652332  0.05447211  1
  Pr3+  Pr19  1  0.38104424  0.76548876  0.41571490  1
  Pr3+  Pr20  1  0.12039871  0.26452768  0.43043310  1
  Pr3+  Pr21  1  0.02394671  0.13097465  0.05977824  1
  Pr3+  Pr22  1  0.77920591  0.63357282  0.08971211  1
  Pr3+  Pr23  1  0.74168282  0.14185963  0.57542580  1
  Pr3+  Pr24  1  0.52451263  0.63158331  0.06570398  1
  Pr3+  Pr25  1  0.40798160  0.24910498  0.92026000  1
  Pr3+  Pr26  1  0.24617872  0.38345133  0.56942037  1
  Pr3+  Pr27  1  0.02594497  0.87350898  0.05992414  1
  Pr3+  Pr28  1  0.27181147  0.13547567  0.07146380  1
  Pr3+  Pr29  1  0.37761417  0.01261592  0.43040758  1
  Pr3+  Pr30  1  0.24470909  0.12835899  0.55311861  1
  Nd3+  Nd31  1  0.02686360  0.37916001  0.05702800  1
  Nd3+  Nd32  1  0.90577683  0.50540582  0.94553528  1
  Nd3+  Nd33  1  0.40934553  0.50661399  0.93030659  1
  Nd3+  Nd34  1  0.90201995  0.00434119  0.93672914  1
  Nd3+  Nd35  1  0.15605196  0.75231799  0.93593840  1
  Nd3+  Nd36  1  0.86910752  0.00063726  0.45935185  1
  Nd3+  Nd37  1  0.52883406  0.89126023  0.07137726  1
  Nd3+  Nd38  1  0.25000700  0.87492593  0.56043705  1
  Nd3+  Nd39  1  0.15343625  0.00523132  0.93985601  1
  Nd3+  Nd40  1  0.28213169  0.63427833  0.06860139  1
  Nd3+  Nd41  1  0.37379135  0.25676294  0.43510447  1
  Nd3+  Nd42  1  0.75444833  0.38695890  0.57077651  1
  Nd3+  Nd43  1  0.63757503  0.00812224  0.42769133  1
  Nd3+  Nd44  1  0.16595998  0.50485220  0.92842698  1
  Nd3+  Nd45  1  0.77800296  0.87935769  0.06689590  1
  Nd3+  Nd46  1  0.49807128  0.63717680  0.55474704  1
  Nd3+  Nd47  1  0.90349960  0.26485488  0.92249879  1
  Nd3+  Nd48  1  0.87576274  0.25634043  0.44078800  1
  Nd3+  Nd49  1  0.65492602  0.75569566  0.94488748  1
  Nd3+  Nd50  1  0.49771639  0.38247203  0.55078960  1
  Sm3+  Sm51  1  0.87154305  0.51114673  0.44563654  1
  Sm3+  Sm52  1  0.65138421  0.50756565  0.93756434  1
  Sm3+  Sm53  1  0.12197323  0.51148965  0.43000029  1
  Sm3+  Sm54  1  0.77480859  0.37691122  0.06118618  1
  Sm3+  Sm55  1  0.49901570  0.13228402  0.55754907  1
  Sm3+  Sm56  1  0.00407277  0.64237026  0.55592904  1
  Sm3+  Sm57  1  0.24767397  0.63912448  0.54989420  1
  Sm3+  Sm58  1  0.40002087  0.00601737  0.93974294  1
  Sm3+  Sm59  1  0.27766072  0.87969000  0.06391160  1
  Sm3+  Sm60  1  0.53092232  0.37852802  0.05068654  1
  Sm3+  Sm61  1  0.63213275  0.25305795  0.43183103  1
  Sm3+  Sm62  1  0.52761557  0.13040096  0.05033623  1
  Sm3+  Sm63  1  0.86820553  0.76109655  0.45306461  1
  Bi2+  Bi64  1  0.01493431  0.10441812  0.29196098  1
  Bi2+  Bi65  1  -0.01025336  0.20639543  0.76439131  1
  Bi2+  Bi66  1  -0.05319514  0.35674922  0.29152560  1
  Bi2+  Bi67  1  0.02597592  0.39740156  0.79221265  1
  Bi2+  Bi68  1  -0.01297248  0.57168769  0.27195748  1
  Bi2+  Bi69  1  0.08078551  0.60104741  0.74807487  1
  Bi2+  Bi70  1  -0.01369265  0.90754433  0.28218568  1
  Bi2+  Bi71  1  -0.00036381  0.87619117  0.81065503  1
  Bi2+  Bi72  1  0.21175900  0.12750744  0.29477426  1
  Bi2+  Bi73  1  0.25184395  0.16465563  0.80254439  1
  Bi2+  Bi74  1  0.28065418  0.30664677  0.31467342  1
  Bi2+  Bi75  1  0.24749399  0.36172417  0.79592663  1
  Bi2+  Bi76  1  0.23109513  0.59763900  0.28786411  1
  Bi2+  Bi77  1  0.32178191  0.63889906  0.77808253  1
  Bi2+  Bi78  1  0.24588680  0.87532512  0.28068808  1
  Bi2+  Bi79  1  0.25947006  0.87999574  0.80514431  1
  Bi2+  Bi80  1  0.49068734  0.12918562  0.28127510  1
  Bi2+  Bi81  1  0.41941399  0.15800497  0.74276300  1
  Bi2+  Bi82  1  0.54079469  0.33655608  0.30299802  1
  Bi2+  Bi83  1  0.44274861  0.39518463  0.80035888  1
  Bi2+  Bi84  1  0.50454872  0.53576938  0.29035512  1
  Bi2+  Bi85  1  0.50292525  0.67806267  0.81571012  1
  Bi2+  Bi86  1  0.48943552  0.86014747  0.27922328  1
  Bi2+  Bi87  1  0.50402135  0.86881987  0.77903449  1
  Bi2+  Bi88  1  0.75038641  0.14140666  0.29548361  1
  Bi2+  Bi89  1  0.65882545  0.19923739  0.78444781  1
  Bi2+  Bi90  1  0.73969080  0.38584924  0.28816306  1
  Bi2+  Bi91  1  0.76853613  0.42976928  0.79029455  1
  Bi2+  Bi92  1  0.74466640  0.59308190  0.27097387  1
  Bi2+  Bi93  1  0.68772316  0.60357513  0.81282856  1
  Bi2+  Bi94  1  0.76827508  0.89746685  0.29698769  1
  Bi2+  Bi95  1  0.74641963  0.91684513  0.80264640  1
  Bi2+  Bi96  1  0.13038574  -0.02030239  0.20554395  1
  Bi2+  Bi97  1  0.15048502  0.03649775  0.71633473  1
  Bi2+  Bi98  1  0.14276103  0.24499253  0.20570502  1
  Bi2+  Bi99  1  0.13808244  0.25936727  0.69988328  1
  Bi2+  Bi100  1  0.12336030  0.42440793  0.25311593  1
  Bi2+  Bi101  1  0.23432975  0.51152004  0.69126578  1
  Bi2+  Bi102  1  0.10336025  0.72757906  0.18707097  1
  Bi2+  Bi103  1  0.15981823  0.76566788  0.70811674  1
  Bi2+  Bi104  1  0.32407419  0.03015511  0.21229688  1
  Bi2+  Bi105  1  0.35359484  -0.02360507  0.72051108  1
  Bi2+  Bi106  1  0.40761381  0.20274388  0.18678297  1
  Bi2+  Bi107  1  0.33575290  0.32778147  0.69162182  1
  Bi2+  Bi108  1  0.38880720  0.39629629  0.23590979  1
  Bi2+  Bi109  1  0.42959581  0.52695010  0.70587913  1
  Bi2+  Bi110  1  0.34272860  0.69212456  0.21627993  1
  Bi2+  Bi111  1  0.39804649  0.78963890  0.69326627  1
  Bi2+  Bi112  1  0.61813097  -0.02067998  0.20320065  1
  Bi2+  Bi113  1  0.60580745  0.01606851  0.70217115  1
  Bi2+  Bi114  1  0.63342520  0.22966927  0.21720400  1
  Bi2+  Bi115  1  0.61527680  0.36774755  0.72268802  1
  Bi2+  Bi116  1  0.60152992  0.45648376  0.19878840  1
  Bi2+  Bi117  1  0.70401861  0.53525338  0.69064287  1
  Bi2+  Bi118  1  0.66240927  0.74022509  0.20983792  1
  Bi2+  Bi119  1  0.63277641  0.71773733  0.72421283  1
  Bi2+  Bi120  1  0.86891434  0.04465305  0.22175845  1
  Bi2+  Bi121  1  0.88997736  0.02694157  0.72633767  1
  Bi2+  Bi122  1  0.89488961  0.29520855  0.18879330  1
  Bi2+  Bi123  1  0.84132072  0.28158221  0.70541723  1
  Bi2+  Bi124  1  0.79980998  0.47260983  0.18407798  1
  Bi2+  Bi125  1  0.89900263  0.53980491  0.71475232  1
  Bi2+  Bi126  1  0.88213707  0.74058084  0.26648941  1
  Bi2+  Bi127  1  0.85583940  0.72479569  0.73943710  1
  S2-  S128  1  -0.08287875  0.14523282  0.14204609  1
  S2-  S129  1  0.01319996  0.04799373  0.65382764  1
  S2-  S130  1  0.04893593  0.37738432  0.15655746  1
  S2-  S131  1  -0.11246198  0.40112637  0.64455821  1
  S2-  S132  1  -0.03244100  0.64199536  0.16326121  1
  S2-  S133  1  0.03995655  0.70409334  0.64517179  1
  S2-  S134  1  0.01590271  0.87595400  0.16067438  1
  S2-  S135  1  -0.05040132  0.85749876  0.71073657  1
  S2-  S136  1  0.13461840  0.11962933  0.14016186  1
  S2-  S137  1  0.23716770  0.13899678  0.65327695  1
  S2-  S138  1  0.27475823  0.27683616  0.13821713  1
  S2-  S139  1  0.11958688  0.40257945  0.64167699  1
  S2-  S140  1  0.16329194  0.60097644  0.14061130  1
  S2-  S141  1  0.27481849  0.73263107  0.63191924  1
  S2-  S142  1  0.26421233  0.79503576  0.15131064  1
  S2-  S143  1  0.16619803  0.90580571  0.64967981  1
  S2-  S144  1  0.52848573  0.04553652  0.13627726  1
  S2-  S145  1  0.51093693  0.13713276  0.65690166  1
  S2-  S146  1  0.48736147  0.36261554  0.14581693  1
  S2-  S147  1  0.48629234  0.38184243  0.64944353  1
  S2-  S148  1  0.40193684  0.61157091  0.14289088  1
  S2-  S149  1  0.50303399  0.66154363  0.65418079  1
  S2-  S150  1  0.52517782  0.83603850  0.16943231  1
  S2-  S151  1  0.56414935  0.90180528  0.63885607  1
  S2-  S152  1  0.75496358  -0.00433774  0.14500465  1
  S2-  S153  1  0.80109473  0.12358322  0.67262556  1
  S2-  S154  1  0.74125917  0.26739783  0.13933426  1
  S2-  S155  1  0.69955066  0.28460781  0.64516409  1
  S2-  S156  1  0.63055511  0.61501505  0.14668987  1
  S2-  S157  1  0.75857246  0.74138377  0.65367572  1
  S2-  S158  1  0.78766892  0.77519610  0.15038897  1
  S2-  S159  1  0.75108603  0.93664504  0.69351004  1
  S2-  S160  1  0.12102389  -0.09778262  0.34962044  1
  S2-  S161  1  0.12843444  -0.01733468  0.84123100  1
  S2-  S162  1  -0.00900537  0.23686954  0.36051288  1
  S2-  S163  1  0.04178176  0.24622523  0.85634219  1
  S2-  S164  1  0.14859698  0.39242399  0.35866001  1
  S2-  S165  1  0.08222677  0.52934362  0.83997452  1
  S2-  S166  1  0.09467713  0.61946364  0.34982243  1
  S2-  S167  1  0.04069225  0.74665560  0.85992726  1
  S2-  S168  1  0.37754937  -0.08482077  0.34358426  1
  S2-  S169  1  0.40554856  -0.10319265  0.86061628  1
  S2-  S170  1  0.37592776  0.14397962  0.35693990  1
  S2-  S171  1  0.38273862  0.11212022  0.85579955  1
  S2-  S172  1  0.36135592  0.52139554  0.34511297  1
  S2-  S173  1  0.29611039  0.50176498  0.85280591  1
  S2-  S174  1  0.25952827  0.73978742  0.34167294  1
  S2-  S175  1  0.26888354  0.73654995  0.85757720  1
  S2-  S176  1  0.62154264  -0.09751147  0.34224665  1
  S2-  S177  1  0.64587895  0.05696542  0.82922972  1
  S2-  S178  1  0.61191485  0.13233524  0.35632326  1
  S2-  S179  1  0.53769053  0.27336652  0.84742212  1
  S2-  S180  1  0.64590393  0.58081210  0.35451217  1
  S2-  S181  1  0.54076091  0.51098271  0.85738877  1
  S2-  S182  1  0.49351204  0.73311690  0.33641999  1
  S2-  S183  1  0.63860519  0.85324497  0.86206625  1
  S2-  S184  1  0.80619400  0.01953545  0.36596540  1
  S2-  S185  1  0.88768259  0.01207875  0.83575290  1
  S2-  S186  1  0.76374813  0.27410348  0.36336718  1
  S2-  S187  1  0.77425467  0.24041870  0.84844019  1
  S2-  S188  1  0.89924478  0.50046033  0.34795054  1
  S2-  S189  1  0.89521033  0.41817412  0.85875805  1
  S2-  S190  1  0.80235431  0.75628227  0.36116454  1
  S2-  S191  1  0.84962466  0.78869128  0.83911466  1
  S2-  S192  1  -0.00382742  0.12642570  0.46063413  1
  S2-  S193  1  0.02570231  0.12703852  0.95311152  1
  S2-  S194  1  -0.00318602  0.39044270  0.45776270  1
  S2-  S195  1  0.03460710  0.38460245  0.95254942  1
  S2-  S196  1  -0.00718064  0.63608125  0.45321530  1
  S2-  S197  1  0.03367125  0.62247455  0.95960206  1
  S2-  S198  1  -0.00878651  0.87899258  0.44528947  1
  S2-  S199  1  0.02940961  0.88162475  0.95445458  1
  S2-  S200  1  0.24151041  0.13377477  0.44872078  1
  S2-  S201  1  0.27388069  0.12981864  0.96024957  1
  S2-  S202  1  0.25221521  0.38235220  0.46206913  1
  S2-  S203  1  0.28375374  0.37111911  0.94846508  1
  S2-  S204  1  0.24951004  0.63164111  0.44856511  1
  S2-  S205  1  0.28516687  0.62926930  0.96078269  1
  S2-  S206  1  0.25301531  0.88715343  0.45253872  1
  S2-  S207  1  0.27548088  0.88274457  0.96015382  1
  S2-  S208  1  0.50212247  0.13560210  0.45591765  1
  S2-  S209  1  0.53081043  0.12461525  0.94842490  1
  S2-  S210  1  0.50165303  0.37977752  0.44482428  1
  S2-  S211  1  0.53080685  0.37837116  0.95046777  1
  S2-  S212  1  0.50205569  0.63265728  0.44970090  1
  S2-  S213  1  0.52818731  0.63491296  0.95848544  1
  S2-  S214  1  0.50706995  0.88698154  0.44567151  1
  S2-  S215  1  0.52399085  0.88282231  0.96375903  1
  S2-  S216  1  0.75143961  0.13617707  0.46697712  1
  S2-  S217  1  0.78140370  0.12758544  0.95469734  1
  S2-  S218  1  0.75101684  0.38710422  0.46339764  1
  S2-  S219  1  0.77219203  0.38512444  0.95650249  1
  S2-  S220  1  0.74865799  0.63288188  0.46391581  1
  S2-  S221  1  0.77784601  0.62771826  0.94593618  1
  S2-  S222  1  0.74327141  0.87841134  0.46491716  1
  S2-  S223  1  0.78451520  0.87502499  0.95906806  1
  S2-  S224  1  0.15252705  -0.00158513  0.04578964  1
  S2-  S225  1  0.11986602  0.00152375  0.54170728  1
  S2-  S226  1  0.14892180  0.25668100  0.03810457  1
  S2-  S227  1  0.12125806  0.25477297  0.54272066  1
  S2-  S228  1  0.15748030  0.49692598  0.03724543  1
  S2-  S229  1  0.12560054  0.51746932  0.53812318  1
  S2-  S230  1  0.15552918  0.75566189  0.04253414  1
  S2-  S231  1  0.12494778  0.76088515  0.53300738  1
  S2-  S232  1  0.39473873  0.00842871  0.04558649  1
  S2-  S233  1  0.37488483  0.00797273  0.54477464  1
  S2-  S234  1  0.40854710  0.25234345  0.03445714  1
  S2-  S235  1  0.37250070  0.25550200  0.54342439  1
  S2-  S236  1  0.40632118  0.49914629  0.03806728  1
  S2-  S237  1  0.37072772  0.51057922  0.54940481  1
  S2-  S238  1  0.40470478  0.76477305  0.04531330  1
  S2-  S239  1  0.37855767  0.75962639  0.52911541  1
  S2-  S240  1  0.65386490  0.00573497  0.03740238  1
  S2-  S241  1  0.62571025  0.01498373  0.54354094  1
  S2-  S242  1  0.64888714  0.25278550  0.03570089  1
  S2-  S243  1  0.61823982  0.25940552  0.53774953  1
  S2-  S244  1  0.65528989  0.50329910  0.04185432  1
  S2-  S245  1  0.62323479  0.50802927  0.55081744  1
  S2-  S246  1  0.65126354  0.75727392  0.04851397  1
  S2-  S247  1  0.62355047  0.75708804  0.54960350  1
  S2-  S248  1  0.90387341  0.00063705  0.04398298  1
  S2-  S249  1  0.86928523  0.00047384  0.56358198  1
  S2-  S250  1  0.90066408  0.26196849  0.03459134  1
  S2-  S251  1  0.87589118  0.25510107  0.54939565  1
  S2-  S252  1  0.89671272  0.50435905  0.05176141  1
  S2-  S253  1  0.87747271  0.51962881  0.54895466  1
  S2-  S254  1  0.90286271  0.74599585  0.04292180  1
  S2-  S255  1  0.88116877  0.76713396  0.55572704  1
