# generated using pymatgen
data_La6Ce6Pr19Nd20Sm13(BiS2)64
_symmetry_space_group_name_H-M   'P 1'
_cell_length_a   16.12197796
_cell_length_b   16.11154091
_cell_length_c   27.24831797
_cell_angle_alpha   89.96165240
_cell_angle_beta   90.14506730
_cell_angle_gamma   89.92551837
_symmetry_Int_Tables_number   1
_chemical_formula_structural   La6Ce6Pr19Nd20Sm13(BiS2)64
_chemical_formula_sum   'La6 Ce6 Pr19 Nd20 Sm13 Bi64 S128'
_cell_volume   7077.71780603
_cell_formula_units_Z   1
loop_
 _symmetry_equiv_pos_site_id
 _symmetry_equiv_pos_as_xyz
  1  'x, y, z'
loop_
 _atom_type_symbol
 _atom_type_oxidation_number
  La3+  3.0
  Ce3+  3.0
  Pr3+  3.0
  Nd3+  3.0
  Sm3+  3.0
  Bi2+  2.0
  S2-  -2.0
loop_
 _atom_site_type_symbol
 _atom_site_label
 _atom_site_symmetry_multiplicity
 _atom_site_fract_x
 _atom_site_fract_y
 _atom_site_fract_z
 _atom_site_occupancy
  La3+  La0  1  0.37520544  0.27070554  0.94205435  1
  La3+  La1  1  0.50108015  0.40141963  0.05955085  1
  La3+  La2  1  0.36424386  0.52557787  0.92020589  1
  La3+  La3  1  0.12438313  0.24325672  0.39746154  1
  La3+  La4  1  0.50862108  0.62574521  0.59371865  1
  La3+  La5  1  0.74765099  0.40066866  0.06903421  1
  Ce3+  Ce6  1  0.38038055  0.49491625  0.44835724  1
  Ce3+  Ce7  1  0.37784166  0.25121930  0.42618489  1
  Ce3+  Ce8  1  0.74768569  0.62374316  0.56113985  1
  Ce3+  Ce9  1  0.86894582  0.25066462  0.42077776  1
  Ce3+  Ce10  1  0.75102109  0.12552784  0.54900327  1
  Ce3+  Ce11  1  0.00282726  0.14625384  0.07200987  1
  Pr3+  Pr12  1  -0.00044235  0.64663673  0.06563787  1
  Pr3+  Pr13  1  0.37811547  0.74828959  0.44334456  1
  Pr3+  Pr14  1  0.25253630  0.87308067  0.55052860  1
  Pr3+  Pr15  1  0.62644228  0.27060567  0.94080592  1
  Pr3+  Pr16  1  0.25288252  0.12424649  0.55647656  1
  Pr3+  Pr17  1  0.51144483  0.87587945  0.57505743  1
  Pr3+  Pr18  1  -0.00185803  0.89147956  0.07397488  1
  Pr3+  Pr19  1  0.25459591  0.14992929  0.08232756  1
  Pr3+  Pr20  1  0.12529901  0.49452257  0.43335939  1
  Pr3+  Pr21  1  0.00198793  0.37057834  0.55526789  1
  Pr3+  Pr22  1  0.63282833  0.52008896  0.91875067  1
  Pr3+  Pr23  1  0.50214672  0.89429657  0.06344114  1
  Pr3+  Pr24  1  0.74668956  0.89525770  0.05774118  1
  Pr3+  Pr25  1  0.25384177  0.62315376  0.56173380  1
  Pr3+  Pr26  1  0.51218654  0.14665318  0.10724293  1
  Pr3+  Pr27  1  0.75044213  0.14685083  0.06586595  1
  Pr3+  Pr28  1  0.87854721  0.52106341  0.93461175  1
  Pr3+  Pr29  1  0.62981150  0.77899356  0.91365742  1
  Pr3+  Pr30  1  0.00210570  0.62071385  0.56178639  1
  Nd3+  Nd31  1  0.62776922  -0.00993691  0.42926815  1
  Nd3+  Nd32  1  0.37760234  0.02139178  0.95022241  1
  Nd3+  Nd33  1  0.25732504  0.37141983  0.55968462  1
  Nd3+  Nd34  1  0.74879374  0.64696619  0.05526093  1
  Nd3+  Nd35  1  0.75813349  0.87630493  0.56583060  1
  Nd3+  Nd36  1  0.62347322  0.24154587  0.41585903  1
  Nd3+  Nd37  1  0.12551650  0.27020442  0.95254788  1
  Nd3+  Nd38  1  0.25601202  0.64319435  0.06766444  1
  Nd3+  Nd39  1  0.25390276  0.39756027  0.06946929  1
  Nd3+  Nd40  1  0.62115727  0.02979494  0.93229034  1
  Nd3+  Nd41  1  0.12653332  0.02032868  0.95362538  1
  Nd3+  Nd42  1  0.12389572  0.77110519  0.94117771  1
  Nd3+  Nd43  1  0.62573489  0.74925591  0.43902277  1
  Nd3+  Nd44  1  0.12318178  0.74385406  0.43318226  1
  Nd3+  Nd45  1  0.87572299  0.77837963  0.92899316  1
  Nd3+  Nd46  1  0.87908396  0.02080023  0.94204408  1
  Nd3+  Nd47  1  0.00200940  0.87361474  0.56880289  1
  Nd3+  Nd48  1  0.51238153  0.36167095  0.57322183  1
  Nd3+  Nd49  1  0.87695161  0.75070226  0.43883336  1
  Nd3+  Nd50  1  0.00283519  0.12788874  0.55385522  1
  Sm3+  Sm51  1  0.50411947  0.12416144  0.55011383  1
  Sm3+  Sm52  1  0.12216505  0.00059365  0.43473413  1
  Sm3+  Sm53  1  0.37868333  0.76832673  0.93802661  1
  Sm3+  Sm54  1  0.62309216  0.49705470  0.44217310  1
  Sm3+  Sm55  1  0.12420116  0.52063565  0.94524388  1
  Sm3+  Sm56  1  0.50390807  0.64263517  0.04925924  1
  Sm3+  Sm57  1  0.87911934  -0.00180556  0.43974264  1
  Sm3+  Sm58  1  0.87782585  0.27118578  0.95328645  1
  Sm3+  Sm59  1  0.37419546  0.00003236  0.44043511  1
  Sm3+  Sm60  1  0.74811124  0.37078720  0.55167014  1
  Sm3+  Sm61  1  0.87383008  0.49740835  0.44278700  1
  Sm3+  Sm62  1  0.00156909  0.40329876  0.07413814  1
  Sm3+  Sm63  1  0.25414178  0.89385499  0.05668171  1
  Bi2+  Bi64  1  -0.01356529  0.07769384  0.27239356  1
  Bi2+  Bi65  1  -0.08278329  0.13033212  0.79990742  1
  Bi2+  Bi66  1  -0.00276800  0.38431453  0.27749894  1
  Bi2+  Bi67  1  -0.06410280  0.41770690  0.81534197  1
  Bi2+  Bi68  1  0.00510238  0.66672100  0.28588289  1
  Bi2+  Bi69  1  -0.01787059  0.68590097  0.82223934  1
  Bi2+  Bi70  1  0.01418862  0.84575926  0.33592583  1
  Bi2+  Bi71  1  0.03693837  0.88489922  0.80315638  1
  Bi2+  Bi72  1  0.25001794  0.10053346  0.28064465  1
  Bi2+  Bi73  1  0.17966931  0.11888628  0.78323889  1
  Bi2+  Bi74  1  0.26052864  0.38240833  0.28593185  1
  Bi2+  Bi75  1  0.25643063  0.35490044  0.80694674  1
  Bi2+  Bi76  1  0.22963279  0.59123243  0.28097819  1
  Bi2+  Bi77  1  0.21057331  0.68882061  0.75786358  1
  Bi2+  Bi78  1  0.26095061  0.79021875  0.29284296  1
  Bi2+  Bi79  1  0.29237899  0.96009352  0.80046239  1
  Bi2+  Bi80  1  0.48671209  0.11199773  0.29261611  1
  Bi2+  Bi81  1  0.51790351  0.12461380  0.78206146  1
  Bi2+  Bi82  1  0.51384795  0.41623358  0.29802807  1
  Bi2+  Bi83  1  0.51486233  0.32637684  0.81139197  1
  Bi2+  Bi84  1  0.50813308  0.66738553  0.26690986  1
  Bi2+  Bi85  1  0.46432751  0.60480638  0.79723378  1
  Bi2+  Bi86  1  0.51327213  0.86194035  0.29843024  1
  Bi2+  Bi87  1  0.50591693  0.88508033  0.79774956  1
  Bi2+  Bi88  1  0.73289579  0.05607816  0.26951912  1
  Bi2+  Bi89  1  0.74970140  0.06740301  0.75041727  1
  Bi2+  Bi90  1  0.76282982  0.42956532  0.28853317  1
  Bi2+  Bi91  1  0.79144833  0.34666135  0.74276073  1
  Bi2+  Bi92  1  0.69676066  0.65546947  0.23666967  1
  Bi2+  Bi93  1  0.80965885  0.61792842  0.77953701  1
  Bi2+  Bi94  1  0.82499503  0.86329186  0.30188158  1
  Bi2+  Bi95  1  0.77645130  0.88239053  0.78831444  1
  Bi2+  Bi96  1  0.12693440  -0.08489366  0.25015405  1
  Bi2+  Bi97  1  0.13182779  -0.02235772  0.70570866  1
  Bi2+  Bi98  1  0.12457380  0.20840976  0.20480066  1
  Bi2+  Bi99  1  0.05003017  0.26338005  0.76197602  1
  Bi2+  Bi100  1  0.11527626  0.46441492  0.20057155  1
  Bi2+  Bi101  1  0.08515095  0.53685180  0.78234443  1
  Bi2+  Bi102  1  0.14592418  0.71832239  0.20711644  1
  Bi2+  Bi103  1  0.08785215  0.78403427  0.68701386  1
  Bi2+  Bi104  1  0.38824954  -0.08303816  0.21606728  1
  Bi2+  Bi105  1  0.38837949  0.01347118  0.70208351  1
  Bi2+  Bi106  1  0.38904773  0.30504610  0.21744352  1
  Bi2+  Bi107  1  0.37753167  0.25253806  0.69575969  1
  Bi2+  Bi108  1  0.38610708  0.53600472  0.21135575  1
  Bi2+  Bi109  1  0.32127782  0.48696124  0.70202754  1
  Bi2+  Bi110  1  0.37082816  0.73075275  0.18013866  1
  Bi2+  Bi111  1  0.35738155  0.81670345  0.73055117  1
  Bi2+  Bi112  1  0.63403479  -0.08424024  0.21340360  1
  Bi2+  Bi113  1  0.57832420  -0.00632851  0.70037836  1
  Bi2+  Bi114  1  0.64663032  0.25217073  0.21839530  1
  Bi2+  Bi115  1  0.64793565  0.23136156  0.70172627  1
  Bi2+  Bi116  1  0.62564637  0.46581928  0.19045441  1
  Bi2+  Bi117  1  0.60040296  0.48293827  0.70883492  1
  Bi2+  Bi118  1  0.56990399  0.74880817  0.15994034  1
  Bi2+  Bi119  1  0.61224461  0.74783462  0.71281536  1
  Bi2+  Bi120  1  0.94314797  -0.08340674  0.20840583  1
  Bi2+  Bi121  1  0.93837808  0.01563384  0.70590083  1
  Bi2+  Bi122  1  0.84445157  0.21832450  0.26653698  1
  Bi2+  Bi123  1  0.91960847  0.24688190  0.67805275  1
  Bi2+  Bi124  1  0.87779807  0.55783643  0.22605609  1
  Bi2+  Bi125  1  0.90269343  0.49672417  0.70425563  1
  Bi2+  Bi126  1  0.83937939  0.74621662  0.18226636  1
  Bi2+  Bi127  1  0.89817517  0.76330280  0.71817348  1
  S2-  S128  1  -0.01676647  0.11593793  0.16741382  1
  S2-  S129  1  0.04417535  0.11737989  0.65119969  1
  S2-  S130  1  0.01546857  0.33570885  0.16722964  1
  S2-  S131  1  0.01157554  0.38892765  0.65513555  1
  S2-  S132  1  -0.01243215  0.53346238  0.14552681  1
  S2-  S133  1  -0.00794155  0.63837264  0.66115346  1
  S2-  S134  1  0.00314238  0.76462060  0.14412104  1
  S2-  S135  1  -0.11919805  0.88376515  0.64125579  1
  S2-  S136  1  0.21750326  0.08360623  0.17787883  1
  S2-  S137  1  0.28828649  0.13536273  0.65555186  1
  S2-  S138  1  0.25400576  0.28837471  0.15109371  1
  S2-  S139  1  0.24963349  0.35519494  0.66068105  1
  S2-  S140  1  0.25704409  0.52164723  0.14167066  1
  S2-  S141  1  0.23557585  0.60945540  0.66119752  1
  S2-  S142  1  0.26160029  0.86565551  0.15244943  1
  S2-  S143  1  0.23692664  0.86786758  0.64974898  1
  S2-  S144  1  0.42385470  0.14759312  0.20046679  1
  S2-  S145  1  0.51288475  0.20826947  0.63574870  1
  S2-  S146  1  0.51963734  0.31079881  0.14904837  1
  S2-  S147  1  0.46485506  0.39772073  0.67075643  1
  S2-  S148  1  0.50195551  0.53410337  0.13055148  1
  S2-  S149  1  0.46471121  0.58455327  0.69196554  1
  S2-  S150  1  0.50731565  0.98043873  0.15137166  1
  S2-  S151  1  0.47742701  0.77166764  0.65494606  1
  S2-  S152  1  0.66999937  0.12813259  0.15406515  1
  S2-  S153  1  0.75207178  0.12140813  0.64656503  1
  S2-  S154  1  0.75861297  0.32565788  0.16519030  1
  S2-  S155  1  0.66632637  0.37239091  0.63805232  1
  S2-  S156  1  0.73687996  0.53870451  0.13512828  1
  S2-  S157  1  0.66724628  0.61784213  0.65027052  1
  S2-  S158  1  0.78658158  0.91362785  0.15570396  1
  S2-  S159  1  0.65589948  0.86450266  0.64630078  1
  S2-  S160  1  0.12238149  0.08141445  0.34628978  1
  S2-  S161  1  0.10214047  0.02231163  0.85526942  1
  S2-  S162  1  0.27585527  0.23638025  0.34247722  1
  S2-  S163  1  0.13911622  0.25962432  0.85373518  1
  S2-  S164  1  0.12388429  0.39924974  0.34640480  1
  S2-  S165  1  0.19968192  0.50168584  0.85780899  1
  S2-  S166  1  0.11938520  0.62276996  0.35985287  1
  S2-  S167  1  0.15459616  0.77676592  0.84282815  1
  S2-  S168  1  0.37092818  0.01621327  0.34155177  1
  S2-  S169  1  0.42663123  0.02184669  0.85416266  1
  S2-  S170  1  0.49218364  0.26081185  0.34842615  1
  S2-  S171  1  0.36631211  0.24441222  0.84149138  1
  S2-  S172  1  0.37870407  0.47041151  0.35082823  1
  S2-  S173  1  0.39309876  0.44569521  0.82689063  1
  S2-  S174  1  0.40253829  0.73686116  0.34416908  1
  S2-  S175  1  0.35985227  0.67248262  0.85721440  1
  S2-  S176  1  0.62456857  0.09198121  0.34629655  1
  S2-  S177  1  0.64012575  -0.07184709  0.85246499  1
  S2-  S178  1  0.74936681  0.27522121  0.34567048  1
  S2-  S179  1  0.62062225  0.18086004  0.85355041  1
  S2-  S180  1  0.63308337  0.50702900  0.34292965  1
  S2-  S181  1  0.58852461  0.47257977  0.81784202  1
  S2-  S182  1  0.64426156  0.85523935  0.36059345  1
  S2-  S183  1  0.57314378  0.72189547  0.81678779  1
  S2-  S184  1  0.86009540  0.02938661  0.34283210  1
  S2-  S185  1  0.89525385  -0.08103775  0.86068634  1
  S2-  S186  1  0.97373815  0.24952655  0.34090096  1
  S2-  S187  1  0.86740282  0.26525838  0.85538743  1
  S2-  S188  1  0.89056276  0.47674943  0.34552589  1
  S2-  S189  1  0.77789547  0.50881095  0.85318432  1
  S2-  S190  1  0.85363612  0.71311024  0.34209897  1
  S2-  S191  1  0.76922344  0.75020651  0.84842907  1
  S2-  S192  1  -0.00038907  0.12442493  0.44858610  1
  S2-  S193  1  0.00087648  0.14523114  0.96287690  1
  S2-  S194  1  -0.00381822  0.37279015  0.44979528  1
  S2-  S195  1  0.00222685  0.39575929  0.96146011  1
  S2-  S196  1  -0.00459112  0.62159302  0.45553879  1
  S2-  S197  1  0.00151738  0.64652427  0.95692376  1
  S2-  S198  1  0.00185855  0.87446359  0.46058232  1
  S2-  S199  1  0.00385630  0.89491266  0.96610236  1
  S2-  S200  1  0.24827687  0.11980767  0.45077213  1
  S2-  S201  1  0.24951013  0.14377973  0.96480044  1
  S2-  S202  1  0.25193678  0.37213035  0.45325743  1
  S2-  S203  1  0.24719030  0.39512911  0.96208135  1
  S2-  S204  1  0.25371253  0.62333775  0.45500083  1
  S2-  S205  1  0.24453985  0.64848476  0.96021238  1
  S2-  S206  1  0.24713768  0.87479474  0.44333793  1
  S2-  S207  1  0.25347425  0.89309395  0.95167142  1
  S2-  S208  1  0.49818891  0.11834332  0.44855650  1
  S2-  S209  1  0.49787571  0.14620896  0.95611784  1
  S2-  S210  1  0.50513691  0.37353016  0.45697205  1
  S2-  S211  1  0.50181570  0.39845238  0.94715136  1
  S2-  S212  1  0.50422168  0.62420561  0.44872442  1
  S2-  S213  1  0.50761672  0.64719633  0.94542815  1
  S2-  S214  1  0.49839793  0.87611013  0.45883676  1
  S2-  S215  1  0.49894580  0.89274535  0.95492554  1
  S2-  S216  1  0.75281478  0.11903478  0.44533094  1
  S2-  S217  1  0.75624125  0.14451049  0.95788194  1
  S2-  S218  1  0.74767379  0.37855741  0.44988951  1
  S2-  S219  1  0.75390428  0.39180006  0.95745967  1
  S2-  S220  1  0.74965186  0.62305679  0.45283867  1
  S2-  S221  1  0.75268224  0.64809621  0.95103103  1
  S2-  S222  1  0.75736882  0.87552087  0.45934398  1
  S2-  S223  1  0.74989993  0.90153832  0.95366725  1
  S2-  S224  1  0.12740900  0.01550573  0.05982712  1
  S2-  S225  1  0.12469398  -0.00239523  0.54187990  1
  S2-  S226  1  0.12209976  0.27363515  0.05645497  1
  S2-  S227  1  0.12973436  0.24988303  0.55013374  1
  S2-  S228  1  0.12605483  0.52157025  0.04719992  1
  S2-  S229  1  0.12866424  0.49722733  0.54548611  1
  S2-  S230  1  0.13238636  0.76983115  0.04786977  1
  S2-  S231  1  0.12471518  0.74781188  0.54159830  1
  S2-  S232  1  0.37310837  0.02157834  0.05608957  1
  S2-  S233  1  0.38093852  -0.00254406  0.54636364  1
  S2-  S234  1  0.38000064  0.26810972  0.05052224  1
  S2-  S235  1  0.37901928  0.24766068  0.53788956  1
  S2-  S236  1  0.37472615  0.52557510  0.03237920  1
  S2-  S237  1  0.38455263  0.49965562  0.55519095  1
  S2-  S238  1  0.37764556  0.76793667  0.04206983  1
  S2-  S239  1  0.38003103  0.74732380  0.54924706  1
  S2-  S240  1  0.62445564  0.02236326  0.04250630  1
  S2-  S241  1  0.62771334  0.00042613  0.54021012  1
  S2-  S242  1  0.62663510  0.26944711  0.04638457  1
  S2-  S243  1  0.62839601  0.24571261  0.52943919  1
  S2-  S244  1  0.62660336  0.52384676  0.02796225  1
  S2-  S245  1  0.62345652  0.49971039  0.54531858  1
  S2-  S246  1  0.62537773  0.76953980  0.03530379  1
  S2-  S247  1  0.62609794  0.74788106  0.54367614  1
  S2-  S248  1  0.87704598  0.01986698  0.04986033  1
  S2-  S249  1  0.88107121  0.00313899  0.54338167  1
  S2-  S250  1  0.87944862  0.27333861  0.05748896  1
  S2-  S251  1  0.87372466  0.25051331  0.53689931  1
  S2-  S252  1  0.87682240  0.52098394  0.04109844  1
  S2-  S253  1  0.87139275  0.49606268  0.54862949  1
  S2-  S254  1  0.87310745  0.77174495  0.03949994  1
  S2-  S255  1  0.87683254  0.74487907  0.54668598  1
