# generated using pymatgen
data_La6Ce6Pr19Nd20Sm13(BiS2)64
_symmetry_space_group_name_H-M   'P 1'
_cell_length_a   16.10340996
_cell_length_b   16.06468348
_cell_length_c   27.35226540
_cell_angle_alpha   90.18646314
_cell_angle_beta   90.15835218
_cell_angle_gamma   89.78977704
_symmetry_Int_Tables_number   1
_chemical_formula_structural   La6Ce6Pr19Nd20Sm13(BiS2)64
_chemical_formula_sum   'La6 Ce6 Pr19 Nd20 Sm13 Bi64 S128'
_cell_volume   7075.81479124
_cell_formula_units_Z   1
loop_
 _symmetry_equiv_pos_site_id
 _symmetry_equiv_pos_as_xyz
  1  'x, y, z'
loop_
 _atom_type_symbol
 _atom_type_oxidation_number
  La3+  3.0
  Ce3+  3.0
  Pr3+  3.0
  Nd3+  3.0
  Sm3+  3.0
  Bi2+  2.0
  S2-  -2.0
loop_
 _atom_site_type_symbol
 _atom_site_label
 _atom_site_symmetry_multiplicity
 _atom_site_fract_x
 _atom_site_fract_y
 _atom_site_fract_z
 _atom_site_occupancy
  La3+  La0  1  0.63133802  0.23297213  0.41451610  1
  La3+  La1  1  0.00620667  0.60554526  0.57832593  1
  La3+  La2  1  0.50640957  0.11317475  0.57635561  1
  La3+  La3  1  0.26296924  0.60809493  0.59849490  1
  La3+  La4  1  0.13268651  0.02182220  0.91686856  1
  La3+  La5  1  0.62112553  0.52007427  0.93184521  1
  Ce3+  Ce6  1  0.50597419  0.61763938  0.56477478  1
  Ce3+  Ce7  1  0.87808790  0.22968312  0.42597823  1
  Ce3+  Ce8  1  0.00831779  0.86174187  0.56188339  1
  Ce3+  Ce9  1  0.37253995  0.77247845  0.94448566  1
  Ce3+  Ce10  1  0.74862462  0.90383772  0.06981295  1
  Ce3+  Ce11  1  0.00806232  0.11685333  0.57032425  1
  Pr3+  Pr12  1  0.88157990  0.49638980  0.42381895  1
  Pr3+  Pr13  1  0.12897555  0.48864465  0.43858152  1
  Pr3+  Pr14  1  0.25596774  0.10826767  0.58104842  1
  Pr3+  Pr15  1  0.50532232  0.86225736  0.55980900  1
  Pr3+  Pr16  1  0.75834003  0.86242612  0.56450140  1
  Pr3+  Pr17  1  0.11560874  0.52317312  0.92248478  1
  Pr3+  Pr18  1  0.24413825  0.65971378  0.06809286  1
  Pr3+  Pr19  1  0.12962763  0.23698950  0.44857883  1
  Pr3+  Pr20  1  0.49994297  0.40581789  0.07388548  1
  Pr3+  Pr21  1  0.49978835  0.64998152  0.06866824  1
  Pr3+  Pr22  1  0.13127888  -0.00961027  0.44184108  1
  Pr3+  Pr23  1  0.25947069  0.36397743  0.56298507  1
  Pr3+  Pr24  1  0.75885942  0.60806752  0.57101628  1
  Pr3+  Pr25  1  0.12717253  0.27395142  0.92715269  1
  Pr3+  Pr26  1  0.63009797  -0.01356986  0.43945761  1
  Pr3+  Pr27  1  0.86743499  0.77474617  0.93794854  1
  Pr3+  Pr28  1  0.00588467  0.90216584  0.05701045  1
  Pr3+  Pr29  1  0.75730231  0.65151416  0.07695510  1
  Pr3+  Pr30  1  0.75506735  0.36566120  0.55474497  1
  Nd3+  Nd31  1  0.38014319  -0.00995287  0.43856533  1
  Nd3+  Nd32  1  0.75318736  0.40273819  0.06907673  1
  Nd3+  Nd33  1  0.00154156  0.64991688  0.06247809  1
  Nd3+  Nd34  1  0.50574514  0.36552222  0.55010024  1
  Nd3+  Nd35  1  0.13200600  0.73661826  0.44681316  1
  Nd3+  Nd36  1  0.25750795  0.86137772  0.56692685  1
  Nd3+  Nd37  1  0.63160225  0.49597244  0.42596949  1
  Nd3+  Nd38  1  0.37983495  0.23373193  0.43266592  1
  Nd3+  Nd39  1  0.24545751  0.39735253  0.06204071  1
  Nd3+  Nd40  1  0.11571229  0.77137629  0.92385574  1
  Nd3+  Nd41  1  0.75399939  0.11907166  0.56537879  1
  Nd3+  Nd42  1  0.00326735  0.14939494  0.05697487  1
  Nd3+  Nd43  1  0.62309130  0.02377667  0.93276495  1
  Nd3+  Nd44  1  0.38079215  0.73289918  0.43465030  1
  Nd3+  Nd45  1  0.25052586  0.15198225  0.06002929  1
  Nd3+  Nd46  1  0.37992993  0.48206666  0.43202404  1
  Nd3+  Nd47  1  0.86862603  0.52526498  0.93423005  1
  Nd3+  Nd48  1  0.87144445  0.27068776  0.94154134  1
  Nd3+  Nd49  1  0.88017697  -0.01045248  0.44768673  1
  Nd3+  Nd50  1  0.50154732  0.90335449  0.05708043  1
  Sm3+  Sm51  1  0.37332085  0.52651083  0.94604279  1
  Sm3+  Sm52  1  0.37700847  0.27615928  0.94222739  1
  Sm3+  Sm53  1  0.63292950  0.73721969  0.44087242  1
  Sm3+  Sm54  1  0.74841636  0.15057159  0.05934099  1
  Sm3+  Sm55  1  0.62882674  0.77236232  0.94892304  1
  Sm3+  Sm56  1  0.87163706  0.02370011  0.94879948  1
  Sm3+  Sm57  1  0.88191359  0.73668664  0.44223191  1
  Sm3+  Sm58  1  0.00248056  0.36595560  0.55322259  1
  Sm3+  Sm59  1  0.38182500  0.02720260  0.93045659  1
  Sm3+  Sm60  1  0.50170545  0.15192678  0.06242003  1
  Sm3+  Sm61  1  0.25273127  0.91008104  0.05807519  1
  Sm3+  Sm62  1  0.62281372  0.27615770  0.94856334  1
  Sm3+  Sm63  1  0.00125108  0.40006426  0.05109922  1
  Bi2+  Bi64  1  0.01711330  0.09465404  0.29642452  1
  Bi2+  Bi65  1  -0.00246924  0.17921913  0.78147284  1
  Bi2+  Bi66  1  -0.03135377  0.27825547  0.25914198  1
  Bi2+  Bi67  1  -0.03261601  0.35980242  0.73074913  1
  Bi2+  Bi68  1  0.00866292  0.56727833  0.25591838  1
  Bi2+  Bi69  1  0.00653381  0.64296982  0.79195357  1
  Bi2+  Bi70  1  0.04363370  0.86670690  0.29596020  1
  Bi2+  Bi71  1  -0.06492224  0.91030796  0.78845460  1
  Bi2+  Bi72  1  0.24100723  0.09522139  0.29147083  1
  Bi2+  Bi73  1  0.26046369  0.14387339  0.78651913  1
  Bi2+  Bi74  1  0.14281908  0.36279006  0.29672845  1
  Bi2+  Bi75  1  0.26779248  0.35989478  0.79960213  1
  Bi2+  Bi76  1  0.19151393  0.60389176  0.29707762  1
  Bi2+  Bi77  1  0.27648693  0.64194822  0.78507597  1
  Bi2+  Bi78  1  0.29575614  0.82349684  0.23899189  1
  Bi2+  Bi79  1  0.25303220  0.86803138  0.79166299  1
  Bi2+  Bi80  1  0.49981291  0.10105692  0.29045786  1
  Bi2+  Bi81  1  0.56597262  0.13200948  0.78787757  1
  Bi2+  Bi82  1  0.45815355  0.40161812  0.29441405  1
  Bi2+  Bi83  1  0.53843771  0.31880879  0.75394948  1
  Bi2+  Bi84  1  0.48589038  0.66274568  0.28913260  1
  Bi2+  Bi85  1  0.56292150  0.63644396  0.80558996  1
  Bi2+  Bi86  1  0.47057947  0.90349731  0.30858808  1
  Bi2+  Bi87  1  0.54392395  0.82680777  0.77547488  1
  Bi2+  Bi88  1  0.75430214  0.02564187  0.28899578  1
  Bi2+  Bi89  1  0.76161208  0.16376965  0.79063363  1
  Bi2+  Bi90  1  0.75386133  0.33967338  0.27523871  1
  Bi2+  Bi91  1  0.72957487  0.38278429  0.79708028  1
  Bi2+  Bi92  1  0.74328878  0.57757173  0.30113462  1
  Bi2+  Bi93  1  0.77005431  0.65193251  0.79071810  1
  Bi2+  Bi94  1  0.66460492  0.85741671  0.32817561  1
  Bi2+  Bi95  1  0.70461850  0.91187748  0.80935402  1
  Bi2+  Bi96  1  0.13037392  -0.04063551  0.18452401  1
  Bi2+  Bi97  1  0.06707005  -0.00147757  0.72138309  1
  Bi2+  Bi98  1  0.13073348  0.22978094  0.19797901  1
  Bi2+  Bi99  1  0.14781401  0.25546557  0.71178914  1
  Bi2+  Bi100  1  0.10874424  0.45368651  0.17873854  1
  Bi2+  Bi101  1  0.12514608  0.47757513  0.71458115  1
  Bi2+  Bi102  1  0.10631093  0.72381280  0.21865042  1
  Bi2+  Bi103  1  0.14424025  0.76042757  0.71928648  1
  Bi2+  Bi104  1  0.37841755  -0.00298434  0.20963365  1
  Bi2+  Bi105  1  0.38081487  0.00529090  0.70960711  1
  Bi2+  Bi106  1  0.30119694  0.27391971  0.25722977  1
  Bi2+  Bi107  1  0.34669325  0.30661921  0.68922466  1
  Bi2+  Bi108  1  0.28410139  0.50102861  0.21649394  1
  Bi2+  Bi109  1  0.40467033  0.49390199  0.77463477  1
  Bi2+  Bi110  1  0.38023339  0.66692810  0.19027209  1
  Bi2+  Bi111  1  0.41068617  0.72701109  0.71091440  1
  Bi2+  Bi112  1  0.64957077  -0.02862401  0.19293774  1
  Bi2+  Bi113  1  0.63328312  -0.00213367  0.71182086  1
  Bi2+  Bi114  1  0.58315615  0.21335372  0.21026406  1
  Bi2+  Bi115  1  0.70816980  0.27414276  0.69535784  1
  Bi2+  Bi116  1  0.60483444  0.47385015  0.20269733  1
  Bi2+  Bi117  1  0.56112177  0.53152795  0.70717598  1
  Bi2+  Bi118  1  0.58031388  0.79493817  0.22613859  1
  Bi2+  Bi119  1  0.66118988  0.70524659  0.69878238  1
  Bi2+  Bi120  1  0.87272332  -0.07470322  0.21882903  1
  Bi2+  Bi121  1  0.88388827  0.07187627  0.71107876  1
  Bi2+  Bi122  1  0.88015062  0.13199407  0.20392432  1
  Bi2+  Bi123  1  0.88261666  0.24335401  0.64680875  1
  Bi2+  Bi124  1  0.85187320  0.51164763  0.18850392  1
  Bi2+  Bi125  1  0.84656497  0.51543120  0.70984965  1
  Bi2+  Bi126  1  0.85770519  0.81905084  0.31834560  1
  Bi2+  Bi127  1  0.84677285  0.78720991  0.71568553  1
  S2-  S128  1  0.03502604  0.09611621  0.14993041  1
  S2-  S129  1  0.11493706  0.11719718  0.64974884  1
  S2-  S130  1  -0.04018719  0.38697257  0.14651380  1
  S2-  S131  1  0.00102273  0.44861718  0.64047399  1
  S2-  S132  1  -0.10449646  0.64715210  0.14308041  1
  S2-  S133  1  0.11680909  0.62197783  0.66070476  1
  S2-  S134  1  -0.00010388  0.86512481  0.15588041  1
  S2-  S135  1  0.03560978  0.86191140  0.65860715  1
  S2-  S136  1  0.25604521  0.03316117  0.13439817  1
  S2-  S137  1  0.38322799  0.14895674  0.65230170  1
  S2-  S138  1  0.25052153  0.27474582  0.13569224  1
  S2-  S139  1  0.25266709  0.45061265  0.65187402  1
  S2-  S140  1  0.12100035  0.62687031  0.13689337  1
  S2-  S141  1  0.27498722  0.76202041  0.65210770  1
  S2-  S142  1  0.22587576  0.82407701  0.14295462  1
  S2-  S143  1  0.26841754  0.96969639  0.64904787  1
  S2-  S144  1  0.47518353  0.12266759  0.15809107  1
  S2-  S145  1  0.49963945  -0.03300255  0.64527410  1
  S2-  S146  1  0.50292651  0.33429562  0.16904040  1
  S2-  S147  1  0.49581320  0.35125752  0.65052120  1
  S2-  S148  1  0.49052679  0.53893045  0.14605674  1
  S2-  S149  1  0.42074352  0.58174603  0.65017123  1
  S2-  S150  1  0.49127103  0.89452894  0.15620746  1
  S2-  S151  1  0.52729589  0.74974198  0.63737551  1
  S2-  S152  1  0.72120502  0.13123577  0.15599782  1
  S2-  S153  1  0.64425615  0.13329131  0.64452082  1
  S2-  S154  1  0.73653816  0.37149974  0.16820813  1
  S2-  S155  1  0.74479975  0.47021971  0.63945913  1
  S2-  S156  1  0.69923058  0.59492699  0.17160425  1
  S2-  S157  1  0.87767454  0.64716444  0.64774989  1
  S2-  S158  1  0.74648062  0.84036907  0.16062755  1
  S2-  S159  1  0.75548772  0.90045911  0.66258848  1
  S2-  S160  1  0.16456491  -0.02994186  0.34347624  1
  S2-  S161  1  0.12452357  -0.11196872  0.84733822  1
  S2-  S162  1  0.12849519  0.20536548  0.34970214  1
  S2-  S163  1  0.11860096  0.15581536  0.84919840  1
  S2-  S164  1  0.05676729  0.49478611  0.34646930  1
  S2-  S165  1  0.13508260  0.39227555  0.85232133  1
  S2-  S166  1  0.11151155  0.73426047  0.34737299  1
  S2-  S167  1  0.14825885  0.64857229  0.85135144  1
  S2-  S168  1  0.36147573  0.10385555  0.36225917  1
  S2-  S169  1  0.28512990  0.01554108  0.84858008  1
  S2-  S170  1  0.34553255  0.34893967  0.35505483  1
  S2-  S171  1  0.36960313  0.23917901  0.84586168  1
  S2-  S172  1  0.40725348  0.55297531  0.34122328  1
  S2-  S173  1  0.47877147  0.51892371  0.86686864  1
  S2-  S174  1  0.35892489  0.78895856  0.33936782  1
  S2-  S175  1  0.36193551  0.76083648  0.84748948  1
  S2-  S176  1  0.63321684  0.07893949  0.35394285  1
  S2-  S177  1  0.50697608  0.03217245  0.85809175  1
  S2-  S178  1  0.53403206  0.25574064  0.32502868  1
  S2-  S179  1  0.60587136  0.32868632  0.85587158  1
  S2-  S180  1  0.63257910  0.44417671  0.32476052  1
  S2-  S181  1  0.74590296  0.51928755  0.85930997  1
  S2-  S182  1  0.62569864  0.64043318  0.35883360  1
  S2-  S183  1  0.73126266  0.77163338  0.86839901  1
  S2-  S184  1  0.89890698  0.07882081  0.36206528  1
  S2-  S185  1  0.83577140  0.00786171  0.85317207  1
  S2-  S186  1  0.76950950  0.24362561  0.34959698  1
  S2-  S187  1  0.85691544  0.27680534  0.84253491  1
  S2-  S188  1  0.84628946  0.44486561  0.32497391  1
  S2-  S189  1  0.97170879  0.52837166  0.85256317  1
  S2-  S190  1  0.86842271  0.64765763  0.35787140  1
  S2-  S191  1  0.96019951  0.76886782  0.85145195  1
  S2-  S192  1  0.00677780  0.11236536  0.46376632  1
  S2-  S193  1  -0.00552738  0.14544276  0.95051883  1
  S2-  S194  1  0.00028605  0.36117217  0.44790182  1
  S2-  S195  1  -0.00692491  0.39321082  0.94933733  1
  S2-  S196  1  0.00623078  0.61575282  0.45909125  1
  S2-  S197  1  -0.00538456  0.64942066  0.95709871  1
  S2-  S198  1  0.00482687  0.86334613  0.45402834  1
  S2-  S199  1  -0.00519870  0.90446114  0.95132181  1
  S2-  S200  1  0.25310694  0.11269933  0.46659177  1
  S2-  S201  1  0.25696052  0.15337083  0.95418339  1
  S2-  S202  1  0.25243747  0.36196341  0.45737417  1
  S2-  S203  1  0.25672655  0.40043214  0.95612763  1
  S2-  S204  1  0.25524503  0.61161447  0.44132429  1
  S2-  S205  1  0.25149723  0.64851995  0.95922292  1
  S2-  S206  1  0.25686551  0.86283357  0.45555509  1
  S2-  S207  1  0.25624733  0.90092886  0.95501987  1
  S2-  S208  1  0.50577399  0.11185847  0.45843407  1
  S2-  S209  1  0.50183579  0.15359995  0.95724911  1
  S2-  S210  1  0.51068559  0.36364952  0.44467481  1
  S2-  S211  1  0.49814851  0.39815184  0.96617118  1
  S2-  S212  1  0.50489356  0.61389745  0.45693029  1
  S2-  S213  1  0.50169034  0.65243172  0.96263554  1
  S2-  S214  1  0.50475556  0.85983773  0.45213233  1
  S2-  S215  1  0.50237658  0.89453216  0.95180266  1
  S2-  S216  1  0.75445092  0.11159087  0.46003972  1
  S2-  S217  1  0.74442585  0.14902907  0.95415182  1
  S2-  S218  1  0.75453641  0.36912797  0.44798685  1
  S2-  S219  1  0.74894892  0.39382635  0.96182042  1
  S2-  S220  1  0.75616112  0.61558262  0.46058337  1
  S2-  S221  1  0.74670378  0.64704909  0.96691185  1
  S2-  S222  1  0.75828776  0.86120857  0.45720228  1
  S2-  S223  1  0.74417239  0.90520661  0.96393359  1
  S2-  S224  1  0.12656840  0.02763514  0.03147368  1
  S2-  S225  1  0.12832686  -0.01376975  0.54783961  1
  S2-  S226  1  0.12112868  0.27490671  0.03589045  1
  S2-  S227  1  0.12881913  0.24516373  0.55348309  1
  S2-  S228  1  0.12390409  0.51847526  0.03534935  1
  S2-  S229  1  0.13367419  0.48799673  0.54364498  1
  S2-  S230  1  0.12477039  0.77875785  0.03464394  1
  S2-  S231  1  0.13255755  0.73468697  0.55066494  1
  S2-  S232  1  0.38295392  0.02925501  0.03770453  1
  S2-  S233  1  0.37998091  -0.01200231  0.54191196  1
  S2-  S234  1  0.38199051  0.27619569  0.04620693  1
  S2-  S235  1  0.38234246  0.23940436  0.54030888  1
  S2-  S236  1  0.36545440  0.52725466  0.04898983  1
  S2-  S237  1  0.37952086  0.48992989  0.53921915  1
  S2-  S238  1  0.37626233  0.77901942  0.05054273  1
  S2-  S239  1  0.37672456  0.73458385  0.54152199  1
  S2-  S240  1  0.62359502  0.02888385  0.04341338  1
  S2-  S241  1  0.63561675  -0.01272806  0.54534119  1
  S2-  S242  1  0.62623961  0.27479301  0.05326613  1
  S2-  S243  1  0.63060908  0.24241946  0.53971012  1
  S2-  S244  1  0.62861154  0.52442383  0.04729338  1
  S2-  S245  1  0.62704992  0.49152150  0.53749920  1
  S2-  S246  1  0.62501522  0.77457649  0.05343096  1
  S2-  S247  1  0.63912985  0.73707193  0.54253106  1
  S2-  S248  1  0.87404527  0.02756258  0.05355944  1
  S2-  S249  1  0.88218865  -0.00925298  0.55412261  1
  S2-  S250  1  0.87332236  0.27095090  0.04795533  1
  S2-  S251  1  0.88127369  0.23983853  0.53437602  1
  S2-  S252  1  0.87621368  0.52026516  0.04253644  1
  S2-  S253  1  0.88236840  0.48880537  0.53560196  1
  S2-  S254  1  0.87387270  0.78196280  0.04541382  1
  S2-  S255  1  0.88427589  0.74014532  0.54478672  1
