# generated using pymatgen
data_La6Ce6Pr19Nd20Sm13(BiS2)64
_symmetry_space_group_name_H-M   'P 1'
_cell_length_a   16.16600809
_cell_length_b   16.21236083
_cell_length_c   27.14879106
_cell_angle_alpha   90.01149289
_cell_angle_beta   89.81172246
_cell_angle_gamma   89.95733464
_symmetry_Int_Tables_number   1
_chemical_formula_structural   La6Ce6Pr19Nd20Sm13(BiS2)64
_chemical_formula_sum   'La6 Ce6 Pr19 Nd20 Sm13 Bi64 S128'
_cell_volume   7115.36320556
_cell_formula_units_Z   1
loop_
 _symmetry_equiv_pos_site_id
 _symmetry_equiv_pos_as_xyz
  1  'x, y, z'
loop_
 _atom_type_symbol
 _atom_type_oxidation_number
  La3+  3.0
  Ce3+  3.0
  Pr3+  3.0
  Nd3+  3.0
  Sm3+  3.0
  Bi2+  2.0
  S2-  -2.0
loop_
 _atom_site_type_symbol
 _atom_site_label
 _atom_site_symmetry_multiplicity
 _atom_site_fract_x
 _atom_site_fract_y
 _atom_site_fract_z
 _atom_site_occupancy
  La3+  La0  1  0.48407125  0.13610123  0.58123017  1
  La3+  La1  1  0.62536284  -0.00017288  0.90177424  1
  La3+  La2  1  0.37499609  0.26133841  0.42588674  1
  La3+  La3  1  0.36926237  0.01400664  0.41911894  1
  La3+  La4  1  0.25183924  0.86677784  0.09905751  1
  La3+  La5  1  0.47568223  0.63095947  0.57704566  1
  Ce3+  Ce6  1  -0.00577128  0.13094597  0.55786592  1
  Ce3+  Ce7  1  0.12184426  0.74901123  0.94206931  1
  Ce3+  Ce8  1  0.38241740  0.50338376  0.42968401  1
  Ce3+  Ce9  1  0.74076271  0.63329008  0.56646230  1
  Ce3+  Ce10  1  0.61699186  0.50652447  0.45362188  1
  Ce3+  Ce11  1  0.24209692  0.38244336  0.56109617  1
  Pr3+  Pr12  1  0.74065148  0.38054981  0.56614241  1
  Pr3+  Pr13  1  0.48166504  0.38187287  0.56927463  1
  Pr3+  Pr14  1  0.12830760  -0.00545545  0.93869461  1
  Pr3+  Pr15  1  0.86565881  0.25721852  0.43276702  1
  Pr3+  Pr16  1  0.37469293  0.49775807  0.94207820  1
  Pr3+  Pr17  1  0.62296424  0.25372552  0.43825303  1
  Pr3+  Pr18  1  0.11934531  0.00573727  0.43499176  1
  Pr3+  Pr19  1  0.86533838  0.75610551  0.43740201  1
  Pr3+  Pr20  1  0.24782171  0.36944780  0.05991641  1
  Pr3+  Pr21  1  -0.00334943  0.87442470  0.06620266  1
  Pr3+  Pr22  1  0.49770963  0.36777285  0.05722744  1
  Pr3+  Pr23  1  0.37182643  0.74819960  0.93821232  1
  Pr3+  Pr24  1  0.62500369  0.24434428  0.93266678  1
  Pr3+  Pr25  1  0.37026935  -0.00568316  0.94288521  1
  Pr3+  Pr26  1  0.11970094  0.50476583  0.43788324  1
  Pr3+  Pr27  1  0.62351815  0.49638890  0.94221618  1
  Pr3+  Pr28  1  0.12302260  0.49665509  0.94088022  1
  Pr3+  Pr29  1  0.73780490  0.88136440  0.56706885  1
  Pr3+  Pr30  1  0.50071922  0.62415541  0.06338792  1
  Nd3+  Nd31  1  0.61456811  0.00778609  0.45173849  1
  Nd3+  Nd32  1  0.12395282  0.24542467  0.93908713  1
  Nd3+  Nd33  1  0.87344907  0.49757396  0.94350061  1
  Nd3+  Nd34  1  0.87296704  0.74985309  0.94469690  1
  Nd3+  Nd35  1  0.61620242  0.75730933  0.45524746  1
  Nd3+  Nd36  1  0.62297242  0.74808375  0.93431339  1
  Nd3+  Nd37  1  0.24823988  0.62500480  0.06294347  1
  Nd3+  Nd38  1  0.12025574  0.25650791  0.44208010  1
  Nd3+  Nd39  1  0.74731341  0.13304493  0.57099638  1
  Nd3+  Nd40  1  0.86709897  0.00527499  0.44687144  1
  Nd3+  Nd41  1  0.47537871  0.88327656  0.56939719  1
  Nd3+  Nd42  1  0.74832348  0.12054705  0.05738373  1
  Nd3+  Nd43  1  0.37296048  0.24215039  0.93860298  1
  Nd3+  Nd44  1  0.74820203  0.36896687  0.05716026  1
  Nd3+  Nd45  1  -0.00637770  0.63377541  0.56171468  1
  Nd3+  Nd46  1  0.24234894  0.12056068  0.07201203  1
  Nd3+  Nd47  1  0.38265297  0.75482297  0.42236292  1
  Nd3+  Nd48  1  0.50436885  0.87491450  0.06153682  1
  Nd3+  Nd49  1  0.11276763  0.75407772  0.42230968  1
  Nd3+  Nd50  1  -0.00295942  0.62268617  0.06186980  1
  Sm3+  Sm51  1  0.50114372  0.11926860  0.05677649  1
  Sm3+  Sm52  1  -0.00590649  0.38154999  0.55726481  1
  Sm3+  Sm53  1  0.24375523  0.88071128  0.54317500  1
  Sm3+  Sm54  1  0.74858230  0.62101738  0.05696863  1
  Sm3+  Sm55  1  0.24130753  0.63336035  0.53947532  1
  Sm3+  Sm56  1  0.74428457  0.87594885  0.05849354  1
  Sm3+  Sm57  1  -0.00553328  0.88008377  0.55580110  1
  Sm3+  Sm58  1  0.86845101  0.50713201  0.44954693  1
  Sm3+  Sm59  1  -0.00154975  0.11948512  0.05429914  1
  Sm3+  Sm60  1  -0.00116539  0.37084292  0.05558892  1
  Sm3+  Sm61  1  0.87334583  0.24390978  0.94120887  1
  Sm3+  Sm62  1  0.24381936  0.12960226  0.55616506  1
  Sm3+  Sm63  1  0.87442034  -0.00479610  0.93566777  1
  Bi2+  Bi64  1  -0.03154983  0.15673947  0.29854752  1
  Bi2+  Bi65  1  0.02830864  0.08535994  0.80004578  1
  Bi2+  Bi66  1  -0.04742427  0.34845892  0.30134436  1
  Bi2+  Bi67  1  0.00441955  0.41334252  0.78989852  1
  Bi2+  Bi68  1  -0.06180777  0.62233638  0.28726129  1
  Bi2+  Bi69  1  0.02741866  0.67727904  0.80961122  1
  Bi2+  Bi70  1  -0.04274842  0.88801615  0.29293013  1
  Bi2+  Bi71  1  0.06347223  0.89238465  0.82411939  1
  Bi2+  Bi72  1  0.22692318  0.13816211  0.28201687  1
  Bi2+  Bi73  1  0.22903705  0.11652046  0.79889819  1
  Bi2+  Bi74  1  0.22705772  0.38520441  0.28669035  1
  Bi2+  Bi75  1  0.22517991  0.39204137  0.79360284  1
  Bi2+  Bi76  1  0.21630864  0.60953277  0.27525427  1
  Bi2+  Bi77  1  0.26550676  0.55725912  0.73179462  1
  Bi2+  Bi78  1  0.25065738  0.88534102  0.28912489  1
  Bi2+  Bi79  1  0.22584263  0.91226192  0.74997606  1
  Bi2+  Bi80  1  0.50668175  0.11390850  0.30151910  1
  Bi2+  Bi81  1  0.49645288  0.10925249  0.79334949  1
  Bi2+  Bi82  1  0.49188283  0.38543119  0.28986541  1
  Bi2+  Bi83  1  0.51715687  0.41434690  0.78724192  1
  Bi2+  Bi84  1  0.54181621  0.61449801  0.28920484  1
  Bi2+  Bi85  1  0.48623829  0.62749202  0.80277386  1
  Bi2+  Bi86  1  0.52115450  0.86397032  0.30088948  1
  Bi2+  Bi87  1  0.50427510  0.85774091  0.78782832  1
  Bi2+  Bi88  1  0.77594662  0.11698510  0.28507229  1
  Bi2+  Bi89  1  0.77679833  0.13609121  0.78872917  1
  Bi2+  Bi90  1  0.76086236  0.36826802  0.29023048  1
  Bi2+  Bi91  1  0.79782625  0.37031003  0.76933238  1
  Bi2+  Bi92  1  0.74241264  0.63658649  0.30198714  1
  Bi2+  Bi93  1  0.76582742  0.58777983  0.79057007  1
  Bi2+  Bi94  1  0.76577249  0.83415468  0.30474900  1
  Bi2+  Bi95  1  0.87549529  0.86763714  0.80032313  1
  Bi2+  Bi96  1  0.02318757  0.02252878  0.21960479  1
  Bi2+  Bi97  1  0.12322437  0.05134666  0.69351499  1
  Bi2+  Bi98  1  0.12146239  0.27413748  0.19267658  1
  Bi2+  Bi99  1  0.19362561  0.23573654  0.70041557  1
  Bi2+  Bi100  1  0.07555586  0.49923952  0.22545599  1
  Bi2+  Bi101  1  0.14039488  0.42446608  0.68798336  1
  Bi2+  Bi102  1  0.10940145  0.74569476  0.21360099  1
  Bi2+  Bi103  1  0.09751797  0.77335377  0.71671825  1
  Bi2+  Bi104  1  0.40708167  0.00065681  0.20773732  1
  Bi2+  Bi105  1  0.38468573  -0.00656833  0.69510293  1
  Bi2+  Bi106  1  0.37602130  0.26491188  0.19764065  1
  Bi2+  Bi107  1  0.37615667  0.30501875  0.74393171  1
  Bi2+  Bi108  1  0.37956745  0.52672033  0.23964010  1
  Bi2+  Bi109  1  0.44644906  0.49932334  0.68995807  1
  Bi2+  Bi110  1  0.38085038  0.73279027  0.21352571  1
  Bi2+  Bi111  1  0.33801638  0.73772996  0.70492139  1
  Bi2+  Bi112  1  0.68781550  -0.01922078  0.21787939  1
  Bi2+  Bi113  1  0.65376705  -0.02275930  0.69706974  1
  Bi2+  Bi114  1  0.61244926  0.23945902  0.19420374  1
  Bi2+  Bi115  1  0.62677656  0.23704349  0.70765456  1
  Bi2+  Bi116  1  0.64872283  0.48930943  0.22590532  1
  Bi2+  Bi117  1  0.65481380  0.47514082  0.71194073  1
  Bi2+  Bi118  1  0.68084062  0.76622950  0.20665327  1
  Bi2+  Bi119  1  0.70805949  0.74632200  0.73429536  1
  Bi2+  Bi120  1  0.86202460  -0.02234005  0.15989771  1
  Bi2+  Bi121  1  0.93166069  -0.00630335  0.71487434  1
  Bi2+  Bi122  1  0.86225446  0.24730231  0.21445045  1
  Bi2+  Bi123  1  0.99543529  0.24732190  0.72425641  1
  Bi2+  Bi124  1  0.83391887  0.53139385  0.20940258  1
  Bi2+  Bi125  1  0.91709956  0.52847774  0.71111228  1
  Bi2+  Bi126  1  0.87645676  0.79727412  0.20103857  1
  Bi2+  Bi127  1  0.90167284  0.72165795  0.70821571  1
  S2-  S128  1  0.06084370  0.13387001  0.14496561  1
  S2-  S129  1  -0.05650282  0.14317197  0.65113942  1
  S2-  S130  1  0.01475722  0.37785076  0.15355499  1
  S2-  S131  1  -0.02576056  0.38492101  0.65459304  1
  S2-  S132  1  0.03163824  0.62034583  0.15925161  1
  S2-  S133  1  0.03279798  0.63410557  0.65841996  1
  S2-  S134  1  0.08972131  0.86492247  0.15077004  1
  S2-  S135  1  0.02345790  0.89130262  0.65251050  1
  S2-  S136  1  0.26173628  0.16107679  0.17036970  1
  S2-  S137  1  0.33427221  0.11755124  0.64027903  1
  S2-  S138  1  0.25626675  0.37311319  0.16044668  1
  S2-  S139  1  0.34141596  0.38933617  0.64008560  1
  S2-  S140  1  0.24812191  0.71025125  0.15077558  1
  S2-  S141  1  0.27890333  0.63828563  0.63527776  1
  S2-  S142  1  0.25684588  0.95583154  0.19170378  1
  S2-  S143  1  0.32254926  0.87064830  0.63016832  1
  S2-  S144  1  0.47876842  0.13632954  0.15561882  1
  S2-  S145  1  0.52864119  0.09408874  0.68637834  1
  S2-  S146  1  0.50287856  0.36288191  0.15740777  1
  S2-  S147  1  0.51548677  0.27467667  0.64542442  1
  S2-  S148  1  0.46682580  0.62111953  0.16221328  1
  S2-  S149  1  0.48183137  0.67378688  0.67644590  1
  S2-  S150  1  0.41791811  0.86449728  0.14950915  1
  S2-  S151  1  0.52820719  0.88470725  0.66739700  1
  S2-  S152  1  0.68107330  0.11659850  0.14980265  1
  S2-  S153  1  0.73857265  0.12240977  0.67135249  1
  S2-  S154  1  0.74103948  0.32864107  0.15324579  1
  S2-  S155  1  0.74649631  0.34260348  0.66486902  1
  S2-  S156  1  0.70870873  0.61017849  0.15204144  1
  S2-  S157  1  0.70472289  0.62319020  0.66207952  1
  S2-  S158  1  0.63341117  0.88225806  0.13600986  1
  S2-  S159  1  0.77017424  0.85635114  0.66506629  1
  S2-  S160  1  0.17905379  0.01978475  0.34003348  1
  S2-  S161  1  0.25046594  -0.00002313  0.86482852  1
  S2-  S162  1  0.16078467  0.26164921  0.34380134  1
  S2-  S163  1  0.14515474  0.25974604  0.84122713  1
  S2-  S164  1  0.12805288  0.49818336  0.33778523  1
  S2-  S165  1  0.09713921  0.52613900  0.84279067  1
  S2-  S166  1  0.16185671  0.76323493  0.32397837  1
  S2-  S167  1  0.16774168  0.74595794  0.84809187  1
  S2-  S168  1  0.40016300  -0.02655161  0.31818832  1
  S2-  S169  1  0.46209968  -0.01499065  0.85464038  1
  S2-  S170  1  0.35382363  0.15222879  0.34600015  1
  S2-  S171  1  0.39042943  0.22441847  0.83975292  1
  S2-  S172  1  0.35568199  0.39328876  0.35461109  1
  S2-  S173  1  0.37567792  0.53588924  0.84412203  1
  S2-  S174  1  0.37021251  0.77526768  0.32018344  1
  S2-  S175  1  0.39766218  0.75380748  0.83700170  1
  S2-  S176  1  0.59802864  0.00062558  0.35153436  1
  S2-  S177  1  0.62056185  -0.01681783  0.79383873  1
  S2-  S178  1  0.52776476  0.25559462  0.35134456  1
  S2-  S179  1  0.63222551  0.18477088  0.83752864  1
  S2-  S180  1  0.53969730  0.49894931  0.36621308  1
  S2-  S181  1  0.61818734  0.52939938  0.84425868  1
  S2-  S182  1  0.54949020  0.74513214  0.36424875  1
  S2-  S183  1  0.62434161  0.77543813  0.83487982  1
  S2-  S184  1  0.84528672  -0.01022896  0.34855327  1
  S2-  S185  1  0.78839089  0.00100630  0.85206132  1
  S2-  S186  1  0.74399082  0.24165359  0.36049537  1
  S2-  S187  1  0.85693203  0.23999313  0.84262360  1
  S2-  S188  1  0.89232611  0.48739514  0.35306100  1
  S2-  S189  1  0.85276356  0.47087042  0.84587224  1
  S2-  S190  1  0.97056197  0.74430298  0.35742225  1
  S2-  S191  1  0.85996239  0.71005404  0.84804912  1
  S2-  S192  1  -0.00752691  0.13111727  0.44936659  1
  S2-  S193  1  -0.00236692  0.12053235  0.94873780  1
  S2-  S194  1  -0.00742255  0.38080016  0.45259943  1
  S2-  S195  1  -0.00349442  0.36935790  0.94981541  1
  S2-  S196  1  -0.00743562  0.62800149  0.45570559  1
  S2-  S197  1  -0.00464686  0.62186332  0.95569926  1
  S2-  S198  1  -0.00623735  0.88208292  0.45151363  1
  S2-  S199  1  -0.00412930  0.87368222  0.95692214  1
  S2-  S200  1  0.24071626  0.13189680  0.45273285  1
  S2-  S201  1  0.24680061  0.12662253  0.96300271  1
  S2-  S202  1  0.24115384  0.38216182  0.45517865  1
  S2-  S203  1  0.24958726  0.37045603  0.95181379  1
  S2-  S204  1  0.24751227  0.63234529  0.43523941  1
  S2-  S205  1  0.24797231  0.62016836  0.95584573  1
  S2-  S206  1  0.24536007  0.87634965  0.43890787  1
  S2-  S207  1  0.24758658  0.86693966  0.96195018  1
  S2-  S208  1  0.49418152  0.13107592  0.45770068  1
  S2-  S209  1  0.50045931  0.12105195  0.95124498  1
  S2-  S210  1  0.49838017  0.37903104  0.46359637  1
  S2-  S211  1  0.49809282  0.36874973  0.94845747  1
  S2-  S212  1  0.49432883  0.63120602  0.46549477  1
  S2-  S213  1  0.50011885  0.62312563  0.95524783  1
  S2-  S214  1  0.49073634  0.88385683  0.45856079  1
  S2-  S215  1  0.50214036  0.86948089  0.95412368  1
  S2-  S216  1  0.74575899  0.12601531  0.46282419  1
  S2-  S217  1  0.75104622  0.12169871  0.95138230  1
  S2-  S218  1  0.74587499  0.38590582  0.45813735  1
  S2-  S219  1  0.75036491  0.36907680  0.95003794  1
  S2-  S220  1  0.74350631  0.63134856  0.45783474  1
  S2-  S221  1  0.74865164  0.62211562  0.95237970  1
  S2-  S222  1  0.74144514  0.88133433  0.45920392  1
  S2-  S223  1  0.74681281  0.87311133  0.95217997  1
  S2-  S224  1  0.12293182  -0.00209592  0.04708977  1
  S2-  S225  1  0.11977321  0.00370225  0.54314083  1
  S2-  S226  1  0.12032995  0.24776653  0.04488585  1
  S2-  S227  1  0.11684334  0.25561159  0.54994665  1
  S2-  S228  1  0.12225291  0.49705561  0.04905345  1
  S2-  S229  1  0.11657713  0.50899043  0.54599603  1
  S2-  S230  1  0.12056372  0.74438835  0.04798801  1
  S2-  S231  1  0.11836169  0.75771914  0.53778656  1
  S2-  S232  1  0.37201491  0.00109678  0.05179862  1
  S2-  S233  1  0.36290682  0.00719007  0.53271158  1
  S2-  S234  1  0.37281220  0.24251327  0.04643218  1
  S2-  S235  1  0.36106580  0.25532120  0.53916799  1
  S2-  S236  1  0.37304942  0.49740927  0.05064666  1
  S2-  S237  1  0.36177839  0.50857614  0.53657918  1
  S2-  S238  1  0.37525373  0.74547527  0.04592126  1
  S2-  S239  1  0.36382311  0.75450840  0.53091707  1
  S2-  S240  1  0.62481090  0.00164749  0.03735986  1
  S2-  S241  1  0.61375617  0.00946040  0.55819204  1
  S2-  S242  1  0.62334267  0.24473466  0.04056675  1
  S2-  S243  1  0.62424282  0.25211972  0.54647216  1
  S2-  S244  1  0.62484879  0.49482828  0.04924153  1
  S2-  S245  1  0.61396456  0.50724927  0.55921832  1
  S2-  S246  1  0.62798113  0.74367692  0.04245910  1
  S2-  S247  1  0.60911506  0.75748467  0.56004707  1
  S2-  S248  1  0.87241187  -0.00238484  0.03944560  1
  S2-  S249  1  0.86951329  0.00187695  0.55314054  1
  S2-  S250  1  0.87666773  0.24546785  0.04728230  1
  S2-  S251  1  0.86954097  0.25917797  0.54392146  1
  S2-  S252  1  0.87302862  0.49515377  0.05054858  1
  S2-  S253  1  0.86953025  0.50720804  0.55482875  1
  S2-  S254  1  0.86839713  0.74779830  0.05241749  1
  S2-  S255  1  0.86881261  0.75783408  0.54778254  1
