# generated using pymatgen
data_La6Ce6Pr19Nd20Sm13(BiS2)64
_symmetry_space_group_name_H-M   'P 1'
_cell_length_a   16.11959792
_cell_length_b   16.10509318
_cell_length_c   27.33292656
_cell_angle_alpha   90.00132347
_cell_angle_beta   90.20835395
_cell_angle_gamma   89.98763819
_symmetry_Int_Tables_number   1
_chemical_formula_structural   La6Ce6Pr19Nd20Sm13(BiS2)64
_chemical_formula_sum   'La6 Ce6 Pr19 Nd20 Sm13 Bi64 S128'
_cell_volume   7095.78910537
_cell_formula_units_Z   1
loop_
 _symmetry_equiv_pos_site_id
 _symmetry_equiv_pos_as_xyz
  1  'x, y, z'
loop_
 _atom_type_symbol
 _atom_type_oxidation_number
  La3+  3.0
  Ce3+  3.0
  Pr3+  3.0
  Nd3+  3.0
  Sm3+  3.0
  Bi2+  2.0
  S2-  -2.0
loop_
 _atom_site_type_symbol
 _atom_site_label
 _atom_site_symmetry_multiplicity
 _atom_site_fract_x
 _atom_site_fract_y
 _atom_site_fract_z
 _atom_site_occupancy
  La3+  La0  1  0.75448615  0.86843289  0.58008306  1
  La3+  La1  1  0.13579542  0.49925395  0.92402412  1
  La3+  La2  1  0.87314521  0.25521803  0.91992879  1
  La3+  La3  1  0.61629561  0.00371070  0.39091374  1
  La3+  La4  1  0.02305727  0.36800294  0.11177463  1
  La3+  La5  1  0.38673519  0.49659058  0.92093622  1
  Ce3+  Ce6  1  0.00583869  0.62564114  0.55785105  1
  Ce3+  Ce7  1  0.51292960  0.36333028  0.07340023  1
  Ce3+  Ce8  1  0.62713663  0.74759365  0.94620548  1
  Ce3+  Ce9  1  0.62093904  0.49837227  0.44021152  1
  Ce3+  Ce10  1  0.75741460  0.12276140  0.05446913  1
  Ce3+  Ce11  1  0.12801522  0.74729220  0.93926495  1
  Pr3+  Pr12  1  0.62414280  0.25524727  0.44031408  1
  Pr3+  Pr13  1  0.25331929  0.86872905  0.06069546  1
  Pr3+  Pr14  1  0.87553198  0.50186225  0.44046203  1
  Pr3+  Pr15  1  0.87745429  -0.00527285  0.93437270  1
  Pr3+  Pr16  1  0.75740077  0.13411197  0.57524208  1
  Pr3+  Pr17  1  0.12672009  -0.00398753  0.94248475  1
  Pr3+  Pr18  1  0.87099915  0.25487891  0.43799518  1
  Pr3+  Pr19  1  0.12524357  0.75336359  0.43964635  1
  Pr3+  Pr20  1  0.25485126  0.36136886  0.60260308  1
  Pr3+  Pr21  1  0.00559091  0.61254419  0.05825115  1
  Pr3+  Pr22  1  0.87400593  0.75478805  0.43606938  1
  Pr3+  Pr23  1  0.00025699  0.12852373  0.05321541  1
  Pr3+  Pr24  1  0.25145292  0.12211889  0.05640629  1
  Pr3+  Pr25  1  0.62694379  0.49728341  0.93580733  1
  Pr3+  Pr26  1  0.25422159  0.63321232  0.57355838  1
  Pr3+  Pr27  1  0.25896930  0.61787631  0.05429327  1
  Pr3+  Pr28  1  0.86470458  0.00354111  0.44263698  1
  Pr3+  Pr29  1  0.61900832  0.75315667  0.42901550  1
  Pr3+  Pr30  1  0.12417046  0.25377233  0.43716052  1
  Nd3+  Nd31  1  0.37606899  0.25104635  0.44048326  1
  Nd3+  Nd32  1  0.51137937  0.86995220  0.08011227  1
  Nd3+  Nd33  1  0.62768607  -0.00813332  0.93810174  1
  Nd3+  Nd34  1  0.12739879  0.24969430  0.93723523  1
  Nd3+  Nd35  1  0.50473634  0.11796058  0.06802689  1
  Nd3+  Nd36  1  0.62673377  0.24492595  0.93734457  1
  Nd3+  Nd37  1  0.25866951  0.37281789  0.05717693  1
  Nd3+  Nd38  1  0.00084170  0.87925596  0.56280331  1
  Nd3+  Nd39  1  0.50603072  0.87963826  0.55794682  1
  Nd3+  Nd40  1  0.50267579  0.63618904  0.56798150  1
  Nd3+  Nd41  1  0.37641223  0.00123194  0.43970125  1
  Nd3+  Nd42  1  0.75915179  0.87018176  0.06867283  1
  Nd3+  Nd43  1  0.75181577  0.38237373  0.56675001  1
  Nd3+  Nd44  1  0.37373370  0.75089817  0.43457314  1
  Nd3+  Nd45  1  0.00178130  0.86778697  0.06815468  1
  Nd3+  Nd46  1  0.25146564  0.87842968  0.56420257  1
  Nd3+  Nd47  1  0.38198803  0.24560868  0.93884428  1
  Nd3+  Nd48  1  0.50574512  0.12699634  0.55934822  1
  Nd3+  Nd49  1  0.50525547  0.62160639  0.06714883  1
  Nd3+  Nd50  1  0.37094087  0.50245969  0.44855138  1
  Sm3+  Sm51  1  0.12300462  0.00236155  0.44122489  1
  Sm3+  Sm52  1  0.75735114  0.36919133  0.06182532  1
  Sm3+  Sm53  1  0.38228165  0.75732904  0.93459829  1
  Sm3+  Sm54  1  0.12922747  0.49992333  0.44944078  1
  Sm3+  Sm55  1  0.38174376  -0.00393970  0.94273576  1
  Sm3+  Sm56  1  0.49638013  0.38392924  0.56627698  1
  Sm3+  Sm57  1  0.75639452  0.61667031  0.05198279  1
  Sm3+  Sm58  1  0.00342526  0.37809267  0.56202285  1
  Sm3+  Sm59  1  0.25234154  0.12736222  0.55268163  1
  Sm3+  Sm60  1  0.75145616  0.62852265  0.55042501  1
  Sm3+  Sm61  1  0.87879561  0.74617082  0.94178624  1
  Sm3+  Sm62  1  0.87988495  0.49336412  0.93954541  1
  Sm3+  Sm63  1  0.00158032  0.12946366  0.55662104  1
  Bi2+  Bi64  1  0.01810216  0.09526219  0.30253392  1
  Bi2+  Bi65  1  0.02555941  0.07193913  0.72575943  1
  Bi2+  Bi66  1  -0.00082725  0.34635218  0.31992782  1
  Bi2+  Bi67  1  -0.00005475  0.34153837  0.79871550  1
  Bi2+  Bi68  1  -0.01886361  0.61468316  0.28495667  1
  Bi2+  Bi69  1  -0.07197015  0.57830252  0.75486927  1
  Bi2+  Bi70  1  -0.00688132  0.84337172  0.29431525  1
  Bi2+  Bi71  1  0.00165619  0.87079151  0.80482491  1
  Bi2+  Bi72  1  0.30737555  0.17218882  0.25837149  1
  Bi2+  Bi73  1  0.30209217  0.11470593  0.78656900  1
  Bi2+  Bi74  1  0.23274086  0.46343217  0.27900518  1
  Bi2+  Bi75  1  0.23794624  0.37953266  0.80693869  1
  Bi2+  Bi76  1  0.25810228  0.67028978  0.31414627  1
  Bi2+  Bi77  1  0.25894441  0.66349085  0.78307570  1
  Bi2+  Bi78  1  0.28203974  0.85904457  0.29417205  1
  Bi2+  Bi79  1  0.24385824  0.92257006  0.79215028  1
  Bi2+  Bi80  1  0.49356740  0.13932186  0.28889554  1
  Bi2+  Bi81  1  0.49024519  0.12446327  0.82337045  1
  Bi2+  Bi82  1  0.49698291  0.38042797  0.28849964  1
  Bi2+  Bi83  1  0.50725649  0.39964987  0.79134296  1
  Bi2+  Bi84  1  0.51213954  0.57616679  0.29693996  1
  Bi2+  Bi85  1  0.53022360  0.66322786  0.78923305  1
  Bi2+  Bi86  1  0.47415264  0.84528011  0.29529448  1
  Bi2+  Bi87  1  0.49104106  0.91991501  0.79017492  1
  Bi2+  Bi88  1  0.75989244  0.13372925  0.28837889  1
  Bi2+  Bi89  1  0.79104850  0.12437599  0.79246243  1
  Bi2+  Bi90  1  0.73133960  0.40452458  0.28165995  1
  Bi2+  Bi91  1  0.71895865  0.43557122  0.80406464  1
  Bi2+  Bi92  1  0.70547518  0.60278538  0.28712920  1
  Bi2+  Bi93  1  0.74182597  0.62705904  0.78479695  1
  Bi2+  Bi94  1  0.76338921  0.87567869  0.28115716  1
  Bi2+  Bi95  1  0.75049639  0.87081286  0.81042761  1
  Bi2+  Bi96  1  0.10187459  -0.02594018  0.22533149  1
  Bi2+  Bi97  1  0.12305740  -0.06570602  0.67056758  1
  Bi2+  Bi98  1  0.14022077  0.23151505  0.21005343  1
  Bi2+  Bi99  1  0.15707286  0.20736086  0.72564932  1
  Bi2+  Bi100  1  0.14075371  0.60534566  0.21795218  1
  Bi2+  Bi101  1  0.09863078  0.51129003  0.70521028  1
  Bi2+  Bi102  1  0.09548823  0.79381248  0.18315152  1
  Bi2+  Bi103  1  0.12166479  0.77437550  0.73732029  1
  Bi2+  Bi104  1  0.34223721  -0.00881077  0.21035423  1
  Bi2+  Bi105  1  0.30244141  0.00585926  0.68627727  1
  Bi2+  Bi106  1  0.34412044  0.35205525  0.20837979  1
  Bi2+  Bi107  1  0.43367558  0.23108535  0.72683429  1
  Bi2+  Bi108  1  0.43334906  0.52311929  0.19252704  1
  Bi2+  Bi109  1  0.36873932  0.48444138  0.71315932  1
  Bi2+  Bi110  1  0.36199146  0.72649650  0.21570053  1
  Bi2+  Bi111  1  0.38651129  0.83362138  0.70618530  1
  Bi2+  Bi112  1  0.64056614  0.04081982  0.17810235  1
  Bi2+  Bi113  1  0.58236032  0.02693517  0.71754722  1
  Bi2+  Bi114  1  0.61388879  0.28353740  0.21542206  1
  Bi2+  Bi115  1  0.62171392  0.25049654  0.76646941  1
  Bi2+  Bi116  1  0.62888903  0.55445982  0.18337135  1
  Bi2+  Bi117  1  0.62025645  0.51478856  0.70991324  1
  Bi2+  Bi118  1  0.62161166  0.74381187  0.21662870  1
  Bi2+  Bi119  1  0.62950424  0.75947836  0.70982027  1
  Bi2+  Bi120  1  0.90304999  -0.01195279  0.22596164  1
  Bi2+  Bi121  1  0.83831470  0.00623736  0.70224632  1
  Bi2+  Bi122  1  0.87965646  0.24835310  0.20791684  1
  Bi2+  Bi123  1  0.89662222  0.28042585  0.71101297  1
  Bi2+  Bi124  1  0.87461650  0.51888789  0.20936543  1
  Bi2+  Bi125  1  0.80521624  0.46659313  0.69060011  1
  Bi2+  Bi126  1  0.91317611  0.73366301  0.20110129  1
  Bi2+  Bi127  1  0.87536522  0.74096679  0.70498584  1
  S2-  S128  1  0.00882753  0.19426618  0.14638658  1
  S2-  S129  1  -0.07104999  0.13300519  0.64551633  1
  S2-  S130  1  0.02005356  0.35151336  0.22414015  1
  S2-  S131  1  0.01326775  0.37280406  0.65967612  1
  S2-  S132  1  0.01874638  0.53399008  0.14774803  1
  S2-  S133  1  0.00264361  0.63842155  0.65483325  1
  S2-  S134  1  -0.11648912  0.87953212  0.14171283  1
  S2-  S135  1  -0.09818854  0.87024084  0.64548025  1
  S2-  S136  1  0.25457396  0.12094878  0.15641764  1
  S2-  S137  1  0.23771311  0.19611199  0.64122033  1
  S2-  S138  1  0.19118889  0.36276250  0.14910186  1
  S2-  S139  1  0.21643013  0.38544823  0.70276435  1
  S2-  S140  1  0.28226696  0.60412395  0.15406987  1
  S2-  S141  1  0.23784643  0.57367774  0.67005105  1
  S2-  S142  1  0.29727327  0.86005499  0.15697187  1
  S2-  S143  1  0.27340135  0.77162749  0.64128798  1
  S2-  S144  1  0.50120175  0.23646778  0.14284137  1
  S2-  S145  1  0.47465883  0.10767854  0.65673282  1
  S2-  S146  1  0.64418394  0.39359923  0.13943695  1
  S2-  S147  1  0.41250274  0.35588056  0.65055907  1
  S2-  S148  1  0.49527477  0.73531194  0.14592603  1
  S2-  S149  1  0.47748516  0.56189281  0.65826255  1
  S2-  S150  1  0.48153115  1.00344111  0.14577554  1
  S2-  S151  1  0.50880307  0.77268662  0.63721591  1
  S2-  S152  1  0.77390645  0.14457554  0.15189795  1
  S2-  S153  1  0.71182962  0.10650277  0.67310382  1
  S2-  S154  1  0.85509477  0.37081292  0.14620754  1
  S2-  S155  1  0.76160327  0.30194319  0.65357228  1
  S2-  S156  1  0.78931687  0.63113277  0.14841561  1
  S2-  S157  1  0.74849035  0.70279303  0.63870315  1
  S2-  S158  1  0.65653714  0.87470320  0.15024476  1
  S2-  S159  1  0.68972199  0.90184981  0.67721209  1
  S2-  S160  1  0.12938360  -0.00798182  0.34449767  1
  S2-  S161  1  0.11326487  -0.00952546  0.84253309  1
  S2-  S162  1  0.12006907  0.22245861  0.33784817  1
  S2-  S163  1  0.14080018  0.24517030  0.83750983  1
  S2-  S164  1  0.10650659  0.46186196  0.35418356  1
  S2-  S165  1  0.08889732  0.47180126  0.82561633  1
  S2-  S166  1  0.08559370  0.71952973  0.34357331  1
  S2-  S167  1  0.12607049  0.72436179  0.84195909  1
  S2-  S168  1  0.44841149  0.00487362  0.34941107  1
  S2-  S169  1  0.38002374  -0.10367532  0.86373681  1
  S2-  S170  1  0.38893468  0.25867803  0.34195494  1
  S2-  S171  1  0.38282036  0.34233942  0.85620223  1
  S2-  S172  1  0.33763711  0.52370274  0.34995272  1
  S2-  S173  1  0.27113839  0.52704683  0.84477758  1
  S2-  S174  1  0.48214900  0.71688837  0.35865496  1
  S2-  S175  1  0.38964674  0.69805221  0.83957894  1
  S2-  S176  1  0.61373822  0.02040737  0.26936605  1
  S2-  S177  1  0.68262279  0.00643356  0.84329839  1
  S2-  S178  1  0.62879342  0.16868402  0.35196495  1
  S2-  S179  1  0.72252307  0.24352502  0.85390959  1
  S2-  S180  1  0.62353515  0.38648286  0.36454809  1
  S2-  S181  1  0.52347585  0.53312195  0.85673286  1
  S2-  S182  1  0.63184929  0.84875609  0.34316662  1
  S2-  S183  1  0.61421428  0.79479121  0.85238897  1
  S2-  S184  1  0.78529362  0.00517268  0.35231330  1
  S2-  S185  1  0.88568371  -0.02472748  0.83398271  1
  S2-  S186  1  0.87692641  0.21262322  0.33915096  1
  S2-  S187  1  0.92633224  0.18590823  0.83017987  1
  S2-  S188  1  0.85861468  0.43418387  0.34924547  1
  S2-  S189  1  0.86753720  0.40891159  0.85306679  1
  S2-  S190  1  0.84553280  0.77141522  0.33642690  1
  S2-  S191  1  0.87911474  0.76492418  0.84460605  1
  S2-  S192  1  -0.00161758  0.12600198  0.45246199  1
  S2-  S193  1  0.00321976  0.12258442  0.94723907  1
  S2-  S194  1  0.00080320  0.37813713  0.45772369  1
  S2-  S195  1  0.00815276  0.37496468  0.94317718  1
  S2-  S196  1  0.00236799  0.62457428  0.45142540  1
  S2-  S197  1  0.00129917  0.61956953  0.94800860  1
  S2-  S198  1  -0.00107576  0.88073506  0.45343241  1
  S2-  S199  1  0.00221750  0.86934391  0.95804401  1
  S2-  S200  1  0.24919460  0.12507986  0.44757654  1
  S2-  S201  1  0.25543002  0.12022087  0.94867396  1
  S2-  S202  1  0.25059533  0.37503358  0.44893798  1
  S2-  S203  1  0.25605116  0.37073019  0.95215409  1
  S2-  S204  1  0.24802292  0.62843970  0.46149051  1
  S2-  S205  1  0.25990743  0.62914778  0.95004630  1
  S2-  S206  1  0.24977139  0.87902745  0.45289637  1
  S2-  S207  1  0.25081456  0.87224525  0.95530831  1
  S2-  S208  1  0.50100456  0.12536065  0.45456733  1
  S2-  S209  1  0.50512450  0.11815994  0.95857033  1
  S2-  S210  1  0.49376026  0.37798825  0.46182764  1
  S2-  S211  1  0.50743293  0.36892304  0.95852945  1
  S2-  S212  1  0.49867787  0.62171726  0.46163266  1
  S2-  S213  1  0.50120410  0.62868260  0.96092263  1
  S2-  S214  1  0.49941406  0.87971577  0.45335535  1
  S2-  S215  1  0.50519785  0.87389902  0.96577004  1
  S2-  S216  1  0.74929945  0.13329538  0.46362657  1
  S2-  S217  1  0.75281654  0.11761315  0.95043614  1
  S2-  S218  1  0.75065989  0.37970669  0.46223392  1
  S2-  S219  1  0.74891720  0.37532944  0.95727927  1
  S2-  S220  1  0.74770753  0.62613357  0.44557492  1
  S2-  S221  1  0.75600958  0.62060092  0.94622589  1
  S2-  S222  1  0.74903993  0.87393157  0.45687506  1
  S2-  S223  1  0.75601787  0.86962276  0.95822334  1
  S2-  S224  1  0.12437087  -0.00453884  0.05125730  1
  S2-  S225  1  0.12597864  0.00629538  0.54568466  1
  S2-  S226  1  0.12903706  0.25061875  0.04297379  1
  S2-  S227  1  0.12455236  0.25387631  0.54487779  1
  S2-  S228  1  0.13349984  0.49413526  0.03828278  1
  S2-  S229  1  0.13294630  0.49589585  0.55451113  1
  S2-  S230  1  0.12757880  0.74251867  0.04667794  1
  S2-  S231  1  0.12461405  0.75505288  0.54659101  1
  S2-  S232  1  0.37496166  -0.00433867  0.04451574  1
  S2-  S233  1  0.37596141  0.00281469  0.54575365  1
  S2-  S234  1  0.37743122  0.24389330  0.04410112  1
  S2-  S235  1  0.37456219  0.25174859  0.54572936  1
  S2-  S236  1  0.38669895  0.49250915  0.04688156  1
  S2-  S237  1  0.36890206  0.49932234  0.55293562  1
  S2-  S238  1  0.37971716  0.74818266  0.04269844  1
  S2-  S239  1  0.37696125  0.75554029  0.53793917  1
  S2-  S240  1  0.63339915  -0.00356899  0.04510263  1
  S2-  S241  1  0.62995516  0.00239264  0.55992149  1
  S2-  S242  1  0.63251771  0.24277271  0.04195917  1
  S2-  S243  1  0.62125747  0.25882079  0.55264606  1
  S2-  S244  1  0.62902219  0.50092202  0.04060932  1
  S2-  S245  1  0.62493170  0.50441512  0.55011578  1
  S2-  S246  1  0.63637302  0.74237748  0.04941342  1
  S2-  S247  1  0.62930885  0.75178495  0.53675570  1
  S2-  S248  1  0.88224875  -0.00301255  0.04153024  1
  S2-  S249  1  0.87672400  0.00451581  0.54745045  1
  S2-  S250  1  0.87624395  0.24822870  0.03513915  1
  S2-  S251  1  0.88082959  0.25753659  0.54511621  1
  S2-  S252  1  0.87789039  0.49393707  0.04157060  1
  S2-  S253  1  0.87801042  0.50399731  0.54869774  1
  S2-  S254  1  0.88154389  0.74031843  0.04482241  1
  S2-  S255  1  0.88110280  0.74793426  0.54077003  1
