# generated using pymatgen
data_La6Ce6Pr19Nd20Sm13(BiS2)64
_symmetry_space_group_name_H-M   'P 1'
_cell_length_a   16.05464521
_cell_length_b   16.04704478
_cell_length_c   27.52994948
_cell_angle_alpha   90.29602748
_cell_angle_beta   90.35890152
_cell_angle_gamma   89.96500643
_symmetry_Int_Tables_number   1
_chemical_formula_structural   La6Ce6Pr19Nd20Sm13(BiS2)64
_chemical_formula_sum   'La6 Ce6 Pr19 Nd20 Sm13 Bi64 S128'
_cell_volume   7092.29516342
_cell_formula_units_Z   1
loop_
 _symmetry_equiv_pos_site_id
 _symmetry_equiv_pos_as_xyz
  1  'x, y, z'
loop_
 _atom_type_symbol
 _atom_type_oxidation_number
  La3+  3.0
  Ce3+  3.0
  Pr3+  3.0
  Nd3+  3.0
  Sm3+  3.0
  Bi2+  2.0
  S2-  -2.0
loop_
 _atom_site_type_symbol
 _atom_site_label
 _atom_site_symmetry_multiplicity
 _atom_site_fract_x
 _atom_site_fract_y
 _atom_site_fract_z
 _atom_site_occupancy
  La3+  La0  1  0.84804513  -0.00203893  0.93123832  1
  La3+  La1  1  0.13300364  0.00026518  0.42143976  1
  La3+  La2  1  0.74115170  0.86818354  0.61742030  1
  La3+  La3  1  0.39907792  0.01983885  0.38638100  1
  La3+  La4  1  0.61435644  0.25389303  0.92532771  1
  La3+  La5  1  0.25701934  0.38357639  0.59546349  1
  Ce3+  Ce6  1  0.00991920  0.13069037  0.55493891  1
  Ce3+  Ce7  1  0.87616047  0.50334343  0.44156193  1
  Ce3+  Ce8  1  0.25753465  0.62929607  0.55939510  1
  Ce3+  Ce9  1  0.48031633  0.12756355  0.05177442  1
  Ce3+  Ce10  1  0.37957120  0.25480996  0.44692482  1
  Ce3+  Ce11  1  -0.01898983  0.87718237  0.06193631  1
  Pr3+  Pr12  1  -0.01762928  0.11789050  0.08003945  1
  Pr3+  Pr13  1  0.87617309  0.25295896  0.43620546  1
  Pr3+  Pr14  1  0.22988916  0.62788492  0.06973308  1
  Pr3+  Pr15  1  0.60032375  0.01033963  0.93261895  1
  Pr3+  Pr16  1  0.72487641  0.62635133  0.07507742  1
  Pr3+  Pr17  1  0.72810321  0.38128103  0.06767040  1
  Pr3+  Pr18  1  0.50557128  0.63199461  0.55688983  1
  Pr3+  Pr19  1  0.50242309  0.12906781  0.56826108  1
  Pr3+  Pr20  1  0.38800482  0.50810221  0.42537721  1
  Pr3+  Pr21  1  0.13191456  0.50496137  0.43274330  1
  Pr3+  Pr22  1  0.34726375  0.24714690  0.90139649  1
  Pr3+  Pr23  1  0.22932738  0.12767053  0.06585861  1
  Pr3+  Pr24  1  0.35105705  0.75388252  0.93690750  1
  Pr3+  Pr25  1  0.00814540  0.38007121  0.55664571  1
  Pr3+  Pr26  1  0.35151763  -0.00100804  0.93183729  1
  Pr3+  Pr27  1  0.50540639  0.38435541  0.56586515  1
  Pr3+  Pr28  1  0.10289014  -0.00056658  0.94326524  1
  Pr3+  Pr29  1  0.85020820  0.74466318  0.93572153  1
  Pr3+  Pr30  1  0.48949864  0.87867375  0.06393252  1
  Nd3+  Nd31  1  0.47397482  0.62739465  0.06490222  1
  Nd3+  Nd32  1  0.75673560  0.63270204  0.56110356  1
  Nd3+  Nd33  1  -0.01409114  0.63022867  0.06595600  1
  Nd3+  Nd34  1  0.00651607  0.88334583  0.56923770  1
  Nd3+  Nd35  1  0.25210590  0.88038406  0.56220576  1
  Nd3+  Nd36  1  0.10423216  0.24866513  0.93410532  1
  Nd3+  Nd37  1  0.60527674  0.75008841  0.93733473  1
  Nd3+  Nd38  1  0.62652718  0.25078379  0.44814646  1
  Nd3+  Nd39  1  0.73054962  0.13237747  0.07042610  1
  Nd3+  Nd40  1  0.37763343  0.75929913  0.43435185  1
  Nd3+  Nd41  1  0.00680497  0.62807188  0.55525756  1
  Nd3+  Nd42  1  0.12930220  0.75614153  0.43808308  1
  Nd3+  Nd43  1  0.63689615  0.50182814  0.43383109  1
  Nd3+  Nd44  1  0.63026856  0.76176504  0.44182635  1
  Nd3+  Nd45  1  0.87970084  0.75937224  0.44325575  1
  Nd3+  Nd46  1  0.75564872  0.37737276  0.57094480  1
  Nd3+  Nd47  1  0.35638928  0.50181587  0.93767152  1
  Nd3+  Nd48  1  0.11429358  0.50334530  0.93016855  1
  Nd3+  Nd49  1  0.22945002  0.37434865  0.05315577  1
  Nd3+  Nd50  1  0.24813026  0.88445280  0.09226861  1
  Sm3+  Sm51  1  0.48101297  0.37382887  0.04923990  1
  Sm3+  Sm52  1  0.10449214  0.75162627  0.94840091  1
  Sm3+  Sm53  1  0.13501279  0.25607908  0.44202245  1
  Sm3+  Sm54  1  0.25620258  0.12740899  0.55580045  1
  Sm3+  Sm55  1  0.63098783  0.00579043  0.44873117  1
  Sm3+  Sm56  1  0.85653093  0.50297922  0.94792399  1
  Sm3+  Sm57  1  -0.01591895  0.37664316  0.05426758  1
  Sm3+  Sm58  1  0.60708029  0.49808404  0.93646271  1
  Sm3+  Sm59  1  0.73189355  0.87789325  0.06271215  1
  Sm3+  Sm60  1  0.50609846  0.88344680  0.55729995  1
  Sm3+  Sm61  1  0.76091550  0.13224399  0.56815399  1
  Sm3+  Sm62  1  0.85624955  0.25209000  0.94641806  1
  Sm3+  Sm63  1  0.88518007  0.00519791  0.44135444  1
  Bi2+  Bi64  1  -0.00007418  0.13490428  0.29194967  1
  Bi2+  Bi65  1  0.06817508  0.15000677  0.80109322  1
  Bi2+  Bi66  1  -0.00562111  0.44797781  0.25551945  1
  Bi2+  Bi67  1  -0.01574137  0.34093734  0.79399915  1
  Bi2+  Bi68  1  0.06465659  0.60950219  0.31210086  1
  Bi2+  Bi69  1  -0.05353779  0.57459216  0.78639354  1
  Bi2+  Bi70  1  0.01045839  0.86523889  0.29329852  1
  Bi2+  Bi71  1  0.03817374  0.84599639  0.81106743  1
  Bi2+  Bi72  1  0.25203223  0.17701032  0.28742726  1
  Bi2+  Bi73  1  0.26212246  0.09586803  0.75120717  1
  Bi2+  Bi74  1  0.29667192  0.44745035  0.29710716  1
  Bi2+  Bi75  1  0.23516104  0.39283384  0.79262243  1
  Bi2+  Bi76  1  0.25156710  0.64442947  0.28949871  1
  Bi2+  Bi77  1  0.33931676  0.64996863  0.79096581  1
  Bi2+  Bi78  1  0.26725612  0.89318321  0.28095002  1
  Bi2+  Bi79  1  0.24950638  0.90282769  0.78646504  1
  Bi2+  Bi80  1  0.54606413  0.15880386  0.30641171  1
  Bi2+  Bi81  1  0.47185831  0.05057591  0.78379287  1
  Bi2+  Bi82  1  0.52657620  0.35659614  0.29823686  1
  Bi2+  Bi83  1  0.53317830  0.40555904  0.77026099  1
  Bi2+  Bi84  1  0.57097314  0.61244323  0.28158213  1
  Bi2+  Bi85  1  0.52001385  0.58178015  0.82465959  1
  Bi2+  Bi86  1  0.52918741  0.86843705  0.29229163  1
  Bi2+  Bi87  1  0.50451910  0.85785227  0.79720735  1
  Bi2+  Bi88  1  0.80373427  0.11420874  0.29554947  1
  Bi2+  Bi89  1  0.71692832  0.10401052  0.79873216  1
  Bi2+  Bi90  1  0.80502408  0.39880144  0.27621171  1
  Bi2+  Bi91  1  0.76147287  0.37068031  0.79448338  1
  Bi2+  Bi92  1  0.76732515  0.60928436  0.28530991  1
  Bi2+  Bi93  1  0.70929531  0.60989425  0.78709790  1
  Bi2+  Bi94  1  0.79666194  0.83073360  0.28094069  1
  Bi2+  Bi95  1  0.80541978  0.84661303  0.80897135  1
  Bi2+  Bi96  1  0.13478364  0.01154710  0.20124384  1
  Bi2+  Bi97  1  0.10800063  0.00375074  0.70675626  1
  Bi2+  Bi98  1  0.10446804  0.29115777  0.20978256  1
  Bi2+  Bi99  1  0.06550558  0.26433032  0.69907128  1
  Bi2+  Bi100  1  0.20451498  0.51889050  0.20459253  1
  Bi2+  Bi101  1  0.09830661  0.54050597  0.71034253  1
  Bi2+  Bi102  1  0.02361459  0.71939828  0.21591679  1
  Bi2+  Bi103  1  0.16090405  0.71863414  0.74837060  1
  Bi2+  Bi104  1  0.44502340  0.00834027  0.18405205  1
  Bi2+  Bi105  1  0.38853122  -0.09096142  0.70568041  1
  Bi2+  Bi106  1  0.36978890  0.29625936  0.23429649  1
  Bi2+  Bi107  1  0.37888518  0.24775495  0.70712102  1
  Bi2+  Bi108  1  0.42451989  0.48937861  0.20816188  1
  Bi2+  Bi109  1  0.37582456  0.53507155  0.70449862  1
  Bi2+  Bi110  1  0.45513781  0.71384953  0.20566920  1
  Bi2+  Bi111  1  0.31601133  0.73433767  0.67965839  1
  Bi2+  Bi112  1  0.67399302  -0.03385020  0.22621414  1
  Bi2+  Bi113  1  0.61341137  0.01218173  0.70441692  1
  Bi2+  Bi114  1  0.65298255  0.16532943  0.21763515  1
  Bi2+  Bi115  1  0.65245675  0.26045846  0.71010250  1
  Bi2+  Bi116  1  0.64137948  0.43203957  0.21578949  1
  Bi2+  Bi117  1  0.63366070  0.44294200  0.67352639  1
  Bi2+  Bi118  1  0.67682229  0.75066825  0.19859795  1
  Bi2+  Bi119  1  0.56248281  0.70377194  0.73658286  1
  Bi2+  Bi120  1  0.87602743  -0.01628950  0.21816232  1
  Bi2+  Bi121  1  0.88554660  -0.00755137  0.71328763  1
  Bi2+  Bi122  1  0.85693583  0.25511212  0.20218396  1
  Bi2+  Bi123  1  0.88415208  0.18361250  0.75965645  1
  Bi2+  Bi124  1  0.87861610  0.58761423  0.19354250  1
  Bi2+  Bi125  1  0.81100937  0.49949713  0.70559353  1
  Bi2+  Bi126  1  0.86039128  0.77568648  0.15344941  1
  Bi2+  Bi127  1  0.88741274  0.70284581  0.70507563  1
  S2-  S128  1  0.10964204  0.16294132  0.14730498  1
  S2-  S129  1  0.00049936  0.11117090  0.65107098  1
  S2-  S130  1  -0.02349281  0.36191136  0.15151794  1
  S2-  S131  1  0.02201276  0.41308529  0.65431176  1
  S2-  S132  1  0.10026600  0.61520469  0.14196810  1
  S2-  S133  1  0.02429714  0.65757003  0.65213057  1
  S2-  S134  1  0.00222506  0.96968400  0.14488609  1
  S2-  S135  1  -0.08884416  0.86751677  0.65361720  1
  S2-  S136  1  0.28229066  0.04046980  0.14931086  1
  S2-  S137  1  0.28845257  0.13723653  0.65317338  1
  S2-  S138  1  0.21585780  0.37316883  0.15205405  1
  S2-  S139  1  0.21993367  0.32750821  0.69373991  1
  S2-  S140  1  0.35339201  0.62902606  0.14330489  1
  S2-  S141  1  0.23687911  0.54048462  0.64354427  1
  S2-  S142  1  0.18742195  0.85771803  0.18729252  1
  S2-  S143  1  0.13853087  0.89045768  0.64008600  1
  S2-  S144  1  0.52332375  0.14127997  0.14636587  1
  S2-  S145  1  0.51673359  0.16052932  0.66712671  1
  S2-  S146  1  0.51723752  0.39939066  0.14466443  1
  S2-  S147  1  0.40948015  0.38183431  0.64985065  1
  S2-  S148  1  0.58538663  0.64625956  0.14144383  1
  S2-  S149  1  0.50955536  0.61361072  0.65672959  1
  S2-  S150  1  0.39674158  0.84988217  0.14903775  1
  S2-  S151  1  0.56749941  0.87779364  0.64864206  1
  S2-  S152  1  0.85138110  0.11522786  0.14722198  1
  S2-  S153  1  0.75744301  0.03964453  0.65007341  1
  S2-  S154  1  0.71815125  0.26465324  0.14172934  1
  S2-  S155  1  0.77408417  0.25792469  0.64260202  1
  S2-  S156  1  0.74522838  0.49670070  0.14550399  1
  S2-  S157  1  0.74705120  0.69882460  0.65221168  1
  S2-  S158  1  0.62095732  0.89637802  0.13900257  1
  S2-  S159  1  0.73973486  0.89222274  0.72622033  1
  S2-  S160  1  0.23640866  0.02530095  0.34069157  1
  S2-  S161  1  0.13120014  -0.00398389  0.84446719  1
  S2-  S162  1  0.12874444  0.22105390  0.34523523  1
  S2-  S163  1  0.19192254  0.25932822  0.84827536  1
  S2-  S164  1  0.08491794  0.44628757  0.34131536  1
  S2-  S165  1  0.06997087  0.47280518  0.83502908  1
  S2-  S166  1  0.14651958  0.83629655  0.34967390  1
  S2-  S167  1  0.14967219  0.73718043  0.85489257  1
  S2-  S168  1  0.40259444  0.00627861  0.27412688  1
  S2-  S169  1  0.34732714  0.09767610  0.84673817  1
  S2-  S170  1  0.38950198  0.19372522  0.35616525  1
  S2-  S171  1  0.38827970  0.32150089  0.81056979  1
  S2-  S172  1  0.36665489  0.63989824  0.35734318  1
  S2-  S173  1  0.26710984  0.51915698  0.85304631  1
  S2-  S174  1  0.38689532  0.85319293  0.34921557  1
  S2-  S175  1  0.36490400  0.86781101  0.85944410  1
  S2-  S176  1  0.57453591  0.00670170  0.35579904  1
  S2-  S177  1  0.71131194  -0.03250874  0.85770509  1
  S2-  S178  1  0.65542832  0.26778264  0.35175017  1
  S2-  S179  1  0.57858499  0.13408977  0.85258418  1
  S2-  S180  1  0.52644937  0.49854357  0.35659347  1
  S2-  S181  1  0.62078581  0.38989730  0.85730324  1
  S2-  S182  1  0.60701286  0.75452643  0.34287357  1
  S2-  S183  1  0.71716800  0.72758261  0.86181914  1
  S2-  S184  1  0.98457174  0.00082907  0.35812653  1
  S2-  S185  1  0.91707663  -0.03325266  0.83856679  1
  S2-  S186  1  0.89797763  0.24883736  0.33695835  1
  S2-  S187  1  0.77597915  0.23787636  0.86047896  1
  S2-  S188  1  0.76992804  0.49168933  0.36390738  1
  S2-  S189  1  0.82906087  0.50686926  0.85141559  1
  S2-  S190  1  0.90498848  0.75139488  0.34513822  1
  S2-  S191  1  0.93281208  0.73190633  0.84512250  1
  S2-  S192  1  0.00814094  0.13454659  0.45159423  1
  S2-  S193  1  -0.02317101  0.12694902  0.94716008  1
  S2-  S194  1  0.00388876  0.37706120  0.45075235  1
  S2-  S195  1  -0.01891455  0.37820103  0.94956684  1
  S2-  S196  1  0.00203933  0.62887859  0.45025930  1
  S2-  S197  1  -0.01527002  0.62309099  0.95783968  1
  S2-  S198  1  0.00506125  0.87918422  0.46011991  1
  S2-  S199  1  -0.02230441  0.87123148  0.95634102  1
  S2-  S200  1  0.25572604  0.13000869  0.45360899  1
  S2-  S201  1  0.22873530  0.12833548  0.95594056  1
  S2-  S202  1  0.25810381  0.38097653  0.44007231  1
  S2-  S203  1  0.23416515  0.37313851  0.94971122  1
  S2-  S204  1  0.25239740  0.63044936  0.45462451  1
  S2-  S205  1  0.23015732  0.62813269  0.96161939  1
  S2-  S206  1  0.25330626  0.87853059  0.45837004  1
  S2-  S207  1  0.22582930  0.87460157  0.95533073  1
  S2-  S208  1  0.50261145  0.12543491  0.46109807  1
  S2-  S209  1  0.46945245  0.13592228  0.95045027  1
  S2-  S210  1  0.50670190  0.37847310  0.45891252  1
  S2-  S211  1  0.47376815  0.37323548  0.94580899  1
  S2-  S212  1  0.51126286  0.63515059  0.45344915  1
  S2-  S213  1  0.47964232  0.62667109  0.95435393  1
  S2-  S214  1  0.50446400  0.88511926  0.45542647  1
  S2-  S215  1  0.48647909  0.87662991  0.95592395  1
  S2-  S216  1  0.75616263  0.12661106  0.45657438  1
  S2-  S217  1  0.73372215  0.12733025  0.96207097  1
  S2-  S218  1  0.75382146  0.37438756  0.46508434  1
  S2-  S219  1  0.73632200  0.38111151  0.96212085  1
  S2-  S220  1  0.75455467  0.63514257  0.45524900  1
  S2-  S221  1  0.72676473  0.61814388  0.96297865  1
  S2-  S222  1  0.75755991  0.88665420  0.43911896  1
  S2-  S223  1  0.72742441  0.87253595  0.96143710  1
  S2-  S224  1  0.11255067  -0.00352497  0.04767615  1
  S2-  S225  1  0.13203781  0.00855299  0.53823192  1
  S2-  S226  1  0.10179302  0.25170510  0.03875138  1
  S2-  S227  1  0.13911106  0.25940379  0.54834106  1
  S2-  S228  1  0.10677357  0.49987838  0.03840019  1
  S2-  S229  1  0.13312242  0.50189740  0.53971572  1
  S2-  S230  1  0.11172411  0.76149875  0.05288872  1
  S2-  S231  1  0.12988921  0.75155412  0.54329809  1
  S2-  S232  1  0.35940874  -0.00113499  0.03984489  1
  S2-  S233  1  0.37891954  0.00200425  0.55896095  1
  S2-  S234  1  0.35578926  0.25365058  0.05778354  1
  S2-  S235  1  0.37633707  0.25709910  0.55040601  1
  S2-  S236  1  0.35497177  0.49747096  0.04284617  1
  S2-  S237  1  0.37993842  0.50521890  0.54004660  1
  S2-  S238  1  0.35348528  0.75645981  0.04170946  1
  S2-  S239  1  0.38198158  0.75956403  0.54386058  1
  S2-  S240  1  0.61131136  0.00824812  0.03905033  1
  S2-  S241  1  0.63261130  0.00688586  0.54976658  1
  S2-  S242  1  0.60455450  0.25398170  0.03614887  1
  S2-  S243  1  0.62794950  0.25361127  0.55205345  1
  S2-  S244  1  0.59929693  0.50192730  0.03898081  1
  S2-  S245  1  0.63329534  0.50661054  0.54323340  1
  S2-  S246  1  0.60777236  0.75124150  0.04032661  1
  S2-  S247  1  0.63308378  0.76008368  0.54620946  1
  S2-  S248  1  0.85452105  -0.00103593  0.04317517  1
  S2-  S249  1  0.88387190  0.00956405  0.54311855  1
  S2-  S250  1  0.86366230  0.25195974  0.04676328  1
  S2-  S251  1  0.88381536  0.25420541  0.54217013  1
  S2-  S252  1  0.86428932  0.50417404  0.04972339  1
  S2-  S253  1  0.87849546  0.50426894  0.54861184  1
  S2-  S254  1  0.85402298  0.74773762  0.04258800  1
  S2-  S255  1  0.88168920  0.75504721  0.54693333  1
