# generated using pymatgen
data_La6Ce6Pr19Nd20Sm13(BiS2)64
_symmetry_space_group_name_H-M   'P 1'
_cell_length_a   16.10111939
_cell_length_b   16.13253253
_cell_length_c   27.19182921
_cell_angle_alpha   89.89092246
_cell_angle_beta   90.13264692
_cell_angle_gamma   89.91547348
_symmetry_Int_Tables_number   1
_chemical_formula_structural   La6Ce6Pr19Nd20Sm13(BiS2)64
_chemical_formula_sum   'La6 Ce6 Pr19 Nd20 Sm13 Bi64 S128'
_cell_volume   7063.08800204
_cell_formula_units_Z   1
loop_
 _symmetry_equiv_pos_site_id
 _symmetry_equiv_pos_as_xyz
  1  'x, y, z'
loop_
 _atom_type_symbol
 _atom_type_oxidation_number
  La3+  3.0
  Ce3+  3.0
  Pr3+  3.0
  Nd3+  3.0
  Sm3+  3.0
  Bi2+  2.0
  S2-  -2.0
loop_
 _atom_site_type_symbol
 _atom_site_label
 _atom_site_symmetry_multiplicity
 _atom_site_fract_x
 _atom_site_fract_y
 _atom_site_fract_z
 _atom_site_occupancy
  La3+  La0  1  0.37044707  0.74828623  0.92878578  1
  La3+  La1  1  0.73607768  0.11817871  0.08127811  1
  La3+  La2  1  0.11362007  0.74326065  0.89443046  1
  La3+  La3  1  0.36187621  0.50341653  0.93591341  1
  La3+  La4  1  0.24831389  0.11140067  0.57783517  1
  La3+  La5  1  0.61784062  0.00399238  0.93232067  1
  Ce3+  Ce6  1  0.36464426  0.49510675  0.44789548  1
  Ce3+  Ce7  1  0.11626441  0.24785209  0.94440414  1
  Ce3+  Ce8  1  0.86953915  -0.00231110  0.94866416  1
  Ce3+  Ce9  1  0.87026433  -0.00689897  0.43513763  1
  Ce3+  Ce10  1  0.49454899  0.62444663  0.06259591  1
  Ce3+  Ce11  1  -0.00459442  0.12238832  0.07098704  1
  Pr3+  Pr12  1  0.61282599  0.74192693  0.42615644  1
  Pr3+  Pr13  1  0.12384541  -0.00612903  0.43146378  1
  Pr3+  Pr14  1  0.74291837  0.87166681  0.05502245  1
  Pr3+  Pr15  1  0.61869848  0.25044392  0.93489722  1
  Pr3+  Pr16  1  0.86800349  0.24606187  0.94649270  1
  Pr3+  Pr17  1  0.24571642  0.62849433  0.06658113  1
  Pr3+  Pr18  1  0.24244922  0.36609975  0.56358452  1
  Pr3+  Pr19  1  0.86887727  0.24413978  0.43422875  1
  Pr3+  Pr20  1  0.00352906  0.62073158  0.57282302  1
  Pr3+  Pr21  1  0.36751480  -0.00038516  0.93729492  1
  Pr3+  Pr22  1  0.12256186  0.24386843  0.42901642  1
  Pr3+  Pr23  1  0.12109406  0.74124117  0.42988278  1
  Pr3+  Pr24  1  0.10689798  0.49836884  0.93563700  1
  Pr3+  Pr25  1  0.36633974  0.25283131  0.93300357  1
  Pr3+  Pr26  1  0.50523668  0.86961493  0.56481287  1
  Pr3+  Pr27  1  0.36972396  0.24047745  0.43993317  1
  Pr3+  Pr28  1  0.11771140  -0.00225941  0.94239960  1
  Pr3+  Pr29  1  0.62012066  0.49518418  0.93147148  1
  Pr3+  Pr30  1  0.61622129  -0.00987068  0.41199954  1
  Nd3+  Nd31  1  -0.00170762  0.36627794  0.55437292  1
  Nd3+  Nd32  1  0.74291086  0.11540939  0.55524190  1
  Nd3+  Nd33  1  -0.00562511  0.86698668  0.05828609  1
  Nd3+  Nd34  1  0.50077219  0.11820643  0.55919189  1
  Nd3+  Nd35  1  0.48772909  0.11784548  0.07004636  1
  Nd3+  Nd36  1  0.24577446  0.62326448  0.56984163  1
  Nd3+  Nd37  1  -0.00175053  0.11468408  0.55811145  1
  Nd3+  Nd38  1  0.12711548  0.49267453  0.42385130  1
  Nd3+  Nd39  1  0.87227835  0.74208916  0.43862951  1
  Nd3+  Nd40  1  0.74362771  0.62114485  0.05920028  1
  Nd3+  Nd41  1  0.00263153  0.61324984  0.07819098  1
  Nd3+  Nd42  1  0.37026456  -0.00555240  0.43686472  1
  Nd3+  Nd43  1  0.74200858  0.37073480  0.06515354  1
  Nd3+  Nd44  1  -0.00248327  0.86627848  0.56416702  1
  Nd3+  Nd45  1  0.49450093  0.86792184  0.06385559  1
  Nd3+  Nd46  1  0.36621202  0.74498793  0.43693701  1
  Nd3+  Nd47  1  0.74706701  0.36612985  0.56314837  1
  Nd3+  Nd48  1  0.61971388  0.25397164  0.42639330  1
  Nd3+  Nd49  1  0.74686122  0.61945390  0.55895874  1
  Nd3+  Nd50  1  -0.00220832  0.36183688  0.07695001  1
  Sm3+  Sm51  1  0.25075152  0.86628314  0.56414737  1
  Sm3+  Sm52  1  0.24226610  0.86733467  0.05438089  1
  Sm3+  Sm53  1  0.87360155  0.49618396  0.44822007  1
  Sm3+  Sm54  1  0.49652934  0.36719925  0.55942037  1
  Sm3+  Sm55  1  0.74349283  0.86905499  0.55239300  1
  Sm3+  Sm56  1  0.61741888  0.74700060  0.93191197  1
  Sm3+  Sm57  1  0.24424161  0.37283319  0.05591984  1
  Sm3+  Sm58  1  0.87210353  0.49714694  0.95035778  1
  Sm3+  Sm59  1  0.24930079  0.12076030  0.06491368  1
  Sm3+  Sm60  1  0.87061155  0.74353158  0.94392238  1
  Sm3+  Sm61  1  0.49728107  0.61910845  0.55633237  1
  Sm3+  Sm62  1  0.62216713  0.49425260  0.44407986  1
  Sm3+  Sm63  1  0.49305807  0.37207622  0.05717249  1
  Bi2+  Bi64  1  0.07705470  0.11528418  0.30663647  1
  Bi2+  Bi65  1  -0.01830381  0.10108095  0.76730881  1
  Bi2+  Bi66  1  0.01331619  0.43701026  0.29122381  1
  Bi2+  Bi67  1  -0.06421277  0.36171811  0.78622115  1
  Bi2+  Bi68  1  0.00588702  0.66442924  0.26879037  1
  Bi2+  Bi69  1  -0.02476994  0.59850649  0.79475481  1
  Bi2+  Bi70  1  0.05798481  0.84836341  0.30146882  1
  Bi2+  Bi71  1  -0.05483751  0.90502288  0.76702248  1
  Bi2+  Bi72  1  0.25972294  0.17837552  0.32119262  1
  Bi2+  Bi73  1  0.25199017  0.14814257  0.82717532  1
  Bi2+  Bi74  1  0.32003055  0.44291235  0.26609654  1
  Bi2+  Bi75  1  0.21819693  0.39982215  0.79218407  1
  Bi2+  Bi76  1  0.23147455  0.63943189  0.29604372  1
  Bi2+  Bi77  1  0.28917369  0.58365564  0.79957060  1
  Bi2+  Bi78  1  0.24380592  0.90034126  0.27834649  1
  Bi2+  Bi79  1  0.23603538  0.89538023  0.79246486  1
  Bi2+  Bi80  1  0.52163421  0.12745568  0.29630322  1
  Bi2+  Bi81  1  0.51037250  0.08269083  0.80186681  1
  Bi2+  Bi82  1  0.51173239  0.38249229  0.25099291  1
  Bi2+  Bi83  1  0.54982744  0.34320705  0.76310666  1
  Bi2+  Bi84  1  0.46333961  0.59669404  0.29077305  1
  Bi2+  Bi85  1  0.55714434  0.59032359  0.81291202  1
  Bi2+  Bi86  1  0.50296498  0.85363160  0.28978114  1
  Bi2+  Bi87  1  0.51573136  0.83025783  0.76950287  1
  Bi2+  Bi88  1  0.78869055  0.13209240  0.28931693  1
  Bi2+  Bi89  1  0.78340711  0.12809181  0.79868157  1
  Bi2+  Bi90  1  0.76250208  0.39163087  0.30773515  1
  Bi2+  Bi91  1  0.73750177  0.49348059  0.81480896  1
  Bi2+  Bi92  1  0.65540244  0.60166079  0.31972576  1
  Bi2+  Bi93  1  0.73817418  0.69391489  0.82106007  1
  Bi2+  Bi94  1  0.76240551  0.76208446  0.28598460  1
  Bi2+  Bi95  1  0.74516852  0.88626447  0.78931744  1
  Bi2+  Bi96  1  0.17999817  0.04581771  0.20521420  1
  Bi2+  Bi97  1  0.05559084  -0.01781504  0.68179817  1
  Bi2+  Bi98  1  0.15414063  0.23780007  0.22768912  1
  Bi2+  Bi99  1  0.13619777  0.26187797  0.70562956  1
  Bi2+  Bi100  1  0.13779113  0.46712758  0.20803043  1
  Bi2+  Bi101  1  0.06994711  0.47431598  0.72495960  1
  Bi2+  Bi102  1  0.11452160  0.76040058  0.18862179  1
  Bi2+  Bi103  1  0.11357787  0.71833309  0.70242404  1
  Bi2+  Bi104  1  0.37114985  0.01757285  0.22137082  1
  Bi2+  Bi105  1  0.35373784  -0.00525198  0.70821160  1
  Bi2+  Bi106  1  0.36971014  0.26514343  0.20889699  1
  Bi2+  Bi107  1  0.39167382  0.25358623  0.70923050  1
  Bi2+  Bi108  1  0.39938093  0.54974676  0.17803448  1
  Bi2+  Bi109  1  0.43106518  0.53492223  0.72616109  1
  Bi2+  Bi110  1  0.36789624  0.72992036  0.21725940  1
  Bi2+  Bi111  1  0.37310307  0.73935167  0.71547636  1
  Bi2+  Bi112  1  0.61658872  -0.01095728  0.20739932  1
  Bi2+  Bi113  1  0.68473094  -0.00595175  0.69809374  1
  Bi2+  Bi114  1  0.67373319  0.25277447  0.20119555  1
  Bi2+  Bi115  1  0.67509469  0.21530610  0.71716918  1
  Bi2+  Bi116  1  0.59940345  0.53207884  0.19831905  1
  Bi2+  Bi117  1  0.63062375  0.50320863  0.71329294  1
  Bi2+  Bi118  1  0.61657067  0.73141878  0.20987077  1
  Bi2+  Bi119  1  0.64527716  0.71250411  0.71644100  1
  Bi2+  Bi120  1  0.96163475  -0.01210438  0.24452511  1
  Bi2+  Bi121  1  0.86804120  0.03755863  0.66103948  1
  Bi2+  Bi122  1  0.92194024  0.32554196  0.21433814  1
  Bi2+  Bi123  1  0.88760075  0.22724479  0.69590318  1
  Bi2+  Bi124  1  0.80755172  0.55931386  0.25213093  1
  Bi2+  Bi125  1  0.85541877  0.50478119  0.71977441  1
  Bi2+  Bi126  1  0.87166535  0.82970529  0.19624372  1
  Bi2+  Bi127  1  0.83730036  0.77128137  0.71105505  1
  S2-  S128  1  0.00264080  0.23062555  0.14912658  1
  S2-  S129  1  0.10299543  0.14032369  0.63768845  1
  S2-  S130  1  -0.01626025  0.45936563  0.15950829  1
  S2-  S131  1  0.01677823  0.35396394  0.65329524  1
  S2-  S132  1  -0.05034684  0.69306982  0.16493536  1
  S2-  S133  1  0.13070791  0.57929969  0.64320228  1
  S2-  S134  1  0.01745967  0.90505144  0.15534140  1
  S2-  S135  1  -0.01085312  0.75277324  0.64451338  1
  S2-  S136  1  0.35951435  0.13785507  0.14110081  1
  S2-  S137  1  0.25159046  0.14097232  0.73351860  1
  S2-  S138  1  0.23487865  0.34490389  0.15342500  1
  S2-  S139  1  0.26564514  0.34771126  0.66420818  1
  S2-  S140  1  0.14295173  0.60359479  0.14775170  1
  S2-  S141  1  0.24839651  0.75190183  0.64311919  1
  S2-  S142  1  0.26198456  0.78748339  0.14203492  1
  S2-  S143  1  0.22923148  0.96884316  0.64423567  1
  S2-  S144  1  0.59917519  0.12593783  0.14761516  1
  S2-  S145  1  0.39675282  0.12225699  0.64232751  1
  S2-  S146  1  0.50766425  0.32968416  0.15331436  1
  S2-  S147  1  0.50438751  0.33301278  0.65608215  1
  S2-  S148  1  0.50069767  0.74014332  0.13740069  1
  S2-  S149  1  0.48392964  0.64882223  0.65244404  1
  S2-  S150  1  0.47832754  0.95661609  0.15087659  1
  S2-  S151  1  0.43043455  0.87794592  0.66029688  1
  S2-  S152  1  0.79448692  0.14531654  0.18173442  1
  S2-  S153  1  0.62712290  0.11936407  0.63152079  1
  S2-  S154  1  0.76864511  0.37074387  0.16486212  1
  S2-  S155  1  0.76213445  0.33165004  0.66026938  1
  S2-  S156  1  0.73560796  0.62203316  0.15890937  1
  S2-  S157  1  0.78728359  0.62964018  0.65602623  1
  S2-  S158  1  0.72769429  0.91546684  0.15254695  1
  S2-  S159  1  0.64664561  0.87150382  0.63347705  1
  S2-  S160  1  0.25048781  0.00573860  0.36002867  1
  S2-  S161  1  0.14633654  0.02189277  0.84370000  1
  S2-  S162  1  0.11602929  0.36238780  0.35230045  1
  S2-  S163  1  0.12868042  0.27279083  0.84712390  1
  S2-  S164  1  0.09227266  0.61824567  0.35537313  1
  S2-  S165  1  0.13883308  0.58703662  0.84805572  1
  S2-  S166  1  0.25216415  0.76273351  0.35773551  1
  S2-  S167  1  0.09918308  0.81073826  0.79322101  1
  S2-  S168  1  0.46794537  -0.01031190  0.35172186  1
  S2-  S169  1  0.37479345  -0.01526281  0.83596560  1
  S2-  S170  1  0.41615917  0.24615514  0.34211183  1
  S2-  S171  1  0.42189025  0.20329025  0.84005888  1
  S2-  S172  1  0.28351773  0.50590889  0.36187064  1
  S2-  S173  1  0.35576208  0.42369339  0.84553035  1
  S2-  S174  1  0.47143429  0.73600403  0.35532063  1
  S2-  S175  1  0.27476648  0.75397983  0.84385198  1
  S2-  S176  1  0.66498872  0.02830028  0.30825949  1
  S2-  S177  1  0.59418955  -0.06429735  0.83719560  1
  S2-  S178  1  0.64819262  0.21439022  0.32853178  1
  S2-  S179  1  0.63298238  0.13413034  0.85860204  1
  S2-  S180  1  0.62613186  0.40395090  0.36068918  1
  S2-  S181  1  0.61716199  0.36976338  0.85650476  1
  S2-  S182  1  0.64526133  0.84755535  0.34764313  1
  S2-  S183  1  0.50097879  0.74251458  0.85620024  1
  S2-  S184  1  0.87573282  0.00900522  0.33767291  1
  S2-  S185  1  0.89826381  0.02164762  0.85301313  1
  S2-  S186  1  0.87723881  0.26631482  0.33366180  1
  S2-  S187  1  0.83815315  0.26611505  0.84693248  1
  S2-  S188  1  0.87495660  0.50964114  0.34926880  1
  S2-  S189  1  0.96429048  0.47017911  0.86819949  1
  S2-  S190  1  0.91457003  0.75987035  0.34195834  1
  S2-  S191  1  0.94591396  0.72330546  0.85744511  1
  S2-  S192  1  -0.00374339  0.11911069  0.44908410  1
  S2-  S193  1  -0.00543233  0.12274603  0.96235832  1
  S2-  S194  1  -0.00786328  0.37012233  0.44983672  1
  S2-  S195  1  -0.00780016  0.36695223  0.96953543  1
  S2-  S196  1  -0.00787307  0.61857718  0.46181835  1
  S2-  S197  1  -0.00997513  0.62182820  0.96718738  1
  S2-  S198  1  -0.00373224  0.86846086  0.45308876  1
  S2-  S199  1  -0.00429381  0.86880788  0.95096696  1
  S2-  S200  1  0.24376351  0.12034984  0.46266384  1
  S2-  S201  1  0.24389214  0.12427102  0.95933092  1
  S2-  S202  1  0.24743601  0.36532953  0.45652322  1
  S2-  S203  1  0.23798429  0.37470277  0.95218345  1
  S2-  S204  1  0.24465262  0.62081043  0.46353210  1
  S2-  S205  1  0.23712980  0.62634636  0.95647222  1
  S2-  S206  1  0.24438131  0.87026844  0.46008227  1
  S2-  S207  1  0.23915094  0.87168866  0.95012173  1
  S2-  S208  1  0.50161943  0.12349948  0.45081206  1
  S2-  S209  1  0.48857986  0.12577968  0.95974748  1
  S2-  S210  1  0.49213366  0.37284635  0.45515893  1
  S2-  S211  1  0.48959883  0.37604409  0.95408142  1
  S2-  S212  1  0.49408471  0.61145539  0.45299962  1
  S2-  S213  1  0.49745012  0.61816342  0.95564386  1
  S2-  S214  1  0.49409154  0.86796327  0.45615599  1
  S2-  S215  1  0.49512163  0.87465017  0.95504213  1
  S2-  S216  1  0.74377996  0.11910544  0.44633769  1
  S2-  S217  1  0.74677547  0.12151441  0.96483864  1
  S2-  S218  1  0.75025874  0.37257797  0.45741476  1
  S2-  S219  1  0.74770223  0.37541657  0.95914706  1
  S2-  S220  1  0.74600017  0.61825539  0.45233542  1
  S2-  S221  1  0.74519307  0.62044640  0.95277279  1
  S2-  S222  1  0.74891385  0.86754903  0.44927574  1
  S2-  S223  1  0.74505459  0.86919772  0.94708673  1
  S2-  S224  1  0.12388629  -0.00226750  0.05078161  1
  S2-  S225  1  0.11691292  -0.01284122  0.53876577  1
  S2-  S226  1  0.12715462  0.24259142  0.05008046  1
  S2-  S227  1  0.12028116  0.24393516  0.53679944  1
  S2-  S228  1  0.12029840  0.49049331  0.04504063  1
  S2-  S229  1  0.12065487  0.48831396  0.53712935  1
  S2-  S230  1  0.11627225  0.74746877  0.04910198  1
  S2-  S231  1  0.12073167  0.74540380  0.54054409  1
  S2-  S232  1  0.36302265  -0.00894299  0.04411070  1
  S2-  S233  1  0.37532229  -0.00973475  0.54308220  1
  S2-  S234  1  0.36783588  0.25221724  0.04108445  1
  S2-  S235  1  0.37366779  0.24674560  0.54647005  1
  S2-  S236  1  0.36752136  0.49650643  0.04518012  1
  S2-  S237  1  0.37249122  0.49368825  0.55623538  1
  S2-  S238  1  0.36954020  0.74738331  0.03703785  1
  S2-  S239  1  0.37738039  0.74350739  0.54367203  1
  S2-  S240  1  0.61585072  -0.00518828  0.04183795  1
  S2-  S241  1  0.62463552  -0.00697875  0.52858581  1
  S2-  S242  1  0.61651507  0.25058745  0.04375292  1
  S2-  S243  1  0.62166687  0.25044739  0.53633836  1
  S2-  S244  1  0.61775196  0.49602459  0.04625371  1
  S2-  S245  1  0.62161763  0.49254376  0.55055213  1
  S2-  S246  1  0.62262165  0.74576285  0.03703757  1
  S2-  S247  1  0.62242637  0.73773197  0.53747100  1
  S2-  S248  1  0.87095078  -0.00254648  0.05546225  1
  S2-  S249  1  0.87080005  -0.01082871  0.54099751  1
  S2-  S250  1  0.86416129  0.24373162  0.05408175  1
  S2-  S251  1  0.87066958  0.24025463  0.54336553  1
  S2-  S252  1  0.86800443  0.49581484  0.05438433  1
  S2-  S253  1  0.87332065  0.49385312  0.55378308  1
  S2-  S254  1  0.86823019  0.74510583  0.04862214  1
  S2-  S255  1  0.86734969  0.74510284  0.54458065  1
