# generated using pymatgen
data_La6Ce6Pr19Nd20Sm13(BiS2)64
_symmetry_space_group_name_H-M   'P 1'
_cell_length_a   16.12792875
_cell_length_b   16.02145317
_cell_length_c   27.21142759
_cell_angle_alpha   89.87519770
_cell_angle_beta   90.06075259
_cell_angle_gamma   90.09477691
_symmetry_Int_Tables_number   1
_chemical_formula_structural   La6Ce6Pr19Nd20Sm13(BiS2)64
_chemical_formula_sum   'La6 Ce6 Pr19 Nd20 Sm13 Bi64 S128'
_cell_volume   7031.20824538
_cell_formula_units_Z   1
loop_
 _symmetry_equiv_pos_site_id
 _symmetry_equiv_pos_as_xyz
  1  'x, y, z'
loop_
 _atom_type_symbol
 _atom_type_oxidation_number
  La3+  3.0
  Ce3+  3.0
  Pr3+  3.0
  Nd3+  3.0
  Sm3+  3.0
  Bi2+  2.0
  S2-  -2.0
loop_
 _atom_site_type_symbol
 _atom_site_label
 _atom_site_symmetry_multiplicity
 _atom_site_fract_x
 _atom_site_fract_y
 _atom_site_fract_z
 _atom_site_occupancy
  La3+  La0  1  0.01098779  0.38291049  0.08395674  1
  La3+  La1  1  0.13231472  0.25915166  0.42212144  1
  La3+  La2  1  0.51072222  0.86650690  0.09060411  1
  La3+  La3  1  0.13476350  0.75236337  0.43391917  1
  La3+  La4  1  0.75687807  0.88449819  0.60557661  1
  La3+  La5  1  0.74086134  0.37304899  0.09913711  1
  Ce3+  Ce6  1  0.50949727  0.37670874  0.05048825  1
  Ce3+  Ce7  1  0.50494961  0.37638377  0.57046872  1
  Ce3+  Ce8  1  0.75711176  0.37738775  0.56767853  1
  Ce3+  Ce9  1  0.63481643  -0.00318675  0.43872351  1
  Ce3+  Ce10  1  0.75657427  0.87284273  0.05833717  1
  Ce3+  Ce11  1  0.25421206  0.62282582  0.56078160  1
  Pr3+  Pr12  1  0.50640119  0.87376279  0.57153284  1
  Pr3+  Pr13  1  0.88317116  0.49701483  0.94661590  1
  Pr3+  Pr14  1  0.13827343  0.74891042  0.92441944  1
  Pr3+  Pr15  1  0.50711178  0.62818281  0.57179989  1
  Pr3+  Pr16  1  0.25386790  0.87377184  0.56539014  1
  Pr3+  Pr17  1  0.25806249  0.35969339  0.57344922  1
  Pr3+  Pr18  1  0.25860624  0.12057349  0.06632285  1
  Pr3+  Pr19  1  0.87927968  0.50082628  0.43235377  1
  Pr3+  Pr20  1  0.25493414  0.11982538  0.55845286  1
  Pr3+  Pr21  1  0.00606666  0.37225766  0.55957390  1
  Pr3+  Pr22  1  0.13646955  0.25476160  0.92656532  1
  Pr3+  Pr23  1  0.26133112  0.36892956  0.07094436  1
  Pr3+  Pr24  1  0.00698738  0.62648882  0.06376430  1
  Pr3+  Pr25  1  0.51571403  0.12852612  0.05848198  1
  Pr3+  Pr26  1  0.13565940  0.50086747  0.93880503  1
  Pr3+  Pr27  1  0.63368564  0.00100334  0.93287218  1
  Pr3+  Pr28  1  0.38738193  -0.01027499  0.42675055  1
  Pr3+  Pr29  1  0.88181672  0.74872447  0.93462611  1
  Pr3+  Pr30  1  0.63130743  0.25064212  0.44463416  1
  Nd3+  Nd31  1  0.50604965  0.12022839  0.56273186  1
  Nd3+  Nd32  1  0.38277040  0.75647960  0.93402391  1
  Nd3+  Nd33  1  0.62945797  0.74786942  0.44328711  1
  Nd3+  Nd34  1  0.62802495  0.75810370  0.92390995  1
  Nd3+  Nd35  1  0.63128791  0.49743392  0.44688371  1
  Nd3+  Nd36  1  0.38364868  0.25080543  0.93336231  1
  Nd3+  Nd37  1  0.00652550  0.13012556  0.06255145  1
  Nd3+  Nd38  1  0.12747026  0.00428973  0.43442467  1
  Nd3+  Nd39  1  0.25971349  0.63263106  0.06615919  1
  Nd3+  Nd40  1  0.13533041  0.00565716  0.93319417  1
  Nd3+  Nd41  1  0.88498109  0.25741701  0.94480440  1
  Nd3+  Nd42  1  0.86998636  0.25282189  0.40132460  1
  Nd3+  Nd43  1  0.38298387  0.24234378  0.43114272  1
  Nd3+  Nd44  1  0.00095813  0.12490216  0.55037772  1
  Nd3+  Nd45  1  0.63594568  0.50858106  0.92539715  1
  Nd3+  Nd46  1  0.62722586  0.25564785  0.92110240  1
  Nd3+  Nd47  1  0.51269886  0.62606955  0.05350522  1
  Nd3+  Nd48  1  0.38837590  0.74971744  0.43268225  1
  Nd3+  Nd49  1  0.13374858  0.49600360  0.44277776  1
  Nd3+  Nd50  1  0.76007187  0.62350546  0.56938599  1
  Sm3+  Sm51  1  0.75751883  0.12272596  0.55679447  1
  Sm3+  Sm52  1  0.88408082  0.00369362  0.94160774  1
  Sm3+  Sm53  1  0.00586960  0.62397471  0.55408186  1
  Sm3+  Sm54  1  0.75728479  0.12928216  0.05006956  1
  Sm3+  Sm55  1  0.38117247  0.49672291  0.45081421  1
  Sm3+  Sm56  1  0.38038925  0.50169596  0.94272010  1
  Sm3+  Sm57  1  0.00707584  0.87492504  0.04922122  1
  Sm3+  Sm58  1  0.38531508  0.00089239  0.94764724  1
  Sm3+  Sm59  1  0.87948884  -0.00254738  0.44080069  1
  Sm3+  Sm60  1  0.75406287  0.62279665  0.05870792  1
  Sm3+  Sm61  1  0.25616642  0.87607591  0.06439817  1
  Sm3+  Sm62  1  0.87976298  0.74625451  0.43903550  1
  Sm3+  Sm63  1  0.00599026  0.87273152  0.56524312  1
  Bi2+  Bi64  1  -0.01534211  0.06929599  0.30160887  1
  Bi2+  Bi65  1  0.05695926  0.15550975  0.76024529  1
  Bi2+  Bi66  1  0.00501135  0.35222333  0.28678756  1
  Bi2+  Bi67  1  -0.02042799  0.39112675  0.79665058  1
  Bi2+  Bi68  1  -0.00555894  0.64014304  0.28790273  1
  Bi2+  Bi69  1  0.02315669  0.65106212  0.78661845  1
  Bi2+  Bi70  1  -0.07106670  0.83063313  0.29375625  1
  Bi2+  Bi71  1  -0.00057524  0.93915439  0.79226620  1
  Bi2+  Bi72  1  0.23803313  0.13076758  0.30490225  1
  Bi2+  Bi73  1  0.26115658  0.11724035  0.79983105  1
  Bi2+  Bi74  1  0.25555762  0.40539798  0.29068450  1
  Bi2+  Bi75  1  0.25327051  0.39545590  0.79392529  1
  Bi2+  Bi76  1  0.27407562  0.63718154  0.30311650  1
  Bi2+  Bi77  1  0.29134724  0.66245123  0.76335724  1
  Bi2+  Bi78  1  0.21525287  0.79257747  0.24216754  1
  Bi2+  Bi79  1  0.18126237  0.89459354  0.81875927  1
  Bi2+  Bi80  1  0.51424474  0.10359835  0.29071029  1
  Bi2+  Bi81  1  0.50738098  0.09215732  0.80044861  1
  Bi2+  Bi82  1  0.51570377  0.30479885  0.31141158  1
  Bi2+  Bi83  1  0.46965727  0.32085332  0.75627795  1
  Bi2+  Bi84  1  0.46966027  0.60612765  0.29234657  1
  Bi2+  Bi85  1  0.52726997  0.61645271  0.79393051  1
  Bi2+  Bi86  1  0.46640912  0.85155870  0.29232199  1
  Bi2+  Bi87  1  0.49664642  0.89604466  0.79256793  1
  Bi2+  Bi88  1  0.71230021  0.10362133  0.29405413  1
  Bi2+  Bi89  1  0.69607588  0.16762212  0.80576114  1
  Bi2+  Bi90  1  0.73488480  0.37999429  0.28576319  1
  Bi2+  Bi91  1  0.72627717  0.38096566  0.79769550  1
  Bi2+  Bi92  1  0.72484704  0.62803085  0.29792430  1
  Bi2+  Bi93  1  0.79528539  0.63386636  0.78692170  1
  Bi2+  Bi94  1  0.72919236  0.82150879  0.28467420  1
  Bi2+  Bi95  1  0.76465813  0.90666752  0.78623825  1
  Bi2+  Bi96  1  0.07679339  -0.06961362  0.23930255  1
  Bi2+  Bi97  1  0.16007677  0.00191242  0.71252319  1
  Bi2+  Bi98  1  0.12885097  0.23154801  0.19396137  1
  Bi2+  Bi99  1  0.13384559  0.30388311  0.70279578  1
  Bi2+  Bi100  1  0.18885850  0.52786818  0.20778053  1
  Bi2+  Bi101  1  0.14008761  0.55628093  0.70548823  1
  Bi2+  Bi102  1  0.07378345  0.68610322  0.18590996  1
  Bi2+  Bi103  1  0.12052830  0.79171912  0.72735246  1
  Bi2+  Bi104  1  0.35909355  0.02514851  0.20437438  1
  Bi2+  Bi105  1  0.34102322  -0.01329826  0.66918238  1
  Bi2+  Bi106  1  0.37376134  0.27109468  0.23200628  1
  Bi2+  Bi107  1  0.36801434  0.17544963  0.70767058  1
  Bi2+  Bi108  1  0.36883116  0.45344970  0.18105469  1
  Bi2+  Bi109  1  0.40492878  0.50633433  0.73189678  1
  Bi2+  Bi110  1  0.36626033  0.65300958  0.19492090  1
  Bi2+  Bi111  1  0.38292481  0.81302763  0.71496493  1
  Bi2+  Bi112  1  0.64750130  -0.02965020  0.22276594  1
  Bi2+  Bi113  1  0.62021092  0.09284220  0.70603064  1
  Bi2+  Bi114  1  0.58691010  0.22429144  0.20311290  1
  Bi2+  Bi115  1  0.64594196  0.28889864  0.70121501  1
  Bi2+  Bi116  1  0.54178996  0.45282252  0.23434688  1
  Bi2+  Bi117  1  0.64033932  0.49857155  0.71624719  1
  Bi2+  Bi118  1  0.66403340  0.69560716  0.19369349  1
  Bi2+  Bi119  1  0.63100390  0.72925217  0.71922659  1
  Bi2+  Bi120  1  0.84681931  -0.02862880  0.21774715  1
  Bi2+  Bi121  1  0.90276906  0.04698587  0.70965042  1
  Bi2+  Bi122  1  0.86852812  0.19977402  0.19635612  1
  Bi2+  Bi123  1  0.84003588  0.25103720  0.74287674  1
  Bi2+  Bi124  1  0.85519165  0.58925982  0.20976026  1
  Bi2+  Bi125  1  0.90318672  0.50347181  0.70825672  1
  Bi2+  Bi126  1  0.86480032  0.78397468  0.18006652  1
  Bi2+  Bi127  1  0.90351516  0.75646103  0.70985284  1
  S2-  S128  1  0.01450745  0.11251707  0.16224983  1
  S2-  S129  1  0.00944312  0.12506601  0.65132136  1
  S2-  S130  1  -0.02058461  0.31896047  0.18205225  1
  S2-  S131  1  -0.01321215  0.38451795  0.66129286  1
  S2-  S132  1  -0.01080176  0.53490630  0.14984520  1
  S2-  S133  1  -0.00505224  0.63069734  0.65237855  1
  S2-  S134  1  0.02225740  0.85423871  0.14668844  1
  S2-  S135  1  -0.08433783  0.88663437  0.65095669  1
  S2-  S136  1  0.28374514  0.21978060  0.15019014  1
  S2-  S137  1  0.22992023  0.22035400  0.64080012  1
  S2-  S138  1  0.15368158  0.38004951  0.15005709  1
  S2-  S139  1  0.23150569  0.43703033  0.66633263  1
  S2-  S140  1  0.25174355  0.75764537  0.13849131  1
  S2-  S141  1  0.25153263  0.66118860  0.65572825  1
  S2-  S142  1  0.24298972  0.99288594  0.13999843  1
  S2-  S143  1  0.13003943  0.87488192  0.63893255  1
  S2-  S144  1  0.49881367  0.09696770  0.15728471  1
  S2-  S145  1  0.51331982  0.00877629  0.64062678  1
  S2-  S146  1  0.57788806  0.36676299  0.14022240  1
  S2-  S147  1  0.44006399  0.29946977  0.64952430  1
  S2-  S148  1  0.51678000  0.70338123  0.14311049  1
  S2-  S149  1  0.51345135  0.50784639  0.64864796  1
  S2-  S150  1  0.43823975  0.88962381  0.18832851  1
  S2-  S151  1  0.50452149  0.74870562  0.64762365  1
  S2-  S152  1  0.72038068  0.17863769  0.14052433  1
  S2-  S153  1  0.76366503  0.05551385  0.64709091  1
  S2-  S154  1  0.78585640  0.35282209  0.19868821  1
  S2-  S155  1  0.77075142  0.49329083  0.64353329  1
  S2-  S156  1  0.72055335  0.54584045  0.14535069  1
  S2-  S157  1  0.76401086  0.72150142  0.65277612  1
  S2-  S158  1  0.66434563  0.87364621  0.14149958  1
  S2-  S159  1  0.67445585  0.88495184  0.70179389  1
  S2-  S160  1  0.14319755  -0.01237821  0.33523821  1
  S2-  S161  1  0.11574040  0.12057781  0.85654390  1
  S2-  S162  1  0.08650693  0.20746472  0.32553210  1
  S2-  S163  1  0.11545486  0.39067552  0.85727110  1
  S2-  S164  1  0.11229471  0.42840185  0.35180503  1
  S2-  S165  1  0.12055292  0.61321585  0.85760609  1
  S2-  S166  1  0.13358728  0.72935858  0.33420566  1
  S2-  S167  1  0.27235516  0.75629528  0.85395680  1
  S2-  S168  1  0.37636636  0.11307724  0.35404310  1
  S2-  S169  1  0.37423970  -0.00417577  0.84768058  1
  S2-  S170  1  0.27100495  0.27968765  0.35657251  1
  S2-  S171  1  0.27478487  0.25866482  0.85496988  1
  S2-  S172  1  0.37363132  0.49689003  0.35132758  1
  S2-  S173  1  0.34088308  0.49927958  0.84628691  1
  S2-  S174  1  0.34913424  0.86150503  0.35444666  1
  S2-  S175  1  0.48947045  0.75786496  0.85172584  1
  S2-  S176  1  0.54371809  -0.03289828  0.35615846  1
  S2-  S177  1  0.64765457  -0.10542509  0.85128048  1
  S2-  S178  1  0.71149743  0.25044215  0.35468370  1
  S2-  S179  1  0.49445211  0.24538879  0.85142524  1
  S2-  S180  1  0.64840215  0.49918904  0.34796996  1
  S2-  S181  1  0.58729936  0.44899132  0.83461262  1
  S2-  S182  1  0.52151791  0.73247806  0.36210425  1
  S2-  S183  1  0.67007702  0.63950884  0.85235332  1
  S2-  S184  1  0.83286875  0.02215218  0.34674684  1
  S2-  S185  1  0.87127109  0.01282675  0.84321133  1
  S2-  S186  1  0.89954279  0.21414557  0.30005128  1
  S2-  S187  1  0.91777173  0.26479627  0.84552975  1
  S2-  S188  1  0.87752162  0.40421033  0.34603138  1
  S2-  S189  1  0.88830218  0.51714784  0.84561705  1
  S2-  S190  1  0.87219438  0.63476107  0.36133519  1
  S2-  S191  1  0.84982937  0.77244939  0.83566091  1
  S2-  S192  1  -0.00357600  0.12919198  0.44321384  1
  S2-  S193  1  0.00385935  0.12772034  0.95651986  1
  S2-  S194  1  -0.00107187  0.37013397  0.45280067  1
  S2-  S195  1  0.00964447  0.37589745  0.96597797  1
  S2-  S196  1  0.01155731  0.62353778  0.45059029  1
  S2-  S197  1  0.00489339  0.62682584  0.95770365  1
  S2-  S198  1  0.00253666  0.87382039  0.44806953  1
  S2-  S199  1  0.00785730  0.87758897  0.94404233  1
  S2-  S200  1  0.25179115  0.12232333  0.45218584  1
  S2-  S201  1  0.26086106  0.12348071  0.95849962  1
  S2-  S202  1  0.25945661  0.37619992  0.46391180  1
  S2-  S203  1  0.26196406  0.37642133  0.96253703  1
  S2-  S204  1  0.25909712  0.62334312  0.45200435  1
  S2-  S205  1  0.26339424  0.62738819  0.96043986  1
  S2-  S206  1  0.25094278  0.87890937  0.45793905  1
  S2-  S207  1  0.25718248  0.88214578  0.95865223  1
  S2-  S208  1  0.51196217  0.12119148  0.45607856  1
  S2-  S209  1  0.51013253  0.12421209  0.95185775  1
  S2-  S210  1  0.50407921  0.37377574  0.45833052  1
  S2-  S211  1  0.50583739  0.38114383  0.94728884  1
  S2-  S212  1  0.50520426  0.61909572  0.46401184  1
  S2-  S213  1  0.50495425  0.62416476  0.94900992  1
  S2-  S214  1  0.50956948  0.87137390  0.46433313  1
  S2-  S215  1  0.50770276  0.88111460  0.95631570  1
  S2-  S216  1  0.76132911  0.12716714  0.45400695  1
  S2-  S217  1  0.75966281  0.12918517  0.94578903  1
  S2-  S218  1  0.75857164  0.37343869  0.46023950  1
  S2-  S219  1  0.75492672  0.37432641  0.93633179  1
  S2-  S220  1  0.75296930  0.62484299  0.46147257  1
  S2-  S221  1  0.76020165  0.62635579  0.95570758  1
  S2-  S222  1  0.75818237  0.86893071  0.44018594  1
  S2-  S223  1  0.76344064  0.87849571  0.95305667  1
  S2-  S224  1  0.12449985  0.00008448  0.03986736  1
  S2-  S225  1  0.12478530  0.00015233  0.54090488  1
  S2-  S226  1  0.13266575  0.24779201  0.04643929  1
  S2-  S227  1  0.12663556  0.24666754  0.53568175  1
  S2-  S228  1  0.13857291  0.50729046  0.04769505  1
  S2-  S229  1  0.13030195  0.49777152  0.54922759  1
  S2-  S230  1  0.13006983  0.75438897  0.03649245  1
  S2-  S231  1  0.12830850  0.74691838  0.54178605  1
  S2-  S232  1  0.39313529  -0.00396478  0.05111146  1
  S2-  S233  1  0.37974269  -0.00256896  0.53758636  1
  S2-  S234  1  0.38791112  0.24959620  0.04228261  1
  S2-  S235  1  0.38324577  0.24093944  0.53820248  1
  S2-  S236  1  0.38344836  0.50432284  0.04844579  1
  S2-  S237  1  0.37544819  0.49705703  0.55495372  1
  S2-  S238  1  0.38766118  0.75550892  0.04190432  1
  S2-  S239  1  0.37696003  0.74914560  0.54308936  1
  S2-  S240  1  0.63672553  0.00235771  0.04150526  1
  S2-  S241  1  0.63945882  -0.00544509  0.54415786  1
  S2-  S242  1  0.63704562  0.25532459  0.03063641  1
  S2-  S243  1  0.63164119  0.24646004  0.55316357  1
  S2-  S244  1  0.63402675  0.49916778  0.03497712  1
  S2-  S245  1  0.63215628  0.49929936  0.54981247  1
  S2-  S246  1  0.63548620  0.74925713  0.03542562  1
  S2-  S247  1  0.63954358  0.75367166  0.54874202  1
  S2-  S248  1  0.88175731  0.00209767  0.04808047  1
  S2-  S249  1  0.87940113  -0.00553315  0.54326557  1
  S2-  S250  1  0.87767364  0.25758605  0.05262571  1
  S2-  S251  1  0.87696048  0.24850613  0.55895398  1
  S2-  S252  1  0.87166446  0.49439561  0.05181406  1
  S2-  S253  1  0.88529775  0.50048167  0.54117463  1
  S2-  S254  1  0.88141057  0.74893322  0.04325186  1
  S2-  S255  1  0.88554648  0.74957479  0.54237754  1
