# generated using pymatgen
data_La6Ce6Pr19Nd20Sm13(BiS2)64
_symmetry_space_group_name_H-M   'P 1'
_cell_length_a   16.05777018
_cell_length_b   16.03926760
_cell_length_c   27.52316322
_cell_angle_alpha   89.93383813
_cell_angle_beta   89.70660251
_cell_angle_gamma   90.04829365
_symmetry_Int_Tables_number   1
_chemical_formula_structural   La6Ce6Pr19Nd20Sm13(BiS2)64
_chemical_formula_sum   'La6 Ce6 Pr19 Nd20 Sm13 Bi64 S128'
_cell_volume   7088.62458531
_cell_formula_units_Z   1
loop_
 _symmetry_equiv_pos_site_id
 _symmetry_equiv_pos_as_xyz
  1  'x, y, z'
loop_
 _atom_type_symbol
 _atom_type_oxidation_number
  La3+  3.0
  Ce3+  3.0
  Pr3+  3.0
  Nd3+  3.0
  Sm3+  3.0
  Bi2+  2.0
  S2-  -2.0
loop_
 _atom_site_type_symbol
 _atom_site_label
 _atom_site_symmetry_multiplicity
 _atom_site_fract_x
 _atom_site_fract_y
 _atom_site_fract_z
 _atom_site_occupancy
  La3+  La0  1  0.27280442  0.13820091  0.56918602  1
  La3+  La1  1  0.74891844  0.36447201  0.08906391  1
  La3+  La2  1  0.28257510  0.63422722  0.55843116  1
  La3+  La3  1  0.76725978  0.39373516  0.59087766  1
  La3+  La4  1  0.52599836  0.63169675  0.12324929  1
  La3+  La5  1  0.61428342  -0.00892515  0.88713491  1
  Ce3+  Ce6  1  0.86773798  0.00614931  0.92945344  1
  Ce3+  Ce7  1  0.65614777  0.50706057  0.42430012  1
  Ce3+  Ce8  1  0.49154463  0.37736820  0.07088601  1
  Ce3+  Ce9  1  0.40391258  0.76313010  0.43083440  1
  Ce3+  Ce10  1  0.40336784  0.01111121  0.44615967  1
  Ce3+  Ce11  1  0.15348058  0.75905256  0.42880736  1
  Pr3+  Pr12  1  0.16240987  0.00962751  0.42957958  1
  Pr3+  Pr13  1  0.66068793  0.25603685  0.42611137  1
  Pr3+  Pr14  1  0.74136888  0.12361668  0.05175853  1
  Pr3+  Pr15  1  -0.00769946  0.12069363  0.06265991  1
  Pr3+  Pr16  1  0.90704757  0.26311761  0.43420753  1
  Pr3+  Pr17  1  0.86772299  0.25491506  0.93327201  1
  Pr3+  Pr18  1  0.11909621  0.74980742  0.94011539  1
  Pr3+  Pr19  1  0.90235121  0.00889602  0.44052294  1
  Pr3+  Pr20  1  0.90171429  0.50940863  0.43434513  1
  Pr3+  Pr21  1  0.25068192  0.62981172  0.07173697  1
  Pr3+  Pr22  1  0.52945307  0.14093772  0.56108187  1
  Pr3+  Pr23  1  0.40677843  0.51012250  0.42084797  1
  Pr3+  Pr24  1  -0.00539354  0.37521419  0.06541317  1
  Pr3+  Pr25  1  0.52453551  0.88091104  0.56882746  1
  Pr3+  Pr26  1  0.49347962  0.13012370  0.05754085  1
  Pr3+  Pr27  1  0.73985363  0.87127435  0.06011597  1
  Pr3+  Pr28  1  0.87275157  0.50211622  0.94056952  1
  Pr3+  Pr29  1  0.65181365  0.76395271  0.43230541  1
  Pr3+  Pr30  1  0.15485440  0.25780141  0.42242606  1
  Nd3+  Nd31  1  0.37174950  0.25653684  0.93074656  1
  Nd3+  Nd32  1  -0.00165872  0.63432573  0.07856732  1
  Nd3+  Nd33  1  -0.00563003  0.87868179  0.06383397  1
  Nd3+  Nd34  1  0.37065676  0.75178503  0.93989194  1
  Nd3+  Nd35  1  0.37166375  0.50074100  0.94052578  1
  Nd3+  Nd36  1  0.86991537  0.75002117  0.93738653  1
  Nd3+  Nd37  1  0.11898947  0.25098614  0.94279239  1
  Nd3+  Nd38  1  0.77737387  0.88830557  0.57900785  1
  Nd3+  Nd39  1  0.62083299  0.25647985  0.93399817  1
  Nd3+  Nd40  1  0.15364907  0.50998573  0.43958434  1
  Nd3+  Nd41  1  0.11907518  -0.00102669  0.92864236  1
  Nd3+  Nd42  1  0.52958524  0.38540279  0.54974549  1
  Nd3+  Nd43  1  0.02943301  0.88351773  0.56260037  1
  Nd3+  Nd44  1  0.49182277  0.87394997  0.05603610  1
  Nd3+  Nd45  1  0.53035751  0.63138385  0.55256852  1
  Nd3+  Nd46  1  0.24574470  0.88618018  0.06100973  1
  Nd3+  Nd47  1  0.27165701  0.38583813  0.56169338  1
  Nd3+  Nd48  1  0.03135752  0.63640359  0.56294659  1
  Nd3+  Nd49  1  0.90223080  0.76239385  0.43454383  1
  Nd3+  Nd50  1  0.78007154  0.13920178  0.56702503  1
  Sm3+  Sm51  1  0.39799021  0.26063555  0.43898798  1
  Sm3+  Sm52  1  0.61741974  0.75147726  0.94181814  1
  Sm3+  Sm53  1  0.78018548  0.63332736  0.55586746  1
  Sm3+  Sm54  1  0.02485083  0.38320079  0.56399147  1
  Sm3+  Sm55  1  0.12015465  0.50519587  0.95258791  1
  Sm3+  Sm56  1  0.27526779  0.88312915  0.56413479  1
  Sm3+  Sm57  1  0.24613202  0.37556171  0.05881537  1
  Sm3+  Sm58  1  0.02697412  0.13732795  0.55334024  1
  Sm3+  Sm59  1  0.24615399  0.12516037  0.05184836  1
  Sm3+  Sm60  1  0.65458612  0.00967144  0.44734295  1
  Sm3+  Sm61  1  0.36799335  0.00849909  0.92420317  1
  Sm3+  Sm62  1  0.62079271  0.49410865  0.95172246  1
  Sm3+  Sm63  1  0.74687201  0.62284065  0.05462450  1
  Bi2+  Bi64  1  0.01874826  0.18433678  0.27895569  1
  Bi2+  Bi65  1  0.01897709  0.08216117  0.79645993  1
  Bi2+  Bi66  1  -0.06967481  0.39470549  0.24122474  1
  Bi2+  Bi67  1  -0.02482897  0.39348225  0.77632223  1
  Bi2+  Bi68  1  -0.02550337  0.63253405  0.30048860  1
  Bi2+  Bi69  1  0.03563746  0.67246833  0.81432025  1
  Bi2+  Bi70  1  0.09127553  0.89748548  0.29605687  1
  Bi2+  Bi71  1  0.00227508  0.88612917  0.83369346  1
  Bi2+  Bi72  1  0.27026400  0.13863720  0.29801851  1
  Bi2+  Bi73  1  0.21883126  0.12723721  0.79499960  1
  Bi2+  Bi74  1  0.15768078  0.37098789  0.30019460  1
  Bi2+  Bi75  1  0.25017579  0.36716266  0.79388726  1
  Bi2+  Bi76  1  0.21290178  0.63962057  0.29927912  1
  Bi2+  Bi77  1  0.29200606  0.62134801  0.79413289  1
  Bi2+  Bi78  1  0.28329988  0.92407411  0.27348916  1
  Bi2+  Bi79  1  0.18530732  0.87330560  0.78079357  1
  Bi2+  Bi80  1  0.49619343  0.10167428  0.28336692  1
  Bi2+  Bi81  1  0.48003902  0.10371231  0.78466859  1
  Bi2+  Bi82  1  0.46720219  0.29774993  0.28122164  1
  Bi2+  Bi83  1  0.44386929  0.38943825  0.76108555  1
  Bi2+  Bi84  1  0.45721104  0.65785161  0.30808283  1
  Bi2+  Bi85  1  0.48341447  0.59010252  0.79886900  1
  Bi2+  Bi86  1  0.49620308  0.90451951  0.23910742  1
  Bi2+  Bi87  1  0.52911160  0.77406997  0.76812981  1
  Bi2+  Bi88  1  0.75764776  0.12016145  0.29150522  1
  Bi2+  Bi89  1  0.74996130  0.12255386  0.79406496  1
  Bi2+  Bi90  1  0.75530566  0.36578314  0.28653201  1
  Bi2+  Bi91  1  0.75369140  0.32673816  0.79947907  1
  Bi2+  Bi92  1  0.77584217  0.63486974  0.28792788  1
  Bi2+  Bi93  1  0.75756188  0.60988740  0.79855194  1
  Bi2+  Bi94  1  0.70507958  0.90450480  0.31422696  1
  Bi2+  Bi95  1  0.78941251  0.80724486  0.81103202  1
  Bi2+  Bi96  1  0.11837336  0.02318293  0.20678252  1
  Bi2+  Bi97  1  0.10520600  -0.00033600  0.69901120  1
  Bi2+  Bi98  1  0.14683861  0.27156853  0.20398200  1
  Bi2+  Bi99  1  0.13200615  0.23250941  0.69020669  1
  Bi2+  Bi100  1  0.08452695  0.51006280  0.21927633  1
  Bi2+  Bi101  1  0.13576217  0.51006660  0.75671088  1
  Bi2+  Bi102  1  0.10347458  0.75331039  0.21504181  1
  Bi2+  Bi103  1  0.09958637  0.73620618  0.69876981  1
  Bi2+  Bi104  1  0.39731108  0.04878254  0.18494937  1
  Bi2+  Bi105  1  0.36733012  -0.12626683  0.73494495  1
  Bi2+  Bi106  1  0.34035808  0.23957623  0.19859476  1
  Bi2+  Bi107  1  0.31255389  0.31171225  0.68388602  1
  Bi2+  Bi108  1  0.34631455  0.49856548  0.21780924  1
  Bi2+  Bi109  1  0.37874634  0.49463656  0.66789424  1
  Bi2+  Bi110  1  0.34746419  0.77727240  0.20844998  1
  Bi2+  Bi111  1  0.34253289  0.69012853  0.68925938  1
  Bi2+  Bi112  1  0.66928458  0.00215208  0.21404568  1
  Bi2+  Bi113  1  0.62659682  0.01528542  0.67849124  1
  Bi2+  Bi114  1  0.60883657  0.21081547  0.21060651  1
  Bi2+  Bi115  1  0.60776888  0.25899988  0.69906872  1
  Bi2+  Bi116  1  0.58047576  0.46505116  0.24426114  1
  Bi2+  Bi117  1  0.63114248  0.46848409  0.76772449  1
  Bi2+  Bi118  1  0.67709155  0.77690128  0.21054352  1
  Bi2+  Bi119  1  0.69786009  0.73147850  0.71528553  1
  Bi2+  Bi120  1  0.93328493  0.00010716  0.25254036  1
  Bi2+  Bi121  1  0.91770881  -0.05074861  0.73412025  1
  Bi2+  Bi122  1  0.88611644  0.18187134  0.19591323  1
  Bi2+  Bi123  1  0.89281901  0.25942524  0.71178048  1
  Bi2+  Bi124  1  0.89139921  0.57939863  0.19840502  1
  Bi2+  Bi125  1  0.86536151  0.51412773  0.71195382  1
  Bi2+  Bi126  1  0.87177304  0.78091331  0.22374198  1
  Bi2+  Bi127  1  0.89732772  0.74621448  0.71482865  1
  S2-  S128  1  0.00009087  0.00292019  0.13720560  1
  S2-  S129  1  -0.00434706  0.15362009  0.65042337  1
  S2-  S130  1  -0.09792308  0.34068587  0.14748111  1
  S2-  S131  1  -0.07959745  0.38740676  0.64525831  1
  S2-  S132  1  0.12840125  0.62056438  0.14867147  1
  S2-  S133  1  -0.02049892  0.62098440  0.65800827  1
  S2-  S134  1  -0.02157216  0.77282014  0.14395385  1
  S2-  S135  1  -0.08366239  0.86837887  0.64144499  1
  S2-  S136  1  0.24668653  0.03391861  0.13423542  1
  S2-  S137  1  0.23951898  0.09587158  0.66529725  1
  S2-  S138  1  0.25717219  0.39578369  0.15615866  1
  S2-  S139  1  0.14923821  0.37504317  0.63699315  1
  S2-  S140  1  0.35179678  0.62305274  0.15580730  1
  S2-  S141  1  0.18586948  0.63716493  0.64247899  1
  S2-  S142  1  0.22208875  0.82507660  0.15379491  1
  S2-  S143  1  0.15158799  0.87289004  0.63669952  1
  S2-  S144  1  0.49196640  0.24204182  0.13798790  1
  S2-  S145  1  0.49686124  0.14047467  0.66100746  1
  S2-  S146  1  0.48567762  0.46442047  0.15864872  1
  S2-  S147  1  0.59838678  0.38553473  0.64120217  1
  S2-  S148  1  0.54325532  0.63346624  0.23010555  1
  S2-  S149  1  0.48979241  0.62783169  0.65021263  1
  S2-  S150  1  0.49674557  0.80762213  0.14840074  1
  S2-  S151  1  0.39159734  0.87823608  0.64032537  1
  S2-  S152  1  0.73833577  0.20133311  0.14247392  1
  S2-  S153  1  0.77645492  0.02756682  0.64626553  1
  S2-  S154  1  0.69956491  0.41484506  0.18799692  1
  S2-  S155  1  0.75756557  0.24323120  0.64995656  1
  S2-  S156  1  0.70007938  0.65721612  0.14619906  1
  S2-  S157  1  0.75422826  0.55040608  0.64147000  1
  S2-  S158  1  0.77368361  0.89969444  0.15762453  1
  S2-  S159  1  0.64071323  0.85680051  0.64580807  1
  S2-  S160  1  0.13477903  0.11902847  0.35091610  1
  S2-  S161  1  0.23547856  -0.00445317  0.85290976  1
  S2-  S162  1  0.02587403  0.30421003  0.35475255  1
  S2-  S163  1  0.13501969  0.25640103  0.84428913  1
  S2-  S164  1  0.09833932  0.52072121  0.34556141  1
  S2-  S165  1  0.09709815  0.52515825  0.85692840  1
  S2-  S166  1  0.02418712  0.76676639  0.35820922  1
  S2-  S167  1  0.19420073  0.74038255  0.84859939  1
  S2-  S168  1  0.31889351  0.00529699  0.36145406  1
  S2-  S169  1  0.45619235  -0.02247006  0.84134573  1
  S2-  S170  1  0.29831470  0.27489561  0.35754418  1
  S2-  S171  1  0.36562801  0.16763482  0.84269412  1
  S2-  S172  1  0.33306636  0.52486551  0.32525896  1
  S2-  S173  1  0.37695594  0.39114396  0.86158546  1
  S2-  S174  1  0.28028145  0.75617586  0.35540796  1
  S2-  S175  1  0.40707695  0.73585329  0.84221674  1
  S2-  S176  1  0.61916921  0.04764141  0.35386751  1
  S2-  S177  1  0.62554809  0.00488326  0.77293485  1
  S2-  S178  1  0.60986255  0.31998902  0.33447478  1
  S2-  S179  1  0.60581896  0.16400542  0.84659205  1
  S2-  S180  1  0.54322529  0.52957094  0.34943536  1
  S2-  S181  1  0.63286377  0.39673701  0.86849494  1
  S2-  S182  1  0.52585140  0.78204950  0.35762854  1
  S2-  S183  1  0.62616273  0.81683959  0.85130506  1
  S2-  S184  1  0.85293353  -0.00822327  0.34406177  1
  S2-  S185  1  0.77847660  -0.02225673  0.84758631  1
  S2-  S186  1  0.80035996  0.24071970  0.35361299  1
  S2-  S187  1  0.89103278  0.14614150  0.85313813  1
  S2-  S188  1  0.78846478  0.50256045  0.35323214  1
  S2-  S189  1  0.87751531  0.38629852  0.86202884  1
  S2-  S190  1  0.77892691  0.77193905  0.35871256  1
  S2-  S191  1  0.89387530  0.62632030  0.86558425  1
  S2-  S192  1  0.02797852  0.13228789  0.45131892  1
  S2-  S193  1  -0.00103122  0.12458736  0.95594085  1
  S2-  S194  1  0.02856765  0.38940064  0.45950551  1
  S2-  S195  1  0.00009204  0.37810456  0.96054100  1
  S2-  S196  1  0.02699950  0.63378362  0.45555111  1
  S2-  S197  1  -0.00298176  0.62679379  0.97034760  1
  S2-  S198  1  0.03151596  0.88991530  0.45520230  1
  S2-  S199  1  -0.00734396  0.87604662  0.95591508  1
  S2-  S200  1  0.27963792  0.13678948  0.46069468  1
  S2-  S201  1  0.24364277  0.12883289  0.95078413  1
  S2-  S202  1  0.27922470  0.38923134  0.45552606  1
  S2-  S203  1  0.23947990  0.37794843  0.95579188  1
  S2-  S204  1  0.28098109  0.63018374  0.45160827  1
  S2-  S205  1  0.24680472  0.62451333  0.95828160  1
  S2-  S206  1  0.27945850  0.88439361  0.46062520  1
  S2-  S207  1  0.24717523  0.87623486  0.95323754  1
  S2-  S208  1  0.52552391  0.13986073  0.45401263  1
  S2-  S209  1  0.49233705  0.12789344  0.95204358  1
  S2-  S210  1  0.52501119  0.37991114  0.44587304  1
  S2-  S211  1  0.49368364  0.37673648  0.96465159  1
  S2-  S212  1  0.52858958  0.63512062  0.45043415  1
  S2-  S213  1  0.49940772  0.62155493  0.94561227  1
  S2-  S214  1  0.52888653  0.89069442  0.46127371  1
  S2-  S215  1  0.49575110  0.87765940  0.95118240  1
  S2-  S216  1  0.77767486  0.13121627  0.45885115  1
  S2-  S217  1  0.73937210  0.12601852  0.94854406  1
  S2-  S218  1  0.77833625  0.38313487  0.45195930  1
  S2-  S219  1  0.74971719  0.37947634  0.96952365  1
  S2-  S220  1  0.77775079  0.63545586  0.45345490  1
  S2-  S221  1  0.73913112  0.62462092  0.95256068  1
  S2-  S222  1  0.77602528  0.88798122  0.46438338  1
  S2-  S223  1  0.74334341  0.87230062  0.95502665  1
  S2-  S224  1  0.12031403  0.00306365  0.03352067  1
  S2-  S225  1  0.15233008  0.01284247  0.54094925  1
  S2-  S226  1  0.12047124  0.24791498  0.05054052  1
  S2-  S227  1  0.15042795  0.25922377  0.53671332  1
  S2-  S228  1  0.12104615  0.49803503  0.05435909  1
  S2-  S229  1  0.15037746  0.51009136  0.54269754  1
  S2-  S230  1  0.12239399  0.75622262  0.04485950  1
  S2-  S231  1  0.15392114  0.75869132  0.53538654  1
  S2-  S232  1  0.37244238  0.00392174  0.03394831  1
  S2-  S233  1  0.40064717  0.01505168  0.54942543  1
  S2-  S234  1  0.36330604  0.25153467  0.03957112  1
  S2-  S235  1  0.40032105  0.26314713  0.54420513  1
  S2-  S236  1  0.36503607  0.49737813  0.04449562  1
  S2-  S237  1  0.40352601  0.50637397  0.53469919  1
  S2-  S238  1  0.36569967  0.75611690  0.04379502  1
  S2-  S239  1  0.40477926  0.75771069  0.53846582  1
  S2-  S240  1  0.61519140  0.00028317  0.06074480  1
  S2-  S241  1  0.64927852  0.01165694  0.54851823  1
  S2-  S242  1  0.62086309  0.25519154  0.04095062  1
  S2-  S243  1  0.65452549  0.26144088  0.53735822  1
  S2-  S244  1  0.62258187  0.50055897  0.05552466  1
  S2-  S245  1  0.65353524  0.50954029  0.53340035  1
  S2-  S246  1  0.61428109  0.74459613  0.04453968  1
  S2-  S247  1  0.65503190  0.75445373  0.54217925  1
  S2-  S248  1  0.86513662  -0.00176124  0.03887517  1
  S2-  S249  1  0.90614713  0.01251756  0.54509724  1
  S2-  S250  1  0.87267503  0.24635322  0.03971309  1
  S2-  S251  1  0.90403343  0.25999750  0.54132956  1
  S2-  S252  1  0.87131213  0.50330619  0.05413121  1
  S2-  S253  1  0.90398077  0.51166967  0.54113317  1
  S2-  S254  1  0.86677759  0.74900015  0.04277739  1
  S2-  S255  1  0.90149332  0.75657574  0.54057508  1
