# generated using pymatgen
data_La6Ce6Pr19Nd20Sm13(BiS2)64
_symmetry_space_group_name_H-M   'P 1'
_cell_length_a   16.07246511
_cell_length_b   16.10676754
_cell_length_c   27.34222151
_cell_angle_alpha   89.99485648
_cell_angle_beta   89.94271327
_cell_angle_gamma   89.85427366
_symmetry_Int_Tables_number   1
_chemical_formula_structural   La6Ce6Pr19Nd20Sm13(BiS2)64
_chemical_formula_sum   'La6 Ce6 Pr19 Nd20 Sm13 Bi64 S128'
_cell_volume   7078.20369434
_cell_formula_units_Z   1
loop_
 _symmetry_equiv_pos_site_id
 _symmetry_equiv_pos_as_xyz
  1  'x, y, z'
loop_
 _atom_type_symbol
 _atom_type_oxidation_number
  La3+  3.0
  Ce3+  3.0
  Pr3+  3.0
  Nd3+  3.0
  Sm3+  3.0
  Bi2+  2.0
  S2-  -2.0
loop_
 _atom_site_type_symbol
 _atom_site_label
 _atom_site_symmetry_multiplicity
 _atom_site_fract_x
 _atom_site_fract_y
 _atom_site_fract_z
 _atom_site_occupancy
  La3+  La0  1  0.76885439  0.62330125  0.61178310  1
  La3+  La1  1  0.49838843  0.64345926  0.59167575  1
  La3+  La2  1  0.37770562  0.25580356  0.88324244  1
  La3+  La3  1  0.74282807  0.61872423  0.11852744  1
  La3+  La4  1  0.87331661  0.76261485  0.42255349  1
  La3+  La5  1  0.86725799  0.25826771  0.42273359  1
  Ce3+  Ce6  1  0.25954092  0.87312058  0.05215201  1
  Ce3+  Ce7  1  0.25307656  0.62318375  0.06586857  1
  Ce3+  Ce8  1  -0.00092182  0.88063842  0.54462824  1
  Ce3+  Ce9  1  0.50831750  0.86910275  0.05872298  1
  Ce3+  Ce10  1  0.88565150  0.24768600  0.94065076  1
  Ce3+  Ce11  1  0.88163128  0.00749832  0.42992913  1
  Pr3+  Pr12  1  0.75877481  0.12574836  0.06929772  1
  Pr3+  Pr13  1  0.14018417  0.75744871  0.42415731  1
  Pr3+  Pr14  1  0.12845308  0.50641417  0.44454387  1
  Pr3+  Pr15  1  0.50071059  0.89609354  0.57058739  1
  Pr3+  Pr16  1  -0.00110983  0.63475200  0.55155292  1
  Pr3+  Pr17  1  0.25207466  0.63210507  0.56456163  1
  Pr3+  Pr18  1  0.38502614  0.00192432  0.93186489  1
  Pr3+  Pr19  1  0.01236013  0.37593783  0.06744629  1
  Pr3+  Pr20  1  0.24594513  0.88486864  0.55926721  1
  Pr3+  Pr21  1  0.13390371  0.49907197  0.93327143  1
  Pr3+  Pr22  1  0.38535118  0.50280414  0.92972572  1
  Pr3+  Pr23  1  0.63809837  0.74882997  0.93953327  1
  Pr3+  Pr24  1  -0.00569685  0.38444920  0.55741338  1
  Pr3+  Pr25  1  0.50535917  0.12634495  0.06241374  1
  Pr3+  Pr26  1  0.63447303  -0.00072771  0.94457037  1
  Pr3+  Pr27  1  0.13457191  0.00027784  0.93418715  1
  Pr3+  Pr28  1  0.25174583  0.37371419  0.58422176  1
  Pr3+  Pr29  1  0.75210896  0.88057039  0.56708108  1
  Pr3+  Pr30  1  0.24510496  0.12542372  0.57458255  1
  Nd3+  Nd31  1  0.62430350  0.25790116  0.43306799  1
  Nd3+  Nd32  1  0.12828324  0.25923253  0.44383998  1
  Nd3+  Nd33  1  0.50586375  0.38362361  0.56454917  1
  Nd3+  Nd34  1  0.89280120  0.75139826  0.93390436  1
  Nd3+  Nd35  1  0.63632903  0.50075127  0.94189428  1
  Nd3+  Nd36  1  0.87589088  0.50932988  0.43237009  1
  Nd3+  Nd37  1  0.01107451  0.87656675  0.06695124  1
  Nd3+  Nd38  1  -0.00101487  0.13353074  0.55921276  1
  Nd3+  Nd39  1  0.88347924  0.50166602  0.94729917  1
  Nd3+  Nd40  1  0.12924904  0.24854902  0.93096253  1
  Nd3+  Nd41  1  0.62671579  0.75550777  0.45290678  1
  Nd3+  Nd42  1  0.76012674  0.87440989  0.06715463  1
  Nd3+  Nd43  1  0.13238979  0.01469162  0.42749680  1
  Nd3+  Nd44  1  0.63129071  0.24900561  0.93605580  1
  Nd3+  Nd45  1  0.62494533  0.51183047  0.45145607  1
  Nd3+  Nd46  1  0.37826563  0.00878979  0.42820424  1
  Nd3+  Nd47  1  0.25917323  0.37656796  0.05376587  1
  Nd3+  Nd48  1  0.00298788  0.62787853  0.06906108  1
  Nd3+  Nd49  1  0.26471704  0.12448161  0.05973943  1
  Nd3+  Nd50  1  0.01798822  0.12683821  0.06672485  1
  Sm3+  Sm51  1  0.49999622  0.13298232  0.55166611  1
  Sm3+  Sm52  1  0.38498987  0.74464757  0.93757719  1
  Sm3+  Sm53  1  0.50848870  0.37698463  0.05293774  1
  Sm3+  Sm54  1  0.74966755  0.37784393  0.56050989  1
  Sm3+  Sm55  1  0.37524480  0.25847022  0.44708469  1
  Sm3+  Sm56  1  0.13453097  0.74802143  0.94260716  1
  Sm3+  Sm57  1  0.76168168  0.37730294  0.06367392  1
  Sm3+  Sm58  1  0.88419585  -0.00018548  0.94677377  1
  Sm3+  Sm59  1  0.50838465  0.62352199  0.06060152  1
  Sm3+  Sm60  1  0.37998442  0.75789194  0.44391388  1
  Sm3+  Sm61  1  0.38050080  0.50698247  0.44970317  1
  Sm3+  Sm62  1  0.62449690  0.00320979  0.43398104  1
  Sm3+  Sm63  1  0.75187980  0.13399410  0.55795465  1
  Bi2+  Bi64  1  0.02002405  0.12947482  0.28746596  1
  Bi2+  Bi65  1  -0.04962552  0.12681875  0.79322067  1
  Bi2+  Bi66  1  0.05670163  0.34738120  0.29457075  1
  Bi2+  Bi67  1  -0.05766232  0.34007584  0.77530576  1
  Bi2+  Bi68  1  0.00099844  0.59244864  0.30419929  1
  Bi2+  Bi69  1  -0.02634076  0.62615714  0.81042100  1
  Bi2+  Bi70  1  0.04657372  0.86444327  0.26604762  1
  Bi2+  Bi71  1  0.01661051  0.87307732  0.78527429  1
  Bi2+  Bi72  1  0.31957833  0.11985565  0.27544339  1
  Bi2+  Bi73  1  0.25105196  0.11826906  0.78166118  1
  Bi2+  Bi74  1  0.25162964  0.31699784  0.23988287  1
  Bi2+  Bi75  1  0.24107984  0.37826496  0.77652094  1
  Bi2+  Bi76  1  0.27254537  0.60745479  0.26706674  1
  Bi2+  Bi77  1  0.23887912  0.68804219  0.80832686  1
  Bi2+  Bi78  1  0.24198185  0.89009867  0.28644094  1
  Bi2+  Bi79  1  0.26792307  0.88224025  0.80080843  1
  Bi2+  Bi80  1  0.52304178  0.23260666  0.30608111  1
  Bi2+  Bi81  1  0.51371752  0.02518696  0.78066966  1
  Bi2+  Bi82  1  0.40619039  0.39048461  0.29827720  1
  Bi2+  Bi83  1  0.51982177  0.37860350  0.78865615  1
  Bi2+  Bi84  1  0.48839081  0.62224681  0.31091105  1
  Bi2+  Bi85  1  0.50701224  0.63769978  0.78597811  1
  Bi2+  Bi86  1  0.42277325  0.81160296  0.29564954  1
  Bi2+  Bi87  1  0.46253210  0.84716670  0.81649728  1
  Bi2+  Bi88  1  0.77032312  0.13356471  0.31326728  1
  Bi2+  Bi89  1  0.76588198  0.16326631  0.82954942  1
  Bi2+  Bi90  1  0.67405688  0.29839889  0.24583377  1
  Bi2+  Bi91  1  0.74448249  0.34478891  0.79245979  1
  Bi2+  Bi92  1  0.73083625  0.60717795  0.32173146  1
  Bi2+  Bi93  1  0.73863069  0.60883953  0.81524326  1
  Bi2+  Bi94  1  0.68426750  0.88027979  0.29420031  1
  Bi2+  Bi95  1  0.76297440  0.94611677  0.78394383  1
  Bi2+  Bi96  1  0.08859095  -0.00206864  0.18845436  1
  Bi2+  Bi97  1  0.11661274  -0.02427935  0.70323594  1
  Bi2+  Bi98  1  0.06594185  0.24992199  0.19229377  1
  Bi2+  Bi99  1  0.07470560  0.23907515  0.71167299  1
  Bi2+  Bi100  1  0.15342873  0.49309678  0.20806281  1
  Bi2+  Bi101  1  0.12012060  0.57462520  0.74423580  1
  Bi2+  Bi102  1  0.19809000  0.76091400  0.19724527  1
  Bi2+  Bi103  1  0.14621296  0.76524568  0.71212618  1
  Bi2+  Bi104  1  0.40928210  -0.01554504  0.21638485  1
  Bi2+  Bi105  1  0.38573389  -0.03213167  0.70727303  1
  Bi2+  Bi106  1  0.41865235  0.24830109  0.19491024  1
  Bi2+  Bi107  1  0.43263593  0.20598782  0.68407517  1
  Bi2+  Bi108  1  0.34500248  0.52157346  0.16932053  1
  Bi2+  Bi109  1  0.38649011  0.51626004  0.71459697  1
  Bi2+  Bi110  1  0.39041409  0.71193953  0.19358342  1
  Bi2+  Bi111  1  0.36527355  0.77025261  0.71770702  1
  Bi2+  Bi112  1  0.57832743  0.04411116  0.27327188  1
  Bi2+  Bi113  1  0.70869948  0.01817612  0.67080526  1
  Bi2+  Bi114  1  0.61958903  0.15237772  0.17536413  1
  Bi2+  Bi115  1  0.68673856  0.19445896  0.72545002  1
  Bi2+  Bi116  1  0.51819456  0.49766096  0.22237972  1
  Bi2+  Bi117  1  0.65640307  0.46221910  0.70942585  1
  Bi2+  Bi118  1  0.59865515  0.78097632  0.20955269  1
  Bi2+  Bi119  1  0.62883340  0.86128676  0.71764426  1
  Bi2+  Bi120  1  0.84735988  -0.02213633  0.26601344  1
  Bi2+  Bi121  1  0.89782729  0.00063571  0.70255709  1
  Bi2+  Bi122  1  0.80912748  0.17253439  0.20124314  1
  Bi2+  Bi123  1  0.89118712  0.19740376  0.68191056  1
  Bi2+  Bi124  1  0.86414845  0.47469508  0.21437102  1
  Bi2+  Bi125  1  0.92756650  0.49193693  0.70651015  1
  Bi2+  Bi126  1  0.87054487  0.74272606  0.22097038  1
  Bi2+  Bi127  1  0.91688705  0.77994736  0.70404158  1
  S2-  S128  1  -0.04269637  0.09594992  0.15973799  1
  S2-  S129  1  0.09593526  0.11431593  0.64234381  1
  S2-  S130  1  -0.06835589  0.36313201  0.16136179  1
  S2-  S131  1  0.03415556  0.38285541  0.65510688  1
  S2-  S132  1  -0.08776076  0.61733717  0.15692517  1
  S2-  S133  1  -0.06155779  0.63219393  0.64632114  1
  S2-  S134  1  -0.01777699  0.84838904  0.16472919  1
  S2-  S135  1  0.04279840  0.85520811  0.63801506  1
  S2-  S136  1  0.15641041  0.13247529  0.13965991  1
  S2-  S137  1  0.28165878  0.23703257  0.65007831  1
  S2-  S138  1  0.15241352  0.37018565  0.13409560  1
  S2-  S139  1  0.25676157  0.44690100  0.67655341  1
  S2-  S140  1  0.13308852  0.62468134  0.13984715  1
  S2-  S141  1  0.34377958  0.63904283  0.64969978  1
  S2-  S142  1  0.22701359  0.90772041  0.14552214  1
  S2-  S143  1  0.25694195  0.98452651  0.64140227  1
  S2-  S144  1  0.38746418  0.10358271  0.13940382  1
  S2-  S145  1  0.49103454  0.05274289  0.63804384  1
  S2-  S146  1  0.51449000  0.37341890  0.15198582  1
  S2-  S147  1  0.51548010  0.35120407  0.66257639  1
  S2-  S148  1  0.57290222  0.62961131  0.15196687  1
  S2-  S149  1  0.54502716  0.58255613  0.68406637  1
  S2-  S150  1  0.52495015  0.89443134  0.15566498  1
  S2-  S151  1  0.51347882  0.79879665  0.65421717  1
  S2-  S152  1  0.74293372  0.02741769  0.15230305  1
  S2-  S153  1  0.74327658  0.24851370  0.63294809  1
  S2-  S154  1  0.74164038  0.44870322  0.15221034  1
  S2-  S155  1  0.79384895  0.45395657  0.64535392  1
  S2-  S156  1  0.74939891  0.61807775  0.22820687  1
  S2-  S157  1  0.73953010  0.60718174  0.71910881  1
  S2-  S158  1  0.75177650  0.79038702  0.15396512  1
  S2-  S159  1  0.77587981  0.78739459  0.65333750  1
  S2-  S160  1  0.00865507  0.02049437  0.35676861  1
  S2-  S161  1  0.15332850  0.03051448  0.83496254  1
  S2-  S162  1  0.13095505  0.22046659  0.34658128  1
  S2-  S163  1  0.21239764  0.25120203  0.84189342  1
  S2-  S164  1  0.11712488  0.49391555  0.34508846  1
  S2-  S165  1  0.13218131  0.47467718  0.83265000  1
  S2-  S166  1  0.06948846  0.73513333  0.33170114  1
  S2-  S167  1  0.03795842  0.76196564  0.86243469  1
  S2-  S168  1  0.25768905  0.01978205  0.35398103  1
  S2-  S169  1  0.38474215  0.08995533  0.84544623  1
  S2-  S170  1  0.36212683  0.22996630  0.35111604  1
  S2-  S171  1  0.37049383  0.25552402  0.76665433  1
  S2-  S172  1  0.35541692  0.52817555  0.35288754  1
  S2-  S173  1  0.37151449  0.41972574  0.83956466  1
  S2-  S174  1  0.28821631  0.76437916  0.36007179  1
  S2-  S175  1  0.38722914  0.63711907  0.85911390  1
  S2-  S176  1  0.50901990  -0.00924275  0.36010560  1
  S2-  S177  1  0.64514118  0.02532255  0.84577996  1
  S2-  S178  1  0.71610731  0.28720712  0.35074712  1
  S2-  S179  1  0.54728994  0.25684984  0.84818725  1
  S2-  S180  1  0.59070385  0.50642617  0.35299626  1
  S2-  S181  1  0.59381298  0.51024224  0.84380708  1
  S2-  S182  1  0.63127371  0.74791518  0.35160525  1
  S2-  S183  1  0.61517523  0.73699557  0.83859879  1
  S2-  S184  1  0.83175515  -0.09793726  0.35602824  1
  S2-  S185  1  0.90370534  -0.03112273  0.85022051  1
  S2-  S186  1  0.92123553  0.26147958  0.32602779  1
  S2-  S187  1  0.99253880  0.25192822  0.86236574  1
  S2-  S188  1  0.86163450  0.48942351  0.33231074  1
  S2-  S189  1  0.87257254  0.50487441  0.84689760  1
  S2-  S190  1  0.86813215  0.70133125  0.32534233  1
  S2-  S191  1  0.83900061  0.73033809  0.83729035  1
  S2-  S192  1  -0.00015478  0.14004151  0.45417197  1
  S2-  S193  1  0.00774486  0.11958787  0.95837815  1
  S2-  S194  1  -0.00075533  0.38249428  0.44962414  1
  S2-  S195  1  0.00844053  0.37819135  0.95842720  1
  S2-  S196  1  0.00326731  0.63373951  0.44574862  1
  S2-  S197  1  0.01073316  0.62346901  0.95910274  1
  S2-  S198  1  0.00990047  0.87757708  0.44256800  1
  S2-  S199  1  0.01104825  0.87927844  0.95997649  1
  S2-  S200  1  0.25321657  0.13755334  0.46104637  1
  S2-  S201  1  0.25915670  0.12577180  0.95192904  1
  S2-  S202  1  0.25585936  0.38335173  0.45679061  1
  S2-  S203  1  0.26013229  0.37387973  0.94865296  1
  S2-  S204  1  0.25680331  0.62952293  0.45861919  1
  S2-  S205  1  0.25582878  0.62571312  0.95699105  1
  S2-  S206  1  0.25544429  0.88554909  0.45476165  1
  S2-  S207  1  0.26044588  0.86973299  0.94511542  1
  S2-  S208  1  0.50205595  0.13534481  0.44995545  1
  S2-  S209  1  0.51016844  0.12484916  0.95520577  1
  S2-  S210  1  0.50169953  0.38126196  0.45645856  1
  S2-  S211  1  0.50961742  0.37711803  0.95023081  1
  S2-  S212  1  0.49767708  0.63382512  0.46485858  1
  S2-  S213  1  0.51241178  0.62573539  0.95718101  1
  S2-  S214  1  0.50187763  0.87936554  0.46219962  1
  S2-  S215  1  0.50737387  0.87140603  0.95191353  1
  S2-  S216  1  0.74687657  0.12800026  0.45155033  1
  S2-  S217  1  0.75934655  0.12383237  0.96112247  1
  S2-  S218  1  0.74928927  0.38699283  0.45594970  1
  S2-  S219  1  0.75882837  0.37349563  0.95559983  1
  S2-  S220  1  0.75151235  0.63192116  0.44501489  1
  S2-  S221  1  0.76140113  0.62591123  0.94853984  1
  S2-  S222  1  0.74491715  0.88494804  0.46018122  1
  S2-  S223  1  0.76283123  0.87487127  0.95545160  1
  S2-  S224  1  0.13629685  -0.00139411  0.04009612  1
  S2-  S225  1  0.12080171  0.00706821  0.53442621  1
  S2-  S226  1  0.13611884  0.24926502  0.03611659  1
  S2-  S227  1  0.12480041  0.26192143  0.54828855  1
  S2-  S228  1  0.13194641  0.50255431  0.03933879  1
  S2-  S229  1  0.12768052  0.50589944  0.55218607  1
  S2-  S230  1  0.13184606  0.75255940  0.04434342  1
  S2-  S231  1  0.12914106  0.75473400  0.53641931  1
  S2-  S232  1  0.38520538  -0.00596139  0.03815507  1
  S2-  S233  1  0.37501589  0.01086970  0.53590148  1
  S2-  S234  1  0.38453199  0.25643489  0.04841875  1
  S2-  S235  1  0.38131302  0.25876272  0.54864053  1
  S2-  S236  1  0.38493084  0.50129865  0.03953911  1
  S2-  S237  1  0.37622784  0.50181968  0.55416114  1
  S2-  S238  1  0.38284267  0.74524133  0.04426426  1
  S2-  S239  1  0.37478704  0.76335553  0.54801565  1
  S2-  S240  1  0.63072263  -0.00276619  0.04857164  1
  S2-  S241  1  0.62823707  0.01183381  0.53881575  1
  S2-  S242  1  0.63438069  0.25420588  0.04512467  1
  S2-  S243  1  0.62321256  0.25507320  0.53830341  1
  S2-  S244  1  0.63413064  0.50054241  0.04682321  1
  S2-  S245  1  0.62960007  0.51136297  0.55825311  1
  S2-  S246  1  0.63451559  0.74660504  0.04649617  1
  S2-  S247  1  0.62980237  0.75347733  0.55630080  1
  S2-  S248  1  0.88512407  -0.00050813  0.05049587  1
  S2-  S249  1  0.87575623  0.00957268  0.54305098  1
  S2-  S250  1  0.88417611  0.24989090  0.04876473  1
  S2-  S251  1  0.87477783  0.25704598  0.53497777  1
  S2-  S252  1  0.88164255  0.49986220  0.05081133  1
  S2-  S253  1  0.87227224  0.51144836  0.53873294  1
  S2-  S254  1  0.88784903  0.75661330  0.04366591  1
  S2-  S255  1  0.87463193  0.75704771  0.53655452  1
