# generated using pymatgen
data_La6Ce6Pr19Nd20Sm13(BiS2)64
_symmetry_space_group_name_H-M   'P 1'
_cell_length_a   16.04953385
_cell_length_b   16.01632416
_cell_length_c   27.23352498
_cell_angle_alpha   89.97544661
_cell_angle_beta   89.96184387
_cell_angle_gamma   89.79795508
_symmetry_Int_Tables_number   1
_chemical_formula_structural   La6Ce6Pr19Nd20Sm13(BiS2)64
_chemical_formula_sum   'La6 Ce6 Pr19 Nd20 Sm13 Bi64 S128'
_cell_volume   7000.45543556
_cell_formula_units_Z   1
loop_
 _symmetry_equiv_pos_site_id
 _symmetry_equiv_pos_as_xyz
  1  'x, y, z'
loop_
 _atom_type_symbol
 _atom_type_oxidation_number
  La3+  3.0
  Ce3+  3.0
  Pr3+  3.0
  Nd3+  3.0
  Sm3+  3.0
  Bi2+  2.0
  S2-  -2.0
loop_
 _atom_site_type_symbol
 _atom_site_label
 _atom_site_symmetry_multiplicity
 _atom_site_fract_x
 _atom_site_fract_y
 _atom_site_fract_z
 _atom_site_occupancy
  La3+  La0  1  0.12439748  0.02100223  0.41647294  1
  La3+  La1  1  -0.00204043  0.88799273  0.59534700  1
  La3+  La2  1  0.76058921  0.86561031  0.10246045  1
  La3+  La3  1  0.40772391  0.50506693  0.38038948  1
  La3+  La4  1  0.25150328  0.62349561  0.08113086  1
  La3+  La5  1  0.62858557  0.76084172  0.42381055  1
  Ce3+  Ce6  1  0.63138004  0.75866925  0.93823357  1
  Ce3+  Ce7  1  0.38107434  0.50350970  0.94304664  1
  Ce3+  Ce8  1  0.37298714  0.01645048  0.43982290  1
  Ce3+  Ce9  1  0.88267906  0.51189937  0.93335053  1
  Ce3+  Ce10  1  0.87498678  0.77029538  0.43675180  1
  Ce3+  Ce11  1  0.00059357  0.63556124  0.06722505  1
  Pr3+  Pr12  1  0.13714200  0.75692982  0.93124188  1
  Pr3+  Pr13  1  0.01123045  0.88113239  0.07379284  1
  Pr3+  Pr14  1  0.12535359  0.51858348  0.42781809  1
  Pr3+  Pr15  1  0.86735842  0.26270051  0.41943466  1
  Pr3+  Pr16  1  0.25907629  0.12838317  0.07206209  1
  Pr3+  Pr17  1  0.50827874  0.86504077  0.07878456  1
  Pr3+  Pr18  1  0.88341588  0.25331077  0.93043960  1
  Pr3+  Pr19  1  0.87419739  0.51291595  0.43988709  1
  Pr3+  Pr20  1  0.74999879  0.64378129  0.56833774  1
  Pr3+  Pr21  1  0.49733067  0.14204505  0.55985319  1
  Pr3+  Pr22  1  0.38748998  0.25253153  0.94555315  1
  Pr3+  Pr23  1  -0.00363279  0.13821540  0.56161477  1
  Pr3+  Pr24  1  0.00502357  0.63951975  0.56902247  1
  Pr3+  Pr25  1  0.13527697  0.00743637  0.93459082  1
  Pr3+  Pr26  1  0.63773588  0.24654586  0.92092802  1
  Pr3+  Pr27  1  0.87263226  0.01520408  0.43154269  1
  Pr3+  Pr28  1  0.00937299  0.12594761  0.07521818  1
  Pr3+  Pr29  1  0.51483666  0.12523932  0.06902330  1
  Pr3+  Pr30  1  0.12371567  0.76727286  0.43159033  1
  Nd3+  Nd31  1  0.49755347  0.39090185  0.57579231  1
  Nd3+  Nd32  1  0.88527708  -0.00327648  0.94531254  1
  Nd3+  Nd33  1  -0.00571892  0.38584875  0.57844074  1
  Nd3+  Nd34  1  0.63035476  0.50117097  0.92264741  1
  Nd3+  Nd35  1  0.24469487  0.14025384  0.55571165  1
  Nd3+  Nd36  1  0.25506550  0.87158429  0.07203375  1
  Nd3+  Nd37  1  0.74701791  0.38920648  0.57004523  1
  Nd3+  Nd38  1  0.13226693  0.24950540  0.93774600  1
  Nd3+  Nd39  1  0.61986559  0.27343887  0.43827047  1
  Nd3+  Nd40  1  0.37345839  0.27324605  0.44403622  1
  Nd3+  Nd41  1  0.50061512  0.88704884  0.56377925  1
  Nd3+  Nd42  1  0.00355730  0.37434822  0.06339871  1
  Nd3+  Nd43  1  0.62168442  0.01504648  0.43658284  1
  Nd3+  Nd44  1  0.25864082  0.37644631  0.06850641  1
  Nd3+  Nd45  1  0.12045753  0.27031839  0.43458024  1
  Nd3+  Nd46  1  0.88422720  0.75972568  0.93471001  1
  Nd3+  Nd47  1  0.75803224  0.37683111  0.05109996  1
  Nd3+  Nd48  1  0.37273955  0.76524946  0.43526144  1
  Nd3+  Nd49  1  0.13163377  0.50614188  0.94498984  1
  Nd3+  Nd50  1  0.51094922  0.62005778  0.06504379  1
  Sm3+  Sm51  1  0.75596176  0.62783163  0.05578190  1
  Sm3+  Sm52  1  0.75818185  0.12335755  0.05802762  1
  Sm3+  Sm53  1  0.37946107  0.75232724  0.94597613  1
  Sm3+  Sm54  1  0.63198664  -0.00260419  0.94281241  1
  Sm3+  Sm55  1  0.51420655  0.37869488  0.06111306  1
  Sm3+  Sm56  1  0.62621898  0.51337702  0.44728385  1
  Sm3+  Sm57  1  0.38438446  0.00135462  0.95463916  1
  Sm3+  Sm58  1  0.24486379  0.89166891  0.55612573  1
  Sm3+  Sm59  1  0.74562901  0.88994365  0.56311805  1
  Sm3+  Sm60  1  0.24650524  0.64221652  0.55484491  1
  Sm3+  Sm61  1  0.75083151  0.14122396  0.55511540  1
  Sm3+  Sm62  1  0.24144282  0.39583610  0.55718491  1
  Sm3+  Sm63  1  0.49395813  0.63847362  0.54775541  1
  Bi2+  Bi64  1  -0.01488321  0.20952002  0.28673612  1
  Bi2+  Bi65  1  0.01849032  0.07201175  0.81255181  1
  Bi2+  Bi66  1  0.04421873  0.38875034  0.32477661  1
  Bi2+  Bi67  1  -0.01536156  0.26255931  0.80966512  1
  Bi2+  Bi68  1  -0.00120786  0.57664218  0.29057945  1
  Bi2+  Bi69  1  -0.00089500  0.57644537  0.80269611  1
  Bi2+  Bi70  1  -0.01330499  0.82777402  0.28627478  1
  Bi2+  Bi71  1  -0.01765944  0.84667534  0.79437838  1
  Bi2+  Bi72  1  0.23991755  0.18551711  0.27746650  1
  Bi2+  Bi73  1  0.29456157  0.03972243  0.77391780  1
  Bi2+  Bi74  1  0.23973557  0.37645185  0.30486312  1
  Bi2+  Bi75  1  0.23917768  0.33053043  0.76812202  1
  Bi2+  Bi76  1  0.27248015  0.64739898  0.27378918  1
  Bi2+  Bi77  1  0.26393918  0.58957883  0.80510146  1
  Bi2+  Bi78  1  0.24731633  0.89945704  0.28287825  1
  Bi2+  Bi79  1  0.29529053  0.84433313  0.78289835  1
  Bi2+  Bi80  1  0.42547814  0.09256915  0.31704327  1
  Bi2+  Bi81  1  0.48884461  0.10403264  0.79761304  1
  Bi2+  Bi82  1  0.49457540  0.26396429  0.27554838  1
  Bi2+  Bi83  1  0.46817467  0.36119968  0.78456110  1
  Bi2+  Bi84  1  0.57357761  0.50177423  0.24079323  1
  Bi2+  Bi85  1  0.46129013  0.63312778  0.78414648  1
  Bi2+  Bi86  1  0.46645819  0.89067043  0.30738650  1
  Bi2+  Bi87  1  0.51051621  0.82785729  0.78889910  1
  Bi2+  Bi88  1  0.70054443  0.18870953  0.25163923  1
  Bi2+  Bi89  1  0.75038249  0.11238046  0.78733289  1
  Bi2+  Bi90  1  0.71395410  0.39371774  0.30016435  1
  Bi2+  Bi91  1  0.74124356  0.41376482  0.79774792  1
  Bi2+  Bi92  1  0.80277854  0.56835669  0.30644869  1
  Bi2+  Bi93  1  0.74038979  0.71321763  0.79864001  1
  Bi2+  Bi94  1  0.73757359  0.85987938  0.30111695  1
  Bi2+  Bi95  1  0.71679505  0.91032710  0.77477921  1
  Bi2+  Bi96  1  0.09590537  0.01387229  0.21872163  1
  Bi2+  Bi97  1  0.12662484  0.00389240  0.71362705  1
  Bi2+  Bi98  1  0.14303229  0.28432945  0.18901859  1
  Bi2+  Bi99  1  0.10347697  0.21434682  0.72205241  1
  Bi2+  Bi100  1  0.13406569  0.47446392  0.21649444  1
  Bi2+  Bi101  1  0.17863500  0.50100654  0.71302360  1
  Bi2+  Bi102  1  0.10653955  0.75463934  0.19998241  1
  Bi2+  Bi103  1  0.15689659  0.75012983  0.71285663  1
  Bi2+  Bi104  1  0.35195243  0.04969227  0.20067382  1
  Bi2+  Bi105  1  0.38595744  -0.10334605  0.68222543  1
  Bi2+  Bi106  1  0.34344908  0.25185005  0.17906165  1
  Bi2+  Bi107  1  0.35030185  0.20078519  0.70912888  1
  Bi2+  Bi108  1  0.39063616  0.43582904  0.21420972  1
  Bi2+  Bi109  1  0.35961271  0.41533469  0.68675508  1
  Bi2+  Bi110  1  0.38145325  0.85445566  0.20204858  1
  Bi2+  Bi111  1  0.35588975  0.69963068  0.69287382  1
  Bi2+  Bi112  1  0.58438292  0.02551536  0.25775486  1
  Bi2+  Bi113  1  0.55199851  -0.01458882  0.71289204  1
  Bi2+  Bi114  1  0.58225793  0.28537072  0.17771231  1
  Bi2+  Bi115  1  0.63206534  0.24535854  0.70984385  1
  Bi2+  Bi116  1  0.74828482  0.51910558  0.18545886  1
  Bi2+  Bi117  1  0.53449835  0.49917905  0.70952362  1
  Bi2+  Bi118  1  0.60390664  0.75346636  0.21464902  1
  Bi2+  Bi119  1  0.62857570  0.74459884  0.70188051  1
  Bi2+  Bi120  1  0.85341873  0.05275996  0.22691937  1
  Bi2+  Bi121  1  0.85685685  0.00902162  0.71138187  1
  Bi2+  Bi122  1  0.88195598  0.32954197  0.21715310  1
  Bi2+  Bi123  1  0.86616975  0.24714995  0.71244589  1
  Bi2+  Bi124  1  0.94695130  0.49798927  0.17495748  1
  Bi2+  Bi125  1  0.96825529  0.43280317  0.72234291  1
  Bi2+  Bi126  1  0.86423198  0.68921798  0.22087074  1
  Bi2+  Bi127  1  0.86551969  0.68524613  0.70946963  1
  S2-  S128  1  -0.02844322  0.01003790  0.15337189  1
  S2-  S129  1  -0.00448048  0.03700212  0.65020216  1
  S2-  S130  1  -0.01784866  0.26551294  0.14271744  1
  S2-  S131  1  -0.00347633  0.24594133  0.64420794  1
  S2-  S132  1  0.10414266  0.61371289  0.14626394  1
  S2-  S133  1  -0.04196024  0.56929917  0.66235030  1
  S2-  S134  1  -0.04369564  0.76383657  0.14573863  1
  S2-  S135  1  0.00265480  0.79062240  0.68843397  1
  S2-  S136  1  0.14357681  0.12191903  0.14838769  1
  S2-  S137  1  0.22293122  0.13026638  0.65442560  1
  S2-  S138  1  0.27728422  0.48386380  0.14873896  1
  S2-  S139  1  0.13886364  0.40172581  0.63811674  1
  S2-  S140  1  0.27397643  0.73305373  0.16549894  1
  S2-  S141  1  0.15356539  0.63937970  0.63875122  1
  S2-  S142  1  0.14447753  0.89577194  0.14943467  1
  S2-  S143  1  0.16629744  0.88895755  0.64444882  1
  S2-  S144  1  0.50810693  0.08655745  0.16701811  1
  S2-  S145  1  0.50260638  0.20141305  0.65535290  1
  S2-  S146  1  0.51960081  0.48578942  0.14082955  1
  S2-  S147  1  0.62393622  0.38725567  0.64818484  1
  S2-  S148  1  0.49533284  0.71603173  0.14937102  1
  S2-  S149  1  0.50696062  0.65076971  0.64638766  1
  S2-  S150  1  0.61379857  0.88614278  0.15951999  1
  S2-  S151  1  0.62095982  0.88286675  0.63707056  1
  S2-  S152  1  0.75317600  0.11632443  0.15796845  1
  S2-  S153  1  0.73843603  0.14527353  0.65496798  1
  S2-  S154  1  0.73882048  0.35001987  0.14964017  1
  S2-  S155  1  0.84946891  0.38714757  0.65317479  1
  S2-  S156  1  0.73447954  0.69795814  0.14823497  1
  S2-  S157  1  0.73335185  0.61341798  0.66849861  1
  S2-  S158  1  0.80075013  0.90415992  0.20713540  1
  S2-  S159  1  0.83633862  0.88588229  0.64817150  1
  S2-  S160  1  0.08363334  -0.05045481  0.31967087  1
  S2-  S161  1  0.10262983  -0.08253200  0.84791669  1
  S2-  S162  1  0.12393518  0.16779974  0.35112998  1
  S2-  S163  1  0.15467572  0.13712421  0.86220041  1
  S2-  S164  1  0.24187813  0.53683797  0.34714274  1
  S2-  S165  1  0.13837454  0.49114381  0.84515731  1
  S2-  S166  1  0.07515113  0.70798661  0.33850381  1
  S2-  S167  1  0.06246649  0.71215995  0.83869685  1
  S2-  S168  1  0.27999151  0.00560437  0.35666274  1
  S2-  S169  1  0.38898661  -0.00847232  0.85602196  1
  S2-  S170  1  0.40392280  0.33600329  0.35122310  1
  S2-  S171  1  0.40807822  0.23882423  0.84590367  1
  S2-  S172  1  0.41915755  0.58190071  0.28292346  1
  S2-  S173  1  0.39922991  0.49638596  0.84562616  1
  S2-  S174  1  0.30012169  0.75933717  0.34396686  1
  S2-  S175  1  0.28047192  0.74176788  0.86373631  1
  S2-  S176  1  0.67950232  0.00331926  0.34243284  1
  S2-  S177  1  0.61915226  0.10188735  0.86043348  1
  S2-  S178  1  0.70747406  0.25227435  0.35283803  1
  S2-  S179  1  0.60736166  0.37100262  0.84941419  1
  S2-  S180  1  0.58415380  0.48686016  0.35263093  1
  S2-  S181  1  0.66678381  0.56273957  0.82829113  1
  S2-  S182  1  0.57174805  0.76606846  0.32375418  1
  S2-  S183  1  0.61797085  0.87822349  0.86390763  1
  S2-  S184  1  0.87388732  -0.10831037  0.35484737  1
  S2-  S185  1  0.87864328  -0.10939981  0.86180077  1
  S2-  S186  1  0.89026253  0.12925167  0.34937345  1
  S2-  S187  1  0.77770119  0.24977718  0.84795520  1
  S2-  S188  1  0.86854404  0.40669546  0.35707986  1
  S2-  S189  1  0.88720975  0.44097676  0.84046994  1
  S2-  S190  1  0.76940445  0.71769696  0.35888124  1
  S2-  S191  1  0.87022990  0.64503051  0.85760325  1
  S2-  S192  1  -0.00199779  0.14480031  0.45469583  1
  S2-  S193  1  0.00470489  0.12723017  0.95960830  1
  S2-  S194  1  -0.00007286  0.39079544  0.45936302  1
  S2-  S195  1  0.00896851  0.37609841  0.95365879  1
  S2-  S196  1  -0.00324638  0.64024688  0.45370383  1
  S2-  S197  1  0.01026517  0.63149295  0.95923992  1
  S2-  S198  1  0.00397167  0.89508029  0.44789746  1
  S2-  S199  1  0.01308589  0.87677236  0.96322617  1
  S2-  S200  1  0.25278816  0.14668961  0.45162480  1
  S2-  S201  1  0.26455355  0.12883176  0.96478360  1
  S2-  S202  1  0.24871697  0.39391811  0.45262035  1
  S2-  S203  1  0.25614307  0.37498264  0.95518760  1
  S2-  S204  1  0.24963567  0.64369600  0.45352626  1
  S2-  S205  1  0.25768590  0.62538424  0.96509947  1
  S2-  S206  1  0.24854123  0.89003128  0.45344410  1
  S2-  S207  1  0.26033394  0.88013010  0.96267216  1
  S2-  S208  1  0.49867112  0.14446658  0.45175808  1
  S2-  S209  1  0.50756527  0.12394346  0.96224296  1
  S2-  S210  1  0.49623921  0.39776491  0.46364357  1
  S2-  S211  1  0.50952073  0.37881522  0.95706089  1
  S2-  S212  1  0.49490408  0.63484880  0.44209342  1
  S2-  S213  1  0.50690340  0.62947657  0.95033151  1
  S2-  S214  1  0.49929969  0.88913923  0.45358310  1
  S2-  S215  1  0.50149401  0.87480012  0.96685544  1
  S2-  S216  1  0.74281179  0.14044309  0.45303667  1
  S2-  S217  1  0.76103711  0.12143013  0.95415675  1
  S2-  S218  1  0.74514715  0.39044940  0.46133315  1
  S2-  S219  1  0.75899625  0.38219713  0.94771074  1
  S2-  S220  1  0.74742100  0.63509403  0.46206481  1
  S2-  S221  1  0.75027567  0.62909775  0.95338839  1
  S2-  S222  1  0.74356970  0.89031639  0.45763582  1
  S2-  S223  1  0.75513035  0.87816971  0.95838385  1
  S2-  S224  1  0.13667068  0.00492817  0.04336589  1
  S2-  S225  1  0.12508589  0.01549671  0.53922500  1
  S2-  S226  1  0.13480347  0.25518078  0.04342290  1
  S2-  S227  1  0.12499453  0.26604925  0.54081701  1
  S2-  S228  1  0.12850441  0.49475184  0.04905106  1
  S2-  S229  1  0.12375698  0.51913173  0.53545383  1
  S2-  S230  1  0.13292117  0.75182118  0.04533321  1
  S2-  S231  1  0.12141744  0.76951526  0.54023445  1
  S2-  S232  1  0.38433505  -0.00172285  0.05955843  1
  S2-  S233  1  0.37375088  0.01407397  0.54843692  1
  S2-  S234  1  0.38891831  0.25488418  0.05257043  1
  S2-  S235  1  0.36919747  0.27030678  0.55076459  1
  S2-  S236  1  0.38422174  0.49829453  0.04519933  1
  S2-  S237  1  0.36963836  0.51723459  0.55807228  1
  S2-  S238  1  0.37923633  0.74601875  0.04823374  1
  S2-  S239  1  0.37228285  0.76690175  0.54342098  1
  S2-  S240  1  0.63707906  -0.00284549  0.05098948  1
  S2-  S241  1  0.62247259  0.01901427  0.54363269  1
  S2-  S242  1  0.63496282  0.25042629  0.03901213  1
  S2-  S243  1  0.62203391  0.26445574  0.54420760  1
  S2-  S244  1  0.63568220  0.50175875  0.03653623  1
  S2-  S245  1  0.62029953  0.51911799  0.55059890  1
  S2-  S246  1  0.63181960  0.74943019  0.04394119  1
  S2-  S247  1  0.61943157  0.75986357  0.53687050  1
  S2-  S248  1  0.87439820  -0.00380144  0.04998035  1
  S2-  S249  1  0.86860995  0.01391187  0.54214215  1
  S2-  S250  1  0.87814802  0.24813551  0.03869684  1
  S2-  S251  1  0.86793933  0.26567922  0.54035364  1
  S2-  S252  1  0.88111643  0.50324222  0.04244144  1
  S2-  S253  1  0.87427269  0.51599252  0.54722020  1
  S2-  S254  1  0.87071381  0.75546345  0.04154195  1
  S2-  S255  1  0.87704885  0.76574038  0.54712208  1
