# generated using pymatgen
data_La6Ce6Pr19Nd20Sm13(BiS2)64
_symmetry_space_group_name_H-M   'P 1'
_cell_length_a   16.05583654
_cell_length_b   16.08023361
_cell_length_c   27.46775905
_cell_angle_alpha   90.00807910
_cell_angle_beta   89.95958077
_cell_angle_gamma   89.77027612
_symmetry_Int_Tables_number   1
_chemical_formula_structural   La6Ce6Pr19Nd20Sm13(BiS2)64
_chemical_formula_sum   'La6 Ce6 Pr19 Nd20 Sm13 Bi64 S128'
_cell_volume   7091.61120825
_cell_formula_units_Z   1
loop_
 _symmetry_equiv_pos_site_id
 _symmetry_equiv_pos_as_xyz
  1  'x, y, z'
loop_
 _atom_type_symbol
 _atom_type_oxidation_number
  La3+  3.0
  Ce3+  3.0
  Pr3+  3.0
  Nd3+  3.0
  Sm3+  3.0
  Bi2+  2.0
  S2-  -2.0
loop_
 _atom_site_type_symbol
 _atom_site_label
 _atom_site_symmetry_multiplicity
 _atom_site_fract_x
 _atom_site_fract_y
 _atom_site_fract_z
 _atom_site_occupancy
  La3+  La0  1  0.84624643  0.23940609  0.42105246  1
  La3+  La1  1  0.22805734  0.87348656  0.57689743  1
  La3+  La2  1  0.11411676  0.45188153  0.88249416  1
  La3+  La3  1  0.61566525  -0.01453888  0.90233045  1
  La3+  La4  1  0.87114958  0.23923217  0.93259239  1
  La3+  La5  1  0.36523239  0.24511785  0.93891854  1
  Ce3+  Ce6  1  0.34615586  0.74519184  0.43133897  1
  Ce3+  Ce7  1  0.10591078  -0.00460498  0.44009974  1
  Ce3+  Ce8  1  0.86366152  0.74429571  0.94371365  1
  Ce3+  Ce9  1  0.49515558  0.36670523  0.05468124  1
  Ce3+  Ce10  1  0.72736015  0.36812604  0.56064932  1
  Ce3+  Ce11  1  0.85370645  0.74599517  0.44719021  1
  Pr3+  Pr12  1  0.60559147  0.23959311  0.44053217  1
  Pr3+  Pr13  1  0.11200995  0.24138894  0.95702915  1
  Pr3+  Pr14  1  0.36592752  -0.01191800  0.93062924  1
  Pr3+  Pr15  1  -0.02379671  0.87586146  0.56444129  1
  Pr3+  Pr16  1  0.35006050  0.49994940  0.42313757  1
  Pr3+  Pr17  1  0.73133167  0.61894570  0.57137225  1
  Pr3+  Pr18  1  0.62203028  0.23731159  0.93248494  1
  Pr3+  Pr19  1  0.49344301  0.11225552  0.05666248  1
  Pr3+  Pr20  1  -0.02012543  0.61483036  0.56864846  1
  Pr3+  Pr21  1  0.61858987  0.49664586  0.93403516  1
  Pr3+  Pr22  1  0.36961423  0.74082225  0.93872978  1
  Pr3+  Pr23  1  0.72250985  0.11461906  0.59510431  1
  Pr3+  Pr24  1  -0.00999805  0.10947919  0.07222602  1
  Pr3+  Pr25  1  0.12197577  0.73138495  0.92306739  1
  Pr3+  Pr26  1  -0.02793016  0.12056984  0.55315832  1
  Pr3+  Pr27  1  0.23037550  0.61936866  0.57355631  1
  Pr3+  Pr28  1  0.10017117  0.49242381  0.43383385  1
  Pr3+  Pr29  1  0.84881009  -0.01455416  0.41966562  1
  Pr3+  Pr30  1  0.11916482  -0.00931581  0.93208263  1
  Nd3+  Nd31  1  0.36611176  0.49511868  0.93955001  1
  Nd3+  Nd32  1  0.47729499  0.86940300  0.55574943  1
  Nd3+  Nd33  1  0.49135042  0.61300680  0.07095097  1
  Nd3+  Nd34  1  0.47988874  0.37305465  0.55816158  1
  Nd3+  Nd35  1  0.60687673  0.74367321  0.43717485  1
  Nd3+  Nd36  1  -0.00627235  0.86738696  0.05457944  1
  Nd3+  Nd37  1  0.23890149  0.61524420  0.05961006  1
  Nd3+  Nd38  1  -0.00693991  0.61564082  0.05315497  1
  Nd3+  Nd39  1  0.48529284  0.86294563  0.08141483  1
  Nd3+  Nd40  1  0.72276040  0.87239392  0.56435416  1
  Nd3+  Nd41  1  0.74148570  0.10680435  0.06575081  1
  Nd3+  Nd42  1  0.24166245  0.86439878  0.06216200  1
  Nd3+  Nd43  1  0.35297266  -0.00965088  0.42879546  1
  Nd3+  Nd44  1  0.86471360  -0.00732957  0.93035351  1
  Nd3+  Nd45  1  0.61067733  0.49487637  0.43530956  1
  Nd3+  Nd46  1  0.60189719  -0.01191800  0.42502395  1
  Nd3+  Nd47  1  0.24117749  0.36889217  0.06403804  1
  Nd3+  Nd48  1  0.74241478  0.61366922  0.06819525  1
  Nd3+  Nd49  1  0.23064142  0.37125095  0.56216386  1
  Nd3+  Nd50  1  -0.02598328  0.36544830  0.55501627  1
  Sm3+  Sm51  1  0.73948511  0.86752556  0.06083677  1
  Sm3+  Sm52  1  0.85382328  0.49605118  0.43450149  1
  Sm3+  Sm53  1  0.48138633  0.11526296  0.55741524  1
  Sm3+  Sm54  1  0.74373946  0.36277523  0.05597752  1
  Sm3+  Sm55  1  -0.01237711  0.36659679  0.06228244  1
  Sm3+  Sm56  1  0.61442913  0.74567713  0.94770417  1
  Sm3+  Sm57  1  0.10427885  0.74290459  0.44997774  1
  Sm3+  Sm58  1  0.47645465  0.61881370  0.55113091  1
  Sm3+  Sm59  1  0.24342313  0.11379085  0.05814403  1
  Sm3+  Sm60  1  0.35522326  0.24624574  0.44685032  1
  Sm3+  Sm61  1  0.86414474  0.49567859  0.93376305  1
  Sm3+  Sm62  1  0.22959866  0.12270186  0.56363072  1
  Sm3+  Sm63  1  0.10496622  0.23947761  0.43836176  1
  Bi2+  Bi64  1  0.02798192  0.15115928  0.29688164  1
  Bi2+  Bi65  1  0.04171114  0.13645020  0.79682017  1
  Bi2+  Bi66  1  0.05344047  0.41889130  0.28131691  1
  Bi2+  Bi67  1  -0.04884775  0.33681683  0.79719219  1
  Bi2+  Bi68  1  0.02874845  0.68855720  0.27820024  1
  Bi2+  Bi69  1  0.02477712  0.74490913  0.79217174  1
  Bi2+  Bi70  1  0.03777052  0.88075628  0.24982518  1
  Bi2+  Bi71  1  0.03522712  0.93574043  0.81338738  1
  Bi2+  Bi72  1  0.26606741  0.06183990  0.28055149  1
  Bi2+  Bi73  1  0.24178959  0.14083857  0.76606563  1
  Bi2+  Bi74  1  0.32204680  0.39140120  0.29424563  1
  Bi2+  Bi75  1  0.27214036  0.33196281  0.78455335  1
  Bi2+  Bi76  1  0.23257718  0.62603118  0.29449029  1
  Bi2+  Bi77  1  0.26614997  0.61319879  0.79816505  1
  Bi2+  Bi78  1  0.24278937  0.86657222  0.23471321  1
  Bi2+  Bi79  1  0.28855763  0.88191719  0.78924778  1
  Bi2+  Bi80  1  0.54666836  0.13535004  0.29424422  1
  Bi2+  Bi81  1  0.44564342  0.07835259  0.72620258  1
  Bi2+  Bi82  1  0.50092006  0.44915611  0.32359677  1
  Bi2+  Bi83  1  0.52379271  0.43047627  0.80450494  1
  Bi2+  Bi84  1  0.60552800  0.61737307  0.31913751  1
  Bi2+  Bi85  1  0.48624004  0.61073681  0.85040094  1
  Bi2+  Bi86  1  0.46102378  0.87661935  0.29561141  1
  Bi2+  Bi87  1  0.48839378  0.84345436  0.79173806  1
  Bi2+  Bi88  1  0.78618401  0.14324188  0.29661077  1
  Bi2+  Bi89  1  0.77059779  0.13922309  0.79778303  1
  Bi2+  Bi90  1  0.72211740  0.46500072  0.23753734  1
  Bi2+  Bi91  1  0.70416445  0.42947621  0.75632982  1
  Bi2+  Bi92  1  0.79468862  0.67239416  0.32590056  1
  Bi2+  Bi93  1  0.68000980  0.63560758  0.80814135  1
  Bi2+  Bi94  1  0.73039235  0.87327363  0.28772315  1
  Bi2+  Bi95  1  0.76491887  0.83612080  0.79186025  1
  Bi2+  Bi96  1  0.14375279  0.02079091  0.19083957  1
  Bi2+  Bi97  1  0.14376455  -0.01410604  0.71578741  1
  Bi2+  Bi98  1  0.17473796  0.26980194  0.25149110  1
  Bi2+  Bi99  1  0.09038664  0.21559341  0.69609593  1
  Bi2+  Bi100  1  0.12309451  0.51316070  0.18556906  1
  Bi2+  Bi101  1  0.14015769  0.46098996  0.68900524  1
  Bi2+  Bi102  1  0.12080969  0.75727023  0.17240442  1
  Bi2+  Bi103  1  0.17115792  0.71661223  0.71762350  1
  Bi2+  Bi104  1  0.40174395  0.02584642  0.18593091  1
  Bi2+  Bi105  1  0.37549143  -0.09589618  0.68740018  1
  Bi2+  Bi106  1  0.38578387  0.21641587  0.25018686  1
  Bi2+  Bi107  1  0.37809956  0.26039369  0.69670577  1
  Bi2+  Bi108  1  0.36448936  0.49257920  0.19510937  1
  Bi2+  Bi109  1  0.41528666  0.47679562  0.70634818  1
  Bi2+  Bi110  1  0.45975723  0.69390370  0.24829608  1
  Bi2+  Bi111  1  0.43086238  0.67416974  0.74465016  1
  Bi2+  Bi112  1  0.63377786  0.05934808  0.19927739  1
  Bi2+  Bi113  1  0.62147893  -0.01412762  0.70879771  1
  Bi2+  Bi114  1  0.60657512  0.31528661  0.27065027  1
  Bi2+  Bi115  1  0.51593250  0.23956681  0.78321864  1
  Bi2+  Bi116  1  0.56445974  0.55138955  0.19040046  1
  Bi2+  Bi117  1  0.64880583  0.59189444  0.69526029  1
  Bi2+  Bi118  1  0.64690642  0.73831580  0.21410793  1
  Bi2+  Bi119  1  0.69047884  0.78472112  0.68921596  1
  Bi2+  Bi120  1  0.87237893  0.04372860  0.19511924  1
  Bi2+  Bi121  1  0.94935140  -0.06874078  0.70950124  1
  Bi2+  Bi122  1  0.88097566  0.29571525  0.19638762  1
  Bi2+  Bi123  1  0.86917084  0.27014177  0.68308916  1
  Bi2+  Bi124  1  0.89851599  0.53748567  0.26586197  1
  Bi2+  Bi125  1  0.83816009  0.56666889  0.74203057  1
  Bi2+  Bi126  1  0.86322247  0.77710978  0.22291663  1
  Bi2+  Bi127  1  0.88905618  0.74696885  0.70190538  1
  S2-  S128  1  -0.01676902  0.17373334  0.16947101  1
  S2-  S129  1  -0.04395583  0.12526231  0.65310876  1
  S2-  S130  1  -0.00252012  0.38953200  0.16006516  1
  S2-  S131  1  -0.00081476  0.38754902  0.65312117  1
  S2-  S132  1  0.01203268  0.62078213  0.15285432  1
  S2-  S133  1  0.09510110  0.61073874  0.64711763  1
  S2-  S134  1  -0.00936818  0.96600083  0.13662485  1
  S2-  S135  1  0.07934388  0.87531994  0.64605239  1
  S2-  S136  1  0.25753735  0.12842098  0.15460271  1
  S2-  S137  1  0.26074307  0.01609963  0.64033005  1
  S2-  S138  1  0.24601795  0.38270743  0.16260837  1
  S2-  S139  1  0.21658178  0.24817890  0.63706484  1
  S2-  S140  1  0.25489464  0.62480750  0.15999002  1
  S2-  S141  1  0.28167262  0.48372507  0.63607583  1
  S2-  S142  1  0.33667466  0.88030076  0.14515283  1
  S2-  S143  1  0.27367766  0.74643236  0.64593166  1
  S2-  S144  1  0.51449240  0.15208723  0.15403618  1
  S2-  S145  1  0.56257099  0.10490235  0.64427015  1
  S2-  S146  1  0.49101252  0.40502987  0.14956670  1
  S2-  S147  1  0.50419687  0.35984265  0.65647835  1
  S2-  S148  1  0.49153506  0.72202478  0.14864081  1
  S2-  S149  1  0.48504842  0.61201636  0.64959310  1
  S2-  S150  1  0.53745254  0.93257347  0.17410683  1
  S2-  S151  1  0.53528431  0.86147304  0.65047149  1
  S2-  S152  1  0.76221958  0.17303800  0.16049324  1
  S2-  S153  1  0.74574394  0.17139388  0.69471079  1
  S2-  S154  1  0.77546658  0.40886986  0.14808337  1
  S2-  S155  1  0.75180864  0.38492694  0.65672134  1
  S2-  S156  1  0.77223063  0.66918118  0.16129039  1
  S2-  S157  1  0.85895682  0.59734377  0.64289584  1
  S2-  S158  1  0.75932373  0.96361222  0.14310270  1
  S2-  S159  1  0.75019945  0.96505083  0.64838485  1
  S2-  S160  1  0.14691675  0.05029474  0.35044909  1
  S2-  S161  1  0.23933529  -0.00167505  0.85749732  1
  S2-  S162  1  0.11910736  0.28823608  0.34499963  1
  S2-  S163  1  0.08452351  0.27218151  0.86047217  1
  S2-  S164  1  0.21208898  0.49509792  0.35506576  1
  S2-  S165  1  0.10846763  0.41500022  0.77649374  1
  S2-  S166  1  0.13840306  0.72994267  0.35321863  1
  S2-  S167  1  0.11148233  0.61623828  0.84498285  1
  S2-  S168  1  0.47379444  0.01898473  0.35298425  1
  S2-  S169  1  0.46737431  -0.02091157  0.84665987  1
  S2-  S170  1  0.35815031  0.24622178  0.34953284  1
  S2-  S171  1  0.36698205  0.21562963  0.84077928  1
  S2-  S172  1  0.35963847  0.63814078  0.35288069  1
  S2-  S173  1  0.28976023  0.45794600  0.85204788  1
  S2-  S174  1  0.33595038  0.86329390  0.35726893  1
  S2-  S175  1  0.26456937  0.75655575  0.85640911  1
  S2-  S176  1  0.71778407  0.00974178  0.34783847  1
  S2-  S177  1  0.76444293  -0.02188251  0.84410757  1
  S2-  S178  1  0.69815513  0.25654694  0.35490315  1
  S2-  S179  1  0.62243294  0.14372003  0.84704197  1
  S2-  S180  1  0.73338931  0.50449657  0.36235531  1
  S2-  S181  1  0.73685071  0.50548919  0.85924843  1
  S2-  S182  1  0.59884334  0.84061727  0.35344669  1
  S2-  S183  1  0.62290741  0.81626957  0.85663780  1
  S2-  S184  1  0.92010072  0.04491133  0.32792546  1
  S2-  S185  1  0.90544255  0.11524638  0.85942166  1
  S2-  S186  1  0.89950052  0.26105136  0.32145333  1
  S2-  S187  1  0.79780652  0.28223783  0.83981092  1
  S2-  S188  1  0.97465271  0.49659499  0.35956261  1
  S2-  S189  1  0.94646119  0.47070887  0.84849010  1
  S2-  S190  1  0.85527873  0.82818083  0.36079960  1
  S2-  S191  1  0.87035205  0.73105485  0.84711584  1
  S2-  S192  1  -0.02284357  0.11908050  0.44722277  1
  S2-  S193  1  -0.00425502  0.11084948  0.96466767  1
  S2-  S194  1  -0.02571797  0.35959055  0.45044244  1
  S2-  S195  1  -0.01097708  0.37147816  0.95868513  1
  S2-  S196  1  -0.02250172  0.62210860  0.45997247  1
  S2-  S197  1  -0.01376590  0.61865111  0.95062507  1
  S2-  S198  1  -0.01754982  0.87166705  0.45780022  1
  S2-  S199  1  -0.00580267  0.86486849  0.94934569  1
  S2-  S200  1  0.23373652  0.12247662  0.45763272  1
  S2-  S201  1  0.24129762  0.12041871  0.95544363  1
  S2-  S202  1  0.22845275  0.36385373  0.45596431  1
  S2-  S203  1  0.23642039  0.36833331  0.95792902  1
  S2-  S204  1  0.22446586  0.61910746  0.46155727  1
  S2-  S205  1  0.24462830  0.61459571  0.95588035  1
  S2-  S206  1  0.22328245  0.87102693  0.46225317  1
  S2-  S207  1  0.24032644  0.86427876  0.95842935  1
  S2-  S208  1  0.47700394  0.12037013  0.45524474  1
  S2-  S209  1  0.49169562  0.11675656  0.95083542  1
  S2-  S210  1  0.48153798  0.36954966  0.45187797  1
  S2-  S211  1  0.49553813  0.36784780  0.94821426  1
  S2-  S212  1  0.48361185  0.61921999  0.44922111  1
  S2-  S213  1  0.49474274  0.61739197  0.96618173  1
  S2-  S214  1  0.47771481  0.86535238  0.45371468  1
  S2-  S215  1  0.49171320  0.86564094  0.95996574  1
  S2-  S216  1  0.72844912  0.11351308  0.45008450  1
  S2-  S217  1  0.74061881  0.11274697  0.95741425  1
  S2-  S218  1  0.73112126  0.36868654  0.45706350  1
  S2-  S219  1  0.74190667  0.36648653  0.95432803  1
  S2-  S220  1  0.73089598  0.62197288  0.46415955  1
  S2-  S221  1  0.73975697  0.62261901  0.96177661  1
  S2-  S222  1  0.72709354  0.86815578  0.45952125  1
  S2-  S223  1  0.73826117  0.86872500  0.95819381  1
  S2-  S224  1  0.12251712  -0.00877302  0.04091501  1
  S2-  S225  1  0.10383966  0.00232647  0.54470946  1
  S2-  S226  1  0.11661309  0.24133479  0.06137785  1
  S2-  S227  1  0.10108451  0.24295525  0.54005374  1
  S2-  S228  1  0.11382678  0.48889226  0.05360341  1
  S2-  S229  1  0.10071752  0.48710501  0.54101475  1
  S2-  S230  1  0.11682219  0.74107618  0.03807772  1
  S2-  S231  1  0.10085179  0.74534502  0.55020116  1
  S2-  S232  1  0.36504393  -0.00825453  0.04138877  1
  S2-  S233  1  0.35769419  -0.00316084  0.53747560  1
  S2-  S234  1  0.36586969  0.24200854  0.04769975  1
  S2-  S235  1  0.36116503  0.24327852  0.54876958  1
  S2-  S236  1  0.36718800  0.49159616  0.04631296  1
  S2-  S237  1  0.35967502  0.49431569  0.53108061  1
  S2-  S238  1  0.36546899  0.73751066  0.04585901  1
  S2-  S239  1  0.35722580  0.74315577  0.53921265  1
  S2-  S240  1  0.61299673  -0.01524996  0.05204815  1
  S2-  S241  1  0.60244573  -0.00623238  0.53945039  1
  S2-  S242  1  0.62089565  0.24064169  0.04317882  1
  S2-  S243  1  0.60398280  0.24147643  0.54729677  1
  S2-  S244  1  0.62087270  0.49108304  0.04520347  1
  S2-  S245  1  0.60495086  0.49700155  0.54467556  1
  S2-  S246  1  0.61927903  0.74192588  0.05185864  1
  S2-  S247  1  0.60307777  0.74111248  0.54481919  1
  S2-  S248  1  0.86550834  -0.01261655  0.03677729  1
  S2-  S249  1  0.84911064  -0.00381813  0.54301770  1
  S2-  S250  1  0.86761072  0.23983748  0.04560087  1
  S2-  S251  1  0.84352709  0.23999811  0.54588189  1
  S2-  S252  1  0.86664808  0.49227396  0.04307721  1
  S2-  S253  1  0.85233162  0.49102532  0.53932387  1
  S2-  S254  1  0.86696450  0.74443478  0.05070757  1
  S2-  S255  1  0.85349137  0.74939315  0.55198801  1
