# generated using pymatgen
data_La6Ce6Pr19Nd20Sm13(BiS2)64
_symmetry_space_group_name_H-M   'P 1'
_cell_length_a   16.12565249
_cell_length_b   16.15630478
_cell_length_c   27.15429564
_cell_angle_alpha   89.93509142
_cell_angle_beta   89.97416763
_cell_angle_gamma   89.92015779
_symmetry_Int_Tables_number   1
_chemical_formula_structural   La6Ce6Pr19Nd20Sm13(BiS2)64
_chemical_formula_sum   'La6 Ce6 Pr19 Nd20 Sm13 Bi64 S128'
_cell_volume   7074.52249192
_cell_formula_units_Z   1
loop_
 _symmetry_equiv_pos_site_id
 _symmetry_equiv_pos_as_xyz
  1  'x, y, z'
loop_
 _atom_type_symbol
 _atom_type_oxidation_number
  La3+  3.0
  Ce3+  3.0
  Pr3+  3.0
  Nd3+  3.0
  Sm3+  3.0
  Bi2+  2.0
  S2-  -2.0
loop_
 _atom_site_type_symbol
 _atom_site_label
 _atom_site_symmetry_multiplicity
 _atom_site_fract_x
 _atom_site_fract_y
 _atom_site_fract_z
 _atom_site_occupancy
  La3+  La0  1  0.23737227  0.37625538  0.09406110  1
  La3+  La1  1  0.73888498  0.36841231  0.59133250  1
  La3+  La2  1  0.13292028  0.51712107  0.91371089  1
  La3+  La3  1  0.74771266  0.62549779  0.60223955  1
  La3+  La4  1  0.86533048  0.76606256  0.91367563  1
  La3+  La5  1  0.24557775  0.64259285  0.07513131  1
  Ce3+  Ce6  1  0.49462116  0.38814361  0.05798788  1
  Ce3+  Ce7  1  -0.00267964  0.63835312  0.04612252  1
  Ce3+  Ce8  1  0.50364884  0.37169063  0.54839312  1
  Ce3+  Ce9  1  0.36513630  0.51381430  0.95339576  1
  Ce3+  Ce10  1  0.63191692  -0.00704036  0.43344508  1
  Ce3+  Ce11  1  0.24491864  0.88946037  0.06825325  1
  Pr3+  Pr12  1  0.87684345  0.73750290  0.43510091  1
  Pr3+  Pr13  1  0.74471168  0.38703470  0.05937585  1
  Pr3+  Pr14  1  0.61668486  0.76440756  0.93797176  1
  Pr3+  Pr15  1  0.87064914  0.01412151  0.92541691  1
  Pr3+  Pr16  1  -0.00200736  0.39012234  0.05930762  1
  Pr3+  Pr17  1  0.49522737  0.64434556  0.07259433  1
  Pr3+  Pr18  1  0.61902801  0.01436123  0.93868935  1
  Pr3+  Pr19  1  0.75072918  0.11655344  0.56911881  1
  Pr3+  Pr20  1  0.12294122  0.76801335  0.93501120  1
  Pr3+  Pr21  1  0.25221095  0.86670864  0.55829945  1
  Pr3+  Pr22  1  0.63060265  0.49307418  0.43062518  1
  Pr3+  Pr23  1  0.87658844  -0.00562049  0.42994241  1
  Pr3+  Pr24  1  0.50347020  0.86436241  0.56213803  1
  Pr3+  Pr25  1  0.75411736  0.86764290  0.55855356  1
  Pr3+  Pr26  1  0.37171590  0.76817829  0.93773961  1
  Pr3+  Pr27  1  0.25068614  0.12138687  0.56662890  1
  Pr3+  Pr28  1  0.00566772  0.62381751  0.57663498  1
  Pr3+  Pr29  1  0.75432080  0.88954363  0.06430465  1
  Pr3+  Pr30  1  0.75178055  0.64110616  0.06278674  1
  Nd3+  Nd31  1  0.36253353  0.26684443  0.94297439  1
  Nd3+  Nd32  1  -0.00128706  0.37231619  0.56614340  1
  Nd3+  Nd33  1  0.61898651  0.51430790  0.94335158  1
  Nd3+  Nd34  1  0.36935067  0.48501708  0.41943618  1
  Nd3+  Nd35  1  0.49595231  0.14050923  0.06048623  1
  Nd3+  Nd36  1  0.61722983  0.26580491  0.93346020  1
  Nd3+  Nd37  1  0.25448376  0.36381761  0.56503477  1
  Nd3+  Nd38  1  0.12834630  0.73841519  0.44092811  1
  Nd3+  Nd39  1  -0.00182380  0.11894142  0.55661562  1
  Nd3+  Nd40  1  0.37443104  0.74064310  0.43548776  1
  Nd3+  Nd41  1  0.87188389  0.49537571  0.45217211  1
  Nd3+  Nd42  1  0.87366043  0.26639128  0.93635345  1
  Nd3+  Nd43  1  0.12799551  -0.00642519  0.44309019  1
  Nd3+  Nd44  1  0.12033174  0.26474859  0.94165096  1
  Nd3+  Nd45  1  0.50723701  0.61613652  0.54711275  1
  Nd3+  Nd46  1  0.37672679  0.23957462  0.43302574  1
  Nd3+  Nd47  1  0.62458770  0.75025631  0.42816961  1
  Nd3+  Nd48  1  0.25546155  0.60848757  0.57277313  1
  Nd3+  Nd49  1  0.12608185  0.24528364  0.44099453  1
  Nd3+  Nd50  1  0.87498754  0.24738504  0.44732211  1
  Sm3+  Sm51  1  0.50996907  0.89316558  0.07092259  1
  Sm3+  Sm52  1  -0.00558018  0.13611245  0.05268683  1
  Sm3+  Sm53  1  0.12743443  0.49289356  0.44560929  1
  Sm3+  Sm54  1  0.37136502  0.01353211  0.95147769  1
  Sm3+  Sm55  1  0.74802359  0.13947662  0.04704594  1
  Sm3+  Sm56  1  0.12294184  0.00833480  0.93297072  1
  Sm3+  Sm57  1  -0.00690284  0.88843755  0.05512706  1
  Sm3+  Sm58  1  0.24368436  0.13452246  0.05799569  1
  Sm3+  Sm59  1  0.37663403  -0.00719151  0.44417646  1
  Sm3+  Sm60  1  0.50415590  0.11791925  0.55258708  1
  Sm3+  Sm61  1  0.87032291  0.51203354  0.93573401  1
  Sm3+  Sm62  1  0.00047924  0.86585036  0.55179052  1
  Sm3+  Sm63  1  0.62885628  0.24254918  0.44116620  1
  Bi2+  Bi64  1  -0.01631156  0.09849216  0.29629240  1
  Bi2+  Bi65  1  -0.04177486  0.10524862  0.80919382  1
  Bi2+  Bi66  1  0.01071792  0.32513267  0.27608511  1
  Bi2+  Bi67  1  0.03853402  0.31146904  0.79194150  1
  Bi2+  Bi68  1  -0.01215081  0.63553681  0.25062244  1
  Bi2+  Bi69  1  0.04841282  0.62872300  0.77362911  1
  Bi2+  Bi70  1  -0.01260355  0.90672664  0.27853464  1
  Bi2+  Bi71  1  0.02096367  0.92944093  0.77575802  1
  Bi2+  Bi72  1  0.29131911  0.12250190  0.29157366  1
  Bi2+  Bi73  1  0.16558362  0.09777144  0.80232980  1
  Bi2+  Bi74  1  0.24397987  0.36444049  0.29308282  1
  Bi2+  Bi75  1  0.29442253  0.36126517  0.79322436  1
  Bi2+  Bi76  1  0.24511132  0.63338848  0.30589553  1
  Bi2+  Bi77  1  0.29025446  0.63417221  0.79407429  1
  Bi2+  Bi78  1  0.21328369  0.90164118  0.28604279  1
  Bi2+  Bi79  1  0.27160156  0.84080650  0.80226360  1
  Bi2+  Bi80  1  0.48742071  0.10714009  0.31715246  1
  Bi2+  Bi81  1  0.47100682  0.14598984  0.77984826  1
  Bi2+  Bi82  1  0.52163107  0.28671634  0.27971839  1
  Bi2+  Bi83  1  0.47552898  0.43045449  0.77671450  1
  Bi2+  Bi84  1  0.50725717  0.62701023  0.29307050  1
  Bi2+  Bi85  1  0.49154317  0.63248331  0.79422483  1
  Bi2+  Bi86  1  0.47420999  0.91795809  0.28174868  1
  Bi2+  Bi87  1  0.48031487  0.89693669  0.79664841  1
  Bi2+  Bi88  1  0.78248669  0.13798813  0.28298286  1
  Bi2+  Bi89  1  0.75323787  0.09016984  0.78446036  1
  Bi2+  Bi90  1  0.77459488  0.38629819  0.31591834  1
  Bi2+  Bi91  1  0.74530542  0.36356818  0.79865215  1
  Bi2+  Bi92  1  0.76922529  0.61723981  0.29898557  1
  Bi2+  Bi93  1  0.75498624  0.61430006  0.81494019  1
  Bi2+  Bi94  1  0.73682451  0.87433432  0.30184635  1
  Bi2+  Bi95  1  0.74340094  0.89454488  0.78535024  1
  Bi2+  Bi96  1  0.13328430  -0.03032528  0.17796095  1
  Bi2+  Bi97  1  0.14876881  0.00360159  0.69691796  1
  Bi2+  Bi98  1  0.13131068  0.15477339  0.21954596  1
  Bi2+  Bi99  1  0.14140784  0.22252839  0.71230680  1
  Bi2+  Bi100  1  0.10068896  0.48433491  0.22418859  1
  Bi2+  Bi101  1  0.15345565  0.49975023  0.70829140  1
  Bi2+  Bi102  1  0.10480604  0.78501925  0.21577860  1
  Bi2+  Bi103  1  0.12644744  0.79346146  0.71437970  1
  Bi2+  Bi104  1  0.32422917  -0.00940759  0.20584231  1
  Bi2+  Bi105  1  0.32493167  0.03406038  0.74088208  1
  Bi2+  Bi106  1  0.39692902  0.19311006  0.20449808  1
  Bi2+  Bi107  1  0.39958850  0.28550590  0.70799179  1
  Bi2+  Bi108  1  0.41199691  0.48476877  0.20774084  1
  Bi2+  Bi109  1  0.39490164  0.56845705  0.69770792  1
  Bi2+  Bi110  1  0.35600654  0.71971176  0.20687689  1
  Bi2+  Bi111  1  0.38015857  0.76340553  0.71395901  1
  Bi2+  Bi112  1  0.60771730  0.03084155  0.23360170  1
  Bi2+  Bi113  1  0.60841925  0.02209823  0.70599778  1
  Bi2+  Bi114  1  0.67642070  0.22203998  0.19708018  1
  Bi2+  Bi115  1  0.59542728  0.24072830  0.70777350  1
  Bi2+  Bi116  1  0.64666123  0.41273742  0.22681502  1
  Bi2+  Bi117  1  0.61419456  0.49980808  0.70743083  1
  Bi2+  Bi118  1  0.60748477  0.76922798  0.19920594  1
  Bi2+  Bi119  1  0.61411160  0.75829591  0.70926293  1
  Bi2+  Bi120  1  0.87479921  0.01402988  0.20985827  1
  Bi2+  Bi121  1  0.79688810  -0.00253125  0.68075608  1
  Bi2+  Bi122  1  0.87855431  0.25283132  0.20066873  1
  Bi2+  Bi123  1  0.87912253  0.17215770  0.70895695  1
  Bi2+  Bi124  1  0.90373909  0.46379484  0.21604015  1
  Bi2+  Bi125  1  0.91617798  0.48272521  0.72788956  1
  Bi2+  Bi126  1  0.85763446  0.75504273  0.19577143  1
  Bi2+  Bi127  1  0.88667049  0.74940618  0.71258396  1
  S2-  S128  1  -0.00789663  0.15613238  0.15112059  1
  S2-  S129  1  0.02374409  0.13561436  0.65417253  1
  S2-  S130  1  0.08432947  0.38393341  0.14758230  1
  S2-  S131  1  0.02683402  0.39956783  0.66374790  1
  S2-  S132  1  -0.03137991  0.65340136  0.14225248  1
  S2-  S133  1  -0.09700769  0.61441532  0.65815718  1
  S2-  S134  1  -0.11236577  0.88957175  0.13411851  1
  S2-  S135  1  -0.01222113  0.82012649  0.64662571  1
  S2-  S136  1  0.24057964  0.20468303  0.14666654  1
  S2-  S137  1  0.26345019  0.23987622  0.64067194  1
  S2-  S138  1  0.30161706  0.37753211  0.19144527  1
  S2-  S139  1  0.27949169  0.47366895  0.64112510  1
  S2-  S140  1  0.28075504  0.58388317  0.17327901  1
  S2-  S141  1  0.13820483  0.62829703  0.64933000  1
  S2-  S142  1  0.24086255  0.77806698  0.14456659  1
  S2-  S143  1  0.25968560  0.84524377  0.65730986  1
  S2-  S144  1  0.50848770  0.09138247  0.15592990  1
  S2-  S145  1  0.50264466  0.11672471  0.65040022  1
  S2-  S146  1  0.52066356  0.38398598  0.15393471  1
  S2-  S147  1  0.57275785  0.37637230  0.63854316  1
  S2-  S148  1  0.51302026  0.62332434  0.17459767  1
  S2-  S149  1  0.57695792  0.62835229  0.63895932  1
  S2-  S150  1  0.46367869  0.82399441  0.15652897  1
  S2-  S151  1  0.52358278  0.86904126  0.66286803  1
  S2-  S152  1  0.76764607  0.10814876  0.14205957  1
  S2-  S153  1  0.73730446  0.22112824  0.65073812  1
  S2-  S154  1  0.77334834  0.43125709  0.15465823  1
  S2-  S155  1  0.78610319  0.41789445  0.69037143  1
  S2-  S156  1  0.73397393  0.66195444  0.16366879  1
  S2-  S157  1  0.72884602  0.61906811  0.71747550  1
  S2-  S158  1  0.64936544  0.89475923  0.14684224  1
  S2-  S159  1  0.75067371  0.78505344  0.64718983  1
  S2-  S160  1  0.10458330  -0.00136321  0.34485894  1
  S2-  S161  1  0.12821655  -0.10842194  0.85834013  1
  S2-  S162  1  0.13817933  0.26304340  0.34244563  1
  S2-  S163  1  0.18165686  0.26987650  0.84875052  1
  S2-  S164  1  0.17278232  0.49819804  0.35005997  1
  S2-  S165  1  0.07437410  0.46277742  0.81993415  1
  S2-  S166  1  0.13195089  0.72977119  0.34165364  1
  S2-  S167  1  0.14684014  0.66462683  0.85396423  1
  S2-  S168  1  0.34804162  -0.05299643  0.35126269  1
  S2-  S169  1  0.36337088  -0.03467949  0.85755947  1
  S2-  S170  1  0.36338677  0.34119017  0.35390809  1
  S2-  S171  1  0.40129599  0.25077878  0.84650595  1
  S2-  S172  1  0.39061355  0.52557218  0.31898315  1
  S2-  S173  1  0.29489991  0.49770700  0.86352144  1
  S2-  S174  1  0.39029324  0.72874338  0.33494066  1
  S2-  S175  1  0.49209125  0.76150322  0.86251251  1
  S2-  S176  1  0.59455047  -0.11364434  0.35897756  1
  S2-  S177  1  0.60727760  -0.02494757  0.84122325  1
  S2-  S178  1  0.65328481  0.26532393  0.34444553  1
  S2-  S179  1  0.64509796  0.25639372  0.83522265  1
  S2-  S180  1  0.63011694  0.49774216  0.32820921  1
  S2-  S181  1  0.64527960  0.48745701  0.84565658  1
  S2-  S182  1  0.64446197  0.70858392  0.32855805  1
  S2-  S183  1  0.71434778  0.76469685  0.85358131  1
  S2-  S184  1  0.75624667  0.01594252  0.35753487  1
  S2-  S185  1  0.87921790  -0.09439410  0.84644329  1
  S2-  S186  1  0.89107957  0.28609266  0.35060915  1
  S2-  S187  1  0.87849106  0.27680339  0.83731112  1
  S2-  S188  1  0.87482773  0.52107547  0.35186529  1
  S2-  S189  1  0.85968997  0.48627254  0.83746127  1
  S2-  S190  1  0.84579690  0.76472474  0.33559933  1
  S2-  S191  1  0.91212321  0.69859030  0.81637543  1
  S2-  S192  1  0.00098509  0.11966758  0.45011948  1
  S2-  S193  1  -0.00075525  0.13655643  0.94685327  1
  S2-  S194  1  0.00269180  0.37157978  0.45764508  1
  S2-  S195  1  -0.00141760  0.39237959  0.95011969  1
  S2-  S196  1  0.00424585  0.61516871  0.45747105  1
  S2-  S197  1  -0.00577395  0.63421712  0.94122513  1
  S2-  S198  1  0.00332470  0.86717070  0.44622667  1
  S2-  S199  1  -0.00572741  0.89084041  0.95238062  1
  S2-  S200  1  0.25185413  0.11780528  0.45536315  1
  S2-  S201  1  0.24422883  0.13413751  0.95263018  1
  S2-  S202  1  0.24881378  0.36682592  0.45775052  1
  S2-  S203  1  0.24063098  0.38772024  0.96435735  1
  S2-  S204  1  0.25262200  0.61511173  0.45660976  1
  S2-  S205  1  0.24917282  0.64395406  0.96368018  1
  S2-  S206  1  0.25071326  0.86693205  0.45210368  1
  S2-  S207  1  0.24830933  0.89221081  0.96210812  1
  S2-  S208  1  0.50326991  0.11634591  0.44840053  1
  S2-  S209  1  0.49247874  0.14051931  0.95246599  1
  S2-  S210  1  0.50460980  0.36613463  0.44356407  1
  S2-  S211  1  0.49256388  0.38846647  0.94993702  1
  S2-  S212  1  0.50036443  0.61664488  0.44068629  1
  S2-  S213  1  0.49313448  0.63483039  0.96322013  1
  S2-  S214  1  0.49256113  0.86779198  0.45704986  1
  S2-  S215  1  0.49535251  0.89378496  0.96399834  1
  S2-  S216  1  0.75419135  0.12326457  0.46009689  1
  S2-  S217  1  0.74616258  0.14206437  0.94186532  1
  S2-  S218  1  0.74977706  0.36735092  0.45774839  1
  S2-  S219  1  0.74561296  0.38690496  0.95197969  1
  S2-  S220  1  0.74869973  0.62093505  0.44574779  1
  S2-  S221  1  0.74666310  0.63370523  0.95380076  1
  S2-  S222  1  0.75691904  0.86675178  0.45230003  1
  S2-  S223  1  0.74361770  0.89291454  0.95529787  1
  S2-  S224  1  0.11771860  0.01344080  0.04023083  1
  S2-  S225  1  0.12433149  -0.00702888  0.54946857  1
  S2-  S226  1  0.11819550  0.25666917  0.04548062  1
  S2-  S227  1  0.12166386  0.24463814  0.54677482  1
  S2-  S228  1  0.12306711  0.51633255  0.05196519  1
  S2-  S229  1  0.12628854  0.49172367  0.54834741  1
  S2-  S230  1  0.11573776  0.76826089  0.04371119  1
  S2-  S231  1  0.12816126  0.74519875  0.54586639  1
  S2-  S232  1  0.37236668  0.01377231  0.05593657  1
  S2-  S233  1  0.37708313  -0.00489662  0.55098437  1
  S2-  S234  1  0.36824557  0.26193770  0.05006449  1
  S2-  S235  1  0.38218280  0.24142562  0.53952445  1
  S2-  S236  1  0.37050720  0.51085683  0.05927723  1
  S2-  S237  1  0.38101293  0.49352525  0.53296499  1
  S2-  S238  1  0.37631183  0.76941361  0.04563165  1
  S2-  S239  1  0.37641480  0.73795457  0.54663567  1
  S2-  S240  1  0.62388435  0.01989585  0.04467395  1
  S2-  S241  1  0.62641942  -0.00738360  0.54579695  1
  S2-  S242  1  0.62157530  0.26135831  0.04233827  1
  S2-  S243  1  0.62493802  0.24080966  0.54411561  1
  S2-  S244  1  0.62168452  0.51598685  0.05143310  1
  S2-  S245  1  0.63345903  0.49569216  0.53982995  1
  S2-  S246  1  0.62236366  0.76233633  0.04625699  1
  S2-  S247  1  0.62856879  0.74436445  0.53704668  1
  S2-  S248  1  0.87226162  0.01820267  0.03373509  1
  S2-  S249  1  0.87903491  -0.00772390  0.53996724  1
  S2-  S250  1  0.87295880  0.26286972  0.04315103  1
  S2-  S251  1  0.87522254  0.24716273  0.55357253  1
  S2-  S252  1  0.87127145  0.51174786  0.04196134  1
  S2-  S253  1  0.86999858  0.49376071  0.55754644  1
  S2-  S254  1  0.87292064  0.76276458  0.03229498  1
  S2-  S255  1  0.87892531  0.74037462  0.54217066  1
