# generated using pymatgen
data_La6Ce6Pr19Nd20Sm13(BiS2)64
_symmetry_space_group_name_H-M   'P 1'
_cell_length_a   16.14675613
_cell_length_b   15.92424267
_cell_length_c   27.38374060
_cell_angle_alpha   90.32007027
_cell_angle_beta   90.13672997
_cell_angle_gamma   89.99629101
_symmetry_Int_Tables_number   1
_chemical_formula_structural   La6Ce6Pr19Nd20Sm13(BiS2)64
_chemical_formula_sum   'La6 Ce6 Pr19 Nd20 Sm13 Bi64 S128'
_cell_volume   7040.91062803
_cell_formula_units_Z   1
loop_
 _symmetry_equiv_pos_site_id
 _symmetry_equiv_pos_as_xyz
  1  'x, y, z'
loop_
 _atom_type_symbol
 _atom_type_oxidation_number
  La3+  3.0
  Ce3+  3.0
  Pr3+  3.0
  Nd3+  3.0
  Sm3+  3.0
  Bi2+  2.0
  S2-  -2.0
loop_
 _atom_site_type_symbol
 _atom_site_label
 _atom_site_symmetry_multiplicity
 _atom_site_fract_x
 _atom_site_fract_y
 _atom_site_fract_z
 _atom_site_occupancy
  La3+  La0  1  0.74183358  0.37611113  0.61075360  1
  La3+  La1  1  0.13236115  0.20094382  0.93409605  1
  La3+  La2  1  0.88679383  0.21430351  0.91811864  1
  La3+  La3  1  0.49034026  0.11859077  0.56294717  1
  La3+  La4  1  0.62405798  0.21008414  0.91984894  1
  La3+  La5  1  0.00196423  0.38097926  0.60578344  1
  Ce3+  Ce6  1  0.25749378  0.83145504  0.06719959  1
  Ce3+  Ce7  1  0.50788465  0.58978478  0.07236709  1
  Ce3+  Ce8  1  0.24179003  0.36654986  0.56725300  1
  Ce3+  Ce9  1  0.11328022  0.25260967  0.43942153  1
  Ce3+  Ce10  1  0.73827363  0.88061586  0.55632194  1
  Ce3+  Ce11  1  -0.01283169  0.62300793  0.55949643  1
  Pr3+  Pr12  1  0.63325757  -0.04463419  0.93790962  1
  Pr3+  Pr13  1  0.36465454  0.74812307  0.44100389  1
  Pr3+  Pr14  1  -0.01072589  0.12382194  0.56413241  1
  Pr3+  Pr15  1  0.75985825  0.08883811  0.05811809  1
  Pr3+  Pr16  1  0.61388438  0.24744291  0.44358982  1
  Pr3+  Pr17  1  0.25965411  0.07824912  0.07464672  1
  Pr3+  Pr18  1  0.23834979  0.87970469  0.55966327  1
  Pr3+  Pr19  1  0.86231660  0.74444436  0.43697353  1
  Pr3+  Pr20  1  0.36155411  0.00246087  0.41843341  1
  Pr3+  Pr21  1  0.61622358  -0.00451418  0.41761145  1
  Pr3+  Pr22  1  0.51215784  0.33932082  0.07261515  1
  Pr3+  Pr23  1  0.49216280  0.36539769  0.57961021  1
  Pr3+  Pr24  1  0.61411873  0.74389700  0.43064056  1
  Pr3+  Pr25  1  0.76867187  0.83450165  0.07995187  1
  Pr3+  Pr26  1  0.76085899  0.33646026  0.05500833  1
  Pr3+  Pr27  1  0.51154955  0.83868369  0.07259194  1
  Pr3+  Pr28  1  0.86590970  -0.00114795  0.42559506  1
  Pr3+  Pr29  1  0.13448688  0.71475361  0.92593456  1
  Pr3+  Pr30  1  0.38417710  0.20031870  0.94026151  1
  Nd3+  Nd31  1  0.00240123  0.08512591  0.06417615  1
  Nd3+  Nd32  1  0.38592530  0.45856638  0.94393997  1
  Nd3+  Nd33  1  0.63024712  0.46105088  0.94395217  1
  Nd3+  Nd34  1  0.23828258  0.12462990  0.55541474  1
  Nd3+  Nd35  1  0.38355312  -0.04192764  0.94029883  1
  Nd3+  Nd36  1  0.13563276  0.46015238  0.93252549  1
  Nd3+  Nd37  1  0.49142138  0.62581521  0.56791232  1
  Nd3+  Nd38  1  0.11269230  0.00822590  0.42250973  1
  Nd3+  Nd39  1  0.36771024  0.49421387  0.44610642  1
  Nd3+  Nd40  1  0.11347751  0.49611427  0.43878355  1
  Nd3+  Nd41  1  0.87874558  -0.03946121  0.93034117  1
  Nd3+  Nd42  1  0.86159709  0.49689815  0.45113427  1
  Nd3+  Nd43  1  0.73546484  0.62782200  0.57426152  1
  Nd3+  Nd44  1  0.88064761  0.46458329  0.93124186  1
  Nd3+  Nd45  1  0.87773054  0.71148525  0.92654706  1
  Nd3+  Nd46  1  0.63238055  0.70910310  0.93960616  1
  Nd3+  Nd47  1  -0.01167001  0.87698680  0.56019706  1
  Nd3+  Nd48  1  0.86326434  0.25074321  0.45070449  1
  Nd3+  Nd49  1  0.36884390  0.25475541  0.42935322  1
  Nd3+  Nd50  1  0.11449780  0.75025438  0.43898106  1
  Sm3+  Sm51  1  0.76266452  0.59064662  0.06292376  1
  Sm3+  Sm52  1  0.61544874  0.49597004  0.45450579  1
  Sm3+  Sm53  1  0.25914799  0.33205173  0.05593661  1
  Sm3+  Sm54  1  0.38596148  0.71680762  0.93965556  1
  Sm3+  Sm55  1  0.51717790  0.08986378  0.07420227  1
  Sm3+  Sm56  1  0.00679027  0.83210201  0.05414140  1
  Sm3+  Sm57  1  0.74157234  0.12494874  0.56254114  1
  Sm3+  Sm58  1  0.13204151  -0.04241101  0.94065677  1
  Sm3+  Sm59  1  0.00939971  0.33677072  0.05438381  1
  Sm3+  Sm60  1  0.23844524  0.62232542  0.55522774  1
  Sm3+  Sm61  1  0.48961798  0.87859749  0.54799538  1
  Sm3+  Sm62  1  0.25657060  0.58727992  0.04852322  1
  Sm3+  Sm63  1  0.01000801  0.58633895  0.04700228  1
  Bi2+  Bi64  1  -0.03945005  0.11541052  0.30049832  1
  Bi2+  Bi65  1  0.01553251  0.10686455  0.79298416  1
  Bi2+  Bi66  1  -0.00120214  0.37411609  0.29228934  1
  Bi2+  Bi67  1  0.01720332  0.39474258  0.79832942  1
  Bi2+  Bi68  1  -0.03156795  0.56881411  0.27034818  1
  Bi2+  Bi69  1  0.08071120  0.72020300  0.78127063  1
  Bi2+  Bi70  1  0.04630338  0.85701299  0.27182373  1
  Bi2+  Bi71  1  -0.02199253  0.88611785  0.77957386  1
  Bi2+  Bi72  1  0.21185065  0.11857142  0.28291530  1
  Bi2+  Bi73  1  0.24816351  0.09148923  0.78219616  1
  Bi2+  Bi74  1  0.17279650  0.35007573  0.24363571  1
  Bi2+  Bi75  1  0.25660284  0.36558071  0.78838287  1
  Bi2+  Bi76  1  0.18012253  0.60277337  0.30000297  1
  Bi2+  Bi77  1  0.35688862  0.62465750  0.78132401  1
  Bi2+  Bi78  1  0.24407562  0.86678881  0.27476303  1
  Bi2+  Bi79  1  0.25904681  0.81199043  0.79127910  1
  Bi2+  Bi80  1  0.47826328  0.14597428  0.28571047  1
  Bi2+  Bi81  1  0.48863260  0.11451427  0.79763923  1
  Bi2+  Bi82  1  0.50165651  0.40232753  0.30317243  1
  Bi2+  Bi83  1  0.51678689  0.39989440  0.80963567  1
  Bi2+  Bi84  1  0.46243355  0.67124943  0.32707845  1
  Bi2+  Bi85  1  0.54398171  0.68100529  0.80272521  1
  Bi2+  Bi86  1  0.49105819  0.86694394  0.28441786  1
  Bi2+  Bi87  1  0.45307622  0.88299034  0.77161092  1
  Bi2+  Bi88  1  0.76990292  0.15856471  0.27790926  1
  Bi2+  Bi89  1  0.74362793  0.05047145  0.78093329  1
  Bi2+  Bi90  1  0.73789062  0.44033978  0.29218085  1
  Bi2+  Bi91  1  0.75232247  0.45096210  0.80864431  1
  Bi2+  Bi92  1  0.73186552  0.64270293  0.31376688  1
  Bi2+  Bi93  1  0.79732736  0.71430513  0.79058087  1
  Bi2+  Bi94  1  0.75144654  0.88553341  0.28521153  1
  Bi2+  Bi95  1  0.66278154  0.86231103  0.76301810  1
  Bi2+  Bi96  1  0.06973656  0.01913062  0.20438880  1
  Bi2+  Bi97  1  0.12491876  -0.01169425  0.71059660  1
  Bi2+  Bi98  1  0.04220914  0.21666720  0.19943377  1
  Bi2+  Bi99  1  0.15363364  0.25838690  0.70977218  1
  Bi2+  Bi100  1  0.11608792  0.52926285  0.19831315  1
  Bi2+  Bi101  1  0.19919783  0.52766300  0.72448084  1
  Bi2+  Bi102  1  0.16667950  0.74547025  0.19768676  1
  Bi2+  Bi103  1  0.18902031  0.80095794  0.68403922  1
  Bi2+  Bi104  1  0.35694673  0.01339457  0.20807288  1
  Bi2+  Bi105  1  0.36835977  0.01511137  0.70442671  1
  Bi2+  Bi106  1  0.35894683  0.28429450  0.20715417  1
  Bi2+  Bi107  1  0.37828369  0.25465034  0.71850640  1
  Bi2+  Bi108  1  0.35859420  0.53946915  0.27131743  1
  Bi2+  Bi109  1  0.38474668  0.45803416  0.71297870  1
  Bi2+  Bi110  1  0.37262027  0.71679028  0.21314070  1
  Bi2+  Bi111  1  0.45480950  0.72362314  0.70019940  1
  Bi2+  Bi112  1  0.61291817  0.00658942  0.21672893  1
  Bi2+  Bi113  1  0.59939185  0.02482727  0.70408016  1
  Bi2+  Bi114  1  0.62283232  0.23929709  0.21125507  1
  Bi2+  Bi115  1  0.62752530  0.27120483  0.72262711  1
  Bi2+  Bi116  1  0.61008089  0.50744726  0.21227744  1
  Bi2+  Bi117  1  0.62324327  0.56039416  0.71625829  1
  Bi2+  Bi118  1  0.59177090  0.70274495  0.23972349  1
  Bi2+  Bi119  1  0.79647710  0.78750595  0.68061761  1
  Bi2+  Bi120  1  0.87198299  -0.00813605  0.20159248  1
  Bi2+  Bi121  1  0.86329200  -0.02228434  0.70111929  1
  Bi2+  Bi122  1  0.85191016  0.31985889  0.21907199  1
  Bi2+  Bi123  1  0.88042848  0.23104789  0.71480122  1
  Bi2+  Bi124  1  0.80844817  0.53648659  0.19624824  1
  Bi2+  Bi125  1  0.89490663  0.59786879  0.72091325  1
  Bi2+  Bi126  1  0.91155567  0.72888599  0.20681874  1
  Bi2+  Bi127  1  0.99422300  0.75213236  0.67330736  1
  S2-  S128  1  -0.12026383  0.10810330  0.13564610  1
  S2-  S129  1  0.00641871  0.21364389  0.65318977  1
  S2-  S130  1  -0.02000149  0.35360988  0.15073464  1
  S2-  S131  1  -0.04031187  0.38101962  0.70922666  1
  S2-  S132  1  0.01181513  0.62681865  0.14216705  1
  S2-  S133  1  0.00459503  0.56065814  0.64880376  1
  S2-  S134  1  -0.07605173  0.84986950  0.13979871  1
  S2-  S135  1  -0.00350787  0.99223835  0.63668348  1
  S2-  S136  1  0.27560788  0.15537242  0.16876730  1
  S2-  S137  1  0.26243339  0.23063842  0.63834771  1
  S2-  S138  1  0.25736717  0.37878234  0.15037164  1
  S2-  S139  1  0.15897876  0.40403838  0.65225746  1
  S2-  S140  1  0.26254318  0.63645501  0.14231649  1
  S2-  S141  1  0.24568127  0.64183738  0.65264777  1
  S2-  S142  1  0.25830257  0.93750787  0.14488985  1
  S2-  S143  1  0.24154876  1.00571580  0.63221511  1
  S2-  S144  1  0.48699716  0.22273261  0.14859205  1
  S2-  S145  1  0.49487481  0.22255610  0.64859049  1
  S2-  S146  1  0.49713909  0.46914345  0.14436189  1
  S2-  S147  1  0.58966241  0.40656717  0.66370156  1
  S2-  S148  1  0.50598103  0.71365741  0.14672629  1
  S2-  S149  1  0.59887553  0.66572033  0.64389333  1
  S2-  S150  1  0.49054345  0.96585433  0.14703849  1
  S2-  S151  1  0.48784463  0.97582085  0.63015621  1
  S2-  S152  1  0.65533883  0.10593805  0.14290608  1
  S2-  S153  1  0.74083241  0.20996920  0.65344841  1
  S2-  S154  1  0.71155017  0.32986047  0.15226896  1
  S2-  S155  1  0.76452960  0.36239021  0.72409420  1
  S2-  S156  1  0.77448042  0.68824992  0.14492026  1
  S2-  S157  1  0.76777513  0.53963698  0.66028133  1
  S2-  S158  1  0.71802174  0.89622449  0.17707786  1
  S2-  S159  1  0.72618760  0.99420762  0.63159937  1
  S2-  S160  1  0.23082694  -0.00910201  0.34783237  1
  S2-  S161  1  0.14007118  0.06537734  0.86129537  1
  S2-  S162  1  0.10361619  0.17093195  0.35230903  1
  S2-  S163  1  0.03924802  0.24210979  0.84892517  1
  S2-  S164  1  0.13049632  0.42995990  0.34610293  1
  S2-  S165  1  0.12871488  0.50785569  0.83758747  1
  S2-  S166  1  0.08867907  0.73164659  0.34132845  1
  S2-  S167  1  0.13364107  0.84524581  0.85864942  1
  S2-  S168  1  0.48711718  0.01250086  0.34466943  1
  S2-  S169  1  0.36551413  0.07417100  0.86282244  1
  S2-  S170  1  0.34175355  0.17841206  0.33693319  1
  S2-  S171  1  0.47420594  0.25612839  0.85769043  1
  S2-  S172  1  0.37320901  0.39655085  0.36302623  1
  S2-  S173  1  0.37674527  0.46525237  0.84467913  1
  S2-  S174  1  0.35072562  0.80929467  0.34721224  1
  S2-  S175  1  0.38455757  0.83337746  0.86519089  1
  S2-  S176  1  0.74868758  0.01766385  0.34697932  1
  S2-  S177  1  0.61853266  0.06535913  0.85515174  1
  S2-  S178  1  0.57204540  0.26064472  0.34464906  1
  S2-  S179  1  0.66392812  0.30431528  0.82982419  1
  S2-  S180  1  0.61305278  0.51869770  0.35592943  1
  S2-  S181  1  0.62094856  0.54719560  0.85667775  1
  S2-  S182  1  0.62210854  0.84908027  0.34873898  1
  S2-  S183  1  0.62442720  0.82024930  0.86190765  1
  S2-  S184  1  0.98781511  -0.02635165  0.35127051  1
  S2-  S185  1  0.87685272  0.07842618  0.85074122  1
  S2-  S186  1  0.85622029  0.24137939  0.34954412  1
  S2-  S187  1  0.87137078  0.35589053  0.84979398  1
  S2-  S188  1  0.85723392  0.53385866  0.35290298  1
  S2-  S189  1  0.85870995  0.58356399  0.85363156  1
  S2-  S190  1  0.83947004  0.77187644  0.33742115  1
  S2-  S191  1  0.87222534  0.83782942  0.85357453  1
  S2-  S192  1  -0.01325016  0.12665555  0.45628286  1
  S2-  S193  1  0.00532103  0.08116521  0.95851361  1
  S2-  S194  1  -0.01316734  0.37567970  0.44820895  1
  S2-  S195  1  0.01114569  0.34220835  0.95269406  1
  S2-  S196  1  -0.00975291  0.62216959  0.45233360  1
  S2-  S197  1  0.01190224  0.58790344  0.94423255  1
  S2-  S198  1  -0.01196028  0.86829173  0.45434335  1
  S2-  S199  1  0.00543887  0.83388714  0.95261981  1
  S2-  S200  1  0.24088810  0.13013182  0.45078317  1
  S2-  S201  1  0.25464882  0.07958454  0.96759766  1
  S2-  S202  1  0.23924829  0.37441522  0.46019418  1
  S2-  S203  1  0.25840143  0.33218848  0.94900335  1
  S2-  S204  1  0.24051675  0.62045908  0.45002108  1
  S2-  S205  1  0.26131131  0.58969876  0.94408919  1
  S2-  S206  1  0.23668072  0.87223776  0.45295097  1
  S2-  S207  1  0.25602942  0.83400948  0.96174376  1
  S2-  S208  1  0.48768524  0.12501840  0.45152245  1
  S2-  S209  1  0.50972558  0.08102181  0.96527553  1
  S2-  S210  1  0.49351959  0.37551989  0.46747181  1
  S2-  S211  1  0.50760723  0.33859816  0.96440197  1
  S2-  S212  1  0.49037496  0.62148419  0.46283692  1
  S2-  S213  1  0.50265653  0.58930341  0.96057917  1
  S2-  S214  1  0.48895868  0.87219985  0.44735594  1
  S2-  S215  1  0.50844139  0.83312458  0.96585056  1
  S2-  S216  1  0.74046096  0.12461181  0.45616367  1
  S2-  S217  1  0.75648621  0.08899499  0.95190036  1
  S2-  S218  1  0.73742930  0.37511002  0.44894498  1
  S2-  S219  1  0.75459635  0.33768861  0.95033220  1
  S2-  S220  1  0.73651164  0.62315473  0.46359994  1
  S2-  S221  1  0.75621111  0.58628828  0.95988005  1
  S2-  S222  1  0.74081222  0.87096569  0.45150586  1
  S2-  S223  1  0.75905071  0.83207383  0.96105585  1
  S2-  S224  1  0.12565492  -0.04152386  0.04703133  1
  S2-  S225  1  0.11250789  -0.00058095  0.53138685  1
  S2-  S226  1  0.13130428  0.21066927  0.04820267  1
  S2-  S227  1  0.10961283  0.25393988  0.54473136  1
  S2-  S228  1  0.13499434  0.46087580  0.04052184  1
  S2-  S229  1  0.11559889  0.49992903  0.54413207  1
  S2-  S230  1  0.13185262  0.71061768  0.03611074  1
  S2-  S231  1  0.11560466  0.74817729  0.54480592  1
  S2-  S232  1  0.38270283  -0.04239946  0.04534302  1
  S2-  S233  1  0.36345412  -0.00211421  0.52881160  1
  S2-  S234  1  0.37969257  0.20911333  0.04689489  1
  S2-  S235  1  0.36968854  0.24838260  0.53762289  1
  S2-  S236  1  0.37614836  0.46229912  0.04676096  1
  S2-  S237  1  0.36692689  0.49990661  0.55467953  1
  S2-  S238  1  0.38046866  0.71115316  0.04276916  1
  S2-  S239  1  0.36530455  0.75055787  0.54889580  1
  S2-  S240  1  0.63999069  -0.04331183  0.04717062  1
  S2-  S241  1  0.61471688  -0.00074500  0.52856300  1
  S2-  S242  1  0.63312635  0.21551233  0.03819852  1
  S2-  S243  1  0.62224494  0.25128955  0.54924054  1
  S2-  S244  1  0.63887887  0.46803075  0.04851425  1
  S2-  S245  1  0.61643829  0.49752311  0.55573510  1
  S2-  S246  1  0.63832901  0.71116833  0.04650992  1
  S2-  S247  1  0.61304293  0.75549563  0.53875730  1
  S2-  S248  1  0.88446388  -0.04146574  0.03789904  1
  S2-  S249  1  0.86434688  -0.00063654  0.53513639  1
  S2-  S250  1  0.88822947  0.21786338  0.03318205  1
  S2-  S251  1  0.86399056  0.25657430  0.55536177  1
  S2-  S252  1  0.88607001  0.46437795  0.04254948  1
  S2-  S253  1  0.86425630  0.49246121  0.55529043  1
  S2-  S254  1  0.88745782  0.70751769  0.03550252  1
  S2-  S255  1  0.86245927  0.74929849  0.54530411  1
