# generated using pymatgen
data_La6Ce6Pr19Nd20Sm13(BiS2)64
_symmetry_space_group_name_H-M   'P 1'
_cell_length_a   16.03733096
_cell_length_b   16.06152691
_cell_length_c   27.31744662
_cell_angle_alpha   89.95065091
_cell_angle_beta   89.99547170
_cell_angle_gamma   90.00670451
_symmetry_Int_Tables_number   1
_chemical_formula_structural   La6Ce6Pr19Nd20Sm13(BiS2)64
_chemical_formula_sum   'La6 Ce6 Pr19 Nd20 Sm13 Bi64 S128'
_cell_volume   7036.53511273
_cell_formula_units_Z   1
loop_
 _symmetry_equiv_pos_site_id
 _symmetry_equiv_pos_as_xyz
  1  'x, y, z'
loop_
 _atom_type_symbol
 _atom_type_oxidation_number
  La3+  3.0
  Ce3+  3.0
  Pr3+  3.0
  Nd3+  3.0
  Sm3+  3.0
  Bi2+  2.0
  S2-  -2.0
loop_
 _atom_site_type_symbol
 _atom_site_label
 _atom_site_symmetry_multiplicity
 _atom_site_fract_x
 _atom_site_fract_y
 _atom_site_fract_z
 _atom_site_occupancy
  La3+  La0  1  0.26325792  0.87829990  0.61258426  1
  La3+  La1  1  0.48556837  0.62971335  0.07056371  1
  La3+  La2  1  -0.00736594  0.36979090  0.08314751  1
  La3+  La3  1  0.24800145  0.12070009  0.09115026  1
  La3+  La4  1  0.74303722  0.88077919  0.58085192  1
  La3+  La5  1  0.73779807  0.63659044  0.08786482  1
  Ce3+  Ce6  1  0.36448959  0.75294287  0.93772365  1
  Ce3+  Ce7  1  0.61313995  0.50751035  0.43633137  1
  Ce3+  Ce8  1  0.48688386  0.88229483  0.04658550  1
  Ce3+  Ce9  1  0.11125279  0.75447693  0.44562308  1
  Ce3+  Ce10  1  -0.00562533  0.12954646  0.05653619  1
  Ce3+  Ce11  1  0.11213243  0.25438713  0.43542042  1
  Pr3+  Pr12  1  0.86792629  0.50489529  0.94876010  1
  Pr3+  Pr13  1  0.11410035  0.00669570  0.92627477  1
  Pr3+  Pr14  1  0.48646142  0.37697843  0.06651674  1
  Pr3+  Pr15  1  0.85584195  0.75796925  0.43271017  1
  Pr3+  Pr16  1  0.73927605  0.12702006  0.06450850  1
  Pr3+  Pr17  1  0.86523595  0.25385078  0.42954842  1
  Pr3+  Pr18  1  0.35779723  0.25061345  0.42356535  1
  Pr3+  Pr19  1  0.10871858  0.75809029  0.89878562  1
  Pr3+  Pr20  1  0.36411443  0.25972708  0.93205407  1
  Pr3+  Pr21  1  0.11657624  0.50695989  0.43457602  1
  Pr3+  Pr22  1  0.23030668  0.63107604  0.57235279  1
  Pr3+  Pr23  1  0.23472223  0.13197714  0.57315185  1
  Pr3+  Pr24  1  0.73677081  0.13289552  0.57160719  1
  Pr3+  Pr25  1  0.49446476  0.12791901  0.06400908  1
  Pr3+  Pr26  1  0.23020074  0.37795800  0.57175339  1
  Pr3+  Pr27  1  -0.01712563  0.38302400  0.55363265  1
  Pr3+  Pr28  1  0.11545229  0.25305888  0.93265586  1
  Pr3+  Pr29  1  -0.01099489  0.13240202  0.56804538  1
  Pr3+  Pr30  1  0.36683958  0.01007901  0.92333362  1
  Nd3+  Nd31  1  -0.01861246  0.63023837  0.56423791  1
  Nd3+  Nd32  1  0.85894702  0.74963390  0.93065422  1
  Nd3+  Nd33  1  0.73580883  0.37945486  0.55152899  1
  Nd3+  Nd34  1  0.73892900  0.37860102  0.07680263  1
  Nd3+  Nd35  1  0.11374952  0.00492248  0.44654269  1
  Nd3+  Nd36  1  0.61375243  0.24858476  0.42509856  1
  Nd3+  Nd37  1  -0.00781010  0.87837674  0.05119523  1
  Nd3+  Nd38  1  0.48697265  0.88047251  0.55773615  1
  Nd3+  Nd39  1  0.23827548  0.88125456  0.05038115  1
  Nd3+  Nd40  1  0.48582137  0.63369198  0.55800342  1
  Nd3+  Nd41  1  0.85632429  0.51566666  0.41853332  1
  Nd3+  Nd42  1  -0.01050559  0.63055988  0.06077988  1
  Nd3+  Nd43  1  0.61821522  0.75041839  0.93729863  1
  Nd3+  Nd44  1  0.85974279  0.00560287  0.44729302  1
  Nd3+  Nd45  1  0.74086390  0.87911945  0.06151771  1
  Nd3+  Nd46  1  -0.00715388  0.87839935  0.56777006  1
  Nd3+  Nd47  1  0.61490468  0.25755318  0.93978193  1
  Nd3+  Nd48  1  0.35886645  0.00229161  0.43854582  1
  Nd3+  Nd49  1  0.48286947  0.13512367  0.56869041  1
  Nd3+  Nd50  1  0.48678100  0.37881046  0.55479199  1
  Sm3+  Sm51  1  0.24206764  0.37605883  0.06249343  1
  Sm3+  Sm52  1  0.86430088  0.00352923  0.94034577  1
  Sm3+  Sm53  1  0.36287568  0.50565374  0.44986871  1
  Sm3+  Sm54  1  0.61169087  0.00833315  0.45097241  1
  Sm3+  Sm55  1  0.73660540  0.62765951  0.56574349  1
  Sm3+  Sm56  1  0.36708445  0.51084711  0.93222607  1
  Sm3+  Sm57  1  0.61518564  0.75766393  0.44112897  1
  Sm3+  Sm58  1  0.61769792  0.00513181  0.93296042  1
  Sm3+  Sm59  1  0.86418869  0.25673915  0.94436139  1
  Sm3+  Sm60  1  0.23736848  0.62862902  0.05396111  1
  Sm3+  Sm61  1  0.61697428  0.50602138  0.95070542  1
  Sm3+  Sm62  1  0.11378457  0.50529730  0.94443156  1
  Sm3+  Sm63  1  0.35695843  0.75927624  0.43691513  1
  Bi2+  Bi64  1  -0.06688734  0.12699110  0.22863764  1
  Bi2+  Bi65  1  -0.01825973  0.13633027  0.77455385  1
  Bi2+  Bi66  1  0.02194502  0.35081674  0.30329462  1
  Bi2+  Bi67  1  -0.00662335  0.33238887  0.79832601  1
  Bi2+  Bi68  1  0.05778936  0.65644208  0.28836016  1
  Bi2+  Bi69  1  -0.02277152  0.60051993  0.79272242  1
  Bi2+  Bi70  1  0.02827297  0.85806573  0.25687833  1
  Bi2+  Bi71  1  -0.01589980  0.88485456  0.78659269  1
  Bi2+  Bi72  1  0.20097647  0.14272468  0.30267372  1
  Bi2+  Bi73  1  0.24616279  0.12491653  0.79884177  1
  Bi2+  Bi74  1  0.31581171  0.36285724  0.24283877  1
  Bi2+  Bi75  1  0.22395215  0.31288098  0.81176044  1
  Bi2+  Bi76  1  0.31602626  0.64113720  0.30737088  1
  Bi2+  Bi77  1  0.36207894  0.52428961  0.78829770  1
  Bi2+  Bi78  1  0.22056615  0.88065999  0.29554486  1
  Bi2+  Bi79  1  0.31215276  0.78513449  0.80535112  1
  Bi2+  Bi80  1  0.47712446  0.11387789  0.29907586  1
  Bi2+  Bi81  1  0.49351285  0.18873169  0.77195826  1
  Bi2+  Bi82  1  0.47412052  0.45185543  0.28747705  1
  Bi2+  Bi83  1  0.59776464  0.37564365  0.77882788  1
  Bi2+  Bi84  1  0.50681143  0.69448694  0.30609217  1
  Bi2+  Bi85  1  0.59140483  0.65588977  0.81195016  1
  Bi2+  Bi86  1  0.49426170  0.89501724  0.29623068  1
  Bi2+  Bi87  1  0.53285076  0.82002759  0.77056086  1
  Bi2+  Bi88  1  0.75950465  0.07355405  0.29824394  1
  Bi2+  Bi89  1  0.76535865  0.17236339  0.77280293  1
  Bi2+  Bi90  1  0.74429575  0.38356652  0.28660615  1
  Bi2+  Bi91  1  0.78430504  0.44233024  0.78430442  1
  Bi2+  Bi92  1  0.78907796  0.62617944  0.28783072  1
  Bi2+  Bi93  1  0.72810641  0.60965572  0.73318594  1
  Bi2+  Bi94  1  0.83542383  0.87640866  0.28696677  1
  Bi2+  Bi95  1  0.73647052  0.88733335  0.79955707  1
  Bi2+  Bi96  1  0.09722203  0.01814245  0.19830191  1
  Bi2+  Bi97  1  0.13751151  0.00510990  0.71445427  1
  Bi2+  Bi98  1  0.10369913  0.28888106  0.21255146  1
  Bi2+  Bi99  1  0.12905626  0.26703593  0.70758367  1
  Bi2+  Bi100  1  0.19826395  0.52124754  0.24524259  1
  Bi2+  Bi101  1  0.15215475  0.47972344  0.76132870  1
  Bi2+  Bi102  1  0.20923385  0.73399315  0.21280951  1
  Bi2+  Bi103  1  0.13630977  0.72967336  0.70915723  1
  Bi2+  Bi104  1  0.37631386  -0.02433208  0.19864827  1
  Bi2+  Bi105  1  0.39597658  -0.01796856  0.72420890  1
  Bi2+  Bi106  1  0.46969646  0.27852897  0.19453070  1
  Bi2+  Bi107  1  0.37532147  0.31460317  0.71837302  1
  Bi2+  Bi108  1  0.44128179  0.57746977  0.19847849  1
  Bi2+  Bi109  1  0.29358246  0.48847757  0.68303224  1
  Bi2+  Bi110  1  0.40526716  0.77667552  0.20908652  1
  Bi2+  Bi111  1  0.43256576  0.66554061  0.71038258  1
  Bi2+  Bi112  1  0.60719723  -0.01416132  0.20889446  1
  Bi2+  Bi113  1  0.62887354  0.04997173  0.72943319  1
  Bi2+  Bi114  1  0.62251857  0.23468284  0.26535065  1
  Bi2+  Bi115  1  0.68284521  0.27618255  0.68340172  1
  Bi2+  Bi116  1  0.62288388  0.49213271  0.21726823  1
  Bi2+  Bi117  1  0.50451079  0.48110688  0.69274319  1
  Bi2+  Bi118  1  0.66270126  0.79291031  0.26364348  1
  Bi2+  Bi119  1  0.68744969  0.79529694  0.70084971  1
  Bi2+  Bi120  1  0.79699315  0.01205921  0.18211656  1
  Bi2+  Bi121  1  0.87799273  0.00527172  0.70756872  1
  Bi2+  Bi122  1  0.76867775  0.21469660  0.18849894  1
  Bi2+  Bi123  1  0.87163351  0.20056619  0.67409228  1
  Bi2+  Bi124  1  0.93619972  0.49486583  0.20817553  1
  Bi2+  Bi125  1  0.90885991  0.39665432  0.69774431  1
  Bi2+  Bi126  1  0.90204597  0.74924025  0.18585259  1
  Bi2+  Bi127  1  0.88133703  0.72558808  0.71589612  1
  S2-  S128  1  -0.00054290  0.20930379  0.14247552  1
  S2-  S129  1  0.09273172  0.12958360  0.64986478  1
  S2-  S130  1  0.13378737  0.39762537  0.14299047  1
  S2-  S131  1  0.06236159  0.38557619  0.64410003  1
  S2-  S132  1  0.01677643  0.61330966  0.15985364  1
  S2-  S133  1  0.09306323  0.62381427  0.64529458  1
  S2-  S134  1  -0.00458477  0.88997025  0.15103012  1
  S2-  S135  1  0.09851327  0.87379250  0.65229194  1
  S2-  S136  1  0.20614396  0.14721634  0.19472755  1
  S2-  S137  1  0.27652474  0.03848530  0.65920298  1
  S2-  S138  1  0.35767806  0.37230142  0.13984708  1
  S2-  S139  1  0.26841529  0.26118442  0.64565275  1
  S2-  S140  1  0.27596087  0.61111489  0.14958763  1
  S2-  S141  1  0.28711852  0.71221883  0.65726714  1
  S2-  S142  1  0.23438189  0.95742806  0.14094985  1
  S2-  S143  1  0.25483116  0.87522657  0.73089030  1
  S2-  S144  1  0.39845340  0.12175699  0.14917747  1
  S2-  S145  1  0.49376686  0.09883709  0.66933180  1
  S2-  S146  1  0.60568633  0.37297361  0.14608454  1
  S2-  S147  1  0.51047610  0.31491365  0.64611671  1
  S2-  S148  1  0.58912142  0.63181267  0.15192318  1
  S2-  S149  1  0.56790671  0.62529768  0.64551522  1
  S2-  S150  1  0.50376668  0.88365820  0.14435916  1
  S2-  S151  1  0.43334409  0.87842880  0.65264738  1
  S2-  S152  1  0.62153188  0.11384200  0.14094516  1
  S2-  S153  1  0.72767576  0.01769334  0.65170350  1
  S2-  S154  1  0.85872617  0.37620998  0.15375787  1
  S2-  S155  1  0.74965868  0.42068426  0.64863924  1
  S2-  S156  1  0.80568596  0.58418800  0.18343680  1
  S2-  S157  1  0.85606652  0.62014259  0.63787516  1
  S2-  S158  1  0.75797743  0.78698326  0.14517702  1
  S2-  S159  1  0.88297317  0.86263462  0.64793104  1
  S2-  S160  1  0.13489996  0.00550175  0.34530757  1
  S2-  S161  1  0.11712950  -0.09316211  0.84072278  1
  S2-  S162  1  -0.00385501  0.22288985  0.35864488  1
  S2-  S163  1  0.09555712  0.13439754  0.85219390  1
  S2-  S164  1  0.10918967  0.50132422  0.33217337  1
  S2-  S165  1  0.06728280  0.48146330  0.85019516  1
  S2-  S166  1  0.16658978  0.73467838  0.35245077  1
  S2-  S167  1  0.16260249  0.68621582  0.81064912  1
  S2-  S168  1  0.34244768  0.10351010  0.35461367  1
  S2-  S169  1  0.37547804  -0.07089792  0.83078364  1
  S2-  S170  1  0.21901532  0.27715287  0.35608623  1
  S2-  S171  1  0.38700728  0.14594582  0.85142635  1
  S2-  S172  1  0.34290139  0.49035769  0.35331042  1
  S2-  S173  1  0.36525374  0.39278847  0.85921826  1
  S2-  S174  1  0.35550790  0.87747473  0.36005564  1
  S2-  S175  1  0.37804544  0.64270874  0.86210195  1
  S2-  S176  1  0.61354579  0.03931783  0.35437739  1
  S2-  S177  1  0.61923946  -0.00543948  0.83444308  1
  S2-  S178  1  0.49188084  0.25646168  0.35285993  1
  S2-  S179  1  0.60946735  0.23354766  0.84074144  1
  S2-  S180  1  0.70151208  0.53051182  0.35328343  1
  S2-  S181  1  0.59232421  0.50287786  0.85331572  1
  S2-  S182  1  0.71937845  0.78600291  0.36340912  1
  S2-  S183  1  0.73028134  0.74719506  0.85987923  1
  S2-  S184  1  0.88839342  0.00337678  0.34844407  1
  S2-  S185  1  0.86811807  -0.01728338  0.84324266  1
  S2-  S186  1  0.74621468  0.25127106  0.35294389  1
  S2-  S187  1  0.85586363  0.26266322  0.84620938  1
  S2-  S188  1  0.88780365  0.44990483  0.32353570  1
  S2-  S189  1  0.85026000  0.55164167  0.85130080  1
  S2-  S190  1  0.90617777  0.66165760  0.34934223  1
  S2-  S191  1  0.95638810  0.74621096  0.84631878  1
  S2-  S192  1  -0.01415582  0.12630768  0.46171828  1
  S2-  S193  1  -0.01681357  0.13066247  0.95167660  1
  S2-  S194  1  -0.01578653  0.38756224  0.44689529  1
  S2-  S195  1  -0.00898623  0.37608246  0.96073239  1
  S2-  S196  1  -0.01249789  0.62860753  0.45594942  1
  S2-  S197  1  -0.00470136  0.63303908  0.95426302  1
  S2-  S198  1  -0.01476482  0.87951697  0.45499227  1
  S2-  S199  1  -0.01192365  0.87915877  0.94750023  1
  S2-  S200  1  0.23524003  0.12965567  0.46145098  1
  S2-  S201  1  0.24131877  0.12948196  0.94689887  1
  S2-  S202  1  0.23984598  0.38494936  0.46147993  1
  S2-  S203  1  0.23515691  0.38333565  0.95670711  1
  S2-  S204  1  0.24182124  0.63118097  0.45926782  1
  S2-  S205  1  0.23127202  0.63185022  0.94947008  1
  S2-  S206  1  0.23469713  0.87831227  0.45702782  1
  S2-  S207  1  0.23780027  0.87511650  0.94529196  1
  S2-  S208  1  0.48678108  0.12791511  0.46007677  1
  S2-  S209  1  0.49723674  0.12751226  0.95408858  1
  S2-  S210  1  0.48871583  0.38346960  0.44997834  1
  S2-  S211  1  0.49217481  0.38246035  0.95861576  1
  S2-  S212  1  0.48675048  0.63458592  0.45064030  1
  S2-  S213  1  0.49371502  0.62902832  0.96182178  1
  S2-  S214  1  0.49242407  0.87888690  0.45334760  1
  S2-  S215  1  0.49392687  0.87848465  0.94134212  1
  S2-  S216  1  0.73708671  0.12962672  0.46132717  1
  S2-  S217  1  0.74055462  0.12960493  0.95042233  1
  S2-  S218  1  0.73573593  0.38085753  0.44714866  1
  S2-  S219  1  0.74069468  0.38044981  0.95617928  1
  S2-  S220  1  0.73440940  0.63267325  0.46001234  1
  S2-  S221  1  0.73921990  0.62640306  0.96514067  1
  S2-  S222  1  0.73344164  0.88593712  0.46753469  1
  S2-  S223  1  0.74013887  0.88316469  0.95498435  1
  S2-  S224  1  0.11558423  0.00685556  0.03722124  1
  S2-  S225  1  0.11351232  0.00443313  0.55022632  1
  S2-  S226  1  0.12696765  0.24540940  0.04246753  1
  S2-  S227  1  0.10935916  0.25784423  0.54168238  1
  S2-  S228  1  0.11459285  0.50621363  0.04578961  1
  S2-  S229  1  0.11155115  0.50564897  0.54064681  1
  S2-  S230  1  0.11691525  0.75439989  0.05584474  1
  S2-  S231  1  0.11118063  0.75437086  0.54720349  1
  S2-  S232  1  0.36344747  0.00635772  0.03496145  1
  S2-  S233  1  0.36477817  0.00536149  0.54675393  1
  S2-  S234  1  0.36237846  0.24801154  0.04067963  1
  S2-  S235  1  0.36366181  0.25687487  0.53935656  1
  S2-  S236  1  0.36168824  0.50586489  0.03848190  1
  S2-  S237  1  0.36276718  0.50621130  0.55386406  1
  S2-  S238  1  0.36124957  0.75448444  0.04554647  1
  S2-  S239  1  0.36223898  0.75717526  0.54196942  1
  S2-  S240  1  0.61702881  0.00000539  0.03794598  1
  S2-  S241  1  0.60831430  0.00736964  0.55393365  1
  S2-  S242  1  0.61876891  0.25511791  0.04366552  1
  S2-  S243  1  0.61214140  0.25294316  0.53825903  1
  S2-  S244  1  0.61755090  0.50454960  0.05260443  1
  S2-  S245  1  0.61204433  0.50635893  0.54201162  1
  S2-  S246  1  0.61350910  0.75751480  0.04325630  1
  S2-  S247  1  0.61521012  0.75604469  0.54617717  1
  S2-  S248  1  0.86648066  0.00473225  0.04535418  1
  S2-  S249  1  0.86519104  0.00777848  0.55157773  1
  S2-  S250  1  0.86143125  0.25181614  0.04697286  1
  S2-  S251  1  0.86054779  0.25546603  0.54065199  1
  S2-  S252  1  0.86449818  0.50585083  0.05421877  1
  S2-  S253  1  0.85683150  0.50551264  0.53322691  1
  S2-  S254  1  0.86666047  0.75409376  0.03987121  1
  S2-  S255  1  0.85886530  0.75533542  0.54042870  1
