# generated using pymatgen
data_La6Ce6Pr19Nd20Sm13(BiS2)64
_symmetry_space_group_name_H-M   'P 1'
_cell_length_a   16.06813662
_cell_length_b   16.09869313
_cell_length_c   27.50931738
_cell_angle_alpha   90.12874630
_cell_angle_beta   89.71343132
_cell_angle_gamma   89.98461623
_symmetry_Int_Tables_number   1
_chemical_formula_structural   La6Ce6Pr19Nd20Sm13(BiS2)64
_chemical_formula_sum   'La6 Ce6 Pr19 Nd20 Sm13 Bi64 S128'
_cell_volume   7115.89294952
_cell_formula_units_Z   1
loop_
 _symmetry_equiv_pos_site_id
 _symmetry_equiv_pos_as_xyz
  1  'x, y, z'
loop_
 _atom_type_symbol
 _atom_type_oxidation_number
  La3+  3.0
  Ce3+  3.0
  Pr3+  3.0
  Nd3+  3.0
  Sm3+  3.0
  Bi2+  2.0
  S2-  -2.0
loop_
 _atom_site_type_symbol
 _atom_site_label
 _atom_site_symmetry_multiplicity
 _atom_site_fract_x
 _atom_site_fract_y
 _atom_site_fract_z
 _atom_site_occupancy
  La3+  La0  1  0.73493527  0.11701955  0.56877823  1
  La3+  La1  1  0.62403634  0.76564016  0.93099810  1
  La3+  La2  1  -0.01536230  0.88053916  0.07841141  1
  La3+  La3  1  0.36173973  0.23867992  0.39175091  1
  La3+  La4  1  0.52373658  0.62009867  0.61375838  1
  La3+  La5  1  0.24143467  0.11842102  0.57010660  1
  Ce3+  Ce6  1  0.87127743  0.24135429  0.44904431  1
  Ce3+  Ce7  1  0.49211772  0.38109347  0.05049349  1
  Ce3+  Ce8  1  0.11520012  0.75537884  0.94228476  1
  Ce3+  Ce9  1  0.73856240  0.63040016  0.06353092  1
  Ce3+  Ce10  1  0.36597102  0.50476970  0.93907819  1
  Ce3+  Ce11  1  0.61680825  -0.00364451  0.42937263  1
  Pr3+  Pr12  1  0.24032542  0.38019520  0.05673341  1
  Pr3+  Pr13  1  0.87074635  0.48062184  0.42840415  1
  Pr3+  Pr14  1  0.49058055  0.87844601  0.06630388  1
  Pr3+  Pr15  1  0.61805709  0.23894004  0.43118661  1
  Pr3+  Pr16  1  0.24167230  0.36607275  0.56106264  1
  Pr3+  Pr17  1  0.11564302  0.74403140  0.43623990  1
  Pr3+  Pr18  1  -0.00723598  0.61694001  0.55941629  1
  Pr3+  Pr19  1  0.61649557  0.48423632  0.42371728  1
  Pr3+  Pr20  1  -0.00807131  0.86627776  0.57299121  1
  Pr3+  Pr21  1  0.36487957  0.49415634  0.43053057  1
  Pr3+  Pr22  1  -0.01676875  0.11747851  0.57978120  1
  Pr3+  Pr23  1  0.74016268  0.13356031  0.05288241  1
  Pr3+  Pr24  1  -0.01715369  0.37983359  0.61173824  1
  Pr3+  Pr25  1  0.24205549  0.13286839  0.07181429  1
  Pr3+  Pr26  1  0.73859593  0.38212198  0.05629065  1
  Pr3+  Pr27  1  0.86829117  0.50898186  0.93822654  1
  Pr3+  Pr28  1  -0.01077417  0.13525404  0.05999222  1
  Pr3+  Pr29  1  0.73573257  0.88100264  0.06681617  1
  Pr3+  Pr30  1  0.36772881  0.73903942  0.42750624  1
  Nd3+  Nd31  1  0.61449457  0.51684509  0.92895838  1
  Nd3+  Nd32  1  0.49401373  0.11896311  0.55713956  1
  Nd3+  Nd33  1  0.86923404  0.25838777  0.92752764  1
  Nd3+  Nd34  1  -0.00837698  0.38022121  0.05290394  1
  Nd3+  Nd35  1  0.48987897  0.37529627  0.55122033  1
  Nd3+  Nd36  1  0.61709152  0.73766605  0.43638725  1
  Nd3+  Nd37  1  0.61898045  0.25616806  0.92416151  1
  Nd3+  Nd38  1  0.48964650  0.85934503  0.55090828  1
  Nd3+  Nd39  1  0.49415555  0.13394521  0.05979803  1
  Nd3+  Nd40  1  0.13561761  0.22527822  0.89339192  1
  Nd3+  Nd41  1  0.87192018  0.00876204  0.94077751  1
  Nd3+  Nd42  1  0.11971152  0.48691509  0.44926921  1
  Nd3+  Nd43  1  0.36774341  0.76203415  0.93304994  1
  Nd3+  Nd44  1  0.23943494  0.87978221  0.06076436  1
  Nd3+  Nd45  1  0.73549527  0.86171605  0.55571030  1
  Nd3+  Nd46  1  0.48896507  0.63116132  0.06449476  1
  Nd3+  Nd47  1  0.74068291  0.37099517  0.56020597  1
  Nd3+  Nd48  1  0.86804623  0.74182397  0.44366562  1
  Nd3+  Nd49  1  0.12013939  0.50276725  0.93717111  1
  Nd3+  Nd50  1  0.86958645  -0.00756241  0.44667579  1
  Sm3+  Sm51  1  0.61664646  0.00614511  0.93480638  1
  Sm3+  Sm52  1  0.36639173  0.25444146  0.94151189  1
  Sm3+  Sm53  1  0.36631345  -0.00469429  0.44228043  1
  Sm3+  Sm54  1  0.74365196  0.60978219  0.54738529  1
  Sm3+  Sm55  1  0.11604385  0.00542227  0.95388725  1
  Sm3+  Sm56  1  0.86913442  0.75768241  0.94415386  1
  Sm3+  Sm57  1  0.24502708  0.86387623  0.55691369  1
  Sm3+  Sm58  1  -0.00974110  0.62860634  0.07003987  1
  Sm3+  Sm59  1  0.11765724  -0.00738875  0.44959137  1
  Sm3+  Sm60  1  0.36457416  0.00936188  0.94726626  1
  Sm3+  Sm61  1  0.23964208  0.63185760  0.06227678  1
  Sm3+  Sm62  1  0.24925208  0.61806269  0.56039305  1
  Sm3+  Sm63  1  0.12093084  0.23903670  0.44592487  1
  Bi2+  Bi64  1  -0.07774925  0.15575747  0.32746476  1
  Bi2+  Bi65  1  -0.01090178  0.08178598  0.79685752  1
  Bi2+  Bi66  1  0.00577118  0.46052065  0.30165461  1
  Bi2+  Bi67  1  -0.00014650  0.40243433  0.81057344  1
  Bi2+  Bi68  1  -0.00037704  0.67815010  0.20984358  1
  Bi2+  Bi69  1  0.00237153  0.67925602  0.81062793  1
  Bi2+  Bi70  1  0.00107143  0.85839021  0.31947645  1
  Bi2+  Bi71  1  0.01188150  0.87184993  0.79559454  1
  Bi2+  Bi72  1  0.26777293  0.07723910  0.27126549  1
  Bi2+  Bi73  1  0.26367395  0.06159451  0.79454161  1
  Bi2+  Bi74  1  0.22470652  0.36383169  0.29050996  1
  Bi2+  Bi75  1  0.33800744  0.34280711  0.80181028  1
  Bi2+  Bi76  1  0.23642049  0.66230686  0.28367613  1
  Bi2+  Bi77  1  0.26740063  0.61103821  0.73256187  1
  Bi2+  Bi78  1  0.32469137  0.84015334  0.30879383  1
  Bi2+  Bi79  1  0.20192681  0.82509245  0.74638114  1
  Bi2+  Bi80  1  0.52300029  0.08237459  0.28837303  1
  Bi2+  Bi81  1  0.54531630  0.11231407  0.82745002  1
  Bi2+  Bi82  1  0.50548848  0.39212605  0.28607880  1
  Bi2+  Bi83  1  0.52790793  0.29194674  0.78434754  1
  Bi2+  Bi84  1  0.45407800  0.62218903  0.26678859  1
  Bi2+  Bi85  1  0.47346025  0.58350486  0.80481905  1
  Bi2+  Bi86  1  0.51896073  0.88355007  0.30799396  1
  Bi2+  Bi87  1  0.46465739  0.86887848  0.79928519  1
  Bi2+  Bi88  1  0.78066820  0.12976631  0.24975875  1
  Bi2+  Bi89  1  0.73730576  0.12351081  0.79574922  1
  Bi2+  Bi90  1  0.76406617  0.37346627  0.28903145  1
  Bi2+  Bi91  1  0.76220928  0.33672529  0.76002518  1
  Bi2+  Bi92  1  0.71889074  0.62394506  0.28109248  1
  Bi2+  Bi93  1  0.72373797  0.58711047  0.80395030  1
  Bi2+  Bi94  1  0.76264594  0.86695884  0.30881997  1
  Bi2+  Bi95  1  0.74912162  0.86583265  0.79503266  1
  Bi2+  Bi96  1  0.07562693  0.07331521  0.27072632  1
  Bi2+  Bi97  1  0.11799319  -0.00085010  0.72326206  1
  Bi2+  Bi98  1  0.04753456  0.27382161  0.26780788  1
  Bi2+  Bi99  1  0.14390439  0.26423716  0.72045077  1
  Bi2+  Bi100  1  0.13333483  0.52678418  0.21935511  1
  Bi2+  Bi101  1  0.08775849  0.56076161  0.70949608  1
  Bi2+  Bi102  1  0.17336277  0.82564846  0.23107197  1
  Bi2+  Bi103  1  0.10397773  0.73445800  0.65879638  1
  Bi2+  Bi104  1  0.39819052  -0.03915399  0.22096965  1
  Bi2+  Bi105  1  0.41940266  0.03323682  0.72905731  1
  Bi2+  Bi106  1  0.37819473  0.25098793  0.19176199  1
  Bi2+  Bi107  1  0.39506227  0.22294089  0.70491949  1
  Bi2+  Bi108  1  0.33404740  0.49901952  0.20722796  1
  Bi2+  Bi109  1  0.35776683  0.43808748  0.70374037  1
  Bi2+  Bi110  1  0.41434530  0.76674362  0.18912122  1
  Bi2+  Bi111  1  0.37673489  0.77588940  0.70185293  1
  Bi2+  Bi112  1  0.65998444  -0.02978773  0.23395259  1
  Bi2+  Bi113  1  0.61388439  0.02124590  0.73168338  1
  Bi2+  Bi114  1  0.62570390  0.25189844  0.18645347  1
  Bi2+  Bi115  1  0.62942925  0.24456861  0.69150516  1
  Bi2+  Bi116  1  0.60326041  0.51995241  0.21579790  1
  Bi2+  Bi117  1  0.67231744  0.44530680  0.68419979  1
  Bi2+  Bi118  1  0.60721195  0.76557144  0.20436958  1
  Bi2+  Bi119  1  0.64690344  0.75209585  0.70782259  1
  Bi2+  Bi120  1  0.93089272  -0.01839805  0.21234379  1
  Bi2+  Bi121  1  0.85095924  -0.03172919  0.70249795  1
  Bi2+  Bi122  1  0.88794795  0.26777909  0.19577437  1
  Bi2+  Bi123  1  0.89401592  0.20197390  0.72720333  1
  Bi2+  Bi124  1  0.90168909  0.50440399  0.20962212  1
  Bi2+  Bi125  1  0.87428847  0.60406266  0.73546788  1
  Bi2+  Bi126  1  0.82044768  0.75546077  0.21499186  1
  Bi2+  Bi127  1  0.92416147  0.78322640  0.70166056  1
  S2-  S128  1  -0.03316547  0.12940490  0.15849262  1
  S2-  S129  1  0.02180171  0.22624764  0.65606122  1
  S2-  S130  1  -0.01125391  0.39349209  0.15144174  1
  S2-  S131  1  0.02416280  0.39446518  0.71663709  1
  S2-  S132  1  0.12027127  0.63322742  0.13847310  1
  S2-  S133  1  -0.05166127  0.54523480  0.64635070  1
  S2-  S134  1  0.06350722  0.89487929  0.16906772  1
  S2-  S135  1  0.00447022  0.98388684  0.64913744  1
  S2-  S136  1  0.25585342  0.14299155  0.17127629  1
  S2-  S137  1  0.24412823  0.15287578  0.66895360  1
  S2-  S138  1  0.26181079  0.37288272  0.15670812  1
  S2-  S139  1  0.21850312  0.38252238  0.66073486  1
  S2-  S140  1  0.35921391  0.62755072  0.13589491  1
  S2-  S141  1  0.34776360  0.62771723  0.64141175  1
  S2-  S142  1  0.28169355  0.87885717  0.15547696  1
  S2-  S143  1  0.28385381  0.88542289  0.65119062  1
  S2-  S144  1  0.48962548  0.14090995  0.15848258  1
  S2-  S145  1  0.59933849  0.09894026  0.63637993  1
  S2-  S146  1  0.50071030  0.36208475  0.14716389  1
  S2-  S147  1  0.50741741  0.44757631  0.64284767  1
  S2-  S148  1  0.61623553  0.62344842  0.13660582  1
  S2-  S149  1  0.53608017  0.63501619  0.72092725  1
  S2-  S150  1  0.60886115  0.89705585  0.13986280  1
  S2-  S151  1  0.51841188  0.80042507  0.64259360  1
  S2-  S152  1  0.71545338  0.12679720  0.15148538  1
  S2-  S153  1  0.83448139  0.11584303  0.65127162  1
  S2-  S154  1  0.74130599  0.35723481  0.15576394  1
  S2-  S155  1  0.81676306  0.37059265  0.64978849  1
  S2-  S156  1  0.85689726  0.62681361  0.13888885  1
  S2-  S157  1  0.69786102  0.62052581  0.64168989  1
  S2-  S158  1  0.84580503  0.88615131  0.14602240  1
  S2-  S159  1  0.73157876  0.88229695  0.65376699  1
  S2-  S160  1  0.11789729  -0.03108006  0.35273088  1
  S2-  S161  1  0.12799021  0.05695922  0.86122713  1
  S2-  S162  1  0.19550268  0.23757753  0.35513717  1
  S2-  S163  1  0.15590122  0.33498696  0.81590141  1
  S2-  S164  1  0.15162370  0.48754540  0.35159052  1
  S2-  S165  1  0.08582108  0.54169554  0.84356305  1
  S2-  S166  1  0.09237304  0.72794209  0.33823483  1
  S2-  S167  1  0.14093745  0.78215238  0.84701917  1
  S2-  S168  1  0.35485131  0.07023828  0.35410894  1
  S2-  S169  1  0.35367989  -0.05271549  0.85596768  1
  S2-  S170  1  0.44030370  0.24049906  0.29183905  1
  S2-  S171  1  0.30313237  0.19322951  0.85831646  1
  S2-  S172  1  0.36367829  0.39903998  0.34484097  1
  S2-  S173  1  0.32848689  0.49855154  0.84501119  1
  S2-  S174  1  0.35454754  0.61989528  0.35325721  1
  S2-  S175  1  0.38913014  0.73142564  0.83568815  1
  S2-  S176  1  0.63545518  0.11179831  0.35749133  1
  S2-  S177  1  0.61504182  -0.10581962  0.85822736  1
  S2-  S178  1  0.63409137  0.34711979  0.34984524  1
  S2-  S179  1  0.74680012  0.26640032  0.85438594  1
  S2-  S180  1  0.57423519  0.54214903  0.32945107  1
  S2-  S181  1  0.60356608  0.47068038  0.83219540  1
  S2-  S182  1  0.63244337  0.75681052  0.33817980  1
  S2-  S183  1  0.59490233  0.65921640  0.85444409  1
  S2-  S184  1  0.87524717  -0.01912001  0.34762748  1
  S2-  S185  1  0.84190703  -0.00062626  0.84331821  1
  S2-  S186  1  0.85693103  0.31566466  0.35975136  1
  S2-  S187  1  0.97621534  0.23920131  0.84841707  1
  S2-  S188  1  0.80796107  0.52133632  0.33664765  1
  S2-  S189  1  0.84773734  0.48718699  0.84009410  1
  S2-  S190  1  0.87509308  0.74924909  0.34607128  1
  S2-  S191  1  0.79425530  0.74994018  0.85544865  1
  S2-  S192  1  -0.00386827  0.11477958  0.46368681  1
  S2-  S193  1  -0.00254141  0.13428491  0.95523623  1
  S2-  S194  1  -0.00016116  0.36186334  0.44889581  1
  S2-  S195  1  -0.00666432  0.38207890  0.94839225  1
  S2-  S196  1  -0.00799852  0.61388578  0.45120877  1
  S2-  S197  1  -0.00778372  0.63210183  0.95978287  1
  S2-  S198  1  -0.00692449  0.86755648  0.46299847  1
  S2-  S199  1  -0.00791266  0.88237793  0.95792869  1
  S2-  S200  1  0.24223466  0.11416036  0.46221008  1
  S2-  S201  1  0.23924402  0.12949269  0.96556072  1
  S2-  S202  1  0.24439423  0.36064465  0.45605295  1
  S2-  S203  1  0.23648104  0.37007379  0.94966998  1
  S2-  S204  1  0.23734612  0.61917392  0.45662019  1
  S2-  S205  1  0.24269418  0.63276820  0.95396069  1
  S2-  S206  1  0.24354457  0.86913114  0.45177319  1
  S2-  S207  1  0.23989673  0.88405797  0.95673521  1
  S2-  S208  1  0.48500731  0.12126983  0.45321111  1
  S2-  S209  1  0.49126342  0.13096232  0.95330160  1
  S2-  S210  1  0.48575866  0.35997635  0.44672276  1
  S2-  S211  1  0.49173161  0.37763634  0.94328645  1
  S2-  S212  1  0.49558998  0.61636875  0.44318707  1
  S2-  S213  1  0.48557202  0.63321873  0.95682605  1
  S2-  S214  1  0.49092138  0.86853958  0.44577444  1
  S2-  S215  1  0.48752232  0.88652612  0.95953022  1
  S2-  S216  1  0.74599373  0.11669848  0.46067526  1
  S2-  S217  1  0.74151392  0.12890693  0.94808265  1
  S2-  S218  1  0.74217441  0.36536112  0.45645795  1
  S2-  S219  1  0.73790353  0.38632054  0.95069157  1
  S2-  S220  1  0.74432424  0.61450153  0.44475232  1
  S2-  S221  1  0.74426240  0.63255611  0.95726784  1
  S2-  S222  1  0.74153488  0.86748848  0.45026407  1
  S2-  S223  1  0.74912343  0.88714343  0.95990538  1
  S2-  S224  1  0.11518383  0.00698817  0.05722936  1
  S2-  S225  1  0.12163735  -0.01174931  0.55237169  1
  S2-  S226  1  0.11600361  0.25628499  0.06108926  1
  S2-  S227  1  0.11569823  0.24142674  0.54888536  1
  S2-  S228  1  0.11596331  0.50582368  0.04298938  1
  S2-  S229  1  0.11609917  0.49162309  0.55484712  1
  S2-  S230  1  0.11387294  0.75899930  0.04753601  1
  S2-  S231  1  0.11993010  0.74283576  0.54246715  1
  S2-  S232  1  0.36746429  0.00708106  0.05221702  1
  S2-  S233  1  0.36993576  -0.00905774  0.54686990  1
  S2-  S234  1  0.36690811  0.25477257  0.04491480  1
  S2-  S235  1  0.37177123  0.24289620  0.55963743  1
  S2-  S236  1  0.36499634  0.50369123  0.04192056  1
  S2-  S237  1  0.36133695  0.49211348  0.53837026  1
  S2-  S238  1  0.36353614  0.75843542  0.04034254  1
  S2-  S239  1  0.36321163  0.74376771  0.53451442  1
  S2-  S240  1  0.61415976  0.00914103  0.03833103  1
  S2-  S241  1  0.61305292  -0.01470174  0.53581576  1
  S2-  S242  1  0.61580491  0.25648437  0.03381556  1
  S2-  S243  1  0.61420932  0.24778312  0.54086822  1
  S2-  S244  1  0.61363651  0.50483284  0.03641743  1
  S2-  S245  1  0.61667594  0.49577108  0.53572810  1
  S2-  S246  1  0.61414623  0.75673352  0.03913944  1
  S2-  S247  1  0.61625692  0.73260918  0.54018026  1
  S2-  S248  1  0.86561392  0.00889594  0.04586472  1
  S2-  S249  1  0.86230074  -0.01446916  0.54982490  1
  S2-  S250  1  0.86491233  0.25860611  0.03798100  1
  S2-  S251  1  0.86872554  0.24800467  0.55127776  1
  S2-  S252  1  0.86737944  0.50374391  0.04368917  1
  S2-  S253  1  0.86842032  0.48905943  0.53753919  1
  S2-  S254  1  0.86746900  0.75455026  0.04508542  1
  S2-  S255  1  0.86421312  0.74013781  0.54966314  1
