# generated using pymatgen
data_La6Ce6Pr19Nd20Sm13(BiS2)64
_symmetry_space_group_name_H-M   'P 1'
_cell_length_a   16.12494453
_cell_length_b   16.12363443
_cell_length_c   27.22162601
_cell_angle_alpha   90.01986573
_cell_angle_beta   89.84797390
_cell_angle_gamma   89.98482814
_symmetry_Int_Tables_number   1
_chemical_formula_structural   La6Ce6Pr19Nd20Sm13(BiS2)64
_chemical_formula_sum   'La6 Ce6 Pr19 Nd20 Sm13 Bi64 S128'
_cell_volume   7077.39875303
_cell_formula_units_Z   1
loop_
 _symmetry_equiv_pos_site_id
 _symmetry_equiv_pos_as_xyz
  1  'x, y, z'
loop_
 _atom_type_symbol
 _atom_type_oxidation_number
  La3+  3.0
  Ce3+  3.0
  Pr3+  3.0
  Nd3+  3.0
  Sm3+  3.0
  Bi2+  2.0
  S2-  -2.0
loop_
 _atom_site_type_symbol
 _atom_site_label
 _atom_site_symmetry_multiplicity
 _atom_site_fract_x
 _atom_site_fract_y
 _atom_site_fract_z
 _atom_site_occupancy
  La3+  La0  1  0.63038715  0.24179865  0.88448642  1
  La3+  La1  1  0.15606246  0.50953043  0.42479020  1
  La3+  La2  1  0.62809944  0.49980711  0.93072351  1
  La3+  La3  1  0.40289007  0.25170356  0.41289193  1
  La3+  La4  1  0.26804608  0.62373616  0.60115635  1
  La3+  La5  1  0.12965791  0.48857210  0.89225463  1
  Ce3+  Ce6  1  0.27940812  0.13325350  0.55758173  1
  Ce3+  Ce7  1  0.13052583  0.24803238  0.94835062  1
  Ce3+  Ce8  1  0.02548669  0.12942809  0.55135207  1
  Ce3+  Ce9  1  0.51936965  0.37994555  0.56165582  1
  Ce3+  Ce10  1  0.64840422  0.26100168  0.44124523  1
  Ce3+  Ce11  1  0.25181016  0.12032560  0.07501397  1
  Pr3+  Pr12  1  0.89748775  0.00805936  0.43010803  1
  Pr3+  Pr13  1  0.77353822  0.13046199  0.56383891  1
  Pr3+  Pr14  1  0.27542516  0.37416549  0.56440818  1
  Pr3+  Pr15  1  0.37951389  0.24846248  0.94394133  1
  Pr3+  Pr16  1  0.64977425  0.75294797  0.44756200  1
  Pr3+  Pr17  1  0.87767246  -0.00239709  0.93605883  1
  Pr3+  Pr18  1  0.78001573  0.63658677  0.57964863  1
  Pr3+  Pr19  1  0.90098723  0.75398774  0.44285018  1
  Pr3+  Pr20  1  0.02954344  0.88174494  0.55267611  1
  Pr3+  Pr21  1  0.40676320  0.00136133  0.42533377  1
  Pr3+  Pr22  1  0.02795510  0.37875764  0.56974324  1
  Pr3+  Pr23  1  0.88118675  0.49974868  0.94283774  1
  Pr3+  Pr24  1  0.14863551  0.26461396  0.42959201  1
  Pr3+  Pr25  1  0.51937623  0.63412980  0.57046261  1
  Pr3+  Pr26  1  0.77389844  0.38715065  0.57927044  1
  Pr3+  Pr27  1  0.24942074  0.87430897  0.06429805  1
  Pr3+  Pr28  1  0.50189028  0.62178824  0.06496966  1
  Pr3+  Pr29  1  0.75196696  0.87196042  0.05980707  1
  Pr3+  Pr30  1  0.75306766  0.62195754  0.06320695  1
  Nd3+  Nd31  1  0.50294952  0.87405038  0.05615048  1
  Nd3+  Nd32  1  0.65313231  0.00757480  0.43326725  1
  Nd3+  Nd33  1  0.15630042  0.00941420  0.43453943  1
  Nd3+  Nd34  1  0.15372626  0.75351642  0.43646953  1
  Nd3+  Nd35  1  0.64835526  0.50805485  0.45109997  1
  Nd3+  Nd36  1  0.87891772  0.25072911  0.93334271  1
  Nd3+  Nd37  1  0.00144847  0.12425398  0.05591357  1
  Nd3+  Nd38  1  0.90044920  0.26186922  0.44681903  1
  Nd3+  Nd39  1  0.13381877  -0.00081098  0.93100829  1
  Nd3+  Nd40  1  0.25061383  0.62236636  0.05995786  1
  Nd3+  Nd41  1  0.13731577  0.75143494  0.92059614  1
  Nd3+  Nd42  1  0.38149667  0.00358508  0.94893235  1
  Nd3+  Nd43  1  0.28119569  0.88066412  0.56606253  1
  Nd3+  Nd44  1  0.02860238  0.63146226  0.56458256  1
  Nd3+  Nd45  1  0.00401482  0.87769913  0.05781926  1
  Nd3+  Nd46  1  0.50963108  0.12621957  0.07446396  1
  Nd3+  Nd47  1  0.37579631  0.74889601  0.94059068  1
  Nd3+  Nd48  1  0.75225793  0.37320080  0.05329518  1
  Nd3+  Nd49  1  0.37168294  0.49954033  0.93874380  1
  Nd3+  Nd50  1  0.89766030  0.50646967  0.44889834  1
  Sm3+  Sm51  1  0.52395918  0.88499494  0.56113557  1
  Sm3+  Sm52  1  0.50302324  0.37288896  0.05424998  1
  Sm3+  Sm53  1  0.00390394  0.37440873  0.05924587  1
  Sm3+  Sm54  1  0.62773384  0.00212136  0.93823643  1
  Sm3+  Sm55  1  0.74961460  0.12653277  0.05514002  1
  Sm3+  Sm56  1  0.52347070  0.13159035  0.55451469  1
  Sm3+  Sm57  1  0.40012992  0.75594918  0.44006570  1
  Sm3+  Sm58  1  0.25231261  0.37329466  0.06268473  1
  Sm3+  Sm59  1  0.62889733  0.74673085  0.93755619  1
  Sm3+  Sm60  1  0.39648805  0.50771876  0.44195407  1
  Sm3+  Sm61  1  0.77463188  0.88373459  0.55666300  1
  Sm3+  Sm62  1  0.88194475  0.74974454  0.94592113  1
  Sm3+  Sm63  1  0.00851791  0.62416356  0.05660416  1
  Bi2+  Bi64  1  -0.07530748  0.08031244  0.30108989  1
  Bi2+  Bi65  1  0.00390603  0.12701406  0.78955260  1
  Bi2+  Bi66  1  -0.03250552  0.36717540  0.29100340  1
  Bi2+  Bi67  1  -0.02010940  0.34725850  0.80403932  1
  Bi2+  Bi68  1  -0.05224410  0.59795746  0.25970531  1
  Bi2+  Bi69  1  -0.05918038  0.70733113  0.76607127  1
  Bi2+  Bi70  1  -0.05118964  0.88351814  0.29405530  1
  Bi2+  Bi71  1  -0.02311740  0.92705321  0.80247542  1
  Bi2+  Bi72  1  0.24010214  0.09740058  0.27500102  1
  Bi2+  Bi73  1  0.19316893  0.10819070  0.81642470  1
  Bi2+  Bi74  1  0.23126549  0.35251492  0.29537939  1
  Bi2+  Bi75  1  0.28567125  0.32570583  0.80300845  1
  Bi2+  Bi76  1  0.26302401  0.59994969  0.28892389  1
  Bi2+  Bi77  1  0.24145644  0.63262053  0.79085301  1
  Bi2+  Bi78  1  0.14420880  0.81149452  0.30792008  1
  Bi2+  Bi79  1  0.23558199  0.92585997  0.77574371  1
  Bi2+  Bi80  1  0.49503274  0.15145780  0.29140852  1
  Bi2+  Bi81  1  0.46626557  0.03465933  0.78504298  1
  Bi2+  Bi82  1  0.52442440  0.47469726  0.28690733  1
  Bi2+  Bi83  1  0.50156463  0.35785128  0.76913184  1
  Bi2+  Bi84  1  0.44737425  0.64639194  0.32463078  1
  Bi2+  Bi85  1  0.49280319  0.63700824  0.79322805  1
  Bi2+  Bi86  1  0.52534587  0.89246934  0.29252362  1
  Bi2+  Bi87  1  0.50583197  0.83695104  0.79687326  1
  Bi2+  Bi88  1  0.73258415  0.17910070  0.25341089  1
  Bi2+  Bi89  1  0.72204421  -0.00156010  0.78386584  1
  Bi2+  Bi90  1  0.75249621  0.35601184  0.30266617  1
  Bi2+  Bi91  1  0.74567747  0.36740599  0.78063536  1
  Bi2+  Bi92  1  0.77496031  0.62105293  0.32099653  1
  Bi2+  Bi93  1  0.75945123  0.62361381  0.79046068  1
  Bi2+  Bi94  1  0.75158994  0.90913716  0.27926728  1
  Bi2+  Bi95  1  0.70219752  0.81536954  0.81473161  1
  Bi2+  Bi96  1  0.10791524  -0.05289318  0.21278548  1
  Bi2+  Bi97  1  0.09971970  0.02899104  0.70040799  1
  Bi2+  Bi98  1  0.02756788  0.18870463  0.22731020  1
  Bi2+  Bi99  1  0.17615210  0.23610415  0.72473429  1
  Bi2+  Bi100  1  0.12270711  0.48819237  0.18819116  1
  Bi2+  Bi101  1  0.14006473  0.44245327  0.69833738  1
  Bi2+  Bi102  1  0.09639913  0.70654475  0.21096514  1
  Bi2+  Bi103  1  0.09381207  0.76384489  0.70036844  1
  Bi2+  Bi104  1  0.40103690  -0.04995156  0.20979546  1
  Bi2+  Bi105  1  0.28821947  0.01102908  0.67486871  1
  Bi2+  Bi106  1  0.36494685  0.25766169  0.19514313  1
  Bi2+  Bi107  1  0.37003057  0.17033623  0.71811371  1
  Bi2+  Bi108  1  0.38439523  0.50510109  0.20827210  1
  Bi2+  Bi109  1  0.41913788  0.50926183  0.71916871  1
  Bi2+  Bi110  1  0.33230183  0.78807680  0.27080683  1
  Bi2+  Bi111  1  0.36658808  0.79338165  0.71637845  1
  Bi2+  Bi112  1  0.64083834  -0.00589085  0.19840272  1
  Bi2+  Bi113  1  0.57833006  -0.04017481  0.70396827  1
  Bi2+  Bi114  1  0.60641355  0.32732059  0.22393854  1
  Bi2+  Bi115  1  0.63343903  0.21081748  0.68060290  1
  Bi2+  Bi116  1  0.59684428  0.56949694  0.18869734  1
  Bi2+  Bi117  1  0.62084369  0.54335171  0.71736412  1
  Bi2+  Bi118  1  0.58965963  0.72410280  0.25512249  1
  Bi2+  Bi119  1  0.57247922  0.72626032  0.69207397  1
  Bi2+  Bi120  1  0.87112162  0.08673071  0.18641564  1
  Bi2+  Bi121  1  0.86114153  -0.06769805  0.70922723  1
  Bi2+  Bi122  1  0.86695742  0.28696739  0.18980587  1
  Bi2+  Bi123  1  0.89489140  0.23028965  0.70252307  1
  Bi2+  Bi124  1  0.78138350  0.50790929  0.22279225  1
  Bi2+  Bi125  1  0.89828685  0.52970824  0.71597977  1
  Bi2+  Bi126  1  0.84591944  0.77593173  0.21555146  1
  Bi2+  Bi127  1  0.77014409  0.75823678  0.70083405  1
  S2-  S128  1  0.04066257  0.07250275  0.14805119  1
  S2-  S129  1  0.02615259  0.16214387  0.64651372  1
  S2-  S130  1  0.02038311  0.37321355  0.15783662  1
  S2-  S131  1  -0.02245311  0.39172328  0.66682535  1
  S2-  S132  1  -0.00826256  0.59893892  0.15419768  1
  S2-  S133  1  -0.04889180  0.65257077  0.65351907  1
  S2-  S134  1  0.03263760  0.84399419  0.15364298  1
  S2-  S135  1  0.00820469  0.89343778  0.65240071  1
  S2-  S136  1  0.24082244  0.16310607  0.17206271  1
  S2-  S137  1  0.27947950  0.23960062  0.63688569  1
  S2-  S138  1  0.24883230  0.39341051  0.16202690  1
  S2-  S139  1  0.29258006  0.46244461  0.65260187  1
  S2-  S140  1  0.21609033  0.63573488  0.15793513  1
  S2-  S141  1  0.16325820  0.61077842  0.68883347  1
  S2-  S142  1  0.25417563  0.93250221  0.15944757  1
  S2-  S143  1  0.23321211  0.78529168  0.64915152  1
  S2-  S144  1  0.44690115  0.12365456  0.17326246  1
  S2-  S145  1  0.50652360  0.10537007  0.65235568  1
  S2-  S146  1  0.48374723  0.37374249  0.15289442  1
  S2-  S147  1  0.52295128  0.34390865  0.65852613  1
  S2-  S148  1  0.43757936  0.63401402  0.15851994  1
  S2-  S149  1  0.41647516  0.64943139  0.65299238  1
  S2-  S150  1  0.52669798  0.87503872  0.15449794  1
  S2-  S151  1  0.41736282  0.89552728  0.63902343  1
  S2-  S152  1  0.65183552  0.12063461  0.13747834  1
  S2-  S153  1  0.78799434  0.12329770  0.66527526  1
  S2-  S154  1  0.72962021  0.38379068  0.15215421  1
  S2-  S155  1  0.76134729  0.32454548  0.67529461  1
  S2-  S156  1  0.74662527  0.66581641  0.16010722  1
  S2-  S157  1  0.76982010  0.52088297  0.65414404  1
  S2-  S158  1  0.77736031  0.89764722  0.15767094  1
  S2-  S159  1  0.71529206  0.91572488  0.64710265  1
  S2-  S160  1  0.16075298  -0.01571157  0.33485147  1
  S2-  S161  1  0.12189993  -0.11358414  0.85337417  1
  S2-  S162  1  0.16770627  0.20375548  0.33263890  1
  S2-  S163  1  0.12951089  0.31533070  0.85838124  1
  S2-  S164  1  0.10265379  0.39104971  0.35500558  1
  S2-  S165  1  0.08233961  0.47098615  0.78765515  1
  S2-  S166  1  0.13721250  0.64628101  0.35603554  1
  S2-  S167  1  0.10853223  0.64395611  0.84439742  1
  S2-  S168  1  0.35952469  0.09641892  0.34248172  1
  S2-  S169  1  0.33809274  0.00844118  0.85230249  1
  S2-  S170  1  0.37855386  0.28686410  0.30727163  1
  S2-  S171  1  0.42547932  0.26115209  0.84596800  1
  S2-  S172  1  0.30146268  0.47871503  0.35787232  1
  S2-  S173  1  0.29339988  0.49198422  0.84830702  1
  S2-  S174  1  0.38999801  0.86013187  0.36028664  1
  S2-  S175  1  0.29382774  0.74187665  0.85302054  1
  S2-  S176  1  0.55110257  0.02274026  0.35223193  1
  S2-  S177  1  0.60548529  0.07621555  0.85136041  1
  S2-  S178  1  0.56265571  0.25042436  0.35662347  1
  S2-  S179  1  0.62584058  0.23920175  0.77522476  1
  S2-  S180  1  0.66562667  0.48862765  0.35240760  1
  S2-  S181  1  0.61665194  0.40588418  0.84336812  1
  S2-  S182  1  0.66834348  0.74685021  0.34788617  1
  S2-  S183  1  0.62753805  0.63272074  0.86196906  1
  S2-  S184  1  0.77491627  0.01668617  0.35716869  1
  S2-  S185  1  0.86290236  0.04970407  0.84055109  1
  S2-  S186  1  0.89699385  0.25206398  0.34701511  1
  S2-  S187  1  0.79779724  0.26117041  0.84503862  1
  S2-  S188  1  0.91052138  0.50360750  0.34926364  1
  S2-  S189  1  0.89235295  0.47192474  0.84326552  1
  S2-  S190  1  0.90455872  0.73244956  0.34389166  1
  S2-  S191  1  0.89043776  0.79049355  0.85034069  1
  S2-  S192  1  0.02473145  0.13202503  0.44441019  1
  S2-  S193  1  0.00421218  0.12309578  0.94823569  1
  S2-  S194  1  0.02267275  0.38588558  0.46277523  1
  S2-  S195  1  0.00529038  0.37519657  0.95462578  1
  S2-  S196  1  0.02363163  0.62875776  0.45928046  1
  S2-  S197  1  0.00381541  0.62635490  0.95198913  1
  S2-  S198  1  0.02647042  0.88284095  0.44554836  1
  S2-  S199  1  0.00418106  0.87473735  0.95400779  1
  S2-  S200  1  0.27528472  0.13470001  0.45104372  1
  S2-  S201  1  0.25410196  0.12384861  0.96241643  1
  S2-  S202  1  0.27936976  0.37651742  0.45671487  1
  S2-  S203  1  0.25233596  0.37436307  0.95841858  1
  S2-  S204  1  0.28016318  0.63501669  0.45330128  1
  S2-  S205  1  0.24917478  0.62218371  0.95515407  1
  S2-  S206  1  0.27170446  0.88029561  0.45763483  1
  S2-  S207  1  0.25660345  0.87794260  0.95759256  1
  S2-  S208  1  0.52670398  0.13250708  0.45337761  1
  S2-  S209  1  0.50575251  0.12516026  0.96061438  1
  S2-  S210  1  0.52086439  0.38587825  0.45346447  1
  S2-  S211  1  0.49880066  0.37780491  0.95074469  1
  S2-  S212  1  0.52182360  0.63056553  0.46060628  1
  S2-  S213  1  0.49691102  0.62472948  0.95715393  1
  S2-  S214  1  0.52977797  0.87897718  0.45743193  1
  S2-  S215  1  0.50490185  0.87340188  0.94846792  1
  S2-  S216  1  0.77509933  0.13811792  0.45622801  1
  S2-  S217  1  0.75083312  0.12635075  0.95087139  1
  S2-  S218  1  0.77341566  0.38343420  0.46423429  1
  S2-  S219  1  0.75374052  0.37405591  0.94911544  1
  S2-  S220  1  0.77523402  0.63065332  0.46755721  1
  S2-  S221  1  0.75860644  0.62822365  0.95622683  1
  S2-  S222  1  0.77583296  0.87860687  0.45315468  1
  S2-  S223  1  0.75112221  0.87239988  0.95226709  1
  S2-  S224  1  0.12864717  0.00030496  0.04010521  1
  S2-  S225  1  0.15352907  0.00685124  0.54286939  1
  S2-  S226  1  0.12740302  0.24914724  0.05495974  1
  S2-  S227  1  0.14593967  0.25445545  0.53872858  1
  S2-  S228  1  0.12729183  0.49622690  0.05199048  1
  S2-  S229  1  0.15073416  0.50705329  0.55188107  1
  S2-  S230  1  0.12713624  0.74963154  0.04286878  1
  S2-  S231  1  0.15068279  0.75236751  0.54282252  1
  S2-  S232  1  0.38147426  0.00084561  0.05451240  1
  S2-  S233  1  0.40315240  0.00854763  0.53514036  1
  S2-  S234  1  0.37757625  0.24878180  0.05207397  1
  S2-  S235  1  0.40532770  0.25406104  0.53712913  1
  S2-  S236  1  0.37546416  0.49657444  0.04674499  1
  S2-  S237  1  0.39794767  0.50851942  0.54636750  1
  S2-  S238  1  0.37573398  0.75044204  0.04834299  1
  S2-  S239  1  0.40201866  0.75888568  0.54316191  1
  S2-  S240  1  0.62914648  -0.00406314  0.04144725  1
  S2-  S241  1  0.64801339  0.00697910  0.54137271  1
  S2-  S242  1  0.62690133  0.25441542  0.04549793  1
  S2-  S243  1  0.64891154  0.25757151  0.54939899  1
  S2-  S244  1  0.62660881  0.49805144  0.04295977  1
  S2-  S245  1  0.64444108  0.50839203  0.55621568  1
  S2-  S246  1  0.62647488  0.74693771  0.04376326  1
  S2-  S247  1  0.64946073  0.75878847  0.55444501  1
  S2-  S248  1  0.87477534  0.00118848  0.04419465  1
  S2-  S249  1  0.89787771  0.00504963  0.54152155  1
  S2-  S250  1  0.87777508  0.24875287  0.04261461  1
  S2-  S251  1  0.89694742  0.25851917  0.55210767  1
  S2-  S252  1  0.88085787  0.49907826  0.05076882  1
  S2-  S253  1  0.90192263  0.50718911  0.55387148  1
  S2-  S254  1  0.88182052  0.74780827  0.05089154  1
  S2-  S255  1  0.89882941  0.76101452  0.54926154  1
