# generated using pymatgen
data_La6Ce6Pr19Nd20Sm13(BiS2)64
_symmetry_space_group_name_H-M   'P 1'
_cell_length_a   16.04403321
_cell_length_b   16.04306702
_cell_length_c   27.43107851
_cell_angle_alpha   90.12438606
_cell_angle_beta   89.05532488
_cell_angle_gamma   90.12270004
_symmetry_Int_Tables_number   1
_chemical_formula_structural   La6Ce6Pr19Nd20Sm13(BiS2)64
_chemical_formula_sum   'La6 Ce6 Pr19 Nd20 Sm13 Bi64 S128'
_cell_volume   7059.64420524
_cell_formula_units_Z   1
loop_
 _symmetry_equiv_pos_site_id
 _symmetry_equiv_pos_as_xyz
  1  'x, y, z'
loop_
 _atom_type_symbol
 _atom_type_oxidation_number
  La3+  3.0
  Ce3+  3.0
  Pr3+  3.0
  Nd3+  3.0
  Sm3+  3.0
  Bi2+  2.0
  S2-  -2.0
loop_
 _atom_site_type_symbol
 _atom_site_label
 _atom_site_symmetry_multiplicity
 _atom_site_fract_x
 _atom_site_fract_y
 _atom_site_fract_z
 _atom_site_occupancy
  La3+  La0  1  0.74570407  0.88632284  0.08168981  1
  La3+  La1  1  -0.00016630  0.62794895  0.09835980  1
  La3+  La2  1  0.51553179  0.87442374  0.60732438  1
  La3+  La3  1  0.00973577  0.60308332  0.56733540  1
  La3+  La4  1  0.48332149  0.13146167  0.07290317  1
  La3+  La5  1  0.12241543  -0.00082836  0.92088238  1
  Ce3+  Ce6  1  0.89132832  -0.02023686  0.43618475  1
  Ce3+  Ce7  1  0.14047624  0.48071408  0.43823898  1
  Ce3+  Ce8  1  0.01322242  0.85033333  0.56885321  1
  Ce3+  Ce9  1  0.62045188  0.25228391  0.93134576  1
  Ce3+  Ce10  1  0.89832186  0.73121450  0.42683723  1
  Ce3+  Ce11  1  0.39192584  -0.02338815  0.42977171  1
  Pr3+  Pr12  1  0.24428026  0.38235809  0.05766413  1
  Pr3+  Pr13  1  0.37151712  0.25526689  0.93022092  1
  Pr3+  Pr14  1  0.73195548  0.61757496  0.09882915  1
  Pr3+  Pr15  1  0.39069629  0.47969250  0.44180186  1
  Pr3+  Pr16  1  0.75979324  0.60616438  0.55223510  1
  Pr3+  Pr17  1  0.62037526  0.50736429  0.93482903  1
  Pr3+  Pr18  1  0.87364474  0.25767022  0.92839362  1
  Pr3+  Pr19  1  0.38887999  0.73068586  0.44149180  1
  Pr3+  Pr20  1  0.12078331  0.75114362  0.93726013  1
  Pr3+  Pr21  1  0.37040485  0.00427190  0.93334447  1
  Pr3+  Pr22  1  0.62703502  0.76197980  0.94125316  1
  Pr3+  Pr23  1  0.24700469  0.63126196  0.06402855  1
  Pr3+  Pr24  1  0.89409840  0.47959182  0.43166529  1
  Pr3+  Pr25  1  0.26157322  0.35748661  0.57017591  1
  Pr3+  Pr26  1  0.64404936  0.72567702  0.41550105  1
  Pr3+  Pr27  1  0.26189289  0.85247411  0.57136975  1
  Pr3+  Pr28  1  0.38164325  0.75194967  0.91477139  1
  Pr3+  Pr29  1  0.13933384  -0.02267456  0.43415249  1
  Pr3+  Pr30  1  0.26215664  0.60529354  0.56734191  1
  Nd3+  Nd31  1  0.75726174  0.10002503  0.55947531  1
  Nd3+  Nd32  1  0.51498774  0.61020525  0.56487823  1
  Nd3+  Nd33  1  0.64027032  -0.02072207  0.42337265  1
  Nd3+  Nd34  1  0.63921689  0.22999552  0.44538887  1
  Nd3+  Nd35  1  0.37833138  0.50770576  0.93289572  1
  Nd3+  Nd36  1  0.39051957  0.23085032  0.44422842  1
  Nd3+  Nd37  1  0.87150182  0.50966850  0.94890752  1
  Nd3+  Nd38  1  0.74467039  0.13112719  0.05245221  1
  Nd3+  Nd39  1  -0.00892357  0.38288644  0.06614459  1
  Nd3+  Nd40  1  0.12105118  0.51162970  0.93989907  1
  Nd3+  Nd41  1  0.87390748  -0.00077911  0.93858010  1
  Nd3+  Nd42  1  0.49595267  0.63242084  0.06330204  1
  Nd3+  Nd43  1  0.89068703  0.22854857  0.44074237  1
  Nd3+  Nd44  1  0.49486556  0.88223485  0.07124829  1
  Nd3+  Nd45  1  0.14234673  0.72725675  0.43249918  1
  Nd3+  Nd46  1  0.75757630  0.85347994  0.54792029  1
  Nd3+  Nd47  1  0.23526363  0.12976546  0.05681812  1
  Nd3+  Nd48  1  -0.00270109  0.13172567  0.05874876  1
  Nd3+  Nd49  1  0.14043427  0.22817465  0.44423702  1
  Nd3+  Nd50  1  0.23717997  0.88071904  0.06055184  1
  Sm3+  Sm51  1  0.74376552  0.38128767  0.05722329  1
  Sm3+  Sm52  1  0.87145847  0.75185217  0.95965424  1
  Sm3+  Sm53  1  0.49529708  0.37705148  0.06197900  1
  Sm3+  Sm54  1  0.26495620  0.10024846  0.55768518  1
  Sm3+  Sm55  1  0.76131902  0.35608046  0.55275350  1
  Sm3+  Sm56  1  0.51063632  0.10344493  0.55411151  1
  Sm3+  Sm57  1  0.12110475  0.25789590  0.93096919  1
  Sm3+  Sm58  1  0.61484552  0.00192659  0.93975331  1
  Sm3+  Sm59  1  0.64028034  0.48160131  0.43461415  1
  Sm3+  Sm60  1  0.01251718  0.10745910  0.56804152  1
  Sm3+  Sm61  1  0.51266115  0.35989279  0.56753235  1
  Sm3+  Sm62  1  0.00895414  0.35185558  0.56532011  1
  Sm3+  Sm63  1  -0.00844016  0.87817339  0.06631217  1
  Bi2+  Bi64  1  0.02689720  0.13212414  0.29586746  1
  Bi2+  Bi65  1  0.04275444  0.13714526  0.78853709  1
  Bi2+  Bi66  1  -0.01847633  0.37766831  0.29590881  1
  Bi2+  Bi67  1  -0.01026088  0.39163465  0.78265714  1
  Bi2+  Bi68  1  0.02394172  0.63949232  0.29032970  1
  Bi2+  Bi69  1  -0.02591827  0.63239484  0.80261555  1
  Bi2+  Bi70  1  0.03537518  0.94820751  0.26396691  1
  Bi2+  Bi71  1  -0.00288056  0.87738061  0.79608953  1
  Bi2+  Bi72  1  0.27654559  0.09429965  0.28448043  1
  Bi2+  Bi73  1  0.25752569  0.19233460  0.76869511  1
  Bi2+  Bi74  1  0.17364214  0.35615735  0.29917049  1
  Bi2+  Bi75  1  0.18581142  0.41715780  0.79489768  1
  Bi2+  Bi76  1  0.26452043  0.61920687  0.28765302  1
  Bi2+  Bi77  1  0.22263450  0.61543198  0.77960582  1
  Bi2+  Bi78  1  0.19469225  0.85036685  0.29897589  1
  Bi2+  Bi79  1  0.23909766  0.92752122  0.78283829  1
  Bi2+  Bi80  1  0.52921745  0.12970061  0.29328040  1
  Bi2+  Bi81  1  0.52621217  0.13124631  0.77987187  1
  Bi2+  Bi82  1  0.41197502  0.36040254  0.30042616  1
  Bi2+  Bi83  1  0.44480262  0.36366466  0.78875481  1
  Bi2+  Bi84  1  0.49379793  0.61190106  0.28988381  1
  Bi2+  Bi85  1  0.48008523  0.60348510  0.78868281  1
  Bi2+  Bi86  1  0.40651460  0.78502676  0.26396323  1
  Bi2+  Bi87  1  0.52836780  0.87685240  0.81493380  1
  Bi2+  Bi88  1  0.79198718  0.18642678  0.26167484  1
  Bi2+  Bi89  1  0.73530319  0.13201867  0.78872004  1
  Bi2+  Bi90  1  0.69972499  0.36077671  0.30012966  1
  Bi2+  Bi91  1  0.70077780  0.34974911  0.77260311  1
  Bi2+  Bi92  1  0.76474223  0.60421091  0.28919310  1
  Bi2+  Bi93  1  0.74019789  0.53771560  0.79617510  1
  Bi2+  Bi94  1  0.69747883  0.92547542  0.28809514  1
  Bi2+  Bi95  1  0.77695364  0.93879357  0.78934978  1
  Bi2+  Bi96  1  0.21623293  0.01232762  0.18686332  1
  Bi2+  Bi97  1  0.07048132  0.02218564  0.69777114  1
  Bi2+  Bi98  1  0.09055395  0.24811035  0.20858775  1
  Bi2+  Bi99  1  0.11629480  0.29534505  0.71114004  1
  Bi2+  Bi100  1  0.11602355  0.47711693  0.21371866  1
  Bi2+  Bi101  1  0.10566572  0.53572092  0.70261126  1
  Bi2+  Bi102  1  0.16941387  0.77410065  0.19441521  1
  Bi2+  Bi103  1  0.11258440  0.74685603  0.70299267  1
  Bi2+  Bi104  1  0.42420760  -0.02237548  0.24569985  1
  Bi2+  Bi105  1  0.36649487  0.08459748  0.69472495  1
  Bi2+  Bi106  1  0.37639299  0.23904110  0.21156772  1
  Bi2+  Bi107  1  0.36271499  0.28897840  0.68269913  1
  Bi2+  Bi108  1  0.36991554  0.43324264  0.18785491  1
  Bi2+  Bi109  1  0.36579731  0.49270059  0.71704155  1
  Bi2+  Bi110  1  0.38000301  0.63148322  0.19027337  1
  Bi2+  Bi111  1  0.37682430  0.76928937  0.71117315  1
  Bi2+  Bi112  1  0.61796227  0.01234985  0.20375446  1
  Bi2+  Bi113  1  0.66742492  0.01067232  0.70269775  1
  Bi2+  Bi114  1  0.65155957  0.27357220  0.20029562  1
  Bi2+  Bi115  1  0.55643493  0.27322042  0.70252817  1
  Bi2+  Bi116  1  0.55891164  0.44003560  0.23583122  1
  Bi2+  Bi117  1  0.63940072  0.49377631  0.69736998  1
  Bi2+  Bi118  1  0.61489050  0.74096924  0.21877952  1
  Bi2+  Bi119  1  0.64434955  0.73869040  0.70619911  1
  Bi2+  Bi120  1  0.88831487  0.04358591  0.20404193  1
  Bi2+  Bi121  1  0.90188626  -0.07740276  0.69821337  1
  Bi2+  Bi122  1  0.90560622  0.23404604  0.16359032  1
  Bi2+  Bi123  1  0.89477012  0.17559822  0.72027554  1
  Bi2+  Bi124  1  0.84361931  0.40489484  0.21191775  1
  Bi2+  Bi125  1  0.85687444  0.47052945  0.70998886  1
  Bi2+  Bi126  1  0.87122160  0.80000970  0.23514871  1
  Bi2+  Bi127  1  0.84258714  0.75131499  0.75684445  1
  S2-  S128  1  0.11079337  0.12726355  0.13557437  1
  S2-  S129  1  -0.00046876  0.23180772  0.64051061  1
  S2-  S130  1  -0.01935080  0.47637003  0.15213385  1
  S2-  S131  1  -0.00803645  0.47160693  0.63863207  1
  S2-  S132  1  -0.00978510  0.70773924  0.19592526  1
  S2-  S133  1  -0.01396885  0.72346019  0.64165505  1
  S2-  S134  1  0.10735349  0.89966185  0.13802902  1
  S2-  S135  1  0.12857400  0.88239424  0.64252909  1
  S2-  S136  1  0.32663209  0.13930585  0.14152322  1
  S2-  S137  1  0.21344613  0.10072689  0.65228850  1
  S2-  S138  1  0.20607191  0.36271875  0.15532449  1
  S2-  S139  1  0.24789361  0.48262346  0.64317754  1
  S2-  S140  1  0.16023505  0.61318761  0.15145226  1
  S2-  S141  1  0.26289067  0.71191298  0.64980109  1
  S2-  S142  1  0.29911575  0.86703964  0.15634780  1
  S2-  S143  1  0.35489364  0.90030896  0.65536062  1
  S2-  S144  1  0.48073551  0.00557578  0.14624549  1
  S2-  S145  1  0.52722225  0.04727773  0.64525952  1
  S2-  S146  1  0.51346376  0.26728423  0.14109373  1
  S2-  S147  1  0.51133527  0.48193238  0.63890315  1
  S2-  S148  1  0.57555136  0.62290552  0.15138587  1
  S2-  S149  1  0.50760872  0.70738510  0.64972514  1
  S2-  S150  1  0.61340148  0.85195843  0.14931460  1
  S2-  S151  1  0.52372042  0.86781983  0.71945241  1
  S2-  S152  1  0.74492923  0.05072262  0.14083706  1
  S2-  S153  1  0.77326091  0.12281209  0.65701866  1
  S2-  S154  1  0.72944872  0.45522769  0.14643518  1
  S2-  S155  1  0.76084841  0.37619109  0.64987941  1
  S2-  S156  1  0.77757329  0.67421708  0.19292786  1
  S2-  S157  1  0.73385127  0.62938150  0.65154135  1
  S2-  S158  1  0.88207201  0.88828182  0.15077814  1
  S2-  S159  1  0.68880067  0.86394401  0.64057433  1
  S2-  S160  1  0.01127043  -0.00753025  0.36225051  1
  S2-  S161  1  0.25953364  0.02996647  0.85168570  1
  S2-  S162  1  0.16537999  0.19951639  0.34691247  1
  S2-  S163  1  0.00224250  0.26471236  0.85663035  1
  S2-  S164  1  0.13664704  0.56799848  0.35403194  1
  S2-  S165  1  0.10631311  0.62391746  0.86182545  1
  S2-  S166  1  0.02765404  0.75392579  0.35613869  1
  S2-  S167  1  0.13113052  0.85471239  0.85254343  1
  S2-  S168  1  0.26591410  -0.02564702  0.35778109  1
  S2-  S169  1  0.50203070  0.02411990  0.86073981  1
  S2-  S170  1  0.39253808  0.20251533  0.34681675  1
  S2-  S171  1  0.24705318  0.27416400  0.85501126  1
  S2-  S172  1  0.37436466  0.52075221  0.34503853  1
  S2-  S173  1  0.34465661  0.61181340  0.85316645  1
  S2-  S174  1  0.27739923  0.73845163  0.36156901  1
  S2-  S175  1  0.35515495  0.83684397  0.82311818  1
  S2-  S176  1  0.51029778  -0.00295051  0.35268419  1
  S2-  S177  1  0.67318226  -0.11093737  0.86840254  1
  S2-  S178  1  0.64784403  0.20978856  0.34769711  1
  S2-  S179  1  0.50211380  0.24692614  0.85734798  1
  S2-  S180  1  0.63471114  0.57665331  0.35277417  1
  S2-  S181  1  0.51260030  0.48296556  0.85577103  1
  S2-  S182  1  0.60932450  0.79598829  0.32175049  1
  S2-  S183  1  0.54009221  0.71629069  0.85424617  1
  S2-  S184  1  0.78009621  -0.00183975  0.35804521  1
  S2-  S185  1  0.97709387  0.01423299  0.85650222  1
  S2-  S186  1  0.90312285  0.23889437  0.34183197  1
  S2-  S187  1  0.74959029  0.26614943  0.85563463  1
  S2-  S188  1  0.90276211  0.53004392  0.33522077  1
  S2-  S189  1  0.88745745  0.49728189  0.84913221  1
  S2-  S190  1  0.81139159  0.73314894  0.33848704  1
  S2-  S191  1  0.89511076  0.75885653  0.85954472  1
  S2-  S192  1  0.01309799  0.10969181  0.46356702  1
  S2-  S193  1  -0.00319070  0.13388885  0.95483730  1
  S2-  S194  1  0.01555685  0.35283420  0.45483509  1
  S2-  S195  1  -0.00252816  0.38657165  0.95796034  1
  S2-  S196  1  0.01440557  0.60248776  0.45765567  1
  S2-  S197  1  -0.00664550  0.63049977  0.96587908  1
  S2-  S198  1  0.01408369  0.85599867  0.46225081  1
  S2-  S199  1  -0.00586450  0.87474973  0.96171494  1
  S2-  S200  1  0.26700384  0.10644918  0.45546525  1
  S2-  S201  1  0.24158280  0.13509611  0.95294761  1
  S2-  S202  1  0.26461326  0.35405624  0.45628506  1
  S2-  S203  1  0.24601030  0.38914659  0.95211813  1
  S2-  S204  1  0.26464201  0.60086010  0.46068544  1
  S2-  S205  1  0.25196358  0.63188610  0.95940250  1
  S2-  S206  1  0.26327962  0.85580270  0.46297274  1
  S2-  S207  1  0.25366107  0.86954268  0.95383406  1
  S2-  S208  1  0.51525326  0.10756651  0.45312549  1
  S2-  S209  1  0.49486607  0.13096053  0.96316782  1
  S2-  S210  1  0.51748775  0.35662855  0.45525328  1
  S2-  S211  1  0.49544486  0.37975790  0.95998240  1
  S2-  S212  1  0.51539105  0.60383297  0.45472322  1
  S2-  S213  1  0.49645759  0.63174968  0.96001774  1
  S2-  S214  1  0.51668817  0.84967338  0.43996119  1
  S2-  S215  1  0.49233019  0.87639234  0.96099684  1
  S2-  S216  1  0.76377064  0.10794215  0.45563344  1
  S2-  S217  1  0.74641806  0.12194055  0.94821943  1
  S2-  S218  1  0.76426454  0.35622598  0.44760797  1
  S2-  S219  1  0.74517484  0.38415248  0.95344728  1
  S2-  S220  1  0.76780809  0.60207175  0.44745290  1
  S2-  S221  1  0.74655506  0.63143002  0.94486223  1
  S2-  S222  1  0.76430373  0.85186837  0.44528443  1
  S2-  S223  1  0.75544311  0.88111414  0.97211441  1
  S2-  S224  1  0.11475070  0.00359586  0.03171014  1
  S2-  S225  1  0.13443571  -0.01094237  0.54187291  1
  S2-  S226  1  0.11578712  0.26368030  0.03757803  1
  S2-  S227  1  0.14112928  0.23035247  0.54858787  1
  S2-  S228  1  0.11673498  0.50574836  0.04528021  1
  S2-  S229  1  0.13457600  0.47314645  0.54192679  1
  S2-  S230  1  0.11379151  0.74922153  0.04796915  1
  S2-  S231  1  0.13697276  0.72614608  0.54171290  1
  S2-  S232  1  0.36224215  0.00246812  0.04083262  1
  S2-  S233  1  0.39063652  -0.01858897  0.54132775  1
  S2-  S234  1  0.36708882  0.26101562  0.03905107  1
  S2-  S235  1  0.38986644  0.23218288  0.54977445  1
  S2-  S236  1  0.37415439  0.50403461  0.04619634  1
  S2-  S237  1  0.38950458  0.47793029  0.54539052  1
  S2-  S238  1  0.37308139  0.75586078  0.05490557  1
  S2-  S239  1  0.39085341  0.73153414  0.54552414  1
  S2-  S240  1  0.61744086  0.00774542  0.04265683  1
  S2-  S241  1  0.63310701  -0.02013208  0.53568001  1
  S2-  S242  1  0.62471172  0.25746010  0.03977795  1
  S2-  S243  1  0.63473075  0.23220857  0.55131773  1
  S2-  S244  1  0.61845676  0.50202620  0.04182362  1
  S2-  S245  1  0.63759778  0.47656566  0.53802371  1
  S2-  S246  1  0.62652875  0.74818857  0.04690010  1
  S2-  S247  1  0.63764657  0.72878588  0.53473837  1
  S2-  S248  1  0.87624209  0.00932188  0.04307516  1
  S2-  S249  1  0.88799794  -0.01763152  0.54895494  1
  S2-  S250  1  0.86854543  0.25890520  0.03722722  1
  S2-  S251  1  0.88119857  0.22968703  0.54508360  1
  S2-  S252  1  0.86428600  0.51053083  0.05226012  1
  S2-  S253  1  0.88359084  0.47523877  0.53828577  1
  S2-  S254  1  0.86713645  0.74260819  0.06293213  1
  S2-  S255  1  0.88306292  0.73065828  0.53645784  1
