# generated using pymatgen
data_La6Ce6Pr19Nd20Sm13(BiS2)64
_symmetry_space_group_name_H-M   'P 1'
_cell_length_a   16.17463353
_cell_length_b   16.16167390
_cell_length_c   27.19465759
_cell_angle_alpha   89.84733265
_cell_angle_beta   89.81856160
_cell_angle_gamma   90.00187057
_symmetry_Int_Tables_number   1
_chemical_formula_structural   La6Ce6Pr19Nd20Sm13(BiS2)64
_chemical_formula_sum   'La6 Ce6 Pr19 Nd20 Sm13 Bi64 S128'
_cell_volume   7108.87151160
_cell_formula_units_Z   1
loop_
 _symmetry_equiv_pos_site_id
 _symmetry_equiv_pos_as_xyz
  1  'x, y, z'
loop_
 _atom_type_symbol
 _atom_type_oxidation_number
  La3+  3.0
  Ce3+  3.0
  Pr3+  3.0
  Nd3+  3.0
  Sm3+  3.0
  Bi2+  2.0
  S2-  -2.0
loop_
 _atom_site_type_symbol
 _atom_site_label
 _atom_site_symmetry_multiplicity
 _atom_site_fract_x
 _atom_site_fract_y
 _atom_site_fract_z
 _atom_site_occupancy
  La3+  La0  1  0.35753353  0.00928107  0.91753332  1
  La3+  La1  1  0.11680650  0.75044814  0.90404591  1
  La3+  La2  1  0.13635339  0.25097474  0.39421704  1
  La3+  La3  1  0.24937703  0.61415150  0.58541389  1
  La3+  La4  1  0.52100134  0.61222298  0.58776004  1
  La3+  La5  1  -0.00935947  0.11806767  0.09053846  1
  Ce3+  Ce6  1  0.75643908  0.62183596  0.55320678  1
  Ce3+  Ce7  1  0.74200758  0.38094948  0.06805546  1
  Ce3+  Ce8  1  0.86956891  0.75317100  0.94117863  1
  Ce3+  Ce9  1  -0.00563804  0.87811969  0.05639329  1
  Ce3+  Ce10  1  0.01265081  0.37329178  0.54969312  1
  Ce3+  Ce11  1  0.00960075  0.87370035  0.55662222  1
  Pr3+  Pr12  1  0.49061378  0.12779933  0.06338767  1
  Pr3+  Pr13  1  0.76664886  0.12280896  0.57141347  1
  Pr3+  Pr14  1  0.49038906  0.63566381  0.06471743  1
  Pr3+  Pr15  1  0.38660354  0.74896275  0.46253887  1
  Pr3+  Pr16  1  0.74003271  0.87593664  0.05953102  1
  Pr3+  Pr17  1  0.86933130  0.00488225  0.93738886  1
  Pr3+  Pr18  1  0.88557851  0.75073292  0.44351680  1
  Pr3+  Pr19  1  0.25125042  0.87804436  0.57613221  1
  Pr3+  Pr20  1  -0.01637068  0.39026682  0.09413036  1
  Pr3+  Pr21  1  0.11566018  0.50422122  0.94029138  1
  Pr3+  Pr22  1  0.50927281  0.36912889  0.55903905  1
  Pr3+  Pr23  1  0.74240341  0.12730096  0.06958394  1
  Pr3+  Pr24  1  0.50946299  0.87880410  0.57940703  1
  Pr3+  Pr25  1  0.10823026  0.00758199  0.93085728  1
  Pr3+  Pr26  1  0.86878874  0.25598099  0.95159105  1
  Pr3+  Pr27  1  0.13953002  0.00100842  0.43749649  1
  Pr3+  Pr28  1  0.61750914  0.00469302  0.93990013  1
  Pr3+  Pr29  1  0.51347916  0.12450607  0.57467416  1
  Pr3+  Pr30  1  0.25916463  0.12787785  0.56404024  1
  Nd3+  Nd31  1  0.63090427  0.74999116  0.44300354  1
  Nd3+  Nd32  1  0.63115081  0.50148279  0.42921379  1
  Nd3+  Nd33  1  0.24100063  0.63009426  0.05559092  1
  Nd3+  Nd34  1  0.00850058  0.62077634  0.55877699  1
  Nd3+  Nd35  1  0.14073068  0.74820483  0.43876460  1
  Nd3+  Nd36  1  0.36645308  0.25298408  0.93888571  1
  Nd3+  Nd37  1  0.61964425  0.75419186  0.93014754  1
  Nd3+  Nd38  1  0.61746153  0.50427410  0.94089160  1
  Nd3+  Nd39  1  0.36527330  0.50848580  0.93789367  1
  Nd3+  Nd40  1  0.38789674  0.50298631  0.44353417  1
  Nd3+  Nd41  1  0.23999656  0.37916725  0.06087913  1
  Nd3+  Nd42  1  -0.00745751  0.63067643  0.06327908  1
  Nd3+  Nd43  1  0.11195647  0.25536058  0.95246735  1
  Nd3+  Nd44  1  0.75890020  0.37178836  0.54676189  1
  Nd3+  Nd45  1  0.88824735  0.49800843  0.43555887  1
  Nd3+  Nd46  1  0.49059141  0.38033442  0.05623307  1
  Nd3+  Nd47  1  0.38863080  0.24606542  0.42977537  1
  Nd3+  Nd48  1  0.63371757  0.24402781  0.43361586  1
  Nd3+  Nd49  1  0.14575687  0.50580232  0.42619111  1
  Nd3+  Nd50  1  0.61991530  0.25513994  0.94597041  1
  Sm3+  Sm51  1  0.48747181  0.88146667  0.05111876  1
  Sm3+  Sm52  1  0.37423470  0.75582422  0.93106858  1
  Sm3+  Sm53  1  0.86970189  0.50585589  0.94461316  1
  Sm3+  Sm54  1  0.24068447  0.88064216  0.04867326  1
  Sm3+  Sm55  1  0.38529365  0.00031492  0.45093951  1
  Sm3+  Sm56  1  0.63377017  0.00031023  0.44710391  1
  Sm3+  Sm57  1  0.26005331  0.37086327  0.55372246  1
  Sm3+  Sm58  1  0.75995372  0.87346631  0.55296174  1
  Sm3+  Sm59  1  0.88626319  0.24701136  0.43584325  1
  Sm3+  Sm60  1  0.73909775  0.63024320  0.05339141  1
  Sm3+  Sm61  1  0.24014471  0.12728880  0.05633986  1
  Sm3+  Sm62  1  0.00851272  0.12597094  0.55591461  1
  Sm3+  Sm63  1  0.88600686  0.00133717  0.43698046  1
  Bi2+  Bi64  1  -0.00726594  0.11973227  0.28852904  1
  Bi2+  Bi65  1  -0.00907461  0.14492556  0.80743777  1
  Bi2+  Bi66  1  -0.01149042  0.37963279  0.28648870  1
  Bi2+  Bi67  1  0.02651445  0.31678131  0.74335627  1
  Bi2+  Bi68  1  -0.01275631  0.63434138  0.28673101  1
  Bi2+  Bi69  1  0.00677037  0.60288111  0.80060592  1
  Bi2+  Bi70  1  -0.01220215  0.87909282  0.29086914  1
  Bi2+  Bi71  1  -0.07150695  0.86755709  0.78014615  1
  Bi2+  Bi72  1  0.28217025  0.09151222  0.29478875  1
  Bi2+  Bi73  1  0.23168570  0.15600408  0.79785783  1
  Bi2+  Bi74  1  0.27824503  0.40036413  0.29310141  1
  Bi2+  Bi75  1  0.28296366  0.33935244  0.75837137  1
  Bi2+  Bi76  1  0.25221493  0.65488601  0.29741807  1
  Bi2+  Bi77  1  0.25724437  0.61307533  0.79137774  1
  Bi2+  Bi78  1  0.17874776  0.85137605  0.31098611  1
  Bi2+  Bi79  1  0.25904703  0.88393999  0.78522195  1
  Bi2+  Bi80  1  0.50289265  0.10451747  0.30016447  1
  Bi2+  Bi81  1  0.51059822  0.15407178  0.78669205  1
  Bi2+  Bi82  1  0.47972727  0.39959150  0.29304567  1
  Bi2+  Bi83  1  0.47602144  0.34525145  0.77210126  1
  Bi2+  Bi84  1  0.50929350  0.67053412  0.30419371  1
  Bi2+  Bi85  1  0.51679664  0.60689121  0.79397740  1
  Bi2+  Bi86  1  0.53733214  0.90311733  0.23192804  1
  Bi2+  Bi87  1  0.55104408  0.89868009  0.79605365  1
  Bi2+  Bi88  1  0.73795651  0.09218655  0.28217868  1
  Bi2+  Bi89  1  0.78007675  0.14497574  0.78539283  1
  Bi2+  Bi90  1  0.68452381  0.37301064  0.29850000  1
  Bi2+  Bi91  1  0.74059172  0.34445417  0.79633275  1
  Bi2+  Bi92  1  0.69010412  0.57848157  0.30724697  1
  Bi2+  Bi93  1  0.75754477  0.65024052  0.80214865  1
  Bi2+  Bi94  1  0.74430861  0.76445469  0.28359207  1
  Bi2+  Bi95  1  0.74199177  0.86612080  0.81071260  1
  Bi2+  Bi96  1  0.14224245  -0.01048359  0.19776804  1
  Bi2+  Bi97  1  0.10052305  0.06539652  0.72458840  1
  Bi2+  Bi98  1  0.17337394  0.24630468  0.20179594  1
  Bi2+  Bi99  1  0.17296195  0.22757582  0.68109194  1
  Bi2+  Bi100  1  0.13456571  0.50698245  0.19519840  1
  Bi2+  Bi101  1  0.11713118  0.47510738  0.70656808  1
  Bi2+  Bi102  1  0.09552752  0.75714962  0.21964760  1
  Bi2+  Bi103  1  0.12342497  0.76078412  0.69559266  1
  Bi2+  Bi104  1  0.35835947  -0.02208629  0.20767424  1
  Bi2+  Bi105  1  0.37143433  0.09603351  0.71448718  1
  Bi2+  Bi106  1  0.43778137  0.25003316  0.22251396  1
  Bi2+  Bi107  1  0.38473288  0.26328874  0.65800044  1
  Bi2+  Bi108  1  0.37248915  0.52104660  0.20018931  1
  Bi2+  Bi109  1  0.39171081  0.47331075  0.69778656  1
  Bi2+  Bi110  1  0.36440808  0.80197358  0.26024360  1
  Bi2+  Bi111  1  0.39624022  0.76395246  0.71284766  1
  Bi2+  Bi112  1  0.62338833  0.06342432  0.18760293  1
  Bi2+  Bi113  1  0.62536449  -0.01247701  0.70008543  1
  Bi2+  Bi114  1  0.63678572  0.25910901  0.20047104  1
  Bi2+  Bi115  1  0.63234697  0.25996305  0.71295285  1
  Bi2+  Bi116  1  0.60103907  0.46901438  0.20508104  1
  Bi2+  Bi117  1  0.67454973  0.48387926  0.70429972  1
  Bi2+  Bi118  1  0.63396076  0.73025900  0.19006677  1
  Bi2+  Bi119  1  0.69562455  0.75362344  0.71456744  1
  Bi2+  Bi120  1  0.85752044  -0.03299368  0.20989053  1
  Bi2+  Bi121  1  0.83799060  0.00005494  0.71656559  1
  Bi2+  Bi122  1  0.82232395  0.23928378  0.22349393  1
  Bi2+  Bi123  1  0.86342853  0.24652790  0.69848237  1
  Bi2+  Bi124  1  0.79412391  0.49755124  0.22185804  1
  Bi2+  Bi125  1  0.85797210  0.50940024  0.74156623  1
  Bi2+  Bi126  1  0.90086670  0.75406797  0.21011492  1
  Bi2+  Bi127  1  0.89024489  0.70182283  0.71506022  1
  S2-  S128  1  0.04800702  0.14044955  0.18873680  1
  S2-  S129  1  -0.09227537  0.11831739  0.63817403  1
  S2-  S130  1  0.04581498  0.35832762  0.18746143  1
  S2-  S131  1  0.00283270  0.39563022  0.64716951  1
  S2-  S132  1  -0.00099267  0.54564984  0.14976851  1
  S2-  S133  1  0.08845778  0.61473671  0.64612427  1
  S2-  S134  1  -0.00020075  0.95510522  0.14347750  1
  S2-  S135  1  0.03510747  0.87356412  0.65280512  1
  S2-  S136  1  0.24157526  0.11107212  0.15397593  1
  S2-  S137  1  0.22254946  0.05136847  0.65350658  1
  S2-  S138  1  0.25111882  0.38985948  0.16018727  1
  S2-  S139  1  0.24448265  0.45847130  0.63950477  1
  S2-  S140  1  0.25928601  0.61823661  0.15501891  1
  S2-  S141  1  0.27629535  0.65946566  0.68806849  1
  S2-  S142  1  0.25025503  0.88493419  0.14805813  1
  S2-  S143  1  0.26786548  0.85880719  0.67714595  1
  S2-  S144  1  0.45360089  0.11244376  0.16104068  1
  S2-  S145  1  0.47963893  0.01066632  0.65177326  1
  S2-  S146  1  0.46203207  0.38559065  0.15382167  1
  S2-  S147  1  0.53613650  0.45370855  0.64470898  1
  S2-  S148  1  0.49780796  0.60869374  0.16476375  1
  S2-  S149  1  0.47783589  0.62739218  0.68958666  1
  S2-  S150  1  0.50704627  0.82231100  0.14168744  1
  S2-  S151  1  0.54892829  0.82428821  0.67478410  1
  S2-  S152  1  0.84394770  0.12088405  0.15202345  1
  S2-  S153  1  0.64898618  0.13280401  0.64696062  1
  S2-  S154  1  0.83284243  0.37901751  0.15255515  1
  S2-  S155  1  0.75429137  0.35886481  0.64588838  1
  S2-  S156  1  0.74823751  0.62615665  0.15098992  1
  S2-  S157  1  0.68288059  0.61710565  0.64164551  1
  S2-  S158  1  0.75493038  0.87719709  0.15957405  1
  S2-  S159  1  0.76006988  0.89606016  0.65009100  1
  S2-  S160  1  0.12917380  0.08194347  0.34896568  1
  S2-  S161  1  0.20650757  -0.00518171  0.84718552  1
  S2-  S162  1  0.09671139  0.24516437  0.29076655  1
  S2-  S163  1  0.11347887  0.25117259  0.85328731  1
  S2-  S164  1  0.12012039  0.41109360  0.34196869  1
  S2-  S165  1  0.13742783  0.51593400  0.84046585  1
  S2-  S166  1  0.12148481  0.64396556  0.35892682  1
  S2-  S167  1  0.13728489  0.75134360  0.80095164  1
  S2-  S168  1  0.38124285  0.00288613  0.35153211  1
  S2-  S169  1  0.40123717  -0.06894512  0.83014821  1
  S2-  S170  1  0.29304303  0.24518299  0.34491669  1
  S2-  S171  1  0.37822769  0.15486716  0.85804669  1
  S2-  S172  1  0.29008814  0.51811457  0.35931073  1
  S2-  S173  1  0.38163866  0.52341219  0.83929699  1
  S2-  S174  1  0.37673524  0.73726039  0.36166122  1
  S2-  S175  1  0.31463701  0.73996210  0.83974596  1
  S2-  S176  1  0.62888447  0.02558386  0.34997285  1
  S2-  S177  1  0.60739148  0.04657135  0.84254540  1
  S2-  S178  1  0.52015076  0.23330153  0.35848573  1
  S2-  S179  1  0.60455202  0.29815668  0.85061442  1
  S2-  S180  1  0.50110046  0.52259846  0.36359728  1
  S2-  S181  1  0.63692161  0.53849483  0.84348529  1
  S2-  S182  1  0.60295537  0.78695140  0.34697196  1
  S2-  S183  1  0.52455157  0.74215358  0.84793556  1
  S2-  S184  1  0.87514260  0.01130540  0.33924011  1
  S2-  S185  1  0.97560490  -0.00143753  0.85724300  1
  S2-  S186  1  0.90754586  0.24966018  0.33802100  1
  S2-  S187  1  0.86490333  0.25694120  0.85094015  1
  S2-  S188  1  0.90841983  0.50923722  0.33673148  1
  S2-  S189  1  0.90127482  0.49938325  0.84800527  1
  S2-  S190  1  0.89270240  0.75632605  0.34378772  1
  S2-  S191  1  0.95400131  0.74954982  0.85600127  1
  S2-  S192  1  0.00804343  0.12594158  0.45145059  1
  S2-  S193  1  -0.00996160  0.13042222  0.96408698  1
  S2-  S194  1  0.00925234  0.36914872  0.44460559  1
  S2-  S195  1  -0.00925113  0.38260115  0.95785906  1
  S2-  S196  1  0.00719169  0.62506213  0.45448191  1
  S2-  S197  1  -0.00482404  0.62962711  0.95683329  1
  S2-  S198  1  0.01190605  0.87584818  0.44828469  1
  S2-  S199  1  -0.00225738  0.87195023  0.95359687  1
  S2-  S200  1  0.26268707  0.12388310  0.45616986  1
  S2-  S201  1  0.23628725  0.13235790  0.95371365  1
  S2-  S202  1  0.26207410  0.37002915  0.45161314  1
  S2-  S203  1  0.24325555  0.37854017  0.95249137  1
  S2-  S204  1  0.26095492  0.62841334  0.46880247  1
  S2-  S205  1  0.23986025  0.63422447  0.94875985  1
  S2-  S206  1  0.26061468  0.87578916  0.46357168  1
  S2-  S207  1  0.23886156  0.86973372  0.94508725  1
  S2-  S208  1  0.51024041  0.11907844  0.46399682  1
  S2-  S209  1  0.49548212  0.13122072  0.95713390  1
  S2-  S210  1  0.51284521  0.37233647  0.45338641  1
  S2-  S211  1  0.48973056  0.38054910  0.95012775  1
  S2-  S212  1  0.51386926  0.62758979  0.46965625  1
  S2-  S213  1  0.49216471  0.62873327  0.95567884  1
  S2-  S214  1  0.51037326  0.87808624  0.46454514  1
  S2-  S215  1  0.49245694  0.88062032  0.94813969  1
  S2-  S216  1  0.76159953  0.12313176  0.45309594  1
  S2-  S217  1  0.74298664  0.12942916  0.95824039  1
  S2-  S218  1  0.75973287  0.37181845  0.44031003  1
  S2-  S219  1  0.74341138  0.38344909  0.95866539  1
  S2-  S220  1  0.75945604  0.62466483  0.44675614  1
  S2-  S221  1  0.74352574  0.62880685  0.94918591  1
  S2-  S222  1  0.75927473  0.87751216  0.44742089  1
  S2-  S223  1  0.74375984  0.87841230  0.95173893  1
  S2-  S224  1  0.11934847  0.00487786  0.04109677  1
  S2-  S225  1  0.12938636  0.00221468  0.54480790  1
  S2-  S226  1  0.11408426  0.25367292  0.05957287  1
  S2-  S227  1  0.13309401  0.24817859  0.54918085  1
  S2-  S228  1  0.11749538  0.50267800  0.04740650  1
  S2-  S229  1  0.13249346  0.49618233  0.53511380  1
  S2-  S230  1  0.11911159  0.75410829  0.05322291  1
  S2-  S231  1  0.13358559  0.74993919  0.54624864  1
  S2-  S232  1  0.36452632  0.00442295  0.03945785  1
  S2-  S233  1  0.37923204  -0.00273617  0.55270208  1
  S2-  S234  1  0.36515139  0.25350238  0.04669669  1
  S2-  S235  1  0.38480017  0.24775030  0.53867389  1
  S2-  S236  1  0.36652847  0.50505997  0.04501647  1
  S2-  S237  1  0.38572196  0.49683114  0.54891429  1
  S2-  S238  1  0.36518373  0.75668851  0.04023569  1
  S2-  S239  1  0.38408741  0.74796713  0.56867969  1
  S2-  S240  1  0.61543834  0.00166081  0.04788069  1
  S2-  S241  1  0.63934599  -0.00223201  0.54986062  1
  S2-  S242  1  0.61693310  0.25443539  0.05331156  1
  S2-  S243  1  0.63664119  0.24653681  0.54010635  1
  S2-  S244  1  0.61531694  0.50615158  0.04866510  1
  S2-  S245  1  0.63772326  0.49454676  0.53522081  1
  S2-  S246  1  0.61583842  0.75411641  0.03727656  1
  S2-  S247  1  0.63577042  0.75361036  0.54977722  1
  S2-  S248  1  0.86461900  0.00054300  0.04409629  1
  S2-  S249  1  0.88525356  -0.00416282  0.54122673  1
  S2-  S250  1  0.87068805  0.25499633  0.05645167  1
  S2-  S251  1  0.88517881  0.24971480  0.54008435  1
  S2-  S252  1  0.86421430  0.50839766  0.04853959  1
  S2-  S253  1  0.88276209  0.49836580  0.54303610  1
  S2-  S254  1  0.86614035  0.75161102  0.04905085  1
  S2-  S255  1  0.88323816  0.74745789  0.55096660  1
