# generated using pymatgen
data_La6Ce6Pr19Nd20Sm13(BiS2)64
_symmetry_space_group_name_H-M   'P 1'
_cell_length_a   16.16996897
_cell_length_b   16.19313970
_cell_length_c   27.12799500
_cell_angle_alpha   90.09033927
_cell_angle_beta   90.06741023
_cell_angle_gamma   89.97227166
_symmetry_Int_Tables_number   1
_chemical_formula_structural   La6Ce6Pr19Nd20Sm13(BiS2)64
_chemical_formula_sum   'La6 Ce6 Pr19 Nd20 Sm13 Bi64 S128'
_cell_volume   7103.24926042
_cell_formula_units_Z   1
loop_
 _symmetry_equiv_pos_site_id
 _symmetry_equiv_pos_as_xyz
  1  'x, y, z'
loop_
 _atom_type_symbol
 _atom_type_oxidation_number
  La3+  3.0
  Ce3+  3.0
  Pr3+  3.0
  Nd3+  3.0
  Sm3+  3.0
  Bi2+  2.0
  S2-  -2.0
loop_
 _atom_site_type_symbol
 _atom_site_label
 _atom_site_symmetry_multiplicity
 _atom_site_fract_x
 _atom_site_fract_y
 _atom_site_fract_z
 _atom_site_occupancy
  La3+  La0  1  0.37492719  0.48123923  0.41005087  1
  La3+  La1  1  0.63470025  0.74366846  0.40862359  1
  La3+  La2  1  0.26319639  0.60948735  0.57805749  1
  La3+  La3  1  0.36053988  0.74075464  0.42263524  1
  La3+  La4  1  0.12526573  0.74516787  0.89409214  1
  La3+  La5  1  0.38098607  0.25225424  0.92703355  1
  Ce3+  Ce6  1  0.25539721  0.36807083  0.55558905  1
  Ce3+  Ce7  1  0.00593784  0.37506977  0.06110355  1
  Ce3+  Ce8  1  0.36326803  0.23022616  0.42013429  1
  Ce3+  Ce9  1  0.12559007  0.50484995  0.93631508  1
  Ce3+  Ce10  1  0.74844617  0.37745763  0.06730155  1
  Ce3+  Ce11  1  0.87419091  0.24113666  0.44598883  1
  Pr3+  Pr12  1  0.24991492  0.12197087  0.57683498  1
  Pr3+  Pr13  1  0.24915390  0.12318965  0.04955939  1
  Pr3+  Pr14  1  0.75554071  0.87358673  0.07393357  1
  Pr3+  Pr15  1  0.37731926  0.74544703  0.93470688  1
  Pr3+  Pr16  1  0.62514255  0.25431158  0.94325712  1
  Pr3+  Pr17  1  0.74862786  0.12767396  0.05966973  1
  Pr3+  Pr18  1  0.49899328  0.61762455  0.54113327  1
  Pr3+  Pr19  1  0.12277175  0.25011774  0.92484510  1
  Pr3+  Pr20  1  0.49731594  0.86592452  0.54820841  1
  Pr3+  Pr21  1  -0.01061009  0.86227173  0.57385379  1
  Pr3+  Pr22  1  0.24482406  0.62920504  0.06706773  1
  Pr3+  Pr23  1  0.12625353  0.49285660  0.43847552  1
  Pr3+  Pr24  1  0.49720306  0.12547360  0.06453282  1
  Pr3+  Pr25  1  0.87466528  -0.00889090  0.43763229  1
  Pr3+  Pr26  1  0.87152253  0.25242579  0.94229057  1
  Pr3+  Pr27  1  0.48977159  0.37234705  0.07849688  1
  Pr3+  Pr28  1  0.49175565  0.63089610  0.08683914  1
  Pr3+  Pr29  1  0.24965267  0.87392052  0.04988057  1
  Pr3+  Pr30  1  0.62151369  -0.00665998  0.43446027  1
  Nd3+  Nd31  1  0.62034597  0.74701216  0.94494650  1
  Nd3+  Nd32  1  -0.00270551  0.87448788  0.05758088  1
  Nd3+  Nd33  1  0.00138396  0.36895484  0.55892161  1
  Nd3+  Nd34  1  0.37031045  -0.00615271  0.44591388  1
  Nd3+  Nd35  1  0.25214140  0.86440164  0.57146701  1
  Nd3+  Nd36  1  0.74913734  0.11805877  0.55661571  1
  Nd3+  Nd37  1  0.38731271  -0.00203889  0.92969653  1
  Nd3+  Nd38  1  0.87296143  -0.00500814  0.93933045  1
  Nd3+  Nd39  1  0.74905187  0.36938487  0.56003960  1
  Nd3+  Nd40  1  -0.00087450  0.11586206  0.56407615  1
  Nd3+  Nd41  1  0.24612308  0.37201266  0.06073928  1
  Nd3+  Nd42  1  0.87540386  0.49217708  0.43770536  1
  Nd3+  Nd43  1  0.12572774  -0.00270396  0.93218754  1
  Nd3+  Nd44  1  0.87119909  0.74375079  0.93463693  1
  Nd3+  Nd45  1  0.49948400  0.11953432  0.55985183  1
  Nd3+  Nd46  1  0.63438458  0.49282961  0.42927516  1
  Nd3+  Nd47  1  0.87528536  0.50241117  0.95035459  1
  Nd3+  Nd48  1  0.50262672  0.87470241  0.06979415  1
  Nd3+  Nd49  1  0.74694899  0.61774943  0.56167473  1
  Nd3+  Nd50  1  0.12560968  0.23909277  0.44254798  1
  Sm3+  Sm51  1  0.00477608  0.62671551  0.06171086  1
  Sm3+  Sm52  1  0.74883538  0.62517380  0.06544579  1
  Sm3+  Sm53  1  0.12327334  -0.00958425  0.45650453  1
  Sm3+  Sm54  1  0.00023878  0.12556352  0.04724209  1
  Sm3+  Sm55  1  0.62676257  -0.00357795  0.94719540  1
  Sm3+  Sm56  1  0.62460965  0.24322416  0.44059660  1
  Sm3+  Sm57  1  0.12610245  0.74279475  0.45163024  1
  Sm3+  Sm58  1  0.49777098  0.36755649  0.54845431  1
  Sm3+  Sm59  1  0.87656259  0.74488016  0.43948928  1
  Sm3+  Sm60  1  0.00010623  0.61680338  0.55588043  1
  Sm3+  Sm61  1  0.74743509  0.86893141  0.55700926  1
  Sm3+  Sm62  1  0.37435360  0.50409037  0.94707330  1
  Sm3+  Sm63  1  0.61971267  0.50206481  0.95746821  1
  Bi2+  Bi64  1  0.01363176  0.14959110  0.28783594  1
  Bi2+  Bi65  1  -0.07463711  0.13647208  0.78638111  1
  Bi2+  Bi66  1  0.01217718  0.42870078  0.31633709  1
  Bi2+  Bi67  1  -0.02960363  0.41375410  0.78561572  1
  Bi2+  Bi68  1  0.01880915  0.62797977  0.29771415  1
  Bi2+  Bi69  1  -0.02608807  0.61728027  0.78951157  1
  Bi2+  Bi70  1  0.02901752  0.86749443  0.29432329  1
  Bi2+  Bi71  1  -0.11579345  0.86698755  0.78191126  1
  Bi2+  Bi72  1  0.23224936  0.08932936  0.29508744  1
  Bi2+  Bi73  1  0.22690462  0.13039132  0.79088331  1
  Bi2+  Bi74  1  0.18906539  0.36516937  0.28920547  1
  Bi2+  Bi75  1  0.24151440  0.40438598  0.73604729  1
  Bi2+  Bi76  1  0.26344242  0.63797511  0.29597062  1
  Bi2+  Bi77  1  0.25539975  0.61770153  0.78538139  1
  Bi2+  Bi78  1  0.23643912  0.88894777  0.29621693  1
  Bi2+  Bi79  1  0.26798227  0.88324580  0.78007557  1
  Bi2+  Bi80  1  0.47699431  0.14451612  0.28765702  1
  Bi2+  Bi81  1  0.47113425  0.13637295  0.80412704  1
  Bi2+  Bi82  1  0.52241942  0.35368137  0.28500888  1
  Bi2+  Bi83  1  0.55699750  0.38856490  0.78745473  1
  Bi2+  Bi84  1  0.52623760  0.62289623  0.28943370  1
  Bi2+  Bi85  1  0.49340242  0.60254861  0.79693588  1
  Bi2+  Bi86  1  0.50783529  0.95882633  0.27241289  1
  Bi2+  Bi87  1  0.52647526  0.86587718  0.79696995  1
  Bi2+  Bi88  1  0.82004850  0.12510469  0.28679615  1
  Bi2+  Bi89  1  0.69979158  0.13430657  0.79777759  1
  Bi2+  Bi90  1  0.79281465  0.38986033  0.28525685  1
  Bi2+  Bi91  1  0.73716631  0.32242962  0.82053033  1
  Bi2+  Bi92  1  0.82113847  0.62604855  0.28013491  1
  Bi2+  Bi93  1  0.71979627  0.62480753  0.80515778  1
  Bi2+  Bi94  1  0.75389061  0.88238602  0.29486416  1
  Bi2+  Bi95  1  0.71975570  0.81537443  0.83448667  1
  Bi2+  Bi96  1  0.09542829  0.00480504  0.21771007  1
  Bi2+  Bi97  1  0.06190170  0.03391194  0.73068946  1
  Bi2+  Bi98  1  0.12188904  0.22740891  0.19978690  1
  Bi2+  Bi99  1  0.08932752  0.28695990  0.71810051  1
  Bi2+  Bi100  1  0.13852685  0.49243588  0.20971066  1
  Bi2+  Bi101  1  0.06377478  0.51536628  0.70572456  1
  Bi2+  Bi102  1  0.11858072  0.74144297  0.21846977  1
  Bi2+  Bi103  1  0.11181827  0.76738313  0.69907229  1
  Bi2+  Bi104  1  0.34748886  -0.03778468  0.20806776  1
  Bi2+  Bi105  1  0.47991224  0.00231293  0.71867812  1
  Bi2+  Bi106  1  0.35649597  0.22662137  0.21184538  1
  Bi2+  Bi107  1  0.36069072  0.25580552  0.69360267  1
  Bi2+  Bi108  1  0.39640097  0.48377628  0.20309922  1
  Bi2+  Bi109  1  0.41072958  0.48969898  0.70110056  1
  Bi2+  Bi110  1  0.36499983  0.76165530  0.21368049  1
  Bi2+  Bi111  1  0.37965730  0.75764273  0.69346154  1
  Bi2+  Bi112  1  0.61399379  0.05750512  0.19724304  1
  Bi2+  Bi113  1  0.67447345  -0.03452681  0.73467568  1
  Bi2+  Bi114  1  0.68051527  0.24036251  0.24314799  1
  Bi2+  Bi115  1  0.62466372  0.25401611  0.71784449  1
  Bi2+  Bi116  1  0.68072829  0.48632019  0.19791747  1
  Bi2+  Bi117  1  0.62712931  0.55176532  0.70821318  1
  Bi2+  Bi118  1  0.64075283  0.74946488  0.20182730  1
  Bi2+  Bi119  1  0.64226316  0.75930536  0.72058990  1
  Bi2+  Bi120  1  0.90058548  0.01482093  0.20502313  1
  Bi2+  Bi121  1  0.85754097  0.00820910  0.68968191  1
  Bi2+  Bi122  1  0.93968620  0.30238635  0.22433654  1
  Bi2+  Bi123  1  0.81876756  0.20321669  0.70176276  1
  Bi2+  Bi124  1  0.94256353  0.50209578  0.20931249  1
  Bi2+  Bi125  1  0.79609016  0.45669667  0.73728225  1
  Bi2+  Bi126  1  0.92467694  0.75946918  0.21756456  1
  Bi2+  Bi127  1  0.83589878  0.72555906  0.70960794  1
  S2-  S128  1  0.01323539  0.11194582  0.14445467  1
  S2-  S129  1  0.04217869  0.15417870  0.65763699  1
  S2-  S130  1  0.12103997  0.36689394  0.13474578  1
  S2-  S131  1  -0.01352450  0.37955242  0.65749040  1
  S2-  S132  1  0.11504686  0.62199966  0.14035089  1
  S2-  S133  1  0.00203357  0.65143838  0.65226955  1
  S2-  S134  1  -0.10478679  0.87353913  0.13995333  1
  S2-  S135  1  0.03754039  0.91340415  0.66719107  1
  S2-  S136  1  0.25632534  0.14161361  0.14987220  1
  S2-  S137  1  0.25851346  0.13437211  0.67957238  1
  S2-  S138  1  0.34755680  0.36401692  0.14478018  1
  S2-  S139  1  0.26172538  0.45997900  0.63736295  1
  S2-  S140  1  0.34751311  0.61983018  0.15198078  1
  S2-  S141  1  0.23475389  0.66085655  0.67860497  1
  S2-  S142  1  0.25395604  0.85049572  0.15055800  1
  S2-  S143  1  0.25749268  0.87530909  0.67217251  1
  S2-  S144  1  0.49644922  0.17952823  0.15966165  1
  S2-  S145  1  0.47506094  0.14054615  0.65798407  1
  S2-  S146  1  0.54565271  0.39770764  0.17699364  1
  S2-  S147  1  0.47786555  0.37075524  0.64754842  1
  S2-  S148  1  0.55860596  0.59438547  0.18449377  1
  S2-  S149  1  0.42879403  0.62506751  0.63328007  1
  S2-  S150  1  0.49130462  0.77637233  0.15087968  1
  S2-  S151  1  0.47856868  0.86251740  0.64851904  1
  S2-  S152  1  0.76523818  0.09799824  0.15796474  1
  S2-  S153  1  0.71088215  0.07359618  0.64927093  1
  S2-  S154  1  0.75314493  0.33766208  0.16162702  1
  S2-  S155  1  0.74008586  0.34690993  0.65818259  1
  S2-  S156  1  0.76244793  0.64358051  0.16297022  1
  S2-  S157  1  0.78274410  0.57891042  0.65672171  1
  S2-  S158  1  0.66342053  0.89226732  0.16063684  1
  S2-  S159  1  0.83998777  0.85294938  0.63864778  1
  S2-  S160  1  0.13106255  -0.01366711  0.35841305  1
  S2-  S161  1  0.11773551  0.01459646  0.83320335  1
  S2-  S162  1  0.21148935  0.22931105  0.35638696  1
  S2-  S163  1  0.12575079  0.24419367  0.82297889  1
  S2-  S164  1  0.21998784  0.50351187  0.35463915  1
  S2-  S165  1  0.12828880  0.58476353  0.84760339  1
  S2-  S166  1  0.20506464  0.75233447  0.36467186  1
  S2-  S167  1  0.12672230  0.80901318  0.79200221  1
  S2-  S168  1  0.36959236  0.08444958  0.36200514  1
  S2-  S169  1  0.33687406  0.00899481  0.83328616  1
  S2-  S170  1  0.39292693  0.33849516  0.34715136  1
  S2-  S171  1  0.33851511  0.23838367  0.82634527  1
  S2-  S172  1  0.39371634  0.53229796  0.30573703  1
  S2-  S173  1  0.36504526  0.52845202  0.84767141  1
  S2-  S174  1  0.40418211  0.73479131  0.32272160  1
  S2-  S175  1  0.28885809  0.74746165  0.84331037  1
  S2-  S176  1  0.65648481  -0.00914844  0.33569401  1
  S2-  S177  1  0.53855338  0.00361791  0.86330219  1
  S2-  S178  1  0.60769029  0.22963026  0.34252659  1
  S2-  S179  1  0.52313575  0.26793426  0.86208312  1
  S2-  S180  1  0.58331318  0.48222740  0.33273185  1
  S2-  S181  1  0.60605649  0.51099474  0.85926261  1
  S2-  S182  1  0.61208937  0.77361604  0.30801262  1
  S2-  S183  1  0.50966186  0.73237127  0.86643031  1
  S2-  S184  1  0.88723778  -0.06109616  0.34226785  1
  S2-  S185  1  0.86378986  0.00674108  0.84050039  1
  S2-  S186  1  0.83791174  0.25455633  0.35174797  1
  S2-  S187  1  0.91047444  0.28584677  0.84624054  1
  S2-  S188  1  0.77886568  0.51110290  0.35641555  1
  S2-  S189  1  0.85973633  0.56619341  0.85850941  1
  S2-  S190  1  0.79289082  0.74065887  0.35390283  1
  S2-  S191  1  0.96298204  0.75486555  0.85069729  1
  S2-  S192  1  -0.00010160  0.11536769  0.45530666  1
  S2-  S193  1  -0.00283592  0.12348442  0.94205688  1
  S2-  S194  1  -0.00025194  0.36585094  0.45254115  1
  S2-  S195  1  0.00045733  0.37741566  0.95280274  1
  S2-  S196  1  -0.00108258  0.62053748  0.44974474  1
  S2-  S197  1  0.00076931  0.62681929  0.95760711  1
  S2-  S198  1  0.00030941  0.86500062  0.46064642  1
  S2-  S199  1  0.00024338  0.87433748  0.95065866  1
  S2-  S200  1  0.24365743  0.11253762  0.46787368  1
  S2-  S201  1  0.25072943  0.12340896  0.94261462  1
  S2-  S202  1  0.24782343  0.36417433  0.45248712  1
  S2-  S203  1  0.25000243  0.37640066  0.94515360  1
  S2-  S204  1  0.24625869  0.61784217  0.46218539  1
  S2-  S205  1  0.24866789  0.62644842  0.95664751  1
  S2-  S206  1  0.24676571  0.87160176  0.46380028  1
  S2-  S207  1  0.25119433  0.87725600  0.94342172  1
  S2-  S208  1  0.50210643  0.11909074  0.45408555  1
  S2-  S209  1  0.50389070  0.12444046  0.95898297  1
  S2-  S210  1  0.50815744  0.36793337  0.44609003  1
  S2-  S211  1  0.49742899  0.38132558  0.96613963  1
  S2-  S212  1  0.50400393  0.62080319  0.43446766  1
  S2-  S213  1  0.49783399  0.62096649  0.97086374  1
  S2-  S214  1  0.49677891  0.86625072  0.43905594  1
  S2-  S215  1  0.50255374  0.87498387  0.96293317  1
  S2-  S216  1  0.74744963  0.11684944  0.44942014  1
  S2-  S217  1  0.74774183  0.12376851  0.95125106  1
  S2-  S218  1  0.74999328  0.36622049  0.45394313  1
  S2-  S219  1  0.74829760  0.38111369  0.95981464  1
  S2-  S220  1  0.75011333  0.62289120  0.45616434  1
  S2-  S221  1  0.74520329  0.62348024  0.96105972  1
  S2-  S222  1  0.74806360  0.86728876  0.45295877  1
  S2-  S223  1  0.74975948  0.87296266  0.96323054  1
  S2-  S224  1  0.12131955  -0.00085119  0.04112373  1
  S2-  S225  1  0.12602173  -0.00754643  0.56026629  1
  S2-  S226  1  0.12359409  0.24557788  0.03288929  1
  S2-  S227  1  0.12502533  0.24392334  0.54993151  1
  S2-  S228  1  0.12479285  0.50035267  0.03948768  1
  S2-  S229  1  0.12173370  0.49467755  0.54600226  1
  S2-  S230  1  0.12016021  0.75496091  0.04639936  1
  S2-  S231  1  0.12530152  0.74177337  0.55542079  1
  S2-  S232  1  0.37706433  -0.00164866  0.04427904  1
  S2-  S233  1  0.37285089  -0.00479951  0.55297512  1
  S2-  S234  1  0.37216905  0.24759404  0.03873684  1
  S2-  S235  1  0.37556979  0.24131303  0.54289814  1
  S2-  S236  1  0.36866072  0.49933728  0.04975864  1
  S2-  S237  1  0.37993006  0.48824521  0.52891221  1
  S2-  S238  1  0.37523808  0.75297159  0.04367458  1
  S2-  S239  1  0.37163871  0.74520930  0.53568576  1
  S2-  S240  1  0.62462006  0.00090883  0.05078472  1
  S2-  S241  1  0.62340332  -0.00899838  0.54265778  1
  S2-  S242  1  0.62260813  0.25315604  0.05158163  1
  S2-  S243  1  0.62439449  0.24386992  0.54746258  1
  S2-  S244  1  0.62305384  0.50204289  0.06142971  1
  S2-  S245  1  0.62379510  0.49127404  0.54240949  1
  S2-  S246  1  0.62863529  0.74881846  0.05182647  1
  S2-  S247  1  0.62620273  0.74436498  0.54575564  1
  S2-  S248  1  0.87507197  0.00515839  0.04404551  1
  S2-  S249  1  0.87331582  -0.00623635  0.54465656  1
  S2-  S250  1  0.87757378  0.25090976  0.05061584  1
  S2-  S251  1  0.87509176  0.24282427  0.55284023  1
  S2-  S252  1  0.87782261  0.50294215  0.05732706  1
  S2-  S253  1  0.87555865  0.49379440  0.54495212  1
  S2-  S254  1  0.87579395  0.74143738  0.04396658  1
  S2-  S255  1  0.87192941  0.73676846  0.54241372  1
