# generated using pymatgen
data_La6Ce6Pr19Nd20Sm13(BiS2)64
_symmetry_space_group_name_H-M   'P 1'
_cell_length_a   16.14199411
_cell_length_b   16.12178853
_cell_length_c   27.31587944
_cell_angle_alpha   89.84618281
_cell_angle_beta   90.00436137
_cell_angle_gamma   89.93954722
_symmetry_Int_Tables_number   1
_chemical_formula_structural   La6Ce6Pr19Nd20Sm13(BiS2)64
_chemical_formula_sum   'La6 Ce6 Pr19 Nd20 Sm13 Bi64 S128'
_cell_volume   7108.59520139
_cell_formula_units_Z   1
loop_
 _symmetry_equiv_pos_site_id
 _symmetry_equiv_pos_as_xyz
  1  'x, y, z'
loop_
 _atom_type_symbol
 _atom_type_oxidation_number
  La3+  3.0
  Ce3+  3.0
  Pr3+  3.0
  Nd3+  3.0
  Sm3+  3.0
  Bi2+  2.0
  S2-  -2.0
loop_
 _atom_site_type_symbol
 _atom_site_label
 _atom_site_symmetry_multiplicity
 _atom_site_fract_x
 _atom_site_fract_y
 _atom_site_fract_z
 _atom_site_occupancy
  La3+  La0  1  -0.02013113  0.12370963  0.07443670  1
  La3+  La1  1  0.73872361  0.36851904  0.59316146  1
  La3+  La2  1  0.24170398  0.37303698  0.08343602  1
  La3+  La3  1  0.75133061  0.37552131  0.10935173  1
  La3+  La4  1  0.60917664  0.74727374  0.93061835  1
  La3+  La5  1  0.23964181  0.88782727  0.61973424  1
  Ce3+  Ce6  1  0.11981728  0.49951185  0.44078211  1
  Ce3+  Ce7  1  0.85912232  0.50206618  0.93924322  1
  Ce3+  Ce8  1  -0.00837087  0.12805876  0.55739973  1
  Ce3+  Ce9  1  -0.00339445  0.87539715  0.56510265  1
  Ce3+  Ce10  1  0.24554526  0.12339968  0.55863246  1
  Ce3+  Ce11  1  0.36168727  0.00096661  0.94216384  1
  Pr3+  Pr12  1  0.11014588  0.76147010  0.91605907  1
  Pr3+  Pr13  1  0.36626113  -0.00165881  0.43613799  1
  Pr3+  Pr14  1  0.74187875  0.62312019  0.55650557  1
  Pr3+  Pr15  1  0.48585845  0.87416955  0.06482798  1
  Pr3+  Pr16  1  0.85399831  0.00251554  0.93407230  1
  Pr3+  Pr17  1  0.61086569  0.25575568  0.94224027  1
  Pr3+  Pr18  1  0.73903612  0.62678281  0.06912102  1
  Pr3+  Pr19  1  0.10290168  0.01381753  0.92128416  1
  Pr3+  Pr20  1  0.48939908  0.12798666  0.05762391  1
  Pr3+  Pr21  1  0.85998504  0.75262893  0.93184157  1
  Pr3+  Pr22  1  -0.00957452  0.87604338  0.05617346  1
  Pr3+  Pr23  1  0.24354108  0.37676445  0.57210398  1
  Pr3+  Pr24  1  0.61694663  0.50795449  0.42225376  1
  Pr3+  Pr25  1  0.86687037  0.49956820  0.43927414  1
  Pr3+  Pr26  1  0.61896984  -0.00131487  0.43236021  1
  Pr3+  Pr27  1  0.36554891  0.25428595  0.43696503  1
  Pr3+  Pr28  1  0.61697996  0.75414493  0.43151982  1
  Pr3+  Pr29  1  0.48421035  0.62713247  0.06812900  1
  Pr3+  Pr30  1  0.73617820  0.87254173  0.06697952  1
  Nd3+  Nd31  1  0.23503197  0.12676515  0.06137869  1
  Nd3+  Nd32  1  0.23510522  0.87497004  0.04927412  1
  Nd3+  Nd33  1  0.61163047  0.00043677  0.93684725  1
  Nd3+  Nd34  1  0.36591204  0.75303430  0.44503655  1
  Nd3+  Nd35  1  0.36019117  0.49422412  0.94027635  1
  Nd3+  Nd36  1  0.11968345  0.75193501  0.44246148  1
  Nd3+  Nd37  1  0.49244317  0.37606276  0.07667727  1
  Nd3+  Nd38  1  0.49698872  0.62433268  0.55580658  1
  Nd3+  Nd39  1  0.86881518  0.75351574  0.44602939  1
  Nd3+  Nd40  1  0.85832626  0.25363616  0.94288008  1
  Nd3+  Nd41  1  0.11508903  0.49867976  0.94440202  1
  Nd3+  Nd42  1  0.49358416  0.87494904  0.56878343  1
  Nd3+  Nd43  1  0.11120382  0.25112680  0.94241359  1
  Nd3+  Nd44  1  0.61192856  0.50099245  0.95168687  1
  Nd3+  Nd45  1  -0.01096003  0.62669821  0.05183662  1
  Nd3+  Nd46  1  0.61739134  0.25407979  0.43212565  1
  Nd3+  Nd47  1  -0.01355002  0.37638771  0.05819573  1
  Nd3+  Nd48  1  0.36161479  0.73917977  0.92161063  1
  Nd3+  Nd49  1  0.86827230  0.25132430  0.43142889  1
  Nd3+  Nd50  1  0.24199130  0.62552102  0.56806880  1
  Sm3+  Sm51  1  0.36118230  0.25557642  0.94227156  1
  Sm3+  Sm52  1  0.12036703  0.25157989  0.44402822  1
  Sm3+  Sm53  1  0.11844323  0.00010579  0.44519960  1
  Sm3+  Sm54  1  -0.00785018  0.37341787  0.55195635  1
  Sm3+  Sm55  1  0.74245750  0.12784424  0.55028868  1
  Sm3+  Sm56  1  0.73777906  0.12538973  0.06268651  1
  Sm3+  Sm57  1  0.36624032  0.50060967  0.44283126  1
  Sm3+  Sm58  1  0.23809587  0.62893998  0.05493437  1
  Sm3+  Sm59  1  -0.00931841  0.62229483  0.55466308  1
  Sm3+  Sm60  1  0.87098914  0.00100801  0.44576020  1
  Sm3+  Sm61  1  0.49469018  0.12520702  0.54811818  1
  Sm3+  Sm62  1  0.73989722  0.87603744  0.56272381  1
  Sm3+  Sm63  1  0.49756365  0.37386477  0.55613997  1
  Bi2+  Bi64  1  0.02696082  0.07161881  0.26271280  1
  Bi2+  Bi65  1  0.00005246  0.15033868  0.79076064  1
  Bi2+  Bi66  1  0.02682495  0.44077321  0.29073286  1
  Bi2+  Bi67  1  0.03694545  0.34611023  0.75510010  1
  Bi2+  Bi68  1  0.01970764  0.63499282  0.25816450  1
  Bi2+  Bi69  1  -0.02492334  0.65710265  0.77106071  1
  Bi2+  Bi70  1  -0.01465515  0.88238308  0.31362406  1
  Bi2+  Bi71  1  0.00018154  0.89941594  0.78641551  1
  Bi2+  Bi72  1  0.29148476  0.05257513  0.23601190  1
  Bi2+  Bi73  1  0.32987855  0.16833197  0.77731495  1
  Bi2+  Bi74  1  0.25840027  0.36819893  0.31995436  1
  Bi2+  Bi75  1  0.21198498  0.32903956  0.81019053  1
  Bi2+  Bi76  1  0.21473410  0.60986717  0.24409744  1
  Bi2+  Bi77  1  0.25347306  0.58098809  0.79191001  1
  Bi2+  Bi78  1  0.24689308  0.84448744  0.30603850  1
  Bi2+  Bi79  1  0.29693937  0.87674190  0.81098757  1
  Bi2+  Bi80  1  0.55329096  0.05947158  0.27358228  1
  Bi2+  Bi81  1  0.52706821  0.16089414  0.80700185  1
  Bi2+  Bi82  1  0.49358875  0.35530372  0.30745400  1
  Bi2+  Bi83  1  0.49210090  0.35980619  0.80265997  1
  Bi2+  Bi84  1  0.49011631  0.71155134  0.28436319  1
  Bi2+  Bi85  1  0.50020394  0.66178890  0.79216255  1
  Bi2+  Bi86  1  0.45263942  0.90255615  0.31359874  1
  Bi2+  Bi87  1  0.55507560  0.96755880  0.80548165  1
  Bi2+  Bi88  1  0.75004432  0.05732906  0.27787782  1
  Bi2+  Bi89  1  0.77467615  0.13625273  0.73552164  1
  Bi2+  Bi90  1  0.76792209  0.35517563  0.31152114  1
  Bi2+  Bi91  1  0.78132641  0.34463162  0.79065865  1
  Bi2+  Bi92  1  0.76616147  0.65366173  0.29755146  1
  Bi2+  Bi93  1  0.75671217  0.60172503  0.80287045  1
  Bi2+  Bi94  1  0.73124623  0.85723659  0.28660532  1
  Bi2+  Bi95  1  0.76273246  0.88106607  0.79272652  1
  Bi2+  Bi96  1  0.14067032  -0.05437288  0.20480369  1
  Bi2+  Bi97  1  0.15071580  0.10308281  0.72385381  1
  Bi2+  Bi98  1  0.15362697  0.22069280  0.24071527  1
  Bi2+  Bi99  1  0.20861503  0.28437150  0.69395515  1
  Bi2+  Bi100  1  0.16649933  0.42226986  0.21260522  1
  Bi2+  Bi101  1  0.11736229  0.50111591  0.70570886  1
  Bi2+  Bi102  1  0.05386303  0.76991942  0.17528858  1
  Bi2+  Bi103  1  0.12208597  0.74961118  0.71665009  1
  Bi2+  Bi104  1  0.44835002  -0.03619222  0.18929039  1
  Bi2+  Bi105  1  0.43366797  0.02757320  0.72110741  1
  Bi2+  Bi106  1  0.36761397  0.23829611  0.21263944  1
  Bi2+  Bi107  1  0.40234515  0.30947496  0.68588267  1
  Bi2+  Bi108  1  0.37163332  0.50750242  0.21917323  1
  Bi2+  Bi109  1  0.39453281  0.48891403  0.73192485  1
  Bi2+  Bi110  1  0.35291856  0.78830460  0.21295847  1
  Bi2+  Bi111  1  0.39504765  0.74261895  0.71042015  1
  Bi2+  Bi112  1  0.66045586  -0.02052231  0.17765879  1
  Bi2+  Bi113  1  0.65806813  -0.01219381  0.70729785  1
  Bi2+  Bi114  1  0.61075505  0.23054500  0.22087613  1
  Bi2+  Bi115  1  0.58668724  0.24203769  0.70070373  1
  Bi2+  Bi116  1  0.62130460  0.50208378  0.22073935  1
  Bi2+  Bi117  1  0.59482384  0.50217564  0.75427450  1
  Bi2+  Bi118  1  0.60790091  0.79090017  0.20463209  1
  Bi2+  Bi119  1  0.65345708  0.72276607  0.69873183  1
  Bi2+  Bi120  1  0.86577962  -0.01646229  0.19392736  1
  Bi2+  Bi121  1  0.86026227  -0.03230108  0.70002498  1
  Bi2+  Bi122  1  0.91216606  0.23770018  0.21705042  1
  Bi2+  Bi123  1  0.91412288  0.24380490  0.68051333  1
  Bi2+  Bi124  1  0.89250348  0.50443089  0.21486997  1
  Bi2+  Bi125  1  0.86685987  0.54610114  0.70266307  1
  Bi2+  Bi126  1  0.87100056  0.78573408  0.21145647  1
  Bi2+  Bi127  1  0.84504071  0.77004413  0.70644134  1
  S2-  S128  1  0.03877990  0.19160037  0.16561123  1
  S2-  S129  1  0.01305646  0.11549736  0.65415786  1
  S2-  S130  1  -0.07987200  0.37337178  0.15021294  1
  S2-  S131  1  0.02187007  0.37791975  0.64830215  1
  S2-  S132  1  -0.00669391  0.60751692  0.15097441  1
  S2-  S133  1  0.01346684  0.61450988  0.65141358  1
  S2-  S134  1  0.00809950  0.98051505  0.13646123  1
  S2-  S135  1  0.06870459  0.86607297  0.65264600  1
  S2-  S136  1  0.24616600  0.22000191  0.14509415  1
  S2-  S137  1  0.25290337  0.05991717  0.64907649  1
  S2-  S138  1  0.37417927  0.38208481  0.15249516  1
  S2-  S139  1  0.24200518  0.50223656  0.64283223  1
  S2-  S140  1  0.26769119  0.59489848  0.15028282  1
  S2-  S141  1  0.25188185  0.71730804  0.65386817  1
  S2-  S142  1  0.22015835  0.82265809  0.14386237  1
  S2-  S143  1  0.22553178  0.88497042  0.72774852  1
  S2-  S144  1  0.48655462  0.18018954  0.15372890  1
  S2-  S145  1  0.51276194  0.11073219  0.64581323  1
  S2-  S146  1  0.59544944  0.36719316  0.15950005  1
  S2-  S147  1  0.58511755  0.38111465  0.64078568  1
  S2-  S148  1  0.50663260  0.55529925  0.16285841  1
  S2-  S149  1  0.50718703  0.65988489  0.65396192  1
  S2-  S150  1  0.47120972  0.75752868  0.13981434  1
  S2-  S151  1  0.40793855  0.88617288  0.65646086  1
  S2-  S152  1  0.83484793  0.13757433  0.14417254  1
  S2-  S153  1  0.74219336  0.20255016  0.63836361  1
  S2-  S154  1  0.75509175  0.31263039  0.21350815  1
  S2-  S155  1  0.80720206  0.39447056  0.68804533  1
  S2-  S156  1  0.75100770  0.53278015  0.15772599  1
  S2-  S157  1  0.72071293  0.58669124  0.65328836  1
  S2-  S158  1  0.74670884  0.75237589  0.14250854  1
  S2-  S159  1  0.62783718  0.86487681  0.63689114  1
  S2-  S160  1  0.08404468  -0.00032550  0.34776440  1
  S2-  S161  1  0.13204643  -0.09696454  0.84408115  1
  S2-  S162  1  0.14807935  0.25460033  0.34767945  1
  S2-  S163  1  0.11990141  0.15828913  0.85777524  1
  S2-  S164  1  0.15522640  0.51245518  0.34655783  1
  S2-  S165  1  0.14182241  0.47721356  0.84694109  1
  S2-  S166  1  0.11232412  0.77189375  0.34293535  1
  S2-  S167  1  0.23291205  0.72423588  0.84409251  1
  S2-  S168  1  0.31552047  0.00452829  0.33900122  1
  S2-  S169  1  0.32973201  0.02853615  0.84708040  1
  S2-  S170  1  0.37354253  0.24095740  0.33677685  1
  S2-  S171  1  0.35677724  0.36672681  0.86663727  1
  S2-  S172  1  0.39646079  0.47824998  0.34662198  1
  S2-  S173  1  0.38079712  0.59164430  0.85723055  1
  S2-  S174  1  0.35059666  0.71960879  0.34695406  1
  S2-  S175  1  0.48973929  0.78788406  0.85506370  1
  S2-  S176  1  0.61592796  -0.11991441  0.35908418  1
  S2-  S177  1  0.72121825  0.00560520  0.85895804  1
  S2-  S178  1  0.63166772  0.24721187  0.33279040  1
  S2-  S179  1  0.64883354  0.27790938  0.84372185  1
  S2-  S180  1  0.61935548  0.45582176  0.32413634  1
  S2-  S181  1  0.61287979  0.55113533  0.85460637  1
  S2-  S182  1  0.61684293  0.64877837  0.35123055  1
  S2-  S183  1  0.73630532  0.74609031  0.85769080  1
  S2-  S184  1  0.85602589  -0.01602937  0.34929142  1
  S2-  S185  1  0.95613932  0.01516422  0.85103718  1
  S2-  S186  1  0.88825574  0.24998561  0.33151335  1
  S2-  S187  1  0.87265977  0.24439170  0.84241354  1
  S2-  S188  1  0.83830652  0.51033322  0.33977895  1
  S2-  S189  1  0.85619958  0.47780544  0.84089698  1
  S2-  S190  1  0.87458110  0.74540777  0.34722498  1
  S2-  S191  1  0.97016022  0.76031982  0.85005725  1
  S2-  S192  1  -0.00581458  0.12733997  0.45008925  1
  S2-  S193  1  -0.01885406  0.13178659  0.96174083  1
  S2-  S194  1  -0.00546550  0.37333789  0.44679391  1
  S2-  S195  1  -0.01280727  0.37587518  0.95088712  1
  S2-  S196  1  -0.00719733  0.62571591  0.44938009  1
  S2-  S197  1  -0.01000548  0.62305506  0.94632340  1
  S2-  S198  1  -0.00633464  0.87765710  0.45836210  1
  S2-  S199  1  -0.01488735  0.88139888  0.95189210  1
  S2-  S200  1  0.24108785  0.12566254  0.45168771  1
  S2-  S201  1  0.24215036  0.13126521  0.95680466  1
  S2-  S202  1  0.24303208  0.37642722  0.46181295  1
  S2-  S203  1  0.23377215  0.37195336  0.96763868  1
  S2-  S204  1  0.24403265  0.62487488  0.45835553  1
  S2-  S205  1  0.23433036  0.62217364  0.95319022  1
  S2-  S206  1  0.23988580  0.87698130  0.44979479  1
  S2-  S207  1  0.24227757  0.87538991  0.94615269  1
  S2-  S208  1  0.49361849  0.12567277  0.44264747  1
  S2-  S209  1  0.48560062  0.12907230  0.95053841  1
  S2-  S210  1  0.49380768  0.37780134  0.45122241  1
  S2-  S211  1  0.48864168  0.37621188  0.96510267  1
  S2-  S212  1  0.48767864  0.62451522  0.45109617  1
  S2-  S213  1  0.48607976  0.62351129  0.96098407  1
  S2-  S214  1  0.49119530  0.87661801  0.45958757  1
  S2-  S215  1  0.48674158  0.88163256  0.95903373  1
  S2-  S216  1  0.74425045  0.12520502  0.44510236  1
  S2-  S217  1  0.73390697  0.13066375  0.95858978  1
  S2-  S218  1  0.74171170  0.37522688  0.44095131  1
  S2-  S219  1  0.73621769  0.37885726  0.94970128  1
  S2-  S220  1  0.74596562  0.62794124  0.45132877  1
  S2-  S221  1  0.73837630  0.62391579  0.96112077  1
  S2-  S222  1  0.74748425  0.87903640  0.45869410  1
  S2-  S223  1  0.73289211  0.87531448  0.95981498  1
  S2-  S224  1  0.11667176  0.00427792  0.03561105  1
  S2-  S225  1  0.11853547  0.00122866  0.54875771  1
  S2-  S226  1  0.10968008  0.25154528  0.04766569  1
  S2-  S227  1  0.11871691  0.25106624  0.54880387  1
  S2-  S228  1  0.11548408  0.50034680  0.05170784  1
  S2-  S229  1  0.11318110  0.49886498  0.54447696  1
  S2-  S230  1  0.11302043  0.74969831  0.03272024  1
  S2-  S231  1  0.11326752  0.74406946  0.54731977  1
  S2-  S232  1  0.36012044  0.00247063  0.05057018  1
  S2-  S233  1  0.37290976  0.00276282  0.54326105  1
  S2-  S234  1  0.36518875  0.25149240  0.04444413  1
  S2-  S235  1  0.37101510  0.25094509  0.54528064  1
  S2-  S236  1  0.36026316  0.50175434  0.04680881  1
  S2-  S237  1  0.37476076  0.49750658  0.54767073  1
  S2-  S238  1  0.35746055  0.75062908  0.03637110  1
  S2-  S239  1  0.37181936  0.74761102  0.54929241  1
  S2-  S240  1  0.61293222  0.00200763  0.04455502  1
  S2-  S241  1  0.62158614  0.00450015  0.53907913  1
  S2-  S242  1  0.61891242  0.25068515  0.05023369  1
  S2-  S243  1  0.61880234  0.24989650  0.53727755  1
  S2-  S244  1  0.61714738  0.49776752  0.05462779  1
  S2-  S245  1  0.62063477  0.49693861  0.53673033  1
  S2-  S246  1  0.61098824  0.75026164  0.04201866  1
  S2-  S247  1  0.62018691  0.74921063  0.53825059  1
  S2-  S248  1  0.85583966  -0.00200877  0.04214707  1
  S2-  S249  1  0.86424133  0.00123646  0.55074468  1
  S2-  S250  1  0.85557306  0.25849037  0.04740634  1
  S2-  S251  1  0.86511933  0.25454381  0.53865545  1
  S2-  S252  1  0.86411244  0.50099904  0.04594497  1
  S2-  S253  1  0.86588795  0.49390063  0.54769715  1
  S2-  S254  1  0.86739406  0.75153183  0.04076547  1
  S2-  S255  1  0.86730408  0.75125811  0.55268120  1
