# generated using pymatgen
data_La6Ce6Pr19Nd20Sm13(BiS2)64
_symmetry_space_group_name_H-M   'P 1'
_cell_length_a   16.07050498
_cell_length_b   16.06080337
_cell_length_c   27.36185847
_cell_angle_alpha   90.02407450
_cell_angle_beta   89.43059508
_cell_angle_gamma   89.95969040
_symmetry_Int_Tables_number   1
_chemical_formula_structural   La6Ce6Pr19Nd20Sm13(BiS2)64
_chemical_formula_sum   'La6 Ce6 Pr19 Nd20 Sm13 Bi64 S128'
_cell_volume   7061.88737686
_cell_formula_units_Z   1
loop_
 _symmetry_equiv_pos_site_id
 _symmetry_equiv_pos_as_xyz
  1  'x, y, z'
loop_
 _atom_type_symbol
 _atom_type_oxidation_number
  La3+  3.0
  Ce3+  3.0
  Pr3+  3.0
  Nd3+  3.0
  Sm3+  3.0
  Bi2+  2.0
  S2-  -2.0
loop_
 _atom_site_type_symbol
 _atom_site_label
 _atom_site_symmetry_multiplicity
 _atom_site_fract_x
 _atom_site_fract_y
 _atom_site_fract_z
 _atom_site_occupancy
  La3+  La0  1  0.63156002  0.76550132  0.91819094  1
  La3+  La1  1  0.64908581  0.22921966  0.39150182  1
  La3+  La2  1  0.00647602  0.59484387  0.59031233  1
  La3+  La3  1  0.49267266  0.11943287  0.09365391  1
  La3+  La4  1  0.74841521  0.64601434  0.06934577  1
  La3+  La5  1  -0.00095312  0.15016975  0.06138168  1
  Ce3+  Ce6  1  0.74858411  0.35380318  0.56441884  1
  Ce3+  Ce7  1  0.62656577  0.02095224  0.92868330  1
  Ce3+  Ce8  1  0.87620898  0.51740429  0.95028562  1
  Ce3+  Ce9  1  0.37745898  0.73012826  0.44619893  1
  Ce3+  Ce10  1  0.00314486  0.35302789  0.55920595  1
  Ce3+  Ce11  1  0.12743442  0.22290967  0.42959015  1
  Pr3+  Pr12  1  0.24231398  0.65072973  0.08324918  1
  Pr3+  Pr13  1  0.12606100  0.47476257  0.42809967  1
  Pr3+  Pr14  1  0.74544058  0.84825432  0.58942353  1
  Pr3+  Pr15  1  0.12282021  0.72547650  0.43079080  1
  Pr3+  Pr16  1  0.88306474  0.76289083  0.92421364  1
  Pr3+  Pr17  1  0.13177495  0.27042486  0.93294957  1
  Pr3+  Pr18  1  0.00204515  0.39465202  0.06789455  1
  Pr3+  Pr19  1  0.88357811  0.26959700  0.92845054  1
  Pr3+  Pr20  1  0.24850355  0.14941945  0.07146004  1
  Pr3+  Pr21  1  0.25009622  0.89684512  0.06864501  1
  Pr3+  Pr22  1  0.62651578  0.26351046  0.94010791  1
  Pr3+  Pr23  1  0.37972245  0.52446987  0.93469662  1
  Pr3+  Pr24  1  0.75091492  0.13229629  0.06020423  1
  Pr3+  Pr25  1  0.87814486  0.72269428  0.45693700  1
  Pr3+  Pr26  1  0.12911938  0.01741996  0.93470291  1
  Pr3+  Pr27  1  0.12919361  0.51979839  0.94146377  1
  Pr3+  Pr28  1  0.88159912  0.02356320  0.91179614  1
  Pr3+  Pr29  1  0.63179312  -0.02510738  0.44256202  1
  Pr3+  Pr30  1  0.12744736  0.76683940  0.93616693  1
  Nd3+  Nd31  1  0.24875738  0.34796457  0.54897078  1
  Nd3+  Nd32  1  0.87443681  0.47629521  0.44780502  1
  Nd3+  Nd33  1  0.37882376  -0.02831271  0.43116833  1
  Nd3+  Nd34  1  0.62974491  0.51668709  0.93825530  1
  Nd3+  Nd35  1  0.87478192  0.22126611  0.44932238  1
  Nd3+  Nd36  1  0.75028861  0.89722212  0.04256634  1
  Nd3+  Nd37  1  0.50234716  0.38911273  0.05639251  1
  Nd3+  Nd38  1  0.50015660  0.34375596  0.56211951  1
  Nd3+  Nd39  1  0.50569850  0.64150360  0.06020225  1
  Nd3+  Nd40  1  0.00355749  0.09896260  0.56840374  1
  Nd3+  Nd41  1  0.74649905  0.37820850  0.06728162  1
  Nd3+  Nd42  1  0.63003585  0.72983470  0.44296825  1
  Nd3+  Nd43  1  0.24864255  0.60032636  0.55980925  1
  Nd3+  Nd44  1  0.49809784  0.59402534  0.56897425  1
  Nd3+  Nd45  1  0.75471819  0.10053538  0.58227199  1
  Nd3+  Nd46  1  -0.00510552  0.89994001  0.05697740  1
  Nd3+  Nd47  1  0.25487341  0.39959854  0.06719315  1
  Nd3+  Nd48  1  0.62521738  0.47547328  0.43923349  1
  Nd3+  Nd49  1  0.50010761  0.89164094  0.04343668  1
  Nd3+  Nd50  1  0.87434850  -0.02657522  0.45445461  1
  Sm3+  Sm51  1  0.38034270  0.47391881  0.44131236  1
  Sm3+  Sm52  1  -0.00577386  0.65066549  0.06777817  1
  Sm3+  Sm53  1  0.37614652  0.26607742  0.94837689  1
  Sm3+  Sm54  1  0.24762307  0.85107222  0.55912045  1
  Sm3+  Sm55  1  0.49898649  0.85472144  0.56612815  1
  Sm3+  Sm56  1  0.37232546  0.01934584  0.93438881  1
  Sm3+  Sm57  1  0.50211044  0.10499806  0.56151625  1
  Sm3+  Sm58  1  0.74141856  0.59953250  0.58310905  1
  Sm3+  Sm59  1  0.12484313  -0.02432070  0.43296679  1
  Sm3+  Sm60  1  0.24649366  0.09928975  0.55885701  1
  Sm3+  Sm61  1  0.38687804  0.21436168  0.42988355  1
  Sm3+  Sm62  1  0.00870134  0.84731725  0.57233899  1
  Sm3+  Sm63  1  0.37372761  0.76631863  0.94666466  1
  Bi2+  Bi64  1  -0.02725999  0.16270874  0.29981617  1
  Bi2+  Bi65  1  0.00160950  0.16621696  0.79459229  1
  Bi2+  Bi66  1  0.04753295  0.34882381  0.26579616  1
  Bi2+  Bi67  1  -0.04382985  0.35713144  0.73346377  1
  Bi2+  Bi68  1  0.01102341  0.61645666  0.29495988  1
  Bi2+  Bi69  1  -0.00539726  0.60654473  0.79356200  1
  Bi2+  Bi70  1  0.01867596  0.97038152  0.29813667  1
  Bi2+  Bi71  1  0.06723395  0.87349022  0.78939609  1
  Bi2+  Bi72  1  0.25246755  0.16179564  0.29231231  1
  Bi2+  Bi73  1  0.21819834  0.10623286  0.78374612  1
  Bi2+  Bi74  1  0.22371980  0.45371833  0.29148426  1
  Bi2+  Bi75  1  0.20343107  0.30183069  0.80277779  1
  Bi2+  Bi76  1  0.35964893  0.67062685  0.32251100  1
  Bi2+  Bi77  1  0.23120504  0.62183773  0.81450022  1
  Bi2+  Bi78  1  0.26423523  0.88906581  0.29928008  1
  Bi2+  Bi79  1  0.24669140  0.82578188  0.82093541  1
  Bi2+  Bi80  1  0.50133165  0.13759458  0.28878414  1
  Bi2+  Bi81  1  0.44057623  0.05792576  0.78910193  1
  Bi2+  Bi82  1  0.53527849  0.46836960  0.29754784  1
  Bi2+  Bi83  1  0.38715946  0.32817919  0.76141298  1
  Bi2+  Bi84  1  0.60456915  0.64547901  0.32257395  1
  Bi2+  Bi85  1  0.45659802  0.59172435  0.78957930  1
  Bi2+  Bi86  1  0.58544182  0.84300962  0.26649043  1
  Bi2+  Bi87  1  0.40077944  0.87583649  0.74812571  1
  Bi2+  Bi88  1  0.75799673  0.07900562  0.29617939  1
  Bi2+  Bi89  1  0.71584633  0.13110630  0.79540132  1
  Bi2+  Bi90  1  0.80445221  0.41705537  0.28565421  1
  Bi2+  Bi91  1  0.72827550  0.35527491  0.78916870  1
  Bi2+  Bi92  1  0.80168843  0.61376573  0.31048675  1
  Bi2+  Bi93  1  0.72248288  0.61800806  0.81165250  1
  Bi2+  Bi94  1  0.77653043  0.85267486  0.29215672  1
  Bi2+  Bi95  1  0.69127576  0.89805997  0.77337229  1
  Bi2+  Bi96  1  0.16700875  0.00174996  0.22110016  1
  Bi2+  Bi97  1  0.15436595  -0.02553950  0.70601389  1
  Bi2+  Bi98  1  0.13210615  0.19545754  0.20312048  1
  Bi2+  Bi99  1  0.11564042  0.24545913  0.70233263  1
  Bi2+  Bi100  1  0.12620815  0.48810827  0.19240292  1
  Bi2+  Bi101  1  0.14859841  0.46226943  0.70713290  1
  Bi2+  Bi102  1  0.24749951  0.72356549  0.23911984  1
  Bi2+  Bi103  1  0.18757534  0.72925937  0.71970499  1
  Bi2+  Bi104  1  0.35513449  -0.05640247  0.19932433  1
  Bi2+  Bi105  1  0.35064196  -0.03077995  0.64830813  1
  Bi2+  Bi106  1  0.31865703  0.31451557  0.23568838  1
  Bi2+  Bi107  1  0.35833966  0.15610225  0.70161486  1
  Bi2+  Bi108  1  0.42103559  0.51114515  0.20646659  1
  Bi2+  Bi109  1  0.34565191  0.49397938  0.70346152  1
  Bi2+  Bi110  1  0.45459559  0.70231247  0.22538250  1
  Bi2+  Bi111  1  0.37918591  0.69252601  0.69720933  1
  Bi2+  Bi112  1  0.63066505  0.00041679  0.20100672  1
  Bi2+  Bi113  1  0.53156633  0.00388229  0.69286917  1
  Bi2+  Bi114  1  0.63650855  0.30933811  0.20103053  1
  Bi2+  Bi115  1  0.58555001  0.27191910  0.71275541  1
  Bi2+  Bi116  1  0.66480720  0.56229078  0.21942260  1
  Bi2+  Bi117  1  0.60333615  0.46751569  0.70961741  1
  Bi2+  Bi118  1  0.73286364  0.76235222  0.19407714  1
  Bi2+  Bi119  1  0.61573730  0.72553646  0.71666440  1
  Bi2+  Bi120  1  0.88259730  -0.05785934  0.19596875  1
  Bi2+  Bi121  1  0.89372345  0.00421623  0.72126519  1
  Bi2+  Bi122  1  0.88469546  0.19523922  0.20186498  1
  Bi2+  Bi123  1  0.80107730  0.24775195  0.69930599  1
  Bi2+  Bi124  1  0.93407069  0.49214187  0.21310111  1
  Bi2+  Bi125  1  0.81628580  0.50569940  0.73336139  1
  Bi2+  Bi126  1  0.98545211  0.73765210  0.21023563  1
  Bi2+  Bi127  1  0.87192725  0.76159068  0.72822364  1
  S2-  S128  1  -0.05022038  0.06012136  0.14448496  1
  S2-  S129  1  -0.10346837  0.11483048  0.65055579  1
  S2-  S130  1  -0.00691511  0.27406529  0.14105909  1
  S2-  S131  1  0.00674569  0.43652072  0.64507976  1
  S2-  S132  1  0.09493658  0.64715823  0.14761311  1
  S2-  S133  1  -0.04199529  0.64045884  0.69125725  1
  S2-  S134  1  0.02747422  0.86588987  0.15391055  1
  S2-  S135  1  -0.05201402  0.86765195  0.66672703  1
  S2-  S136  1  0.34196670  0.08190241  0.14833879  1
  S2-  S137  1  0.13242221  0.10205665  0.63801118  1
  S2-  S138  1  0.24595646  0.28487241  0.14443569  1
  S2-  S139  1  0.23390862  0.34333395  0.64864857  1
  S2-  S140  1  0.28170046  0.51650203  0.14440187  1
  S2-  S141  1  0.15954477  0.59839234  0.64640285  1
  S2-  S142  1  0.26937634  0.79320191  0.14911856  1
  S2-  S143  1  0.14693491  0.83913082  0.64021239  1
  S2-  S144  1  0.54796691  0.16029179  0.18555438  1
  S2-  S145  1  0.47489392  0.22339305  0.63769208  1
  S2-  S146  1  0.50051204  0.38525659  0.15583632  1
  S2-  S147  1  0.47719129  0.45464180  0.64108681  1
  S2-  S148  1  0.61364609  0.66581261  0.13726478  1
  S2-  S149  1  0.60092381  0.60948254  0.64926741  1
  S2-  S150  1  0.51207082  0.94244590  0.13870156  1
  S2-  S151  1  0.58506808  0.85193408  0.65042277  1
  S2-  S152  1  0.75953825  0.24267581  0.13976542  1
  S2-  S153  1  0.67140788  0.13790240  0.67235701  1
  S2-  S154  1  0.72999797  0.44631498  0.16077060  1
  S2-  S155  1  0.74730422  0.45688968  0.64577524  1
  S2-  S156  1  0.86676510  0.67880457  0.14183681  1
  S2-  S157  1  0.76218175  0.71725613  0.65922877  1
  S2-  S158  1  0.75017549  0.98820472  0.13019340  1
  S2-  S159  1  0.76153556  0.94550019  0.67931745  1
  S2-  S160  1  0.12015617  0.09882598  0.35878746  1
  S2-  S161  1  0.02842865  0.01510434  0.84970501  1
  S2-  S162  1  0.12745379  0.34576774  0.35524972  1
  S2-  S163  1  0.01859226  0.29261390  0.85615360  1
  S2-  S164  1  0.13825617  0.60154887  0.35557436  1
  S2-  S165  1  0.10154477  0.51400081  0.84090681  1
  S2-  S166  1  0.11753749  0.85632029  0.35919065  1
  S2-  S167  1  0.02055164  0.74367223  0.85500020  1
  S2-  S168  1  0.37119352  0.08445276  0.35294855  1
  S2-  S169  1  0.25834210  0.00842642  0.86210863  1
  S2-  S170  1  0.48487523  0.25633442  0.35078636  1
  S2-  S171  1  0.35040514  0.25521436  0.85138486  1
  S2-  S172  1  0.37086615  0.49331236  0.34345862  1
  S2-  S173  1  0.33563902  0.49441533  0.83955307  1
  S2-  S174  1  0.39176196  0.83226199  0.36445739  1
  S2-  S175  1  0.37636329  0.71058805  0.85477221  1
  S2-  S176  1  0.61665889  0.06455799  0.35349249  1
  S2-  S177  1  0.59730165  0.00796732  0.83156573  1
  S2-  S178  1  0.66075545  0.21444282  0.28159841  1
  S2-  S179  1  0.61758012  0.24962358  0.83921369  1
  S2-  S180  1  0.66326233  0.39794769  0.35148361  1
  S2-  S181  1  0.57748825  0.51970603  0.84363336  1
  S2-  S182  1  0.65073801  0.84772238  0.36764543  1
  S2-  S183  1  0.59411700  0.76724027  0.81998589  1
  S2-  S184  1  0.87188868  -0.03284414  0.35328900  1
  S2-  S185  1  0.81560667  -0.02807828  0.81637612  1
  S2-  S186  1  0.82346682  0.20996019  0.35491016  1
  S2-  S187  1  0.84996970  0.16727046  0.84739808  1
  S2-  S188  1  0.91458044  0.46563534  0.35062066  1
  S2-  S189  1  0.86883250  0.53832807  0.85354003  1
  S2-  S190  1  0.90753976  0.72207472  0.35617616  1
  S2-  S191  1  0.80292848  0.75349486  0.83221614  1
  S2-  S192  1  -0.00075215  0.09769463  0.46099077  1
  S2-  S193  1  0.00772889  0.14566918  0.95341075  1
  S2-  S194  1  -0.00180000  0.34823059  0.45526245  1
  S2-  S195  1  0.00412432  0.39675833  0.96109334  1
  S2-  S196  1  0.00167787  0.59678324  0.45958052  1
  S2-  S197  1  0.00141059  0.64016074  0.96238153  1
  S2-  S198  1  0.00088647  0.85167854  0.46496192  1
  S2-  S199  1  0.00196366  0.89261286  0.95022097  1
  S2-  S200  1  0.25119524  0.09612474  0.45623790  1
  S2-  S201  1  0.25239918  0.14534948  0.96001831  1
  S2-  S202  1  0.26277005  0.34518213  0.44488578  1
  S2-  S203  1  0.25610216  0.39530776  0.95821558  1
  S2-  S204  1  0.25660331  0.59959895  0.45555257  1
  S2-  S205  1  0.25145663  0.64419299  0.96196015  1
  S2-  S206  1  0.24932807  0.85127837  0.45764105  1
  S2-  S207  1  0.25232553  0.88861722  0.96223944  1
  S2-  S208  1  0.50298987  0.09606133  0.45931079  1
  S2-  S209  1  0.49487281  0.14095637  0.94153341  1
  S2-  S210  1  0.50149246  0.35144396  0.45693039  1
  S2-  S211  1  0.50040813  0.39114770  0.94904208  1
  S2-  S212  1  0.50108935  0.60156801  0.45701044  1
  S2-  S213  1  0.50554715  0.64592554  0.95445859  1
  S2-  S214  1  0.50376834  0.85118499  0.46453293  1
  S2-  S215  1  0.49575867  0.89137840  0.93767545  1
  S2-  S216  1  0.75140108  0.10003595  0.46415460  1
  S2-  S217  1  0.75093948  0.14051577  0.95157097  1
  S2-  S218  1  0.75106046  0.34761636  0.45888996  1
  S2-  S219  1  0.75111800  0.38980614  0.95297854  1
  S2-  S220  1  0.74887529  0.60020414  0.46016244  1
  S2-  S221  1  0.75162066  0.64280547  0.95515124  1
  S2-  S222  1  0.75424169  0.84798254  0.47521936  1
  S2-  S223  1  0.75345167  0.89376283  0.93810266  1
  S2-  S224  1  0.12709384  0.02083560  0.04890355  1
  S2-  S225  1  0.12599662  -0.02661336  0.53958877  1
  S2-  S226  1  0.12974418  0.27588021  0.03999532  1
  S2-  S227  1  0.12468973  0.22566994  0.53838644  1
  S2-  S228  1  0.12394110  0.52094453  0.04804092  1
  S2-  S229  1  0.12794461  0.47499771  0.53734988  1
  S2-  S230  1  0.12155144  0.77225651  0.04359339  1
  S2-  S231  1  0.12571133  0.72280997  0.54093853  1
  S2-  S232  1  0.37473266  0.01605903  0.03666303  1
  S2-  S233  1  0.37547908  -0.02262225  0.53848143  1
  S2-  S234  1  0.38463405  0.26104888  0.05134652  1
  S2-  S235  1  0.36919060  0.22002559  0.53701623  1
  S2-  S236  1  0.38427917  0.51964543  0.04210601  1
  S2-  S237  1  0.37122463  0.47400109  0.54306939  1
  S2-  S238  1  0.37943462  0.76422154  0.04957592  1
  S2-  S239  1  0.37555898  0.72758994  0.55348643  1
  S2-  S240  1  0.61789326  0.01985397  0.03326333  1
  S2-  S241  1  0.62489949  -0.01856773  0.55356932  1
  S2-  S242  1  0.61624922  0.25469279  0.04657546  1
  S2-  S243  1  0.63119733  0.22415845  0.55441796  1
  S2-  S244  1  0.62869852  0.51174716  0.04414192  1
  S2-  S245  1  0.62409373  0.47520997  0.54386801  1
  S2-  S246  1  0.62677271  0.77245630  0.03104612  1
  S2-  S247  1  0.62083092  0.72448867  0.54786298  1
  S2-  S248  1  0.87715704  0.01885228  0.02582232  1
  S2-  S249  1  0.87757811  -0.02905984  0.55797111  1
  S2-  S250  1  0.87379137  0.26929026  0.03527241  1
  S2-  S251  1  0.87643262  0.23036255  0.55355495  1
  S2-  S252  1  0.87317503  0.51411336  0.05523228  1
  S2-  S253  1  0.87494739  0.48137788  0.55112955  1
  S2-  S254  1  0.87454618  0.77396976  0.03536039  1
  S2-  S255  1  0.88302956  0.72003076  0.56153942  1
