# generated using pymatgen
data_La6Ce6Pr19Nd20Sm13(BiS2)64
_symmetry_space_group_name_H-M   'P 1'
_cell_length_a   16.07849674
_cell_length_b   16.09064497
_cell_length_c   27.41157997
_cell_angle_alpha   90.06701887
_cell_angle_beta   90.15747660
_cell_angle_gamma   90.03335376
_symmetry_Int_Tables_number   1
_chemical_formula_structural   La6Ce6Pr19Nd20Sm13(BiS2)64
_chemical_formula_sum   'La6 Ce6 Pr19 Nd20 Sm13 Bi64 S128'
_cell_volume   7091.70972655
_cell_formula_units_Z   1
loop_
 _symmetry_equiv_pos_site_id
 _symmetry_equiv_pos_as_xyz
  1  'x, y, z'
loop_
 _atom_type_symbol
 _atom_type_oxidation_number
  La3+  3.0
  Ce3+  3.0
  Pr3+  3.0
  Nd3+  3.0
  Sm3+  3.0
  Bi2+  2.0
  S2-  -2.0
loop_
 _atom_site_type_symbol
 _atom_site_label
 _atom_site_symmetry_multiplicity
 _atom_site_fract_x
 _atom_site_fract_y
 _atom_site_fract_z
 _atom_site_occupancy
  La3+  La0  1  0.51812410  0.64475103  0.59701423  1
  La3+  La1  1  0.11895206  0.72751192  0.93378477  1
  La3+  La2  1  0.12493835  0.22343337  0.93304359  1
  La3+  La3  1  0.62503163  0.22802919  0.92969050  1
  La3+  La4  1  0.24276811  0.11119200  0.10735109  1
  La3+  La5  1  0.37296885  0.49590109  0.88728605  1
  Ce3+  Ce6  1  0.89507350  0.50289706  0.45086396  1
  Ce3+  Ce7  1  0.77085303  0.13264780  0.55790336  1
  Ce3+  Ce8  1  0.86921526  0.22793772  0.94756789  1
  Ce3+  Ce9  1  0.90334472  0.01027308  0.42741989  1
  Ce3+  Ce10  1  0.12216532  -0.01493521  0.94491639  1
  Ce3+  Ce11  1  0.02491186  0.37995925  0.57702034  1
  Pr3+  Pr12  1  0.65395106  0.00784866  0.42652274  1
  Pr3+  Pr13  1  0.61925082  0.47502380  0.92910256  1
  Pr3+  Pr14  1  0.40130533  0.50598710  0.44617646  1
  Pr3+  Pr15  1  0.74333548  0.10391473  0.07131371  1
  Pr3+  Pr16  1  0.14573787  0.75428279  0.43346034  1
  Pr3+  Pr17  1  -0.00279395  0.10681108  0.06674965  1
  Pr3+  Pr18  1  0.62311563  -0.01965663  0.93401698  1
  Pr3+  Pr19  1  0.14840401  0.50201807  0.44057386  1
  Pr3+  Pr20  1  0.24813862  0.60421751  0.06170268  1
  Pr3+  Pr21  1  0.39789326  0.75503887  0.43908897  1
  Pr3+  Pr22  1  0.51959934  0.37471565  0.57609470  1
  Pr3+  Pr23  1  0.37002109  -0.01227003  0.93611471  1
  Pr3+  Pr24  1  0.40040240  0.26486606  0.42188589  1
  Pr3+  Pr25  1  0.24728215  0.36112993  0.06479566  1
  Pr3+  Pr26  1  0.40339288  0.00488523  0.42820619  1
  Pr3+  Pr27  1  0.49534632  0.35374355  0.05760240  1
  Pr3+  Pr28  1  0.27195992  0.12843778  0.55692616  1
  Pr3+  Pr29  1  0.74887016  0.84601988  0.06813408  1
  Pr3+  Pr30  1  0.74565593  0.59880951  0.06297847  1
  Nd3+  Nd31  1  0.27320060  0.87851302  0.55725359  1
  Nd3+  Nd32  1  0.25035637  0.85951426  0.06593913  1
  Nd3+  Nd33  1  0.61752833  0.72642272  0.93086070  1
  Nd3+  Nd34  1  0.64834410  0.75453542  0.43961356  1
  Nd3+  Nd35  1  0.36060421  0.73505810  0.93066693  1
  Nd3+  Nd36  1  0.49548774  0.10471827  0.06569850  1
  Nd3+  Nd37  1  0.49913311  0.85484380  0.05329867  1
  Nd3+  Nd38  1  0.76554416  0.37446068  0.57899356  1
  Nd3+  Nd39  1  0.74387987  0.35583656  0.06522499  1
  Nd3+  Nd40  1  -0.00016705  0.60544641  0.05731527  1
  Nd3+  Nd41  1  0.89674439  0.75303084  0.44448060  1
  Nd3+  Nd42  1  0.12450463  0.47081158  0.92942233  1
  Nd3+  Nd43  1  -0.00171638  0.85314047  0.05884784  1
  Nd3+  Nd44  1  0.64703155  0.25902985  0.43743179  1
  Nd3+  Nd45  1  0.77282005  0.88214035  0.55487365  1
  Nd3+  Nd46  1  0.49647387  0.60623037  0.05205436  1
  Nd3+  Nd47  1  0.01940850  0.13514322  0.57029598  1
  Nd3+  Nd48  1  0.64821119  0.50543108  0.44887686  1
  Nd3+  Nd49  1  0.14693509  0.25575963  0.44165123  1
  Nd3+  Nd50  1  0.27457618  0.37566057  0.57031494  1
  Sm3+  Sm51  1  0.52050550  0.13186285  0.55347432  1
  Sm3+  Sm52  1  0.02384307  0.63101732  0.56283910  1
  Sm3+  Sm53  1  0.37109220  0.23304820  0.94153406  1
  Sm3+  Sm54  1  0.87056062  0.47771285  0.94249060  1
  Sm3+  Sm55  1  0.02066448  0.88290626  0.55555874  1
  Sm3+  Sm56  1  0.00102456  0.35490505  0.05424493  1
  Sm3+  Sm57  1  0.52438172  0.88196719  0.55789994  1
  Sm3+  Sm58  1  0.76934257  0.63035221  0.56698044  1
  Sm3+  Sm59  1  0.26446038  0.63220948  0.56342695  1
  Sm3+  Sm60  1  0.86935988  -0.02228856  0.94993458  1
  Sm3+  Sm61  1  0.87234993  0.72719677  0.93220255  1
  Sm3+  Sm62  1  0.14514063  0.00507828  0.43983035  1
  Sm3+  Sm63  1  0.89817493  0.25729303  0.44557869  1
  Bi2+  Bi64  1  -0.08341708  0.10673358  0.29790817  1
  Bi2+  Bi65  1  -0.00515662  0.07227505  0.78805164  1
  Bi2+  Bi66  1  -0.03047147  0.36909460  0.24704257  1
  Bi2+  Bi67  1  -0.01557630  0.37910866  0.77782287  1
  Bi2+  Bi68  1  0.07948469  0.62304461  0.30115409  1
  Bi2+  Bi69  1  -0.01423930  0.60527065  0.79045616  1
  Bi2+  Bi70  1  0.02023976  0.81418029  0.29291903  1
  Bi2+  Bi71  1  -0.01964791  0.87103810  0.79183268  1
  Bi2+  Bi72  1  0.19627190  0.09783171  0.31876309  1
  Bi2+  Bi73  1  0.25082998  0.09724854  0.78981188  1
  Bi2+  Bi74  1  0.22143590  0.36396594  0.30790247  1
  Bi2+  Bi75  1  0.23598599  0.36127202  0.79500374  1
  Bi2+  Bi76  1  0.27061470  0.66290406  0.30150852  1
  Bi2+  Bi77  1  0.23085555  0.65714215  0.78794337  1
  Bi2+  Bi78  1  0.18722105  0.86666901  0.23829036  1
  Bi2+  Bi79  1  0.30416721  0.91239888  0.80932519  1
  Bi2+  Bi80  1  0.46265332  0.11046358  0.30907506  1
  Bi2+  Bi81  1  0.49819087  0.12582227  0.79119037  1
  Bi2+  Bi82  1  0.53945829  0.40788450  0.26235780  1
  Bi2+  Bi83  1  0.51033093  0.37982947  0.79022824  1
  Bi2+  Bi84  1  0.52162977  0.63600673  0.30573580  1
  Bi2+  Bi85  1  0.51417317  0.65127930  0.77890158  1
  Bi2+  Bi86  1  0.43293138  0.78689059  0.23471150  1
  Bi2+  Bi87  1  0.49921250  0.91660530  0.79794456  1
  Bi2+  Bi88  1  0.71480511  0.23372374  0.31344170  1
  Bi2+  Bi89  1  0.74035256  0.04618326  0.78163590  1
  Bi2+  Bi90  1  0.72771982  0.42805732  0.30139759  1
  Bi2+  Bi91  1  0.76886851  0.37223920  0.78919618  1
  Bi2+  Bi92  1  0.76968424  0.65844343  0.30497902  1
  Bi2+  Bi93  1  0.78887451  0.65358877  0.79501761  1
  Bi2+  Bi94  1  0.71926310  0.93091698  0.26971460  1
  Bi2+  Bi95  1  0.77793139  0.84874895  0.78923232  1
  Bi2+  Bi96  1  -0.01269912  -0.00592805  0.21830892  1
  Bi2+  Bi97  1  0.13969053  -0.04400008  0.72599817  1
  Bi2+  Bi98  1  0.10526669  0.23549826  0.21494905  1
  Bi2+  Bi99  1  0.12360308  0.22421709  0.69766359  1
  Bi2+  Bi100  1  0.11548289  0.50362990  0.19861457  1
  Bi2+  Bi101  1  0.09158295  0.50167731  0.70813164  1
  Bi2+  Bi102  1  0.07817236  0.72506080  0.18260648  1
  Bi2+  Bi103  1  0.07387857  0.74979754  0.71238227  1
  Bi2+  Bi104  1  0.38241209  -0.02685090  0.21353639  1
  Bi2+  Bi105  1  0.38529804  0.02777190  0.70673655  1
  Bi2+  Bi106  1  0.36521267  0.24145101  0.21486779  1
  Bi2+  Bi107  1  0.39390647  0.25010469  0.71025373  1
  Bi2+  Bi108  1  0.36815040  0.50482194  0.27081510  1
  Bi2+  Bi109  1  0.33396946  0.53183695  0.68990571  1
  Bi2+  Bi110  1  0.27241375  0.71052200  0.18102366  1
  Bi2+  Bi111  1  0.36781327  0.81550664  0.71187659  1
  Bi2+  Bi112  1  0.65087127  0.10052708  0.24004518  1
  Bi2+  Bi113  1  0.58394268  0.01236189  0.70858226  1
  Bi2+  Bi114  1  0.61224946  0.28082248  0.18157820  1
  Bi2+  Bi115  1  0.64456038  0.25536452  0.70418219  1
  Bi2+  Bi116  1  0.64764864  0.54962357  0.21236648  1
  Bi2+  Bi117  1  0.71477125  0.52337837  0.71853586  1
  Bi2+  Bi118  1  0.61211336  0.75980559  0.18580827  1
  Bi2+  Bi119  1  0.64404405  0.79596848  0.70799038  1
  Bi2+  Bi120  1  0.84982589  0.12557220  0.18840537  1
  Bi2+  Bi121  1  0.87355147  -0.03838749  0.70563060  1
  Bi2+  Bi122  1  0.80017040  0.31905006  0.19510768  1
  Bi2+  Bi123  1  0.86849781  0.20952988  0.75802436  1
  Bi2+  Bi124  1  0.90872143  0.55584185  0.25279954  1
  Bi2+  Bi125  1  0.89145073  0.45484148  0.68329298  1
  Bi2+  Bi126  1  0.82384807  0.80550720  0.21680862  1
  Bi2+  Bi127  1  0.88956294  0.65639014  0.69159769  1
  S2-  S128  1  0.08087199  0.10575361  0.15396588  1
  S2-  S129  1  0.09156755  0.07796926  0.65907569  1
  S2-  S130  1  0.02905168  0.36197191  0.15124129  1
  S2-  S131  1  -0.00730612  0.25526470  0.64563940  1
  S2-  S132  1  -0.02837775  0.59360237  0.15504394  1
  S2-  S133  1  0.12936959  0.63244559  0.64043721  1
  S2-  S134  1  -0.03885473  0.85836260  0.15538646  1
  S2-  S135  1  -0.00471469  0.86669821  0.65144545  1
  S2-  S136  1  0.23739381  0.12342418  0.22881029  1
  S2-  S137  1  0.27621591  0.20041297  0.64833689  1
  S2-  S138  1  0.24284240  0.27316204  0.15387602  1
  S2-  S139  1  0.15716904  0.38728118  0.64731326  1
  S2-  S140  1  0.23868448  0.49089101  0.14027559  1
  S2-  S141  1  0.33070256  0.68936314  0.64874069  1
  S2-  S142  1  0.24829412  0.94706969  0.15243131  1
  S2-  S143  1  0.26198283  0.91757185  0.65318465  1
  S2-  S144  1  0.40328112  0.10882252  0.15349375  1
  S2-  S145  1  0.51797285  0.21402511  0.64003206  1
  S2-  S146  1  0.46340915  0.35466262  0.15802568  1
  S2-  S147  1  0.39025739  0.38470772  0.64677169  1
  S2-  S148  1  0.52700931  0.62545997  0.15070141  1
  S2-  S149  1  0.49138817  0.56559139  0.68589777  1
  S2-  S150  1  0.49532306  0.88677350  0.15142333  1
  S2-  S151  1  0.51238505  0.80697706  0.64681117  1
  S2-  S152  1  0.61611198  0.11147555  0.14031478  1
  S2-  S153  1  0.76430855  0.21676985  0.64291057  1
  S2-  S154  1  0.74112873  0.47437926  0.13961437  1
  S2-  S155  1  0.64293209  0.39479881  0.65244697  1
  S2-  S156  1  0.75789355  0.71110511  0.13857046  1
  S2-  S157  1  0.67926400  0.65011692  0.64960158  1
  S2-  S158  1  0.72650901  0.91315084  0.16238009  1
  S2-  S159  1  0.73775364  0.90090111  0.65074986  1
  S2-  S160  1  0.04367088  0.02460575  0.36058982  1
  S2-  S161  1  0.12069261  0.08016422  0.86146128  1
  S2-  S162  1  0.11449527  0.24894462  0.34298986  1
  S2-  S163  1  0.10897345  0.32292469  0.84892566  1
  S2-  S164  1  0.10945728  0.46422425  0.34531704  1
  S2-  S165  1  0.20319025  0.51543321  0.84416565  1
  S2-  S166  1  0.17145045  0.82272032  0.34259403  1
  S2-  S167  1  0.21563704  0.77210305  0.85365347  1
  S2-  S168  1  0.33042110  0.00066901  0.33559003  1
  S2-  S169  1  0.37286446  0.11441252  0.86270729  1
  S2-  S170  1  0.32662198  0.21687587  0.33118686  1
  S2-  S171  1  0.37121284  0.32719454  0.85331358  1
  S2-  S172  1  0.36777608  0.41832066  0.36164078  1
  S2-  S173  1  0.36840813  0.47474664  0.77739750  1
  S2-  S174  1  0.40530057  0.75980757  0.33925472  1
  S2-  S175  1  0.37858540  0.65915615  0.84011482  1
  S2-  S176  1  0.53875289  -0.01189707  0.35114291  1
  S2-  S177  1  0.63299578  0.09613092  0.85824368  1
  S2-  S178  1  0.54399173  0.24960883  0.35567277  1
  S2-  S179  1  0.62912675  0.34470669  0.85306203  1
  S2-  S180  1  0.58629263  0.49974196  0.35457495  1
  S2-  S181  1  0.54591182  0.52638642  0.84086042  1
  S2-  S182  1  0.64147517  0.75099133  0.33975451  1
  S2-  S183  1  0.57901466  0.76697538  0.83633278  1
  S2-  S184  1  0.78909515  0.00252938  0.35162246  1
  S2-  S185  1  0.87212949  -0.00208912  0.85297581  1
  S2-  S186  1  0.88049389  0.25234873  0.34737201  1
  S2-  S187  1  0.82635621  0.23766281  0.85448722  1
  S2-  S188  1  0.84746177  0.51664843  0.35742346  1
  S2-  S189  1  0.88282402  0.47622947  0.84470984  1
  S2-  S190  1  0.87859078  0.77029824  0.34687689  1
  S2-  S191  1  0.98966465  0.73310354  0.85911819  1
  S2-  S192  1  0.02100036  0.13492824  0.46252542  1
  S2-  S193  1  -0.00943060  0.10274045  0.96047474  1
  S2-  S194  1  0.02109583  0.37950291  0.46073455  1
  S2-  S195  1  -0.00748981  0.35326983  0.95112582  1
  S2-  S196  1  0.02174475  0.62896140  0.45641753  1
  S2-  S197  1  -0.00444231  0.59750484  0.95161650  1
  S2-  S198  1  0.02109261  0.87908459  0.45202058  1
  S2-  S199  1  -0.00504287  0.85893396  0.95416468  1
  S2-  S200  1  0.27097837  0.12795251  0.45048971  1
  S2-  S201  1  0.24699289  0.10496636  0.96095088  1
  S2-  S202  1  0.27050154  0.37915332  0.46293232  1
  S2-  S203  1  0.24596534  0.35324707  0.95614335  1
  S2-  S204  1  0.27115428  0.63048989  0.45394188  1
  S2-  S205  1  0.24815627  0.60358490  0.95365685  1
  S2-  S206  1  0.27111429  0.88284678  0.45170737  1
  S2-  S207  1  0.24583030  0.86222203  0.96012065  1
  S2-  S208  1  0.52445538  0.12940286  0.45288298  1
  S2-  S209  1  0.50021437  0.10473723  0.95987536  1
  S2-  S210  1  0.52453570  0.38130718  0.46326718  1
  S2-  S211  1  0.49560312  0.35452280  0.95264515  1
  S2-  S212  1  0.52425449  0.63303918  0.45425294  1
  S2-  S213  1  0.48939641  0.60855052  0.94814150  1
  S2-  S214  1  0.52546986  0.87917221  0.45483051  1
  S2-  S215  1  0.49421246  0.85554487  0.94682850  1
  S2-  S216  1  0.77464295  0.13428399  0.45371848  1
  S2-  S217  1  0.74960526  0.10104107  0.96414986  1
  S2-  S218  1  0.77165737  0.37894122  0.46088835  1
  S2-  S219  1  0.74942873  0.35724130  0.95966306  1
  S2-  S220  1  0.77172093  0.63136661  0.46193369  1
  S2-  S221  1  0.74733618  0.60492619  0.94799339  1
  S2-  S222  1  0.77441050  0.88021941  0.45120292  1
  S2-  S223  1  0.74808072  0.85011457  0.94807651  1
  S2-  S224  1  0.12108666  -0.02035358  0.04988793  1
  S2-  S225  1  0.14513217  0.00263803  0.54287253  1
  S2-  S226  1  0.12068680  0.23090420  0.04516739  1
  S2-  S227  1  0.14645341  0.25331392  0.54588239  1
  S2-  S228  1  0.11756328  0.48100471  0.03665046  1
  S2-  S229  1  0.14626647  0.50632884  0.54489804  1
  S2-  S230  1  0.12395188  0.73201910  0.04380567  1
  S2-  S231  1  0.14383077  0.75927011  0.54107107  1
  S2-  S232  1  0.37556656  -0.02157485  0.04398953  1
  S2-  S233  1  0.39996484  0.00388809  0.54421424  1
  S2-  S234  1  0.36976234  0.22873659  0.04653297  1
  S2-  S235  1  0.39676681  0.25142957  0.53565648  1
  S2-  S236  1  0.37644291  0.48326985  0.04821070  1
  S2-  S237  1  0.39743069  0.51694144  0.55171994  1
  S2-  S238  1  0.37126731  0.73291855  0.04179233  1
  S2-  S239  1  0.39842522  0.75821283  0.54317652  1
  S2-  S240  1  0.62685667  -0.02652847  0.04039584  1
  S2-  S241  1  0.64566727  0.00753643  0.54185334  1
  S2-  S242  1  0.62469712  0.23213672  0.04024852  1
  S2-  S243  1  0.64574523  0.25455132  0.54111466  1
  S2-  S244  1  0.61835481  0.48099305  0.03705331  1
  S2-  S245  1  0.64656476  0.50920788  0.55225014  1
  S2-  S246  1  0.62328932  0.72893913  0.03678736  1
  S2-  S247  1  0.64731124  0.75841378  0.54485285  1
  S2-  S248  1  0.87139193  -0.02225830  0.05399876  1
  S2-  S249  1  0.89812152  0.00769832  0.54600764  1
  S2-  S250  1  0.87116622  0.23397216  0.05398915  1
  S2-  S251  1  0.89198600  0.26057467  0.54600904  1
  S2-  S252  1  0.87722000  0.47822901  0.04554860  1
  S2-  S253  1  0.89589665  0.50727371  0.55517555  1
  S2-  S254  1  0.87521467  0.72714443  0.03603996  1
  S2-  S255  1  0.89723966  0.75414231  0.55035252  1
