# generated using pymatgen
data_La6Ce6Pr19Nd20Sm13(BiS2)64
_symmetry_space_group_name_H-M   'P 1'
_cell_length_a   16.13937795
_cell_length_b   16.11814106
_cell_length_c   27.29562766
_cell_angle_alpha   89.84060845
_cell_angle_beta   90.15128784
_cell_angle_gamma   89.99450137
_symmetry_Int_Tables_number   1
_chemical_formula_structural   La6Ce6Pr19Nd20Sm13(BiS2)64
_chemical_formula_sum   'La6 Ce6 Pr19 Nd20 Sm13 Bi64 S128'
_cell_volume   7100.54416077
_cell_formula_units_Z   1
loop_
 _symmetry_equiv_pos_site_id
 _symmetry_equiv_pos_as_xyz
  1  'x, y, z'
loop_
 _atom_type_symbol
 _atom_type_oxidation_number
  La3+  3.0
  Ce3+  3.0
  Pr3+  3.0
  Nd3+  3.0
  Sm3+  3.0
  Bi2+  2.0
  S2-  -2.0
loop_
 _atom_site_type_symbol
 _atom_site_label
 _atom_site_symmetry_multiplicity
 _atom_site_fract_x
 _atom_site_fract_y
 _atom_site_fract_z
 _atom_site_occupancy
  La3+  La0  1  0.11493275  0.25506883  0.92498428  1
  La3+  La1  1  0.13866363  0.49136940  0.38241115  1
  La3+  La2  1  0.00503098  0.11743764  0.07595588  1
  La3+  La3  1  0.61867068  0.01712491  0.38454718  1
  La3+  La4  1  0.12039326  0.00657252  0.90588143  1
  La3+  La5  1  0.61885451  0.49844945  0.90889608  1
  Ce3+  Ce6  1  0.23110418  0.61576579  0.56296218  1
  Ce3+  Ce7  1  0.49908401  0.62185556  0.05920215  1
  Ce3+  Ce8  1  0.49152007  0.37151851  0.56917741  1
  Ce3+  Ce9  1  0.61992460  0.75368692  0.94524430  1
  Ce3+  Ce10  1  -0.01353953  0.87227412  0.55981964  1
  Ce3+  Ce11  1  0.10814185  0.24968756  0.44801008  1
  Pr3+  Pr12  1  0.72700091  0.61881128  0.56977297  1
  Pr3+  Pr13  1  0.61458619  0.49634597  0.43467655  1
  Pr3+  Pr14  1  0.24699988  0.12572854  0.05984842  1
  Pr3+  Pr15  1  0.24783998  0.62601109  0.06123040  1
  Pr3+  Pr16  1  0.37856360  0.01505562  0.91346154  1
  Pr3+  Pr17  1  0.48579791  0.11556344  0.56560386  1
  Pr3+  Pr18  1  0.36258524  0.24389820  0.44611370  1
  Pr3+  Pr19  1  0.87121601  0.75340317  0.93951598  1
  Pr3+  Pr20  1  -0.01870375  0.36979838  0.57987346  1
  Pr3+  Pr21  1  0.86398974  0.24473126  0.44458923  1
  Pr3+  Pr22  1  0.74772822  0.87868051  0.06092166  1
  Pr3+  Pr23  1  0.12260756  0.50398832  0.92608561  1
  Pr3+  Pr24  1  0.60990651  0.24502511  0.44521998  1
  Pr3+  Pr25  1  -0.00043641  0.37627785  0.06244468  1
  Pr3+  Pr26  1  0.48280607  0.62251604  0.56749334  1
  Pr3+  Pr27  1  0.48637907  0.87470384  0.57365982  1
  Pr3+  Pr28  1  0.87040071  0.00805355  0.93827500  1
  Pr3+  Pr29  1  -0.01558508  0.11282681  0.57579585  1
  Pr3+  Pr30  1  0.86506396  0.49280990  0.43996011  1
  Nd3+  Nd31  1  0.62298231  0.00648246  0.93934864  1
  Nd3+  Nd32  1  0.85863268  0.74563909  0.44893323  1
  Nd3+  Nd33  1  -0.01612796  0.61640473  0.56149863  1
  Nd3+  Nd34  1  0.35929267  0.74086892  0.44812235  1
  Nd3+  Nd35  1  0.49507104  0.12699613  0.06550053  1
  Nd3+  Nd36  1  0.60811764  0.75416962  0.43897347  1
  Nd3+  Nd37  1  0.74840433  0.37696327  0.05583932  1
  Nd3+  Nd38  1  0.62421160  0.25265539  0.93637950  1
  Nd3+  Nd39  1  0.86691793  -0.00385621  0.43021698  1
  Nd3+  Nd40  1  0.11100367  0.73896531  0.44064493  1
  Nd3+  Nd41  1  0.74711682  0.62398062  0.05297780  1
  Nd3+  Nd42  1  0.73375920  0.87269575  0.55678899  1
  Nd3+  Nd43  1  0.49568352  0.87843452  0.05793659  1
  Nd3+  Nd44  1  0.23390168  0.86934006  0.56610431  1
  Nd3+  Nd45  1  0.36461598  -0.01460311  0.43690831  1
  Nd3+  Nd46  1  -0.00101446  0.62527172  0.05440297  1
  Nd3+  Nd47  1  0.73486628  0.36878622  0.57199562  1
  Nd3+  Nd48  1  0.23315801  0.36893438  0.56367187  1
  Nd3+  Nd49  1  0.11081156  -0.00490020  0.43353092  1
  Nd3+  Nd50  1  0.37429262  0.50629601  0.93638278  1
  Sm3+  Sm51  1  0.24532299  0.37676915  0.05022779  1
  Sm3+  Sm52  1  0.37133081  0.24929961  0.94524765  1
  Sm3+  Sm53  1  0.87561820  0.25109075  0.94457637  1
  Sm3+  Sm54  1  -0.00183969  0.87942973  0.05183233  1
  Sm3+  Sm55  1  0.23470438  0.11934605  0.55563207  1
  Sm3+  Sm56  1  0.87222910  0.50272327  0.93606912  1
  Sm3+  Sm57  1  0.12373031  0.75488783  0.94486401  1
  Sm3+  Sm58  1  0.36269186  0.49504812  0.44833601  1
  Sm3+  Sm59  1  0.24685974  0.88070127  0.05062987  1
  Sm3+  Sm60  1  0.74903813  0.12865272  0.06768889  1
  Sm3+  Sm61  1  0.73722065  0.11554502  0.55255904  1
  Sm3+  Sm62  1  0.49989480  0.37692638  0.05260048  1
  Sm3+  Sm63  1  0.37119656  0.75682559  0.94390079  1
  Bi2+  Bi64  1  0.06261695  0.16285574  0.30679051  1
  Bi2+  Bi65  1  0.02633603  0.13267269  0.79066588  1
  Bi2+  Bi66  1  -0.01840985  0.35290145  0.29658271  1
  Bi2+  Bi67  1  0.00298632  0.37556624  0.78963619  1
  Bi2+  Bi68  1  0.01293701  0.61375714  0.28487841  1
  Bi2+  Bi69  1  0.04358983  0.65160842  0.78734714  1
  Bi2+  Bi70  1  0.02173301  0.89111488  0.28738395  1
  Bi2+  Bi71  1  -0.01077038  0.87772071  0.79357281  1
  Bi2+  Bi72  1  0.23508704  0.07784207  0.29467050  1
  Bi2+  Bi73  1  0.30232593  0.12121200  0.78209913  1
  Bi2+  Bi74  1  0.35738669  0.33153745  0.25463581  1
  Bi2+  Bi75  1  0.30742669  0.39548339  0.76618214  1
  Bi2+  Bi76  1  0.36150601  0.63812317  0.31429605  1
  Bi2+  Bi77  1  0.21480487  0.55679336  0.80497135  1
  Bi2+  Bi78  1  0.20579136  0.88538539  0.31931557  1
  Bi2+  Bi79  1  0.26906381  0.79771186  0.79481658  1
  Bi2+  Bi80  1  0.47016215  0.15112763  0.29029818  1
  Bi2+  Bi81  1  0.55232295  0.13922116  0.79611620  1
  Bi2+  Bi82  1  0.52080663  0.43600642  0.30837453  1
  Bi2+  Bi83  1  0.49985333  0.39353059  0.77555520  1
  Bi2+  Bi84  1  0.55657914  0.62958972  0.33213225  1
  Bi2+  Bi85  1  0.53129464  0.64645772  0.80075588  1
  Bi2+  Bi86  1  0.46992125  0.87536806  0.28779675  1
  Bi2+  Bi87  1  0.55996653  0.88936221  0.78097637  1
  Bi2+  Bi88  1  0.74550326  0.14767483  0.28909898  1
  Bi2+  Bi89  1  0.73540865  0.12391514  0.84783105  1
  Bi2+  Bi90  1  0.70473465  0.41778494  0.26776318  1
  Bi2+  Bi91  1  0.75550465  0.39956239  0.79658269  1
  Bi2+  Bi92  1  0.75497003  0.60998988  0.29940109  1
  Bi2+  Bi93  1  0.76478363  0.71871347  0.77774430  1
  Bi2+  Bi94  1  0.74670002  0.84950914  0.29060101  1
  Bi2+  Bi95  1  0.75465892  0.95093120  0.79076575  1
  Bi2+  Bi96  1  0.12388047  -0.00148394  0.20653512  1
  Bi2+  Bi97  1  0.13140839  0.02170515  0.69038924  1
  Bi2+  Bi98  1  0.19292215  0.23968951  0.21920858  1
  Bi2+  Bi99  1  0.16191752  0.26082928  0.70000699  1
  Bi2+  Bi100  1  0.12226562  0.49312231  0.17795350  1
  Bi2+  Bi101  1  0.15106475  0.51641237  0.69793496  1
  Bi2+  Bi102  1  0.18489208  0.77259349  0.22524368  1
  Bi2+  Bi103  1  0.11901151  0.77359506  0.70804184  1
  Bi2+  Bi104  1  0.36090355  -0.03069306  0.20774422  1
  Bi2+  Bi105  1  0.40047132  -0.07446422  0.71564834  1
  Bi2+  Bi106  1  0.36216651  0.15594282  0.18071627  1
  Bi2+  Bi107  1  0.43752189  0.22975180  0.71712554  1
  Bi2+  Bi108  1  0.39708048  0.51585146  0.22494446  1
  Bi2+  Bi109  1  0.43385924  0.50842414  0.69089596  1
  Bi2+  Bi110  1  0.37552519  0.74733609  0.21870810  1
  Bi2+  Bi111  1  0.35924443  0.67015409  0.72749084  1
  Bi2+  Bi112  1  0.62415982  -0.00355171  0.18335301  1
  Bi2+  Bi113  1  0.64454996  0.01554648  0.69757773  1
  Bi2+  Bi114  1  0.56966754  0.29820292  0.22168742  1
  Bi2+  Bi115  1  0.63566110  0.22257418  0.70448431  1
  Bi2+  Bi116  1  0.59983389  0.53726644  0.18813324  1
  Bi2+  Bi117  1  0.66148575  0.49611522  0.70872899  1
  Bi2+  Bi118  1  0.62900940  0.71530748  0.23801632  1
  Bi2+  Bi119  1  0.61301254  0.75668601  0.70370059  1
  Bi2+  Bi120  1  0.86847619  0.00718042  0.19991820  1
  Bi2+  Bi121  1  0.87311736  0.03987570  0.71618289  1
  Bi2+  Bi122  1  0.87278951  0.27589374  0.21563096  1
  Bi2+  Bi123  1  0.81127502  0.22549230  0.75889779  1
  Bi2+  Bi124  1  0.86582858  0.50265909  0.18507725  1
  Bi2+  Bi125  1  0.88798571  0.49954226  0.71004038  1
  Bi2+  Bi126  1  0.90178836  0.75703263  0.24607082  1
  Bi2+  Bi127  1  0.92566425  0.76688016  0.71229272  1
  S2-  S128  1  -0.05638656  0.14915911  0.17132456  1
  S2-  S129  1  0.03305412  0.17202696  0.67139219  1
  S2-  S130  1  -0.00883138  0.37045586  0.16334886  1
  S2-  S131  1  0.05000244  0.37848555  0.67914369  1
  S2-  S132  1  -0.01646828  0.60236393  0.15273853  1
  S2-  S133  1  0.00522596  0.58671672  0.65956329  1
  S2-  S134  1  -0.00381804  0.95009395  0.14047808  1
  S2-  S135  1  -0.01525750  0.96829994  0.64118006  1
  S2-  S136  1  0.14662620  0.13225711  0.14221431  1
  S2-  S137  1  0.25168676  0.13038907  0.65339097  1
  S2-  S138  1  0.23135656  0.37837073  0.14754131  1
  S2-  S139  1  0.26707106  0.38955007  0.66127817  1
  S2-  S140  1  0.21332961  0.63141197  0.15930650  1
  S2-  S141  1  0.22508848  0.66841175  0.65656436  1
  S2-  S142  1  0.23152164  0.89034758  0.14898303  1
  S2-  S143  1  0.24532995  0.91018183  0.66294463  1
  S2-  S144  1  0.53974292  0.14857630  0.16066286  1
  S2-  S145  1  0.48128362  0.00647335  0.64687159  1
  S2-  S146  1  0.50797175  0.39806766  0.14993825  1
  S2-  S147  1  0.60821523  0.36805469  0.64389621  1
  S2-  S148  1  0.46129321  0.63542167  0.15416490  1
  S2-  S149  1  0.58739098  0.60526941  0.64703546  1
  S2-  S150  1  0.49389418  0.89438955  0.15650995  1
  S2-  S151  1  0.45116002  0.78742414  0.66122909  1
  S2-  S152  1  0.74750582  0.11452371  0.16548313  1
  S2-  S153  1  0.78034526  0.11240754  0.64831675  1
  S2-  S154  1  0.76189182  0.36329494  0.15429662  1
  S2-  S155  1  0.84619509  0.37644074  0.64923813  1
  S2-  S156  1  0.75421065  0.60904393  0.15168275  1
  S2-  S157  1  0.78330854  0.59878156  0.66682444  1
  S2-  S158  1  0.75824363  0.88711180  0.16074932  1
  S2-  S159  1  0.71103043  0.86823644  0.65627087  1
  S2-  S160  1  -0.00351935  0.02082529  0.35824358  1
  S2-  S161  1  0.11871712  -0.01742396  0.78715867  1
  S2-  S162  1  0.11981582  0.31387689  0.35634408  1
  S2-  S163  1  0.15998924  0.15041314  0.84732334  1
  S2-  S164  1  0.12903299  0.48902583  0.27339690  1
  S2-  S165  1  0.12412738  0.38816637  0.85042290  1
  S2-  S166  1  0.12077815  0.66421921  0.35089024  1
  S2-  S167  1  0.11572971  0.77414007  0.84817934  1
  S2-  S168  1  0.44904010  0.01312881  0.35149915  1
  S2-  S169  1  0.31879506  -0.03322634  0.82097891  1
  S2-  S170  1  0.37552534  0.24637195  0.34515295  1
  S2-  S171  1  0.38827005  0.17453410  0.85763605  1
  S2-  S172  1  0.30904078  0.49144319  0.35537365  1
  S2-  S173  1  0.46837959  0.51571748  0.85298348  1
  S2-  S174  1  0.35827870  0.81896279  0.35862199  1
  S2-  S175  1  0.39592951  0.73907420  0.84758594  1
  S2-  S176  1  0.61347562  0.03675944  0.27504797  1
  S2-  S177  1  0.52666490  0.00121870  0.85630283  1
  S2-  S178  1  0.61917554  0.19216078  0.34973714  1
  S2-  S179  1  0.62161226  0.34762758  0.85171752  1
  S2-  S180  1  0.74286336  0.47709866  0.36478273  1
  S2-  S181  1  0.68183377  0.56236771  0.81836226  1
  S2-  S182  1  0.60646483  0.84818461  0.35316371  1
  S2-  S183  1  0.63443113  0.76867227  0.84907740  1
  S2-  S184  1  0.78182806  0.00283564  0.34123416  1
  S2-  S185  1  0.96408655  0.01280975  0.85461463  1
  S2-  S186  1  0.85858689  0.24638213  0.34214580  1
  S2-  S187  1  0.96010296  0.24943980  0.85852469  1
  S2-  S188  1  0.96420029  0.48867533  0.35401914  1
  S2-  S189  1  0.90164491  0.48239938  0.83977724  1
  S2-  S190  1  0.85225157  0.74033610  0.34931230  1
  S2-  S191  1  0.88595273  0.72277377  0.84130937  1
  S2-  S192  1  -0.01082698  0.12076040  0.46380630  1
  S2-  S193  1  -0.00228966  0.12653225  0.96042928  1
  S2-  S194  1  -0.01681414  0.36681487  0.46718640  1
  S2-  S195  1  -0.00692962  0.38308216  0.95620247  1
  S2-  S196  1  -0.01729451  0.62387836  0.45742632  1
  S2-  S197  1  -0.00057581  0.62832110  0.94826991  1
  S2-  S198  1  -0.01153393  0.86683541  0.45322826  1
  S2-  S199  1  -0.00087501  0.87736746  0.94933394  1
  S2-  S200  1  0.23681961  0.11766848  0.44962349  1
  S2-  S201  1  0.24960765  0.12414431  0.95429450  1
  S2-  S202  1  0.23837462  0.37215135  0.45815769  1
  S2-  S203  1  0.25374474  0.37791563  0.94568717  1
  S2-  S204  1  0.23452262  0.61381141  0.45791387  1
  S2-  S205  1  0.24800982  0.63028482  0.95195824  1
  S2-  S206  1  0.23231159  0.86854575  0.45913413  1
  S2-  S207  1  0.24679320  0.88144809  0.94542550  1
  S2-  S208  1  0.48655381  0.11729166  0.45841983  1
  S2-  S209  1  0.50164192  0.13117587  0.95984662  1
  S2-  S210  1  0.48659954  0.37190897  0.45846157  1
  S2-  S211  1  0.49337217  0.37406625  0.95018865  1
  S2-  S212  1  0.48580525  0.61967670  0.45987376  1
  S2-  S213  1  0.49602220  0.63160555  0.95483051  1
  S2-  S214  1  0.48027798  0.86449923  0.46535861  1
  S2-  S215  1  0.49385160  0.87945808  0.95284248  1
  S2-  S216  1  0.73642716  0.11759283  0.45003304  1
  S2-  S217  1  0.74746707  0.13182852  0.96336767  1
  S2-  S218  1  0.73540305  0.36540436  0.46409816  1
  S2-  S219  1  0.75265817  0.37721001  0.94970611  1
  S2-  S220  1  0.73205699  0.62623871  0.46032000  1
  S2-  S221  1  0.74626049  0.62477716  0.94653808  1
  S2-  S222  1  0.73807886  0.87374975  0.45209229  1
  S2-  S223  1  0.74671345  0.87960741  0.95257985  1
  S2-  S224  1  0.12423217  -0.00369048  0.03710159  1
  S2-  S225  1  0.11412892  -0.00446015  0.54126676  1
  S2-  S226  1  0.12323766  0.25547526  0.03925889  1
  S2-  S227  1  0.11040406  0.24347462  0.55384164  1
  S2-  S228  1  0.12372812  0.50190670  0.03698951  1
  S2-  S229  1  0.10892115  0.49150814  0.55789041  1
  S2-  S230  1  0.12151443  0.75493706  0.04939319  1
  S2-  S231  1  0.10851414  0.74423784  0.54893932  1
  S2-  S232  1  0.37227730  0.00187439  0.04635853  1
  S2-  S233  1  0.35495377  -0.00516786  0.54463009  1
  S2-  S234  1  0.37256640  0.25603751  0.04906305  1
  S2-  S235  1  0.36235634  0.24462330  0.55316664  1
  S2-  S236  1  0.37222889  0.49869030  0.04353578  1
  S2-  S237  1  0.36108071  0.49330323  0.55294455  1
  S2-  S238  1  0.37057272  0.75388773  0.04899854  1
  S2-  S239  1  0.35549537  0.74374526  0.55281611  1
  S2-  S240  1  0.62302479  0.00539088  0.04727023  1
  S2-  S241  1  0.61396678  -0.00340267  0.54937348  1
  S2-  S242  1  0.62376062  0.25244304  0.04646960  1
  S2-  S243  1  0.61194092  0.23781469  0.55017693  1
  S2-  S244  1  0.62335473  0.49906402  0.03938087  1
  S2-  S245  1  0.60871755  0.49394597  0.54169539  1
  S2-  S246  1  0.62216444  0.75146698  0.05293764  1
  S2-  S247  1  0.60901156  0.74815653  0.54661570  1
  S2-  S248  1  0.86904967  0.00416387  0.04497850  1
  S2-  S249  1  0.86021284  -0.00700368  0.53934158  1
  S2-  S250  1  0.87310331  0.24975836  0.04966713  1
  S2-  S251  1  0.86176403  0.23926887  0.55153474  1
  S2-  S252  1  0.87331894  0.50189767  0.04177941  1
  S2-  S253  1  0.85641294  0.49840123  0.54735172  1
  S2-  S254  1  0.87435569  0.75196271  0.04769778  1
  S2-  S255  1  0.85983119  0.74529525  0.55544255  1
