# generated using pymatgen
data_La6Ce6Pr19Nd20Sm13(BiS2)64
_symmetry_space_group_name_H-M   'P 1'
_cell_length_a   16.04415722
_cell_length_b   16.11613975
_cell_length_c   27.37912324
_cell_angle_alpha   89.94183283
_cell_angle_beta   90.08798649
_cell_angle_gamma   90.02949064
_symmetry_Int_Tables_number   1
_chemical_formula_structural   La6Ce6Pr19Nd20Sm13(BiS2)64
_chemical_formula_sum   'La6 Ce6 Pr19 Nd20 Sm13 Bi64 S128'
_cell_volume   7079.40368183
_cell_formula_units_Z   1
loop_
 _symmetry_equiv_pos_site_id
 _symmetry_equiv_pos_as_xyz
  1  'x, y, z'
loop_
 _atom_type_symbol
 _atom_type_oxidation_number
  La3+  3.0
  Ce3+  3.0
  Pr3+  3.0
  Nd3+  3.0
  Sm3+  3.0
  Bi2+  2.0
  S2-  -2.0
loop_
 _atom_site_type_symbol
 _atom_site_label
 _atom_site_symmetry_multiplicity
 _atom_site_fract_x
 _atom_site_fract_y
 _atom_site_fract_z
 _atom_site_occupancy
  La3+  La0  1  0.62385068  0.74655916  0.89276020  1
  La3+  La1  1  0.60127049  0.74611247  0.41440087  1
  La3+  La2  1  0.62964918  0.48821581  0.89247170  1
  La3+  La3  1  0.75476964  0.11863367  0.07408393  1
  La3+  La4  1  0.75936413  0.61081533  0.09504908  1
  La3+  La5  1  0.48866209  0.63655274  0.58020810  1
  Ce3+  Ce6  1  0.50953600  0.86458726  0.06235679  1
  Ce3+  Ce7  1  -0.02550754  0.12224808  0.59059937  1
  Ce3+  Ce8  1  0.75413159  0.37196292  0.05501590  1
  Ce3+  Ce9  1  0.38390721  0.49433702  0.93766069  1
  Ce3+  Ce10  1  0.51174507  0.37130632  0.05501901  1
  Ce3+  Ce11  1  0.25383179  0.61728227  0.05585589  1
  Pr3+  Pr12  1  0.25581364  0.37743180  0.06523271  1
  Pr3+  Pr13  1  -0.02407282  0.87276584  0.56762606  1
  Pr3+  Pr14  1  0.84448107  0.25002248  0.42691632  1
  Pr3+  Pr15  1  -0.02289981  0.62546055  0.56256634  1
  Pr3+  Pr16  1  0.72528637  0.12872165  0.56611519  1
  Pr3+  Pr17  1  0.10577729  0.50824495  0.42967092  1
  Pr3+  Pr18  1  0.22645341  0.62856658  0.55882790  1
  Pr3+  Pr19  1  0.12675122  0.74158773  0.93229816  1
  Pr3+  Pr20  1  0.38142299  -0.00628000  0.94403264  1
  Pr3+  Pr21  1  0.85671727  0.50416561  0.42522643  1
  Pr3+  Pr22  1  0.51155797  0.61720465  0.05790268  1
  Pr3+  Pr23  1  0.34719413  0.00484777  0.43530538  1
  Pr3+  Pr24  1  0.25541188  0.12242335  0.07198563  1
  Pr3+  Pr25  1  0.59361076  0.50323312  0.43309652  1
  Pr3+  Pr26  1  0.25482120  0.86641945  0.05899402  1
  Pr3+  Pr27  1  0.63698492  0.24161865  0.92979547  1
  Pr3+  Pr28  1  0.72593958  0.87842452  0.54950208  1
  Pr3+  Pr29  1  0.50735218  0.11728227  0.07432425  1
  Pr3+  Pr30  1  0.87348470  0.73968785  0.93819116  1
  Nd3+  Nd31  1  0.22655390  0.37854823  0.56984593  1
  Nd3+  Nd32  1  0.63121715  -0.00814538  0.94077915  1
  Nd3+  Nd33  1  0.88344338  0.24252900  0.93709819  1
  Nd3+  Nd34  1  0.00385593  0.12080572  0.07308497  1
  Nd3+  Nd35  1  0.85326404  0.00644990  0.43951408  1
  Nd3+  Nd36  1  -0.02774985  0.37941972  0.56079908  1
  Nd3+  Nd37  1  0.59190207  0.25215145  0.43613974  1
  Nd3+  Nd38  1  0.23043955  0.12605110  0.57197468  1
  Nd3+  Nd39  1  0.72574258  0.37497818  0.54882319  1
  Nd3+  Nd40  1  0.87737910  0.49854716  0.93275132  1
  Nd3+  Nd41  1  0.22652490  0.87840562  0.55753517  1
  Nd3+  Nd42  1  0.00346763  0.86425480  0.06040449  1
  Nd3+  Nd43  1  0.47374307  0.37874064  0.57583951  1
  Nd3+  Nd44  1  0.38177764  0.24565168  0.94538678  1
  Nd3+  Nd45  1  0.34790023  0.25465904  0.44031535  1
  Nd3+  Nd46  1  0.00245834  0.37147317  0.06019776  1
  Nd3+  Nd47  1  0.00402672  0.61686380  0.06647860  1
  Nd3+  Nd48  1  0.59458935  0.00522137  0.42725367  1
  Nd3+  Nd49  1  0.12983548  -0.00555977  0.94760711  1
  Nd3+  Nd50  1  0.35577145  0.50331667  0.44661502  1
  Sm3+  Sm51  1  0.10453389  0.00570771  0.44266411  1
  Sm3+  Sm52  1  0.38494013  0.74105319  0.94314609  1
  Sm3+  Sm53  1  0.48043168  0.87500243  0.55485713  1
  Sm3+  Sm54  1  0.47632335  0.12709887  0.56532878  1
  Sm3+  Sm55  1  0.12615859  0.49524736  0.93612314  1
  Sm3+  Sm56  1  0.75320410  0.86517222  0.06301353  1
  Sm3+  Sm57  1  0.12671105  0.24367733  0.93982080  1
  Sm3+  Sm58  1  0.87746830  -0.00815906  0.94951718  1
  Sm3+  Sm59  1  0.85288788  0.75621913  0.43791156  1
  Sm3+  Sm60  1  0.10102110  0.75326839  0.43458701  1
  Sm3+  Sm61  1  0.10377622  0.25621672  0.44518429  1
  Sm3+  Sm62  1  0.35771805  0.75225536  0.43974311  1
  Sm3+  Sm63  1  0.72595657  0.62603764  0.54733002  1
  Bi2+  Bi64  1  0.03132273  0.12029881  0.28703225  1
  Bi2+  Bi65  1  0.01807426  0.12727056  0.79183992  1
  Bi2+  Bi66  1  0.09639082  0.40476927  0.24033305  1
  Bi2+  Bi67  1  0.03595677  0.39455076  0.78345419  1
  Bi2+  Bi68  1  0.01315624  0.57208117  0.29483075  1
  Bi2+  Bi69  1  0.02431660  0.62610894  0.78423083  1
  Bi2+  Bi70  1  0.07938538  0.92694630  0.31961446  1
  Bi2+  Bi71  1  0.04760073  0.84640136  0.78501547  1
  Bi2+  Bi72  1  0.28679930  0.14022630  0.30747157  1
  Bi2+  Bi73  1  0.22517421  0.11900636  0.76809774  1
  Bi2+  Bi74  1  0.24718385  0.41688966  0.31780217  1
  Bi2+  Bi75  1  0.21661354  0.31540534  0.80443650  1
  Bi2+  Bi76  1  0.29101375  0.60160649  0.28785014  1
  Bi2+  Bi77  1  0.20771643  0.60200313  0.81931482  1
  Bi2+  Bi78  1  0.23265120  0.79422195  0.31002265  1
  Bi2+  Bi79  1  0.24352943  0.91191314  0.80831383  1
  Bi2+  Bi80  1  0.53024096  0.12333043  0.30026034  1
  Bi2+  Bi81  1  0.46429097  0.14064885  0.78598179  1
  Bi2+  Bi82  1  0.48780613  0.37517406  0.28889443  1
  Bi2+  Bi83  1  0.47787302  0.36230809  0.78475603  1
  Bi2+  Bi84  1  0.49091471  0.61030905  0.28965009  1
  Bi2+  Bi85  1  0.48477782  0.61603978  0.77226651  1
  Bi2+  Bi86  1  0.41258771  0.86699149  0.28779030  1
  Bi2+  Bi87  1  0.50776180  0.95031768  0.77111430  1
  Bi2+  Bi88  1  0.78637877  0.12500345  0.30304904  1
  Bi2+  Bi89  1  0.65674549  0.11883285  0.80417533  1
  Bi2+  Bi90  1  0.75319775  0.32762904  0.27133503  1
  Bi2+  Bi91  1  0.77713677  0.32889945  0.78323910  1
  Bi2+  Bi92  1  0.76304330  0.65575385  0.29512267  1
  Bi2+  Bi93  1  0.76675026  0.61852227  0.78799420  1
  Bi2+  Bi94  1  0.77419408  0.89667940  0.26724028  1
  Bi2+  Bi95  1  0.77349601  0.89556120  0.79438147  1
  Bi2+  Bi96  1  0.13845965  0.00003306  0.21556321  1
  Bi2+  Bi97  1  0.10147814  -0.01582318  0.70454788  1
  Bi2+  Bi98  1  0.17081049  0.22275463  0.22557464  1
  Bi2+  Bi99  1  0.13280577  0.29380381  0.69207242  1
  Bi2+  Bi100  1  0.10401932  0.58194718  0.18836402  1
  Bi2+  Bi101  1  0.13293296  0.48954804  0.68354555  1
  Bi2+  Bi102  1  0.12707514  0.77159366  0.19767148  1
  Bi2+  Bi103  1  0.13482372  0.73084078  0.70453876  1
  Bi2+  Bi104  1  0.34301091  0.01452942  0.22579070  1
  Bi2+  Bi105  1  0.33713865  -0.02179120  0.71092524  1
  Bi2+  Bi106  1  0.40067026  0.23285140  0.22104698  1
  Bi2+  Bi107  1  0.34807619  0.24521704  0.70741679  1
  Bi2+  Bi108  1  0.34594484  0.45067719  0.21551149  1
  Bi2+  Bi109  1  0.29290096  0.46864863  0.74651243  1
  Bi2+  Bi110  1  0.32506403  0.74951419  0.20815993  1
  Bi2+  Bi111  1  0.32457826  0.74168977  0.78145370  1
  Bi2+  Bi112  1  0.60321874  0.00693893  0.21882949  1
  Bi2+  Bi113  1  0.66164438  0.00220817  0.70556092  1
  Bi2+  Bi114  1  0.59926331  0.27163264  0.20960578  1
  Bi2+  Bi115  1  0.67146209  0.24007852  0.70149531  1
  Bi2+  Bi116  1  0.60768055  0.52513135  0.20236274  1
  Bi2+  Bi117  1  0.63172149  0.48641157  0.68444297  1
  Bi2+  Bi118  1  0.60212619  0.77924705  0.19593179  1
  Bi2+  Bi119  1  0.62821957  0.77268066  0.69077491  1
  Bi2+  Bi120  1  0.92934030  0.00175258  0.21433288  1
  Bi2+  Bi121  1  0.84222536  0.06838064  0.75633404  1
  Bi2+  Bi122  1  0.90960681  0.23954315  0.22361435  1
  Bi2+  Bi123  1  0.93668287  0.25577035  0.70741114  1
  Bi2+  Bi124  1  0.87213349  0.48339448  0.20968514  1
  Bi2+  Bi125  1  0.87822367  0.45171930  0.71634985  1
  Bi2+  Bi126  1  0.96007077  0.80258568  0.26059615  1
  Bi2+  Bi127  1  0.89947649  0.83506560  0.70828756  1
  S2-  S128  1  0.12927928  0.12912593  0.14393055  1
  S2-  S129  1  0.11906547  0.13062611  0.64850467  1
  S2-  S130  1  -0.02145548  0.36606001  0.15908435  1
  S2-  S131  1  -0.02435799  0.50103776  0.63485552  1
  S2-  S132  1  -0.08591545  0.60819007  0.15274855  1
  S2-  S133  1  -0.01838342  0.74273717  0.64068858  1
  S2-  S134  1  -0.01903251  0.85819821  0.15819177  1
  S2-  S135  1  -0.03506783  0.97555511  0.64980577  1
  S2-  S136  1  0.38104804  0.11349759  0.14605308  1
  S2-  S137  1  0.36111014  0.11009884  0.64107434  1
  S2-  S138  1  0.27529868  0.31979761  0.15922584  1
  S2-  S139  1  0.33918834  0.37866819  0.64765879  1
  S2-  S140  1  0.25754073  0.53381474  0.14020232  1
  S2-  S141  1  0.23957515  0.62740802  0.65905539  1
  S2-  S142  1  0.25880003  0.89682457  0.15715803  1
  S2-  S143  1  0.22336927  0.87415936  0.65705264  1
  S2-  S144  1  0.63304287  0.12248225  0.15004672  1
  S2-  S145  1  0.59699046  0.12037040  0.63971275  1
  S2-  S146  1  0.52004814  0.40106953  0.15100821  1
  S2-  S147  1  0.55508761  0.33509729  0.66391170  1
  S2-  S148  1  0.50989657  0.63768015  0.16077718  1
  S2-  S149  1  0.48574714  0.55594206  0.67109432  1
  S2-  S150  1  0.50933793  0.91283178  0.15658083  1
  S2-  S151  1  0.49000453  0.78514561  0.64008342  1
  S2-  S152  1  0.88131870  0.12727935  0.14725268  1
  S2-  S153  1  0.83344095  0.15471036  0.64683507  1
  S2-  S154  1  0.75267199  0.44892834  0.14631673  1
  S2-  S155  1  0.77039623  0.39235496  0.64408773  1
  S2-  S156  1  0.71674108  0.66234305  0.19324841  1
  S2-  S157  1  0.68794117  0.63845425  0.64301829  1
  S2-  S158  1  0.72984887  0.88235776  0.16200127  1
  S2-  S159  1  0.75353395  0.87628476  0.64903898  1
  S2-  S160  1  0.21604521  0.01653308  0.36503516  1
  S2-  S161  1  0.12660710  0.02332018  0.85073160  1
  S2-  S162  1  0.21822875  0.26131473  0.36914077  1
  S2-  S163  1  0.01131357  0.23600733  0.86558856  1
  S2-  S164  1  0.06883121  0.42303638  0.34318854  1
  S2-  S165  1  0.01148105  0.50291489  0.86121453  1
  S2-  S166  1  0.10796123  0.64326242  0.35886908  1
  S2-  S167  1  0.00081784  0.74231786  0.86118617  1
  S2-  S168  1  0.45915003  0.00036644  0.35653929  1
  S2-  S169  1  0.39114404  0.00326870  0.84483598  1
  S2-  S170  1  0.46586331  0.25474852  0.36303061  1
  S2-  S171  1  0.37899963  0.26152681  0.84638770  1
  S2-  S172  1  0.45649600  0.49195298  0.36442858  1
  S2-  S173  1  0.45451816  0.49872739  0.84857630  1
  S2-  S174  1  0.45396243  0.74098494  0.35677901  1
  S2-  S175  1  0.44947326  0.74138623  0.85253689  1
  S2-  S176  1  0.65610419  0.01873493  0.33077998  1
  S2-  S177  1  0.62210277  -0.08875246  0.85253585  1
  S2-  S178  1  0.69474859  0.24378464  0.35496012  1
  S2-  S179  1  0.60096183  0.33283786  0.84302279  1
  S2-  S180  1  0.63264892  0.59519368  0.34636816  1
  S2-  S181  1  0.62732024  0.52002454  0.78286424  1
  S2-  S182  1  0.68088015  0.79492584  0.32218279  1
  S2-  S183  1  0.62013013  0.71619495  0.78625604  1
  S2-  S184  1  0.86402254  -0.01606803  0.34074629  1
  S2-  S185  1  0.87803077  -0.00942491  0.85118027  1
  S2-  S186  1  0.89835074  0.26307337  0.32957156  1
  S2-  S187  1  0.77616297  0.21860880  0.85902904  1
  S2-  S188  1  0.84815121  0.50852910  0.32373453  1
  S2-  S189  1  0.79365944  0.47944158  0.84358415  1
  S2-  S190  1  0.89471821  0.73281599  0.34444100  1
  S2-  S191  1  0.78989829  0.74609964  0.84708317  1
  S2-  S192  1  -0.01659100  0.13023978  0.44042436  1
  S2-  S193  1  0.00426130  0.11378994  0.96558489  1
  S2-  S194  1  -0.02413515  0.37564712  0.45315609  1
  S2-  S195  1  0.00583647  0.37125164  0.95670351  1
  S2-  S196  1  -0.02500923  0.63046947  0.45508264  1
  S2-  S197  1  0.00574493  0.61940485  0.96166251  1
  S2-  S198  1  -0.02025536  0.87750554  0.45377880  1
  S2-  S199  1  0.00406778  0.87072092  0.95629666  1
  S2-  S200  1  0.22319227  0.12972250  0.46742827  1
  S2-  S201  1  0.25361319  0.12186548  0.95737744  1
  S2-  S202  1  0.22687170  0.38422797  0.46445949  1
  S2-  S203  1  0.25070710  0.37041678  0.95212036  1
  S2-  S204  1  0.23427504  0.63151925  0.45313210  1
  S2-  S205  1  0.25551484  0.61940416  0.95092962  1
  S2-  S206  1  0.22701826  0.87097847  0.45313066  1
  S2-  S207  1  0.25588464  0.86429211  0.95183111  1
  S2-  S208  1  0.47256053  0.12619747  0.46109670  1
  S2-  S209  1  0.50666968  0.11998015  0.95432024  1
  S2-  S210  1  0.47507775  0.37694653  0.46755004  1
  S2-  S211  1  0.50853365  0.37015562  0.95148042  1
  S2-  S212  1  0.47698256  0.62974429  0.46369032  1
  S2-  S213  1  0.51014825  0.61967556  0.95104533  1
  S2-  S214  1  0.47870606  0.87548662  0.45299316  1
  S2-  S215  1  0.50582064  0.86514912  0.95692971  1
  S2-  S216  1  0.72294747  0.12365322  0.45545681  1
  S2-  S217  1  0.75604151  0.11294866  0.96341116  1
  S2-  S218  1  0.72542143  0.38362708  0.44319181  1
  S2-  S219  1  0.75521545  0.37085554  0.95160029  1
  S2-  S220  1  0.73330608  0.62906528  0.44561693  1
  S2-  S221  1  0.74266831  0.61690853  0.93680939  1
  S2-  S222  1  0.72752815  0.87999035  0.44333144  1
  S2-  S223  1  0.75297699  0.86800429  0.95843361  1
  S2-  S224  1  0.12881124  -0.00928008  0.05184048  1
  S2-  S225  1  0.10011749  0.00220450  0.54521343  1
  S2-  S226  1  0.13055079  0.25007269  0.04414679  1
  S2-  S227  1  0.09803457  0.25618001  0.54827327  1
  S2-  S228  1  0.12634705  0.49449987  0.04073578  1
  S2-  S229  1  0.10426212  0.50168722  0.53861372  1
  S2-  S230  1  0.12853321  0.74139147  0.04447505  1
  S2-  S231  1  0.10361236  0.75301627  0.53880271  1
  S2-  S232  1  0.38077162  -0.00852710  0.04817411  1
  S2-  S233  1  0.35505217  -0.00487971  0.54241246  1
  S2-  S234  1  0.38276032  0.24798673  0.04894702  1
  S2-  S235  1  0.35106615  0.25264395  0.54667293  1
  S2-  S236  1  0.38378091  0.49456274  0.04237115  1
  S2-  S237  1  0.35533103  0.50836557  0.55113627  1
  S2-  S238  1  0.38076423  0.74135445  0.04910658  1
  S2-  S239  1  0.35197215  0.75426266  0.54430669  1
  S2-  S240  1  0.63093592  -0.00994198  0.04686309  1
  S2-  S241  1  0.59809948  0.00039308  0.53821924  1
  S2-  S242  1  0.63126003  0.24414575  0.04296844  1
  S2-  S243  1  0.59891654  0.25383273  0.54231545  1
  S2-  S244  1  0.63536781  0.49787167  0.04707614  1
  S2-  S245  1  0.60244436  0.50112705  0.54360030  1
  S2-  S246  1  0.63739358  0.73992126  0.06008267  1
  S2-  S247  1  0.60683059  0.75306126  0.53215085  1
  S2-  S248  1  0.87973954  -0.01201693  0.05324078  1
  S2-  S249  1  0.85341016  0.00475873  0.54370750  1
  S2-  S250  1  0.88071330  0.24681920  0.04500825  1
  S2-  S251  1  0.85432128  0.25265583  0.53646290  1
  S2-  S252  1  0.87898025  0.49642886  0.04103321  1
  S2-  S253  1  0.84856618  0.50357933  0.53315532  1
  S2-  S254  1  0.87470931  0.74081181  0.04889165  1
  S2-  S255  1  0.84851059  0.75047039  0.54124332  1
