# generated using pymatgen
data_La6Ce6Pr19Nd20Sm13(BiS2)64
_symmetry_space_group_name_H-M   'P 1'
_cell_length_a   16.12300232
_cell_length_b   16.11241718
_cell_length_c   26.99846308
_cell_angle_alpha   90.06298420
_cell_angle_beta   90.15403576
_cell_angle_gamma   89.94077097
_symmetry_Int_Tables_number   1
_chemical_formula_structural   La6Ce6Pr19Nd20Sm13(BiS2)64
_chemical_formula_sum   'La6 Ce6 Pr19 Nd20 Sm13 Bi64 S128'
_cell_volume   7013.64199512
_cell_formula_units_Z   1
loop_
 _symmetry_equiv_pos_site_id
 _symmetry_equiv_pos_as_xyz
  1  'x, y, z'
loop_
 _atom_type_symbol
 _atom_type_oxidation_number
  La3+  3.0
  Ce3+  3.0
  Pr3+  3.0
  Nd3+  3.0
  Sm3+  3.0
  Bi2+  2.0
  S2-  -2.0
loop_
 _atom_site_type_symbol
 _atom_site_label
 _atom_site_symmetry_multiplicity
 _atom_site_fract_x
 _atom_site_fract_y
 _atom_site_fract_z
 _atom_site_occupancy
  La3+  La0  1  0.12538175  0.24785714  0.39854278  1
  La3+  La1  1  0.11937823  0.24620322  0.91828761  1
  La3+  La2  1  0.50552245  0.63245967  0.57797610  1
  La3+  La3  1  0.24177235  0.87935913  0.58246082  1
  La3+  La4  1  0.61562033  0.24836796  0.41378447  1
  La3+  La5  1  0.25096151  0.37765509  0.57188705  1
  Ce3+  Ce6  1  -0.00358855  0.87690551  0.56623472  1
  Ce3+  Ce7  1  0.37311513  -0.00421856  0.93729974  1
  Ce3+  Ce8  1  0.74786826  0.36705514  0.06682252  1
  Ce3+  Ce9  1  0.50004572  0.13132881  0.55916082  1
  Ce3+  Ce10  1  0.74892291  0.88018745  0.56497806  1
  Ce3+  Ce11  1  0.87997730  0.49182664  0.94660482  1
  Pr3+  Pr12  1  0.24950682  0.61593264  0.05165690  1
  Pr3+  Pr13  1  0.25140698  0.86798740  0.05933811  1
  Pr3+  Pr14  1  0.12649537  0.74786240  0.92881546  1
  Pr3+  Pr15  1  0.37468861  0.24553450  0.94158059  1
  Pr3+  Pr16  1  0.37736185  0.49227550  0.93237845  1
  Pr3+  Pr17  1  0.24224266  0.62717056  0.57804414  1
  Pr3+  Pr18  1  0.50502734  0.37511353  0.08721835  1
  Pr3+  Pr19  1  0.24894644  0.11070004  0.06499055  1
  Pr3+  Pr20  1  -0.00594933  0.62818208  0.57029467  1
  Pr3+  Pr21  1  0.12602559  0.49792731  0.90081853  1
  Pr3+  Pr22  1  0.75099441  0.61688862  0.05671191  1
  Pr3+  Pr23  1  0.25056814  0.36541194  0.05966326  1
  Pr3+  Pr24  1  0.74491158  0.13339074  0.55554351  1
  Pr3+  Pr25  1  0.49642823  0.38091053  0.56866644  1
  Pr3+  Pr26  1  0.87529717  0.24535439  0.93979981  1
  Pr3+  Pr27  1  0.61846398  0.51188819  0.42829241  1
  Pr3+  Pr28  1  0.12990525  -0.00049450  0.90741777  1
  Pr3+  Pr29  1  0.74359132  0.37778666  0.55569762  1
  Pr3+  Pr30  1  0.37025966  0.50515755  0.44049606  1
  Nd3+  Nd31  1  0.87404574  -0.00676387  0.93000885  1
  Nd3+  Nd32  1  0.74849949  0.86834384  0.05508406  1
  Nd3+  Nd33  1  0.62766374  -0.00412900  0.92687229  1
  Nd3+  Nd34  1  0.00006494  0.37745985  0.55753691  1
  Nd3+  Nd35  1  0.00292910  0.61516833  0.06373325  1
  Nd3+  Nd36  1  0.62133297  -0.00110622  0.43569156  1
  Nd3+  Nd37  1  0.00512413  0.35800329  0.06963244  1
  Nd3+  Nd38  1  0.74935854  0.11592954  0.06149856  1
  Nd3+  Nd39  1  0.87431574  0.26293051  0.42742670  1
  Nd3+  Nd40  1  0.50150780  0.86840029  0.05554093  1
  Nd3+  Nd41  1  0.50478486  0.88020869  0.57763264  1
  Nd3+  Nd42  1  0.49956871  0.61811418  0.06600704  1
  Nd3+  Nd43  1  0.36774889  0.00234445  0.44899828  1
  Nd3+  Nd44  1  0.12190570  0.00587129  0.44887253  1
  Nd3+  Nd45  1  0.25870077  0.13010143  0.57725090  1
  Nd3+  Nd46  1  0.38355773  0.74293250  0.92389516  1
  Nd3+  Nd47  1  0.87276291  0.50618039  0.43327386  1
  Nd3+  Nd48  1  0.87438211  0.00579709  0.44768958  1
  Nd3+  Nd49  1  0.00256011  0.11269161  0.06025299  1
  Nd3+  Nd50  1  0.12380985  0.50684373  0.43767295  1
  Sm3+  Sm51  1  0.37053738  0.75479732  0.45640144  1
  Sm3+  Sm52  1  0.62440267  0.24612429  0.94568739  1
  Sm3+  Sm53  1  0.62031118  0.75589616  0.44243930  1
  Sm3+  Sm54  1  0.12285689  0.75091912  0.44190410  1
  Sm3+  Sm55  1  0.75025583  0.62787640  0.56160677  1
  Sm3+  Sm56  1  0.00199946  0.87284037  0.05565172  1
  Sm3+  Sm57  1  0.87262887  0.75210289  0.43444861  1
  Sm3+  Sm58  1  0.62235063  0.49119179  0.93674522  1
  Sm3+  Sm59  1  0.36953889  0.25424122  0.44001370  1
  Sm3+  Sm60  1  0.62351063  0.74205144  0.93813881  1
  Sm3+  Sm61  1  0.87601414  0.74157000  0.94545713  1
  Sm3+  Sm62  1  0.50082789  0.11968599  0.05764365  1
  Sm3+  Sm63  1  -0.00013666  0.13440112  0.56434748  1
  Bi2+  Bi64  1  -0.00921250  0.10403797  0.27882146  1
  Bi2+  Bi65  1  -0.04288978  0.11540463  0.77335355  1
  Bi2+  Bi66  1  -0.01220511  0.38873389  0.29363098  1
  Bi2+  Bi67  1  -0.08044146  0.37414019  0.78715447  1
  Bi2+  Bi68  1  0.00341746  0.64464820  0.29153828  1
  Bi2+  Bi69  1  -0.05567598  0.63897595  0.79380037  1
  Bi2+  Bi70  1  0.05767886  0.83747619  0.30877271  1
  Bi2+  Bi71  1  -0.00176137  0.88565596  0.77599547  1
  Bi2+  Bi72  1  0.23465236  0.07104136  0.28345283  1
  Bi2+  Bi73  1  0.27230622  0.12583762  0.78215864  1
  Bi2+  Bi74  1  0.27921650  0.37835528  0.30277916  1
  Bi2+  Bi75  1  0.26308208  0.36628062  0.78329264  1
  Bi2+  Bi76  1  0.24988376  0.65192593  0.28956312  1
  Bi2+  Bi77  1  0.22407171  0.62099400  0.77737120  1
  Bi2+  Bi78  1  0.25845238  0.85745775  0.31623502  1
  Bi2+  Bi79  1  0.24479857  0.87968689  0.77542187  1
  Bi2+  Bi80  1  0.49377454  0.03243923  0.28359156  1
  Bi2+  Bi81  1  0.52961800  0.08677829  0.80107352  1
  Bi2+  Bi82  1  0.50813670  0.37847727  0.30292376  1
  Bi2+  Bi83  1  0.54479911  0.37999970  0.78283369  1
  Bi2+  Bi84  1  0.50025734  0.69452068  0.28862522  1
  Bi2+  Bi85  1  0.54587672  0.60747749  0.78417587  1
  Bi2+  Bi86  1  0.57987184  0.86785122  0.32685325  1
  Bi2+  Bi87  1  0.55359921  0.88936872  0.79893972  1
  Bi2+  Bi88  1  0.75641663  0.06840862  0.29126361  1
  Bi2+  Bi89  1  0.72017496  0.14774982  0.79934509  1
  Bi2+  Bi90  1  0.82470258  0.41916697  0.23812512  1
  Bi2+  Bi91  1  0.73615006  0.42200239  0.81951175  1
  Bi2+  Bi92  1  0.75173910  0.67670904  0.29157084  1
  Bi2+  Bi93  1  0.74078074  0.60547386  0.78258561  1
  Bi2+  Bi94  1  0.78297020  0.86268588  0.32710874  1
  Bi2+  Bi95  1  0.74760247  0.85604866  0.79255120  1
  Bi2+  Bi96  1  0.11267535  -0.01715137  0.21266081  1
  Bi2+  Bi97  1  0.12360122  0.00889293  0.71483739  1
  Bi2+  Bi98  1  0.12520211  0.27689861  0.19824357  1
  Bi2+  Bi99  1  0.08575841  0.24982584  0.70680480  1
  Bi2+  Bi100  1  0.13630265  0.52441073  0.20090630  1
  Bi2+  Bi101  1  0.06349211  0.47809086  0.71542419  1
  Bi2+  Bi102  1  0.17692520  0.79279050  0.21401213  1
  Bi2+  Bi103  1  0.04409454  0.73711423  0.70528280  1
  Bi2+  Bi104  1  0.36908175  -0.08098437  0.21639393  1
  Bi2+  Bi105  1  0.44766452  -0.01752279  0.71292163  1
  Bi2+  Bi106  1  0.38608165  0.18534713  0.21936024  1
  Bi2+  Bi107  1  0.46393875  0.24002342  0.71483951  1
  Bi2+  Bi108  1  0.37583456  0.48040922  0.20661651  1
  Bi2+  Bi109  1  0.35350000  0.47932396  0.70323308  1
  Bi2+  Bi110  1  0.37201605  0.72420241  0.20197561  1
  Bi2+  Bi111  1  0.41577054  0.72645730  0.73730058  1
  Bi2+  Bi112  1  0.64443105  -0.04497177  0.22110791  1
  Bi2+  Bi113  1  0.65748799  0.04648184  0.70510603  1
  Bi2+  Bi114  1  0.61573739  0.22960651  0.21130670  1
  Bi2+  Bi115  1  0.62297524  0.24518638  0.64842139  1
  Bi2+  Bi116  1  0.64217584  0.49773030  0.22409379  1
  Bi2+  Bi117  1  0.63547615  0.44549595  0.68841190  1
  Bi2+  Bi118  1  0.62962541  0.75527296  0.21004770  1
  Bi2+  Bi119  1  0.65236308  0.75756514  0.70363478  1
  Bi2+  Bi120  1  0.87280447  0.00174896  0.20460599  1
  Bi2+  Bi121  1  0.85009078  -0.05579834  0.70906464  1
  Bi2+  Bi122  1  0.87024638  0.22622058  0.21940815  1
  Bi2+  Bi123  1  0.77640618  0.28925341  0.72518527  1
  Bi2+  Bi124  1  0.87598056  0.60332221  0.20253531  1
  Bi2+  Bi125  1  0.87632190  0.57432665  0.69102553  1
  Bi2+  Bi126  1  0.90102442  0.80447247  0.23684437  1
  Bi2+  Bi127  1  0.86435231  0.76481750  0.65609881  1
  S2-  S128  1  0.00144310  0.21897450  0.14307346  1
  S2-  S129  1  0.00044583  0.12544942  0.66606111  1
  S2-  S130  1  0.02988756  0.41959322  0.16666185  1
  S2-  S131  1  -0.01289307  0.35110628  0.65881789  1
  S2-  S132  1  0.03877341  0.64117425  0.16130598  1
  S2-  S133  1  0.10663534  0.60797767  0.64870025  1
  S2-  S134  1  -0.00041479  0.98379978  0.13282825  1
  S2-  S135  1  0.09908499  0.87993885  0.64754837  1
  S2-  S136  1  0.24753885  0.17966218  0.15969871  1
  S2-  S137  1  0.21639656  0.14355098  0.67736807  1
  S2-  S138  1  0.24142717  0.39366781  0.16174081  1
  S2-  S139  1  0.19574366  0.40889169  0.67360342  1
  S2-  S140  1  0.27966755  0.59923568  0.15145159  1
  S2-  S141  1  0.30531138  0.64589845  0.67796030  1
  S2-  S142  1  0.25490078  0.96844598  0.14307597  1
  S2-  S143  1  0.31778764  0.89904434  0.67690679  1
  S2-  S144  1  0.50878788  0.11627429  0.15694722  1
  S2-  S145  1  0.41484585  0.11737218  0.64567623  1
  S2-  S146  1  0.44374308  0.32291929  0.18238309  1
  S2-  S147  1  0.37726874  0.33765289  0.64807950  1
  S2-  S148  1  0.50148937  0.52506598  0.15172991  1
  S2-  S149  1  0.48524420  0.50358105  0.64639727  1
  S2-  S150  1  0.49550235  0.83696774  0.15412941  1
  S2-  S151  1  0.49384057  0.75973483  0.65481030  1
  S2-  S152  1  0.74820843  0.16129674  0.15887302  1
  S2-  S153  1  0.77877599  0.15112752  0.65523652  1
  S2-  S154  1  0.65223239  0.36673629  0.15014930  1
  S2-  S155  1  0.78837159  0.42911969  0.65099137  1
  S2-  S156  1  0.70897535  0.62221929  0.15513935  1
  S2-  S157  1  0.65677256  0.62530844  0.64484179  1
  S2-  S158  1  0.75742025  0.89421261  0.15340084  1
  S2-  S159  1  0.64380133  0.90643515  0.64301176  1
  S2-  S160  1  0.12082530  0.07641351  0.35741498  1
  S2-  S161  1  0.14406219  0.13335910  0.83834442  1
  S2-  S162  1  0.18987339  0.24449079  0.29589967  1
  S2-  S163  1  0.13030766  0.35877870  0.83693509  1
  S2-  S164  1  0.13435420  0.41297615  0.35100149  1
  S2-  S165  1  0.10874455  0.64516982  0.84313231  1
  S2-  S166  1  0.13432774  0.63584359  0.36431276  1
  S2-  S167  1  0.12926372  0.85828793  0.84643147  1
  S2-  S168  1  0.35655227  0.02039543  0.34911461  1
  S2-  S169  1  0.30436302  -0.00833027  0.84610911  1
  S2-  S170  1  0.39791276  0.25977458  0.34079772  1
  S2-  S171  1  0.34665565  0.24805677  0.83955965  1
  S2-  S172  1  0.39356128  0.50370773  0.33887319  1
  S2-  S173  1  0.28100626  0.50691250  0.84306016  1
  S2-  S174  1  0.36453846  0.73987709  0.35655023  1
  S2-  S175  1  0.31377456  0.74485457  0.82878054  1
  S2-  S176  1  0.61451272  0.09518521  0.35309262  1
  S2-  S177  1  0.75134159  -0.00027321  0.85511792  1
  S2-  S178  1  0.63595817  0.27342406  0.30623491  1
  S2-  S179  1  0.59214882  0.24208961  0.84790511  1
  S2-  S180  1  0.63845565  0.47102402  0.32357630  1
  S2-  S181  1  0.50739630  0.49282967  0.86038029  1
  S2-  S182  1  0.61478226  0.65541803  0.36205105  1
  S2-  S183  1  0.52600718  0.73614221  0.85630721  1
  S2-  S184  1  0.89028039  0.01016684  0.34792105  1
  S2-  S185  1  0.97503315  0.00934039  0.84756272  1
  S2-  S186  1  0.97437827  0.23643919  0.34538970  1
  S2-  S187  1  0.94781912  0.23810082  0.84685920  1
  S2-  S188  1  0.85795578  0.39941995  0.35142149  1
  S2-  S189  1  0.95933535  0.49257576  0.85886027  1
  S2-  S190  1  0.87811954  0.63215165  0.36030619  1
  S2-  S191  1  0.87871030  0.76921542  0.84773171  1
  S2-  S192  1  -0.00230445  0.13261451  0.45890258  1
  S2-  S193  1  -0.00124554  0.11842447  0.95381832  1
  S2-  S194  1  0.00262110  0.37763566  0.45234305  1
  S2-  S195  1  0.00135645  0.36763056  0.96012367  1
  S2-  S196  1  -0.00266275  0.63177013  0.46174933  1
  S2-  S197  1  0.00046369  0.62190315  0.95749898  1
  S2-  S198  1  -0.00209044  0.87656195  0.45581142  1
  S2-  S199  1  -0.00437568  0.86678225  0.95232059  1
  S2-  S200  1  0.24701553  0.13181210  0.46015133  1
  S2-  S201  1  0.25146698  0.11987914  0.95427923  1
  S2-  S202  1  0.24767271  0.37474251  0.45630832  1
  S2-  S203  1  0.24871787  0.37079683  0.95106516  1
  S2-  S204  1  0.24886836  0.63229359  0.46601734  1
  S2-  S205  1  0.25427770  0.62339276  0.94654637  1
  S2-  S206  1  0.24247037  0.87675199  0.46456923  1
  S2-  S207  1  0.25874438  0.86432197  0.95179586  1
  S2-  S208  1  0.49155441  0.12684222  0.45196045  1
  S2-  S209  1  0.50326565  0.11831961  0.95110206  1
  S2-  S210  1  0.49601154  0.37871640  0.44941005  1
  S2-  S211  1  0.50332447  0.36643645  0.95984837  1
  S2-  S212  1  0.49318052  0.63336833  0.46320596  1
  S2-  S213  1  0.50225091  0.61905968  0.95963517  1
  S2-  S214  1  0.49522853  0.87807666  0.46274227  1
  S2-  S215  1  0.50403370  0.87338181  0.94953460  1
  S2-  S216  1  0.75178647  0.13263826  0.44720291  1
  S2-  S217  1  0.74732794  0.12250025  0.95463719  1
  S2-  S218  1  0.73910266  0.37801379  0.44719433  1
  S2-  S219  1  0.74755450  0.36977790  0.95794796  1
  S2-  S220  1  0.74787434  0.63251529  0.45760378  1
  S2-  S221  1  0.74844954  0.61813829  0.94757213  1
  S2-  S222  1  0.74949948  0.87777632  0.45654180  1
  S2-  S223  1  0.74699692  0.86272650  0.94985953  1
  S2-  S224  1  0.12715472  -0.01102320  0.03412030  1
  S2-  S225  1  0.12404304  0.01306855  0.55423342  1
  S2-  S226  1  0.12869174  0.23909574  0.04035881  1
  S2-  S227  1  0.12588546  0.25108742  0.56071124  1
  S2-  S228  1  0.12457463  0.49207969  0.05047253  1
  S2-  S229  1  0.12234334  0.50061193  0.54546998  1
  S2-  S230  1  0.12342735  0.74615531  0.04572908  1
  S2-  S231  1  0.11985208  0.75224343  0.54694419  1
  S2-  S232  1  0.38150028  -0.00611737  0.04452708  1
  S2-  S233  1  0.37329603  -0.00298749  0.55326712  1
  S2-  S234  1  0.37984487  0.24236726  0.05000139  1
  S2-  S235  1  0.37547096  0.25240455  0.54291802  1
  S2-  S236  1  0.37796138  0.49155262  0.04350742  1
  S2-  S237  1  0.36769541  0.50778728  0.54809988  1
  S2-  S238  1  0.37807871  0.74270298  0.04173290  1
  S2-  S239  1  0.36795543  0.75634873  0.55927105  1
  S2-  S240  1  0.62423372  -0.00588182  0.04247311  1
  S2-  S241  1  0.62203118  0.00783528  0.54128497  1
  S2-  S242  1  0.62319473  0.24160473  0.04977939  1
  S2-  S243  1  0.61814036  0.25596156  0.52998033  1
  S2-  S244  1  0.62557375  0.49432799  0.04277662  1
  S2-  S245  1  0.62456439  0.50484586  0.53824628  1
  S2-  S246  1  0.62479463  0.74203536  0.04416141  1
  S2-  S247  1  0.62865512  0.75699272  0.54521776  1
  S2-  S248  1  0.87013248  -0.00822691  0.03786674  1
  S2-  S249  1  0.87566676  0.00780410  0.55454560  1
  S2-  S250  1  0.87047413  0.24230368  0.04722081  1
  S2-  S251  1  0.87436548  0.25520035  0.54175001  1
  S2-  S252  1  0.87718131  0.49000647  0.05571370  1
  S2-  S253  1  0.87336409  0.50304561  0.54123237  1
  S2-  S254  1  0.87772868  0.74591698  0.05282041  1
  S2-  S255  1  0.87215883  0.75333976  0.53997943  1
