# generated using pymatgen
data_La6Ce6Pr19Nd20Sm13(BiS2)64
_symmetry_space_group_name_H-M   'P 1'
_cell_length_a   16.04738670
_cell_length_b   16.06364266
_cell_length_c   27.30177839
_cell_angle_alpha   89.99330368
_cell_angle_beta   89.68160948
_cell_angle_gamma   90.10929495
_symmetry_Int_Tables_number   1
_chemical_formula_structural   La6Ce6Pr19Nd20Sm13(BiS2)64
_chemical_formula_sum   'La6 Ce6 Pr19 Nd20 Sm13 Bi64 S128'
_cell_volume   7037.71686463
_cell_formula_units_Z   1
loop_
 _symmetry_equiv_pos_site_id
 _symmetry_equiv_pos_as_xyz
  1  'x, y, z'
loop_
 _atom_type_symbol
 _atom_type_oxidation_number
  La3+  3.0
  Ce3+  3.0
  Pr3+  3.0
  Nd3+  3.0
  Sm3+  3.0
  Bi2+  2.0
  S2-  -2.0
loop_
 _atom_site_type_symbol
 _atom_site_label
 _atom_site_symmetry_multiplicity
 _atom_site_fract_x
 _atom_site_fract_y
 _atom_site_fract_z
 _atom_site_occupancy
  La3+  La0  1  0.73226331  0.13518995  0.58710772  1
  La3+  La1  1  0.36293863  0.49915759  0.42192563  1
  La3+  La2  1  -0.02084771  0.61706143  0.08920392  1
  La3+  La3  1  0.48416756  0.35669759  0.06398158  1
  La3+  La4  1  0.61049547  0.75893665  0.41486887  1
  La3+  La5  1  -0.02103124  0.35252267  0.09600992  1
  Ce3+  Ce6  1  0.73238578  0.61277613  0.07147899  1
  Ce3+  Ce7  1  0.11095701  0.50341205  0.43678464  1
  Ce3+  Ce8  1  0.86240622  0.24897678  0.44668704  1
  Ce3+  Ce9  1  0.24179667  0.87669850  0.55464305  1
  Ce3+  Ce10  1  0.86290590  -0.00170450  0.45153349  1
  Ce3+  Ce11  1  0.61779398  0.24562956  0.43634814  1
  Pr3+  Pr12  1  0.36329172  0.72949644  0.93762222  1
  Pr3+  Pr13  1  0.61050645  0.73439383  0.93634509  1
  Pr3+  Pr14  1  0.24400724  0.13078063  0.56697976  1
  Pr3+  Pr15  1  0.74214141  0.63436252  0.53867824  1
  Pr3+  Pr16  1  0.36152331  0.23407947  0.92942105  1
  Pr3+  Pr17  1  0.86400087  0.49195600  0.42377182  1
  Pr3+  Pr18  1  0.48343741  0.86146126  0.05911002  1
  Pr3+  Pr19  1  0.61314337  0.50575541  0.42455850  1
  Pr3+  Pr20  1  0.24336356  0.37606964  0.56065590  1
  Pr3+  Pr21  1  0.73727234  0.38387490  0.56200166  1
  Pr3+  Pr22  1  0.73810546  0.10820170  0.05513646  1
  Pr3+  Pr23  1  -0.00980589  0.88121299  0.58007158  1
  Pr3+  Pr24  1  -0.01019792  0.37802718  0.56718276  1
  Pr3+  Pr25  1  0.23589455  0.86296763  0.05795305  1
  Pr3+  Pr26  1  0.48268738  0.60688594  0.07945659  1
  Pr3+  Pr27  1  0.86179545  0.73472650  0.93456935  1
  Pr3+  Pr28  1  0.10575731  0.48360341  0.95484952  1
  Pr3+  Pr29  1  0.36885155  0.24932148  0.41869659  1
  Pr3+  Pr30  1  0.61167637  0.23029360  0.93684122  1
  Nd3+  Nd31  1  0.35953936  0.48153733  0.93442462  1
  Nd3+  Nd32  1  0.48924969  0.12926207  0.56156420  1
  Nd3+  Nd33  1  0.10562453  0.23181214  0.94154473  1
  Nd3+  Nd34  1  0.61151036  0.49008654  0.93983034  1
  Nd3+  Nd35  1  0.11020884  -0.01776423  0.92783131  1
  Nd3+  Nd36  1  0.10969072  0.73294105  0.94911375  1
  Nd3+  Nd37  1  -0.00916636  0.62349048  0.56755110  1
  Nd3+  Nd38  1  0.62013832  -0.00265203  0.44366225  1
  Nd3+  Nd39  1  0.23148848  0.11067305  0.05596737  1
  Nd3+  Nd40  1  -0.01145866  0.12975099  0.57268092  1
  Nd3+  Nd41  1  0.24487158  0.61982035  0.58876578  1
  Nd3+  Nd42  1  0.36109898  -0.02421032  0.90808967  1
  Nd3+  Nd43  1  0.73511759  0.87299843  0.56763584  1
  Nd3+  Nd44  1  0.11113270  0.00138226  0.44545600  1
  Nd3+  Nd45  1  0.88269443  0.75993892  0.40619157  1
  Nd3+  Nd46  1  0.47853635  0.87402708  0.56766709  1
  Nd3+  Nd47  1  0.86131350  -0.01560977  0.90198235  1
  Nd3+  Nd48  1  -0.01794691  0.10570671  0.06132786  1
  Nd3+  Nd49  1  -0.01673698  0.85933001  0.06235779  1
  Nd3+  Nd50  1  0.48841362  0.62698946  0.55650593  1
  Sm3+  Sm51  1  0.23351885  0.35508869  0.06262390  1
  Sm3+  Sm52  1  0.23864762  0.60338448  0.06863602  1
  Sm3+  Sm53  1  0.48792861  0.38100671  0.54786006  1
  Sm3+  Sm54  1  0.85961741  0.23118030  0.93947004  1
  Sm3+  Sm55  1  0.36294317  0.75350457  0.43645082  1
  Sm3+  Sm56  1  0.11447952  0.25125435  0.44369622  1
  Sm3+  Sm57  1  0.11366029  0.75008084  0.44895258  1
  Sm3+  Sm58  1  0.61017792  -0.02023265  0.90691680  1
  Sm3+  Sm59  1  0.36576444  0.00451268  0.43528546  1
  Sm3+  Sm60  1  0.73144236  0.86129354  0.05380084  1
  Sm3+  Sm61  1  0.86341741  0.49076015  0.94469293  1
  Sm3+  Sm62  1  0.74129030  0.36222990  0.05360294  1
  Sm3+  Sm63  1  0.48545965  0.11359542  0.05692059  1
  Bi2+  Bi64  1  -0.07741012  0.09221984  0.28319833  1
  Bi2+  Bi65  1  0.01606330  0.13813411  0.78400165  1
  Bi2+  Bi66  1  0.00965959  0.36596853  0.30401897  1
  Bi2+  Bi67  1  0.07218395  0.37777670  0.78806005  1
  Bi2+  Bi68  1  0.00328111  0.63894361  0.28599774  1
  Bi2+  Bi69  1  0.03206574  0.62803327  0.80479946  1
  Bi2+  Bi70  1  0.03175859  0.90673740  0.30027173  1
  Bi2+  Bi71  1  -0.00274304  0.85472764  0.78891038  1
  Bi2+  Bi72  1  0.27179697  0.01302568  0.28938529  1
  Bi2+  Bi73  1  0.28276401  0.12751431  0.78577778  1
  Bi2+  Bi74  1  0.25356620  0.27379611  0.28375863  1
  Bi2+  Bi75  1  0.27630501  0.38592966  0.77415314  1
  Bi2+  Bi76  1  0.27224886  0.64654081  0.25044867  1
  Bi2+  Bi77  1  0.27282843  0.58437982  0.77931564  1
  Bi2+  Bi78  1  0.25675102  0.81774010  0.30565732  1
  Bi2+  Bi79  1  0.25989486  0.87741624  0.77511988  1
  Bi2+  Bi80  1  0.57591170  0.10548692  0.32122023  1
  Bi2+  Bi81  1  0.46310080  0.19191442  0.80779131  1
  Bi2+  Bi82  1  0.52476726  0.39945804  0.29149447  1
  Bi2+  Bi83  1  0.56615754  0.44919470  0.78221637  1
  Bi2+  Bi84  1  0.48959295  0.65479441  0.27687686  1
  Bi2+  Bi85  1  0.48588785  0.71059315  0.81299308  1
  Bi2+  Bi86  1  0.48550653  0.92884338  0.31126937  1
  Bi2+  Bi87  1  0.47044165  0.94780141  0.74542754  1
  Bi2+  Bi88  1  0.76238492  0.13053330  0.35711364  1
  Bi2+  Bi89  1  0.75461296  0.15031620  0.78470054  1
  Bi2+  Bi90  1  0.74421220  0.30481723  0.29261755  1
  Bi2+  Bi91  1  0.76049744  0.40977284  0.78955539  1
  Bi2+  Bi92  1  0.75039153  0.58725594  0.27688554  1
  Bi2+  Bi93  1  0.75312300  0.65178325  0.80530022  1
  Bi2+  Bi94  1  0.76366927  0.96707340  0.28777337  1
  Bi2+  Bi95  1  0.69440470  0.82487426  0.76355032  1
  Bi2+  Bi96  1  0.18553126  -0.00025824  0.17974483  1
  Bi2+  Bi97  1  0.16222251  0.02503511  0.71002687  1
  Bi2+  Bi98  1  0.11679105  0.17057189  0.21989540  1
  Bi2+  Bi99  1  0.13451118  0.22850316  0.70821390  1
  Bi2+  Bi100  1  0.15259711  0.47551761  0.22895373  1
  Bi2+  Bi101  1  0.10161828  0.48417850  0.69417111  1
  Bi2+  Bi102  1  0.14036715  0.79548104  0.21247717  1
  Bi2+  Bi103  1  0.18114464  0.72461836  0.72654628  1
  Bi2+  Bi104  1  0.44902353  0.03900481  0.21774246  1
  Bi2+  Bi105  1  0.35172556  0.05647481  0.67723631  1
  Bi2+  Bi106  1  0.41653707  0.23231383  0.23035076  1
  Bi2+  Bi107  1  0.39997947  0.24315718  0.70417945  1
  Bi2+  Bi108  1  0.36826240  0.48395140  0.21261790  1
  Bi2+  Bi109  1  0.41426544  0.49738422  0.71608267  1
  Bi2+  Bi110  1  0.40707442  0.81356598  0.22309127  1
  Bi2+  Bi111  1  0.42298775  0.76906573  0.70048165  1
  Bi2+  Bi112  1  0.64627674  0.06959142  0.21449000  1
  Bi2+  Bi113  1  0.62976935  0.04476256  0.72131972  1
  Bi2+  Bi114  1  0.60709387  0.28289123  0.20660529  1
  Bi2+  Bi115  1  0.61370444  0.30642752  0.70692513  1
  Bi2+  Bi116  1  0.62881955  0.48815000  0.20527246  1
  Bi2+  Bi117  1  0.68359697  0.48628657  0.68187092  1
  Bi2+  Bi118  1  0.64114588  0.77524077  0.21145013  1
  Bi2+  Bi119  1  0.60660004  0.65672261  0.72347993  1
  Bi2+  Bi120  1  0.98817383  -0.00693006  0.18787035  1
  Bi2+  Bi121  1  0.88675303  -0.03369738  0.71482483  1
  Bi2+  Bi122  1  0.85198332  0.22391605  0.21067093  1
  Bi2+  Bi123  1  0.88921321  0.32605919  0.71705427  1
  Bi2+  Bi124  1  0.88522189  0.48114049  0.20621537  1
  Bi2+  Bi125  1  0.88585801  0.53186466  0.73383718  1
  Bi2+  Bi126  1  0.88288605  0.82759276  0.21993167  1
  Bi2+  Bi127  1  0.85293848  0.72276617  0.70119342  1
  S2-  S128  1  -0.00820760  0.19476542  0.14703406  1
  S2-  S129  1  0.00755956  0.02073856  0.65140048  1
  S2-  S130  1  0.03007046  0.37766421  0.19649608  1
  S2-  S131  1  -0.01112218  0.25713742  0.64744909  1
  S2-  S132  1  0.04510861  0.57992504  0.18674139  1
  S2-  S133  1  -0.04905358  0.49813357  0.63814514  1
  S2-  S134  1  -0.00835340  0.77375967  0.14988168  1
  S2-  S135  1  -0.01835879  0.81820721  0.67886151  1
  S2-  S136  1  0.23410022  0.17015049  0.15036282  1
  S2-  S137  1  0.25680295  0.25639121  0.63901384  1
  S2-  S138  1  0.25957721  0.39589024  0.15739628  1
  S2-  S139  1  0.24292152  0.47322623  0.64632644  1
  S2-  S140  1  0.34117129  0.61801680  0.14749875  1
  S2-  S141  1  0.10510284  0.64237800  0.65045461  1
  S2-  S142  1  0.27438372  0.84731284  0.15548405  1
  S2-  S143  1  0.33235092  0.86648290  0.63513723  1
  S2-  S144  1  0.47940954  0.22404721  0.13490916  1
  S2-  S145  1  0.58144962  0.13432940  0.64728083  1
  S2-  S146  1  0.49107500  0.46254733  0.14443751  1
  S2-  S147  1  0.47869507  0.37449915  0.64698839  1
  S2-  S148  1  0.61472193  0.63944451  0.14971402  1
  S2-  S149  1  0.39727664  0.62451276  0.64272401  1
  S2-  S150  1  0.53406442  0.85488012  0.15749871  1
  S2-  S151  1  0.54921439  0.86714489  0.65954238  1
  S2-  S152  1  0.77877830  0.10488137  0.15371494  1
  S2-  S153  1  0.79257941  0.08705454  0.68305290  1
  S2-  S154  1  0.81565778  0.36254129  0.14400588  1
  S2-  S155  1  0.75398038  0.29232276  0.64942259  1
  S2-  S156  1  0.83381938  0.60431020  0.15184228  1
  S2-  S157  1  0.72664235  0.63867139  0.64036716  1
  S2-  S158  1  0.75734569  0.84614584  0.15279131  1
  S2-  S159  1  0.76746645  0.86870800  0.66708505  1
  S2-  S160  1  0.12012962  0.01892772  0.34605252  1
  S2-  S161  1  0.22344423  -0.00508904  0.84700446  1
  S2-  S162  1  0.10620464  0.25055135  0.34472416  1
  S2-  S163  1  0.11916935  0.23069420  0.84243665  1
  S2-  S164  1  0.11245033  0.49641336  0.33692010  1
  S2-  S165  1  0.11707889  0.51403475  0.85441190  1
  S2-  S166  1  0.04386017  0.75235339  0.35906135  1
  S2-  S167  1  0.10735515  0.76043986  0.85068483  1
  S2-  S168  1  0.34821919  0.10735936  0.35658075  1
  S2-  S169  1  0.48592764  0.02230861  0.84155564  1
  S2-  S170  1  0.32966615  0.37220300  0.34579940  1
  S2-  S171  1  0.36180947  0.36029107  0.85741920  1
  S2-  S172  1  0.48461174  0.53198722  0.34893903  1
  S2-  S173  1  0.36965339  0.60397109  0.86207947  1
  S2-  S174  1  0.45685310  0.76751361  0.35430163  1
  S2-  S175  1  0.36502445  0.82517387  0.85027282  1
  S2-  S176  1  0.64081963  -0.09492969  0.35690504  1
  S2-  S177  1  0.73130996  0.01311660  0.83630230  1
  S2-  S178  1  0.51955719  0.25576404  0.35461614  1
  S2-  S179  1  0.62330003  0.23245662  0.83667390  1
  S2-  S180  1  0.68969145  0.45177918  0.33795301  1
  S2-  S181  1  0.60948230  0.60497145  0.86369151  1
  S2-  S182  1  0.64285938  0.69068379  0.31723397  1
  S2-  S183  1  0.60594211  0.83307251  0.84865123  1
  S2-  S184  1  0.88376150  -0.07931378  0.36362026  1
  S2-  S185  1  1.00709407  -0.00041950  0.84513720  1
  S2-  S186  1  0.87993595  0.33582439  0.36141573  1
  S2-  S187  1  0.88108089  0.18742031  0.84477763  1
  S2-  S188  1  0.90233038  0.53030042  0.32521480  1
  S2-  S189  1  0.88535858  0.59793120  0.86705271  1
  S2-  S190  1  0.85352759  0.72206873  0.30572955  1
  S2-  S191  1  0.86909148  0.83327748  0.84703198  1
  S2-  S192  1  -0.01084155  0.12650511  0.46019085  1
  S2-  S193  1  -0.01915698  0.10631861  0.95467382  1
  S2-  S194  1  -0.00659247  0.37586400  0.45973929  1
  S2-  S195  1  -0.02042389  0.35880437  0.94246487  1
  S2-  S196  1  -0.01469419  0.62851052  0.45534990  1
  S2-  S197  1  -0.01281423  0.61177557  0.97157831  1
  S2-  S198  1  -0.00814870  0.87444774  0.46845862  1
  S2-  S199  1  -0.01311713  0.86104707  0.95639278  1
  S2-  S200  1  0.23618884  0.12694418  0.45861689  1
  S2-  S201  1  0.23681333  0.10919047  0.94969394  1
  S2-  S202  1  0.23417350  0.37554102  0.45298200  1
  S2-  S203  1  0.23026992  0.35654331  0.95644903  1
  S2-  S204  1  0.23886843  0.63112967  0.43226093  1
  S2-  S205  1  0.23319738  0.60728854  0.96340001  1
  S2-  S206  1  0.23918456  0.87829003  0.44842011  1
  S2-  S207  1  0.23644669  0.86070414  0.95281655  1
  S2-  S208  1  0.49369797  0.12011445  0.45652212  1
  S2-  S209  1  0.48557378  0.10621089  0.95364527  1
  S2-  S210  1  0.49246666  0.37828984  0.44724450  1
  S2-  S211  1  0.49159080  0.35959374  0.95399080  1
  S2-  S212  1  0.49028748  0.63332341  0.45231217  1
  S2-  S213  1  0.48535648  0.60475863  0.96792271  1
  S2-  S214  1  0.48458647  0.88051796  0.45925780  1
  S2-  S215  1  0.48659530  0.86811187  0.95364963  1
  S2-  S216  1  0.73811500  0.12350929  0.47220155  1
  S2-  S217  1  0.73609239  0.10388744  0.94895247  1
  S2-  S218  1  0.73571750  0.37497666  0.45529891  1
  S2-  S219  1  0.73936774  0.36230310  0.94789078  1
  S2-  S220  1  0.74687623  0.63358803  0.43327687  1
  S2-  S221  1  0.73821179  0.60949105  0.96371390  1
  S2-  S222  1  0.74650766  0.86612256  0.46058750  1
  S2-  S223  1  0.73485409  0.86793242  0.95033387  1
  S2-  S224  1  0.10799879  -0.01517289  0.04114430  1
  S2-  S225  1  0.11997175  0.00357699  0.55078481  1
  S2-  S226  1  0.10503403  0.23913115  0.04614584  1
  S2-  S227  1  0.11416817  0.25034941  0.54628890  1
  S2-  S228  1  0.10889629  0.48078480  0.06174812  1
  S2-  S229  1  0.12018456  0.50642259  0.54186667  1
  S2-  S230  1  0.11695042  0.73101105  0.05463997  1
  S2-  S231  1  0.11837482  0.75251514  0.55132699  1
  S2-  S232  1  0.36179632  -0.00715001  0.05597373  1
  S2-  S233  1  0.36444641  0.00549171  0.53943475  1
  S2-  S234  1  0.35541299  0.23402866  0.03633167  1
  S2-  S235  1  0.37101728  0.25261437  0.53430639  1
  S2-  S236  1  0.35385590  0.47899676  0.04191448  1
  S2-  S237  1  0.36409613  0.50412366  0.53399674  1
  S2-  S238  1  0.35927537  0.73456289  0.04532506  1
  S2-  S239  1  0.35589038  0.74268737  0.53804713  1
  S2-  S240  1  0.60802011  -0.01032228  0.05439774  1
  S2-  S241  1  0.61146091  -0.00330078  0.55067824  1
  S2-  S242  1  0.61826402  0.23647758  0.04268542  1
  S2-  S243  1  0.61088398  0.25795094  0.54375949  1
  S2-  S244  1  0.61731558  0.48130880  0.04494796  1
  S2-  S245  1  0.61318711  0.50602049  0.53640415  1
  S2-  S246  1  0.60885589  0.73857208  0.04282670  1
  S2-  S247  1  0.60890399  0.75409437  0.54325601  1
  S2-  S248  1  0.85997616  -0.01926216  0.05038609  1
  S2-  S249  1  0.85938965  0.00288288  0.55760021  1
  S2-  S250  1  0.86313462  0.23645880  0.04190913  1
  S2-  S251  1  0.86255229  0.25258932  0.54888471  1
  S2-  S252  1  0.86831650  0.48120027  0.04643772  1
  S2-  S253  1  0.86094744  0.50353899  0.53295318  1
  S2-  S254  1  0.85597367  0.73971578  0.04424939  1
  S2-  S255  1  0.86966612  0.75236661  0.55773043  1
