# generated using pymatgen
data_La6Ce6Pr19Nd20Sm13(BiS2)64
_symmetry_space_group_name_H-M   'P 1'
_cell_length_a   16.13741944
_cell_length_b   16.09798789
_cell_length_c   27.18697228
_cell_angle_alpha   89.85549357
_cell_angle_beta   89.92154276
_cell_angle_gamma   90.03985509
_symmetry_Int_Tables_number   1
_chemical_formula_structural   La6Ce6Pr19Nd20Sm13(BiS2)64
_chemical_formula_sum   'La6 Ce6 Pr19 Nd20 Sm13 Bi64 S128'
_cell_volume   7062.60037707
_cell_formula_units_Z   1
loop_
 _symmetry_equiv_pos_site_id
 _symmetry_equiv_pos_as_xyz
  1  'x, y, z'
loop_
 _atom_type_symbol
 _atom_type_oxidation_number
  La3+  3.0
  Ce3+  3.0
  Pr3+  3.0
  Nd3+  3.0
  Sm3+  3.0
  Bi2+  2.0
  S2-  -2.0
loop_
 _atom_site_type_symbol
 _atom_site_label
 _atom_site_symmetry_multiplicity
 _atom_site_fract_x
 _atom_site_fract_y
 _atom_site_fract_z
 _atom_site_occupancy
  La3+  La0  1  0.50698376  0.63277337  0.08816684  1
  La3+  La1  1  0.87277951  0.50017963  0.42031875  1
  La3+  La2  1  0.25320731  0.62079427  0.60837713  1
  La3+  La3  1  0.13443814  0.00287716  0.92895782  1
  La3+  La4  1  0.64357010  0.26749803  0.89222685  1
  La3+  La5  1  0.38093823  0.51325639  0.42286834  1
  Ce3+  Ce6  1  0.75188830  0.37736756  0.06557827  1
  Ce3+  Ce7  1  0.75206297  0.87605961  0.56167241  1
  Ce3+  Ce8  1  0.50403745  0.12563001  0.55677428  1
  Ce3+  Ce9  1  0.25246189  0.12280172  0.55823429  1
  Ce3+  Ce10  1  0.62797293  0.50049063  0.95002616  1
  Ce3+  Ce11  1  0.25385603  0.63306096  0.06425925  1
  Pr3+  Pr12  1  0.00590510  0.37854917  0.55322909  1
  Pr3+  Pr13  1  0.00686491  0.12762302  0.06187187  1
  Pr3+  Pr14  1  0.13059758  0.00100201  0.43470429  1
  Pr3+  Pr15  1  0.63268240  0.74784568  0.94208399  1
  Pr3+  Pr16  1  0.13590213  0.26340927  0.42240780  1
  Pr3+  Pr17  1  0.25926609  0.36970600  0.09109384  1
  Pr3+  Pr18  1  0.38028786  0.75572524  0.43652682  1
  Pr3+  Pr19  1  0.88168446  0.00390958  0.43859729  1
  Pr3+  Pr20  1  0.75685041  0.88159789  0.06242656  1
  Pr3+  Pr21  1  0.76384312  0.63406183  0.08352576  1
  Pr3+  Pr22  1  0.63560294  0.76046493  0.42655326  1
  Pr3+  Pr23  1  0.50353215  0.37731128  0.55657852  1
  Pr3+  Pr24  1  0.38828436  0.74618004  0.92598821  1
  Pr3+  Pr25  1  0.37824484  0.50108154  0.95146293  1
  Pr3+  Pr26  1  0.00693764  0.37078060  0.08270118  1
  Pr3+  Pr27  1  0.00526954  0.62493841  0.56422925  1
  Pr3+  Pr28  1  0.87949530  0.00551775  0.92932484  1
  Pr3+  Pr29  1  0.63115700  0.00422895  0.93416412  1
  Pr3+  Pr30  1  0.38125688  0.25350483  0.43803966  1
  Nd3+  Nd31  1  0.00618242  0.62812691  0.06503536  1
  Nd3+  Nd32  1  0.12837917  0.51286825  0.42983531  1
  Nd3+  Nd33  1  0.87539661  0.74728233  0.93595754  1
  Nd3+  Nd34  1  0.37649125  0.25544027  0.93411118  1
  Nd3+  Nd35  1  0.50520284  0.62745308  0.56113034  1
  Nd3+  Nd36  1  0.25588670  0.38225279  0.55408471  1
  Nd3+  Nd37  1  0.75579389  0.37434162  0.56105802  1
  Nd3+  Nd38  1  0.25364538  0.87336903  0.05429769  1
  Nd3+  Nd39  1  0.25427499  0.87621537  0.56925578  1
  Nd3+  Nd40  1  0.50080885  0.37347930  0.06661141  1
  Nd3+  Nd41  1  0.75451988  0.11704307  0.57435625  1
  Nd3+  Nd42  1  0.75201110  0.12523548  0.05990507  1
  Nd3+  Nd43  1  0.87806813  0.25166283  0.43705266  1
  Nd3+  Nd44  1  0.50431932  0.87201037  0.56241454  1
  Nd3+  Nd45  1  0.75260713  0.62406728  0.56615718  1
  Nd3+  Nd46  1  0.87876878  0.49685902  0.94882619  1
  Nd3+  Nd47  1  0.00671090  0.13083747  0.55479156  1
  Nd3+  Nd48  1  0.00530064  0.87829999  0.56076117  1
  Nd3+  Nd49  1  0.12041074  0.74636677  0.92459145  1
  Nd3+  Nd50  1  0.13138006  0.75042361  0.43935988  1
  Sm3+  Sm51  1  0.87801199  0.75021216  0.45202646  1
  Sm3+  Sm52  1  0.62890102  0.50377101  0.43912815  1
  Sm3+  Sm53  1  0.50368404  0.87530599  0.05670183  1
  Sm3+  Sm54  1  0.13316926  0.25701810  0.94112821  1
  Sm3+  Sm55  1  0.13007097  0.49860053  0.95199847  1
  Sm3+  Sm56  1  0.62977070  0.25077791  0.44480802  1
  Sm3+  Sm57  1  0.38043103  -0.00164507  0.43742214  1
  Sm3+  Sm58  1  0.63265372  0.00436648  0.44155684  1
  Sm3+  Sm59  1  0.37922879  0.00108970  0.94205062  1
  Sm3+  Sm60  1  0.88106716  0.25386144  0.94576000  1
  Sm3+  Sm61  1  0.25508271  0.12476626  0.06091386  1
  Sm3+  Sm62  1  0.00563789  0.87978200  0.04897923  1
  Sm3+  Sm63  1  0.50375193  0.12941195  0.04753517  1
  Bi2+  Bi64  1  -0.05014224  0.13388809  0.27791268  1
  Bi2+  Bi65  1  0.02386137  0.16033014  0.76380390  1
  Bi2+  Bi66  1  -0.00197570  0.38737052  0.29303532  1
  Bi2+  Bi67  1  -0.01104034  0.32253135  0.82062559  1
  Bi2+  Bi68  1  -0.00826499  0.68597671  0.29587992  1
  Bi2+  Bi69  1  -0.03622525  0.60773223  0.78040285  1
  Bi2+  Bi70  1  0.01470490  0.88126996  0.28982928  1
  Bi2+  Bi71  1  -0.06953754  0.87836540  0.80524242  1
  Bi2+  Bi72  1  0.30577069  0.04838899  0.27631542  1
  Bi2+  Bi73  1  0.19356741  0.10955186  0.81227463  1
  Bi2+  Bi74  1  0.20306736  0.30747979  0.27793916  1
  Bi2+  Bi75  1  0.22124088  0.35844954  0.78187656  1
  Bi2+  Bi76  1  0.24065743  0.69437878  0.28063533  1
  Bi2+  Bi77  1  0.27085702  0.60777264  0.82320131  1
  Bi2+  Bi78  1  0.21163583  0.87817593  0.31800379  1
  Bi2+  Bi79  1  0.23802100  0.88639347  0.80189762  1
  Bi2+  Bi80  1  0.49971294  0.08534050  0.29232964  1
  Bi2+  Bi81  1  0.47480764  0.16574062  0.77718208  1
  Bi2+  Bi82  1  0.46997062  0.30787211  0.29025830  1
  Bi2+  Bi83  1  0.50488052  0.42688633  0.79139529  1
  Bi2+  Bi84  1  0.48827849  0.60339977  0.28994789  1
  Bi2+  Bi85  1  0.56630578  0.65925055  0.78067914  1
  Bi2+  Bi86  1  0.50027594  0.86874447  0.29069817  1
  Bi2+  Bi87  1  0.54592902  0.90383351  0.75876258  1
  Bi2+  Bi88  1  0.68865321  0.14445496  0.31708750  1
  Bi2+  Bi89  1  0.80670346  0.17315738  0.77152059  1
  Bi2+  Bi90  1  0.75216979  0.33077626  0.27765956  1
  Bi2+  Bi91  1  0.78509676  0.50287180  0.80220423  1
  Bi2+  Bi92  1  0.73928024  0.65440420  0.29396383  1
  Bi2+  Bi93  1  0.74543427  0.69285648  0.83099507  1
  Bi2+  Bi94  1  0.74874407  0.94250407  0.28387010  1
  Bi2+  Bi95  1  0.73135263  0.88964837  0.81042967  1
  Bi2+  Bi96  1  0.22641757  -0.02717342  0.17544480  1
  Bi2+  Bi97  1  0.12261506  0.01947233  0.69919329  1
  Bi2+  Bi98  1  0.09610347  0.11229556  0.19552589  1
  Bi2+  Bi99  1  0.15229055  0.24874838  0.68743834  1
  Bi2+  Bi100  1  0.08918400  0.53327185  0.20190557  1
  Bi2+  Bi101  1  0.06112785  0.43862824  0.73523601  1
  Bi2+  Bi102  1  0.12371164  0.79695150  0.20422637  1
  Bi2+  Bi103  1  0.11888562  0.74332653  0.71757760  1
  Bi2+  Bi104  1  0.42506360  -0.01942149  0.18858409  1
  Bi2+  Bi105  1  0.33132873  0.05355458  0.73453521  1
  Bi2+  Bi106  1  0.36847836  0.22123485  0.20871773  1
  Bi2+  Bi107  1  0.34074414  0.24924357  0.71036706  1
  Bi2+  Bi108  1  0.33448081  0.48022785  0.21824278  1
  Bi2+  Bi109  1  0.38108806  0.48319552  0.70770400  1
  Bi2+  Bi110  1  0.36920009  0.78978954  0.21307535  1
  Bi2+  Bi111  1  0.38058723  0.74296733  0.71789089  1
  Bi2+  Bi112  1  0.62629626  -0.00654876  0.20349738  1
  Bi2+  Bi113  1  0.65804462  0.03970165  0.70630220  1
  Bi2+  Bi114  1  0.61458921  0.19856875  0.21029687  1
  Bi2+  Bi115  1  0.61085171  0.27021792  0.69367406  1
  Bi2+  Bi116  1  0.64577586  0.48292906  0.23448013  1
  Bi2+  Bi117  1  0.64335694  0.51653824  0.72087826  1
  Bi2+  Bi118  1  0.63464262  0.75245208  0.20884847  1
  Bi2+  Bi119  1  0.63620094  0.77781210  0.68747745  1
  Bi2+  Bi120  1  0.92512554  0.01901396  0.18346101  1
  Bi2+  Bi121  1  0.91208403  -0.03933621  0.70512989  1
  Bi2+  Bi122  1  0.81426870  0.19063025  0.20472304  1
  Bi2+  Bi123  1  0.87580015  0.38882561  0.71268568  1
  Bi2+  Bi124  1  0.84203481  0.53096455  0.21444739  1
  Bi2+  Bi125  1  0.88201956  0.57860039  0.67556060  1
  Bi2+  Bi126  1  0.85434702  0.80345791  0.23496074  1
  Bi2+  Bi127  1  0.82054368  0.74629482  0.72216804  1
  S2-  S128  1  0.00828156  0.22704617  0.14534331  1
  S2-  S129  1  -0.01908476  0.08909477  0.65061309  1
  S2-  S130  1  -0.03278720  0.42428348  0.18248335  1
  S2-  S131  1  0.00896935  0.33285563  0.65065402  1
  S2-  S132  1  -0.09043280  0.62807826  0.14865805  1
  S2-  S133  1  0.09034013  0.62854142  0.65291636  1
  S2-  S134  1  -0.00003010  0.87032954  0.14708878  1
  S2-  S135  1  0.03141216  0.86064256  0.66008592  1
  S2-  S136  1  0.24774458  0.21083451  0.14527147  1
  S2-  S137  1  0.25712960  0.01330759  0.63750741  1
  S2-  S138  1  0.17496424  0.39185134  0.18527539  1
  S2-  S139  1  0.25707633  0.45281146  0.64508577  1
  S2-  S140  1  0.23027539  0.57161274  0.15856710  1
  S2-  S141  1  0.26540925  0.61183350  0.72667286  1
  S2-  S142  1  0.25874397  0.76632449  0.13303011  1
  S2-  S143  1  0.25278277  0.78392666  0.65614246  1
  S2-  S144  1  0.48593921  0.13763260  0.14583246  1
  S2-  S145  1  0.53267934  0.12059373  0.65396890  1
  S2-  S146  1  0.40681347  0.36987257  0.15259117  1
  S2-  S147  1  0.49462724  0.36744694  0.65752388  1
  S2-  S148  1  0.44245158  0.58536922  0.18692330  1
  S2-  S149  1  0.41717951  0.62226726  0.64908383  1
  S2-  S150  1  0.50039071  0.78857451  0.14288534  1
  S2-  S151  1  0.47671664  0.86041805  0.66124293  1
  S2-  S152  1  0.75861682  0.00879411  0.13581826  1
  S2-  S153  1  0.75786764  0.17587579  0.66884259  1
  S2-  S154  1  0.74219264  0.40544480  0.16258617  1
  S2-  S155  1  0.71995220  0.38942584  0.65852967  1
  S2-  S156  1  0.64389655  0.61068009  0.15783577  1
  S2-  S157  1  0.62995340  0.62394751  0.63844812  1
  S2-  S158  1  0.76080291  0.78351543  0.14748681  1
  S2-  S159  1  0.76246347  0.97002495  0.64441408  1
  S2-  S160  1  0.09967331  0.01092960  0.33592874  1
  S2-  S161  1  0.08463901  -0.03795542  0.83460752  1
  S2-  S162  1  0.07407210  0.23399107  0.32911691  1
  S2-  S163  1  0.24472739  0.25626957  0.86379831  1
  S2-  S164  1  0.14881729  0.41927519  0.34353890  1
  S2-  S165  1  0.17627506  0.48638205  0.85663778  1
  S2-  S166  1  0.12515951  0.64826774  0.35623425  1
  S2-  S167  1  0.15823668  0.74499140  0.82399485  1
  S2-  S168  1  0.37814882  -0.11529860  0.36251578  1
  S2-  S169  1  0.33765413  0.01428902  0.84765874  1
  S2-  S170  1  0.32787688  0.25110273  0.34241188  1
  S2-  S171  1  0.47525535  0.27678076  0.85064155  1
  S2-  S172  1  0.41463320  0.45465134  0.32473624  1
  S2-  S173  1  0.41497593  0.52428781  0.85203533  1
  S2-  S174  1  0.37114069  0.65216809  0.35044920  1
  S2-  S175  1  0.35129159  0.77593637  0.82337737  1
  S2-  S176  1  0.63312854  -0.08557703  0.35791275  1
  S2-  S177  1  0.59721782  -0.00239571  0.83525880  1
  S2-  S178  1  0.61894846  0.29384580  0.34965580  1
  S2-  S179  1  0.65076087  0.20964122  0.79280240  1
  S2-  S180  1  0.66588739  0.51589485  0.34271349  1
  S2-  S181  1  0.64270371  0.43463855  0.85738688  1
  S2-  S182  1  0.58060613  0.72459205  0.33141876  1
  S2-  S183  1  0.53298602  0.74481818  0.86045700  1
  S2-  S184  1  0.84860997  0.05358767  0.34458171  1
  S2-  S185  1  0.83813552  0.03264450  0.83246348  1
  S2-  S186  1  0.86587485  0.34884645  0.35399266  1
  S2-  S187  1  0.81705755  0.26990828  0.85499703  1
  S2-  S188  1  0.94620236  0.53081679  0.32884452  1
  S2-  S189  1  0.94126694  0.48415500  0.85534608  1
  S2-  S190  1  0.84030945  0.73942635  0.35690442  1
  S2-  S191  1  0.97429337  0.72942742  0.85501817  1
  S2-  S192  1  0.00722027  0.13228373  0.44723325  1
  S2-  S193  1  0.00711911  0.13181804  0.94727637  1
  S2-  S194  1  0.00493391  0.37944543  0.44771505  1
  S2-  S195  1  0.00746465  0.37373148  0.96616066  1
  S2-  S196  1  -0.00302847  0.62700380  0.45631898  1
  S2-  S197  1  0.00449984  0.62007344  0.95936731  1
  S2-  S198  1  0.00250536  0.87443526  0.45144601  1
  S2-  S199  1  0.00283130  0.87811737  0.94613749  1
  S2-  S200  1  0.25691214  0.12442062  0.44804252  1
  S2-  S201  1  0.25600566  0.12550737  0.95792527  1
  S2-  S202  1  0.25975381  0.38347345  0.44825883  1
  S2-  S203  1  0.25324982  0.37846530  0.96762063  1
  S2-  S204  1  0.25428845  0.62967602  0.45260073  1
  S2-  S205  1  0.25064182  0.62885187  0.95505099  1
  S2-  S206  1  0.25195134  0.87856048  0.46087026  1
  S2-  S207  1  0.25589049  0.87227251  0.94758165  1
  S2-  S208  1  0.50508636  0.12413642  0.44827641  1
  S2-  S209  1  0.50197992  0.12598964  0.94406825  1
  S2-  S210  1  0.50664022  0.37857096  0.44976404  1
  S2-  S211  1  0.50531553  0.37527780  0.96131048  1
  S2-  S212  1  0.51262623  0.63100712  0.45232975  1
  S2-  S213  1  0.50729740  0.62358127  0.96513380  1
  S2-  S214  1  0.50914951  0.88052267  0.45724953  1
  S2-  S215  1  0.50396361  0.88150202  0.95218781  1
  S2-  S216  1  0.75388805  0.12833097  0.46072773  1
  S2-  S217  1  0.75058442  0.13424872  0.95134078  1
  S2-  S218  1  0.74928543  0.37637225  0.45485372  1
  S2-  S219  1  0.75335326  0.37321616  0.96020841  1
  S2-  S220  1  0.75326154  0.62590707  0.45777914  1
  S2-  S221  1  0.75732570  0.62158794  0.96488054  1
  S2-  S222  1  0.75905138  0.88061608  0.45629185  1
  S2-  S223  1  0.75689989  0.87807395  0.95162806  1
  S2-  S224  1  0.13048509  0.00254850  0.04027431  1
  S2-  S225  1  0.12547420  0.00224158  0.54151721  1
  S2-  S226  1  0.13280315  0.25136697  0.04431184  1
  S2-  S227  1  0.13309596  0.25322439  0.53594000  1
  S2-  S228  1  0.12742194  0.49887725  0.05671100  1
  S2-  S229  1  0.12951909  0.50321270  0.54034386  1
  S2-  S230  1  0.12305672  0.75393387  0.03524961  1
  S2-  S231  1  0.12747284  0.75372146  0.54511226  1
  S2-  S232  1  0.38019466  0.00105284  0.04636940  1
  S2-  S233  1  0.38313593  -0.00050514  0.54138904  1
  S2-  S234  1  0.37856006  0.24845758  0.04220569  1
  S2-  S235  1  0.37698906  0.25035311  0.54647175  1
  S2-  S236  1  0.37855661  0.50601820  0.05743345  1
  S2-  S237  1  0.38312783  0.50249857  0.53809594  1
  S2-  S238  1  0.38407984  0.75315959  0.03541353  1
  S2-  S239  1  0.37904533  0.75252064  0.54528107  1
  S2-  S240  1  0.62322498  0.00248599  0.04109235  1
  S2-  S241  1  0.62702151  0.00017511  0.54624410  1
  S2-  S242  1  0.62767099  0.24948124  0.05902599  1
  S2-  S243  1  0.63138948  0.24843805  0.54940482  1
  S2-  S244  1  0.62527339  0.49907428  0.05516493  1
  S2-  S245  1  0.63122923  0.49754017  0.54350699  1
  S2-  S246  1  0.63166559  0.75485059  0.04684341  1
  S2-  S247  1  0.63225177  0.75375966  0.53870951  1
  S2-  S248  1  0.88401165  0.00549476  0.03596557  1
  S2-  S249  1  0.88275042  0.00292346  0.54392283  1
  S2-  S250  1  0.87553870  0.25068352  0.05012331  1
  S2-  S251  1  0.87806747  0.24972428  0.54556436  1
  S2-  S252  1  0.88303569  0.49575174  0.05379899  1
  S2-  S253  1  0.87674080  0.50037219  0.54119204  1
  S2-  S254  1  0.88443152  0.75592277  0.04116026  1
  S2-  S255  1  0.87826396  0.75255383  0.55699073  1
