# generated using pymatgen
data_La6Ce6Pr19Nd20Sm13(BiS2)64
_symmetry_space_group_name_H-M   'P 1'
_cell_length_a   16.13003493
_cell_length_b   16.00401680
_cell_length_c   27.50948287
_cell_angle_alpha   90.43977096
_cell_angle_beta   90.42219234
_cell_angle_gamma   89.98863382
_symmetry_Int_Tables_number   1
_chemical_formula_structural   La6Ce6Pr19Nd20Sm13(BiS2)64
_chemical_formula_sum   'La6 Ce6 Pr19 Nd20 Sm13 Bi64 S128'
_cell_volume   7101.04304115
_cell_formula_units_Z   1
loop_
 _symmetry_equiv_pos_site_id
 _symmetry_equiv_pos_as_xyz
  1  'x, y, z'
loop_
 _atom_type_symbol
 _atom_type_oxidation_number
  La3+  3.0
  Ce3+  3.0
  Pr3+  3.0
  Nd3+  3.0
  Sm3+  3.0
  Bi2+  2.0
  S2-  -2.0
loop_
 _atom_site_type_symbol
 _atom_site_label
 _atom_site_symmetry_multiplicity
 _atom_site_fract_x
 _atom_site_fract_y
 _atom_site_fract_z
 _atom_site_occupancy
  La3+  La0  1  0.74444241  0.37486186  0.07173517  1
  La3+  La1  1  0.24307677  0.38442225  0.07808358  1
  La3+  La2  1  0.49864652  0.62371813  0.08435171  1
  La3+  La3  1  0.51533164  0.12389419  0.57513023  1
  La3+  La4  1  0.12874867  0.48900507  0.38884311  1
  La3+  La5  1  0.36785932  -0.01217209  0.88915569  1
  Ce3+  Ce6  1  -0.00199691  0.38039401  0.06251262  1
  Ce3+  Ce7  1  0.13538216  -0.00950869  0.43501350  1
  Ce3+  Ce8  1  0.51051264  0.86395061  0.56818208  1
  Ce3+  Ce9  1  0.63272276  0.74133553  0.43551837  1
  Ce3+  Ce10  1  0.49588242  0.88309724  0.05777073  1
  Ce3+  Ce11  1  0.38433491  0.22959349  0.43451577  1
  Pr3+  Pr12  1  0.24899981  0.64610011  0.10740490  1
  Pr3+  Pr13  1  0.24689859  0.13600247  0.06279502  1
  Pr3+  Pr14  1  0.74666415  0.12893453  0.05658347  1
  Pr3+  Pr15  1  0.12169227  0.50606687  0.94930188  1
  Pr3+  Pr16  1  0.24486741  0.89035287  0.06917711  1
  Pr3+  Pr17  1  0.86719782  0.74985193  0.93804634  1
  Pr3+  Pr18  1  0.88066771  0.23491562  0.43231805  1
  Pr3+  Pr19  1  0.36974423  0.50101988  0.94486597  1
  Pr3+  Pr20  1  0.11864225  0.25301710  0.93729883  1
  Pr3+  Pr21  1  0.61880539  0.25799596  0.92687944  1
  Pr3+  Pr22  1  0.36223859  0.25533824  0.92655218  1
  Pr3+  Pr23  1  0.25775693  0.36501291  0.55021605  1
  Pr3+  Pr24  1  0.76673086  0.12022120  0.57509123  1
  Pr3+  Pr25  1  0.75979605  0.36608659  0.55992099  1
  Pr3+  Pr26  1  0.61965290  0.50231655  0.94163517  1
  Pr3+  Pr27  1  0.12482937  0.75515048  0.94319008  1
  Pr3+  Pr28  1  0.01023601  0.86484106  0.56251970  1
  Pr3+  Pr29  1  0.73841137  0.88454573  0.07306184  1
  Pr3+  Pr30  1  0.88352900  -0.01169670  0.43510587  1
  Nd3+  Nd31  1  0.01152994  0.36548412  0.54882443  1
  Nd3+  Nd32  1  0.25627639  0.86479771  0.56281288  1
  Nd3+  Nd33  1  0.37038497  0.75406395  0.94766273  1
  Nd3+  Nd34  1  0.50960519  0.61474461  0.55583711  1
  Nd3+  Nd35  1  0.61893426  0.00642731  0.92867307  1
  Nd3+  Nd36  1  0.88150694  0.48098166  0.42280276  1
  Nd3+  Nd37  1  0.38479013  -0.01579625  0.44626946  1
  Nd3+  Nd38  1  0.63469465  0.22732008  0.43053854  1
  Nd3+  Nd39  1  0.75877791  0.60891896  0.55578430  1
  Nd3+  Nd40  1  0.86893423  0.25715910  0.93271633  1
  Nd3+  Nd41  1  0.49553875  0.13611472  0.05101855  1
  Nd3+  Nd42  1  0.13532567  0.23421868  0.42867949  1
  Nd3+  Nd43  1  0.38077273  0.48773541  0.43797813  1
  Nd3+  Nd44  1  0.75969423  0.86673296  0.56062749  1
  Nd3+  Nd45  1  0.86815148  0.50349905  0.94026274  1
  Nd3+  Nd46  1  0.26371329  0.11727301  0.56756324  1
  Nd3+  Nd47  1  -0.00708884  0.87994060  0.06125060  1
  Nd3+  Nd48  1  0.61968291  0.75432159  0.94628565  1
  Nd3+  Nd49  1  0.86675185  -0.00669505  0.92588939  1
  Nd3+  Nd50  1  0.12232934  0.00239315  0.94092229  1
  Sm3+  Sm51  1  0.25876613  0.61276611  0.55872412  1
  Sm3+  Sm52  1  0.49428288  0.37559043  0.06483244  1
  Sm3+  Sm53  1  0.63203309  -0.01459151  0.44036354  1
  Sm3+  Sm54  1  -0.00647224  0.12881723  0.05152854  1
  Sm3+  Sm55  1  0.51116216  0.36291095  0.54622594  1
  Sm3+  Sm56  1  0.01308126  0.11401395  0.55857359  1
  Sm3+  Sm57  1  0.74482320  0.62887456  0.07124844  1
  Sm3+  Sm58  1  0.63235835  0.48615307  0.43123103  1
  Sm3+  Sm59  1  0.38187418  0.73685070  0.44569275  1
  Sm3+  Sm60  1  0.01080938  0.61020866  0.55268605  1
  Sm3+  Sm61  1  0.13287848  0.73760272  0.44107529  1
  Sm3+  Sm62  1  -0.00258025  0.63364606  0.06794762  1
  Sm3+  Sm63  1  0.88508358  0.73455602  0.44841427  1
  Bi2+  Bi64  1  -0.00826131  0.10213260  0.28711435  1
  Bi2+  Bi65  1  -0.01760097  0.19304629  0.82154160  1
  Bi2+  Bi66  1  -0.01397573  0.32008662  0.28796641  1
  Bi2+  Bi67  1  -0.02718947  0.42188405  0.79677889  1
  Bi2+  Bi68  1  -0.02119727  0.72131261  0.26753924  1
  Bi2+  Bi69  1  -0.01131591  0.61288250  0.75692893  1
  Bi2+  Bi70  1  -0.02168759  0.90712722  0.31268981  1
  Bi2+  Bi71  1  -0.01720154  0.99620651  0.80772440  1
  Bi2+  Bi72  1  0.26259145  0.04254904  0.29428747  1
  Bi2+  Bi73  1  0.23236492  0.13380223  0.79006555  1
  Bi2+  Bi74  1  0.27521378  0.35306978  0.28528922  1
  Bi2+  Bi75  1  0.25228358  0.39701461  0.79483655  1
  Bi2+  Bi76  1  0.29856095  0.63054857  0.31883516  1
  Bi2+  Bi77  1  0.18207895  0.61024131  0.79494461  1
  Bi2+  Bi78  1  0.17568210  0.87463649  0.32519959  1
  Bi2+  Bi79  1  0.22253602  0.85667655  0.79290998  1
  Bi2+  Bi80  1  0.51423444  0.16274847  0.30565194  1
  Bi2+  Bi81  1  0.49713697  0.09535912  0.78035280  1
  Bi2+  Bi82  1  0.47367468  0.37617239  0.23633682  1
  Bi2+  Bi83  1  0.48172042  0.34926957  0.73543746  1
  Bi2+  Bi84  1  0.58902083  0.66699757  0.30897607  1
  Bi2+  Bi85  1  0.49812507  0.51301635  0.81436783  1
  Bi2+  Bi86  1  0.49543123  0.89819144  0.30569857  1
  Bi2+  Bi87  1  0.55478480  0.84196973  0.76682788  1
  Bi2+  Bi88  1  0.74636369  0.19243160  0.30284475  1
  Bi2+  Bi89  1  0.77971389  0.15126956  0.81081913  1
  Bi2+  Bi90  1  0.85792124  0.46770058  0.27272075  1
  Bi2+  Bi91  1  0.73050343  0.41852645  0.78334774  1
  Bi2+  Bi92  1  0.78549308  0.65168850  0.29608761  1
  Bi2+  Bi93  1  0.72199606  0.60725149  0.81931268  1
  Bi2+  Bi94  1  0.75139420  0.92329704  0.26974523  1
  Bi2+  Bi95  1  0.75496452  0.84385329  0.80566649  1
  Bi2+  Bi96  1  0.12830690  -0.03856398  0.22191951  1
  Bi2+  Bi97  1  0.07220316  0.00217839  0.70783493  1
  Bi2+  Bi98  1  0.13801206  0.19252444  0.18998118  1
  Bi2+  Bi99  1  0.07871860  0.29244569  0.73497628  1
  Bi2+  Bi100  1  0.09559628  0.49450347  0.20470788  1
  Bi2+  Bi101  1  0.12820987  0.46724399  0.68186763  1
  Bi2+  Bi102  1  0.17009952  0.73635952  0.23973927  1
  Bi2+  Bi103  1  0.13320281  0.72744164  0.68553140  1
  Bi2+  Bi104  1  0.42354337  -0.00146041  0.21261386  1
  Bi2+  Bi105  1  0.33724213  -0.01549456  0.68126062  1
  Bi2+  Bi106  1  0.40628954  0.19562271  0.20773541  1
  Bi2+  Bi107  1  0.31448792  0.24564672  0.71641659  1
  Bi2+  Bi108  1  0.38244574  0.54559642  0.22196636  1
  Bi2+  Bi109  1  0.38741939  0.52521212  0.71005781  1
  Bi2+  Bi110  1  0.36384844  0.81186793  0.22897783  1
  Bi2+  Bi111  1  0.37040604  0.65548869  0.79792079  1
  Bi2+  Bi112  1  0.62506001  0.02238366  0.20645877  1
  Bi2+  Bi113  1  0.65880412  -0.02801529  0.71492573  1
  Bi2+  Bi114  1  0.64426416  0.29344144  0.20340916  1
  Bi2+  Bi115  1  0.64529818  0.24286024  0.70377060  1
  Bi2+  Bi116  1  0.63167954  0.53416446  0.22550605  1
  Bi2+  Bi117  1  0.60803015  0.49281639  0.69873629  1
  Bi2+  Bi118  1  0.61459708  0.78695675  0.22053046  1
  Bi2+  Bi119  1  0.62033353  0.68682608  0.70784839  1
  Bi2+  Bi120  1  0.89273674  -0.02698659  0.19936170  1
  Bi2+  Bi121  1  0.85720778  -0.00362487  0.71916652  1
  Bi2+  Bi122  1  0.87412323  0.21500235  0.21791510  1
  Bi2+  Bi123  1  0.87425163  0.20983123  0.72180638  1
  Bi2+  Bi124  1  0.90234672  0.59899591  0.18748933  1
  Bi2+  Bi125  1  0.86277093  0.48422548  0.70801054  1
  Bi2+  Bi126  1  0.81061871  0.77805781  0.19477467  1
  Bi2+  Bi127  1  0.81103082  0.69390952  0.72972395  1
  S2-  S128  1  -0.00814078  0.14276632  0.14910442  1
  S2-  S129  1  -0.05698294  0.09909261  0.64677132  1
  S2-  S130  1  0.07630187  0.36035583  0.14980730  1
  S2-  S131  1  0.00918833  0.35936953  0.64853446  1
  S2-  S132  1  0.08796212  0.64316240  0.15287456  1
  S2-  S133  1  0.01636436  0.60139737  0.65041093  1
  S2-  S134  1  0.01093895  0.87476188  0.15989518  1
  S2-  S135  1  0.02379037  0.84530655  0.66128370  1
  S2-  S136  1  0.20522272  0.04122716  0.14962569  1
  S2-  S137  1  0.18508385  0.07325867  0.65549465  1
  S2-  S138  1  0.26774151  0.25054302  0.14490185  1
  S2-  S139  1  0.24743846  0.35307858  0.65002818  1
  S2-  S140  1  0.25318589  0.49527200  0.16073502  1
  S2-  S141  1  0.24786410  0.59518925  0.65558993  1
  S2-  S142  1  0.24109177  0.80569797  0.15675455  1
  S2-  S143  1  0.25547785  0.82541067  0.65991298  1
  S2-  S144  1  0.51656274  0.24143959  0.13356015  1
  S2-  S145  1  0.38759037  0.13066539  0.64468697  1
  S2-  S146  1  0.48840990  0.47154610  0.14928543  1
  S2-  S147  1  0.52770210  0.29992003  0.63569376  1
  S2-  S148  1  0.40310898  0.67644416  0.16522965  1
  S2-  S149  1  0.48178020  0.63876030  0.65225530  1
  S2-  S150  1  0.59010596  0.88736167  0.14029342  1
  S2-  S151  1  0.49403857  0.90527934  0.66203966  1
  S2-  S152  1  0.75364611  0.23723991  0.13944848  1
  S2-  S153  1  0.64113675  0.10158826  0.64789837  1
  S2-  S154  1  0.72404262  0.43708172  0.16929282  1
  S2-  S155  1  0.77389762  0.26277785  0.64159399  1
  S2-  S156  1  0.64074781  0.64223408  0.15071942  1
  S2-  S157  1  0.74944868  0.49718642  0.63231600  1
  S2-  S158  1  0.75322220  1.02133169  0.13872867  1
  S2-  S159  1  0.76758699  0.87805019  0.65883896  1
  S2-  S160  1  0.14291675  0.10179419  0.35880982  1
  S2-  S161  1  0.19752923  -0.00384501  0.85216330  1
  S2-  S162  1  0.13723566  0.32396368  0.34155138  1
  S2-  S163  1  0.21235159  0.25865419  0.85372030  1
  S2-  S164  1  0.18780617  0.50079229  0.28943075  1
  S2-  S165  1  0.12087294  0.47672001  0.85035144  1
  S2-  S166  1  0.14004461  0.66283392  0.35480474  1
  S2-  S167  1  0.12043215  0.76206221  0.84193335  1
  S2-  S168  1  0.40730556  0.03559305  0.35318222  1
  S2-  S169  1  0.35318675  -0.02147552  0.77439448  1
  S2-  S170  1  0.36326806  0.25213898  0.33831770  1
  S2-  S171  1  0.38392811  0.14998701  0.84338884  1
  S2-  S172  1  0.38789011  0.49189292  0.33951387  1
  S2-  S173  1  0.37336595  0.39895088  0.85990776  1
  S2-  S174  1  0.39202029  0.77509060  0.35092093  1
  S2-  S175  1  0.35242663  0.81315865  0.85436535  1
  S2-  S176  1  0.64052810  0.09133510  0.36082321  1
  S2-  S177  1  0.52627634  -0.02593971  0.84308586  1
  S2-  S178  1  0.61852124  0.29036007  0.33466347  1
  S2-  S179  1  0.61697292  0.18027459  0.83267337  1
  S2-  S180  1  0.64956829  0.51254769  0.33495661  1
  S2-  S181  1  0.61477939  0.39832826  0.85877606  1
  S2-  S182  1  0.62879312  0.86311956  0.36520356  1
  S2-  S183  1  0.61459259  0.74888952  0.84643890  1
  S2-  S184  1  0.87156243  0.10640644  0.35943209  1
  S2-  S185  1  0.74032758  -0.00343594  0.85435738  1
  S2-  S186  1  0.85088733  0.34368216  0.35291508  1
  S2-  S187  1  0.85100310  0.38353162  0.86222281  1
  S2-  S188  1  0.97386514  0.51165301  0.33991635  1
  S2-  S189  1  0.86967200  0.62108400  0.86524745  1
  S2-  S190  1  0.87934583  0.76579082  0.35298078  1
  S2-  S191  1  0.89496291  0.85525018  0.85699514  1
  S2-  S192  1  0.00985174  0.11239176  0.45620794  1
  S2-  S193  1  -0.00871414  0.12470224  0.94785448  1
  S2-  S194  1  0.01324856  0.36384300  0.44499864  1
  S2-  S195  1  -0.00422630  0.38006848  0.95710070  1
  S2-  S196  1  0.00785671  0.61236017  0.45019476  1
  S2-  S197  1  -0.00296087  0.63173949  0.96391957  1
  S2-  S198  1  0.00865834  0.86100757  0.45553094  1
  S2-  S199  1  -0.00253239  0.87701962  0.95734075  1
  S2-  S200  1  0.26151604  0.11116858  0.46032111  1
  S2-  S201  1  0.24421946  0.12658990  0.95644706  1
  S2-  S202  1  0.25687171  0.36492091  0.44525942  1
  S2-  S203  1  0.24056911  0.37926752  0.96454575  1
  S2-  S204  1  0.25819228  0.61244767  0.45473236  1
  S2-  S205  1  0.24747207  0.62914207  0.94557210  1
  S2-  S206  1  0.25811901  0.86035354  0.45669413  1
  S2-  S207  1  0.24859625  0.88281772  0.96161066  1
  S2-  S208  1  0.50853016  0.10901286  0.46239576  1
  S2-  S209  1  0.49410757  0.13009955  0.94825670  1
  S2-  S210  1  0.50811633  0.36286559  0.44290667  1
  S2-  S211  1  0.49485609  0.37707852  0.96141873  1
  S2-  S212  1  0.50814404  0.61324411  0.44924874  1
  S2-  S213  1  0.49505504  0.62870011  0.95577597  1
  S2-  S214  1  0.50594633  0.85922486  0.46271378  1
  S2-  S215  1  0.49406247  0.88021845  0.95375053  1
  S2-  S216  1  0.75844431  0.10734187  0.46453673  1
  S2-  S217  1  0.74816814  0.13212168  0.95034335  1
  S2-  S218  1  0.75115404  0.36418553  0.45295870  1
  S2-  S219  1  0.74649751  0.37940657  0.96316060  1
  S2-  S220  1  0.75844688  0.61142819  0.44987725  1
  S2-  S221  1  0.74229462  0.62742996  0.96689239  1
  S2-  S222  1  0.76387113  0.86125938  0.45681604  1
  S2-  S223  1  0.74375636  0.87599748  0.96145215  1
  S2-  S224  1  0.11455946  0.00574423  0.04465326  1
  S2-  S225  1  0.13357824  -0.01100381  0.54282665  1
  S2-  S226  1  0.11535280  0.25296907  0.04228398  1
  S2-  S227  1  0.13392052  0.23647282  0.54264544  1
  S2-  S228  1  0.11877953  0.51141192  0.05298711  1
  S2-  S229  1  0.13491732  0.49202407  0.54464988  1
  S2-  S230  1  0.12260929  0.75659872  0.04911772  1
  S2-  S231  1  0.13398352  0.73540385  0.54548267  1
  S2-  S232  1  0.37572307  0.00992602  0.06104836  1
  S2-  S233  1  0.38427652  -0.01400762  0.55043073  1
  S2-  S234  1  0.37014407  0.25929247  0.03808182  1
  S2-  S235  1  0.38422522  0.24329732  0.53911379  1
  S2-  S236  1  0.36784511  0.50998063  0.04998864  1
  S2-  S237  1  0.38591030  0.48940538  0.54495463  1
  S2-  S238  1  0.37058430  0.75675995  0.05197017  1
  S2-  S239  1  0.38141005  0.73851762  0.54966304  1
  S2-  S240  1  0.61737255  0.00850143  0.03633305  1
  S2-  S241  1  0.63452835  -0.01463197  0.54555719  1
  S2-  S242  1  0.62275136  0.25629719  0.03412715  1
  S2-  S243  1  0.63720411  0.24163302  0.53654085  1
  S2-  S244  1  0.62216384  0.50298634  0.04812967  1
  S2-  S245  1  0.62849337  0.48920365  0.53525103  1
  S2-  S246  1  0.62009726  0.75209855  0.04862267  1
  S2-  S247  1  0.63707388  0.73758709  0.54691137  1
  S2-  S248  1  0.87289075  0.00267725  0.03770809  1
  S2-  S249  1  0.88556674  -0.01120754  0.54396203  1
  S2-  S250  1  0.87644477  0.25553674  0.03930097  1
  S2-  S251  1  0.89089394  0.23862326  0.53894528  1
  S2-  S252  1  0.87166796  0.50757695  0.05237761  1
  S2-  S253  1  0.88711983  0.48966890  0.53377800  1
  S2-  S254  1  0.86677385  0.75402436  0.05237738  1
  S2-  S255  1  0.88389859  0.73507455  0.55278934  1
