# generated using pymatgen
data_La6Ce6Pr19Nd20Sm13(BiS2)64
_symmetry_space_group_name_H-M   'P 1'
_cell_length_a   16.12901216
_cell_length_b   16.16188876
_cell_length_c   27.08097630
_cell_angle_alpha   90.01961994
_cell_angle_beta   89.95432474
_cell_angle_gamma   90.04274954
_symmetry_Int_Tables_number   1
_chemical_formula_structural   La6Ce6Pr19Nd20Sm13(BiS2)64
_chemical_formula_sum   'La6 Ce6 Pr19 Nd20 Sm13 Bi64 S128'
_cell_volume   7059.33701115
_cell_formula_units_Z   1
loop_
 _symmetry_equiv_pos_site_id
 _symmetry_equiv_pos_as_xyz
  1  'x, y, z'
loop_
 _atom_type_symbol
 _atom_type_oxidation_number
  La3+  3.0
  Ce3+  3.0
  Pr3+  3.0
  Nd3+  3.0
  Sm3+  3.0
  Bi2+  2.0
  S2-  -2.0
loop_
 _atom_site_type_symbol
 _atom_site_label
 _atom_site_symmetry_multiplicity
 _atom_site_fract_x
 _atom_site_fract_y
 _atom_site_fract_z
 _atom_site_occupancy
  La3+  La0  1  -0.00927284  0.38209495  0.07737666  1
  La3+  La1  1  0.36760107  0.75888455  0.91840780  1
  La3+  La2  1  -0.01446002  0.88438979  0.58593179  1
  La3+  La3  1  0.36738326  0.49110516  0.91310793  1
  La3+  La4  1  -0.00207312  0.87992232  0.06854832  1
  La3+  La5  1  0.24888466  0.14645050  0.11346726  1
  Ce3+  Ce6  1  0.11544095  0.50908059  0.43566382  1
  Ce3+  Ce7  1  0.49265155  0.62977401  0.04502165  1
  Ce3+  Ce8  1  0.49288845  0.12578025  0.05747852  1
  Ce3+  Ce9  1  0.73927326  0.63080549  0.56394183  1
  Ce3+  Ce10  1  0.36746711  0.00495740  0.93611806  1
  Ce3+  Ce11  1  0.73718187  0.13339175  0.56597562  1
  Pr3+  Pr12  1  0.48626813  0.87931446  0.57102972  1
  Pr3+  Pr13  1  0.86512545  0.25301353  0.43051533  1
  Pr3+  Pr14  1  0.74467672  0.62936498  0.04919339  1
  Pr3+  Pr15  1  0.48685338  0.13214045  0.56008011  1
  Pr3+  Pr16  1  0.62261230  0.25144055  0.94434835  1
  Pr3+  Pr17  1  0.36494189  -0.00799142  0.42939189  1
  Pr3+  Pr18  1  0.73488091  0.88825959  0.57757992  1
  Pr3+  Pr19  1  0.36504561  0.25299511  0.43735007  1
  Pr3+  Pr20  1  0.87105926  0.49958079  0.93061405  1
  Pr3+  Pr21  1  0.23205896  0.61477049  0.59908639  1
  Pr3+  Pr22  1  0.10620078  -0.01174229  0.41905785  1
  Pr3+  Pr23  1  0.61213294  0.51626836  0.44029267  1
  Pr3+  Pr24  1  -0.00904327  0.13152664  0.56345485  1
  Pr3+  Pr25  1  0.11012452  0.25399297  0.42270652  1
  Pr3+  Pr26  1  0.25051316  0.87984039  0.07693823  1
  Pr3+  Pr27  1  0.62265340  0.75539567  0.93129456  1
  Pr3+  Pr28  1  0.48911665  0.62518581  0.57981514  1
  Pr3+  Pr29  1  0.49140385  0.37865567  0.05965929  1
  Pr3+  Pr30  1  0.88234304  0.00505499  0.91667539  1
  Nd3+  Nd31  1  0.74699149  0.37771954  0.05914354  1
  Nd3+  Nd32  1  0.36326221  0.50878168  0.44104934  1
  Nd3+  Nd33  1  0.23699022  0.89159781  0.57607922  1
  Nd3+  Nd34  1  0.61582152  0.76143533  0.43942587  1
  Nd3+  Nd35  1  -0.00798358  0.62947989  0.56619623  1
  Nd3+  Nd36  1  0.74287429  0.37652191  0.56579902  1
  Nd3+  Nd37  1  0.48548676  0.38116281  0.56355928  1
  Nd3+  Nd38  1  0.36120922  0.75601964  0.45809672  1
  Nd3+  Nd39  1  -0.00464679  0.12810106  0.06897621  1
  Nd3+  Nd40  1  -0.00486922  0.62922463  0.05094385  1
  Nd3+  Nd41  1  0.86349471  0.00372517  0.44316688  1
  Nd3+  Nd42  1  0.62414043  0.00501748  0.93436769  1
  Nd3+  Nd43  1  0.11835512  0.49923074  0.93393406  1
  Nd3+  Nd44  1  0.12217560  0.00526408  0.94743285  1
  Nd3+  Nd45  1  0.12047980  0.75569554  0.93601948  1
  Nd3+  Nd46  1  0.74913007  0.88100498  0.06311847  1
  Nd3+  Nd47  1  0.24707845  0.38920100  0.06615698  1
  Nd3+  Nd48  1  0.87596026  0.25239204  0.93321141  1
  Nd3+  Nd49  1  0.61609669  0.26478364  0.43477154  1
  Nd3+  Nd50  1  0.86388659  0.50879717  0.44203508  1
  Sm3+  Sm51  1  0.12169573  0.25299716  0.95460906  1
  Sm3+  Sm52  1  0.24830007  0.62595124  0.04797703  1
  Sm3+  Sm53  1  0.75171609  0.12446920  0.05968247  1
  Sm3+  Sm54  1  0.49354859  0.87758232  0.05027717  1
  Sm3+  Sm55  1  0.86670657  0.76080621  0.45219880  1
  Sm3+  Sm56  1  0.36924146  0.25019168  0.94145395  1
  Sm3+  Sm57  1  0.23568330  0.12658030  0.54974540  1
  Sm3+  Sm58  1  0.61936029  0.50156140  0.93819732  1
  Sm3+  Sm59  1  -0.00830982  0.37936293  0.55083220  1
  Sm3+  Sm60  1  0.87159369  0.75600483  0.93604059  1
  Sm3+  Sm61  1  0.23602383  0.37949774  0.55494997  1
  Sm3+  Sm62  1  0.61319000  0.00419689  0.44000035  1
  Sm3+  Sm63  1  0.11448795  0.75775479  0.45757972  1
  Bi2+  Bi64  1  -0.10214517  0.12644146  0.29996351  1
  Bi2+  Bi65  1  -0.00591356  0.16830760  0.78331704  1
  Bi2+  Bi66  1  -0.02912613  0.41432965  0.29214748  1
  Bi2+  Bi67  1  -0.01669498  0.36540773  0.80789052  1
  Bi2+  Bi68  1  0.00374073  0.66947123  0.25389354  1
  Bi2+  Bi69  1  -0.01781232  0.55551728  0.73989121  1
  Bi2+  Bi70  1  -0.02055064  0.84573452  0.30171994  1
  Bi2+  Bi71  1  0.00467622  0.86819963  0.80058316  1
  Bi2+  Bi72  1  0.30058672  0.12961468  0.31858026  1
  Bi2+  Bi73  1  0.23345482  0.09035950  0.81149449  1
  Bi2+  Bi74  1  0.26537454  0.40525478  0.30934101  1
  Bi2+  Bi75  1  0.24044558  0.28488015  0.78396843  1
  Bi2+  Bi76  1  0.28761373  0.61335496  0.28303840  1
  Bi2+  Bi77  1  0.24440768  0.62137661  0.80007748  1
  Bi2+  Bi78  1  0.25359317  0.88067929  0.30576426  1
  Bi2+  Bi79  1  0.24865824  0.91172872  0.77225114  1
  Bi2+  Bi80  1  0.52173055  0.08129039  0.23243489  1
  Bi2+  Bi81  1  0.43024262  0.11319147  0.82226469  1
  Bi2+  Bi82  1  0.51719198  0.38685345  0.30058361  1
  Bi2+  Bi83  1  0.49973401  0.29011796  0.79446362  1
  Bi2+  Bi84  1  0.57609729  0.65179804  0.26189339  1
  Bi2+  Bi85  1  0.51593777  0.61410989  0.78699145  1
  Bi2+  Bi86  1  0.51749041  0.83297763  0.28932927  1
  Bi2+  Bi87  1  0.49211647  0.93959719  0.78624197  1
  Bi2+  Bi88  1  0.70414661  0.11558556  0.30802644  1
  Bi2+  Bi89  1  0.76005228  0.19764720  0.77475184  1
  Bi2+  Bi90  1  0.74727125  0.33780467  0.29033128  1
  Bi2+  Bi91  1  0.79063228  0.38256751  0.81102468  1
  Bi2+  Bi92  1  0.75717720  0.64447304  0.30382425  1
  Bi2+  Bi93  1  0.76455228  0.58608742  0.76000611  1
  Bi2+  Bi94  1  0.72441157  0.91858694  0.28016134  1
  Bi2+  Bi95  1  0.75598964  0.81715401  0.79774618  1
  Bi2+  Bi96  1  0.12656145  -0.00713571  0.21518673  1
  Bi2+  Bi97  1  0.11937939  0.04184737  0.71643421  1
  Bi2+  Bi98  1  0.12754538  0.26433978  0.22345850  1
  Bi2+  Bi99  1  0.12130605  0.23345868  0.68735238  1
  Bi2+  Bi100  1  0.13953775  0.53880290  0.20863338  1
  Bi2+  Bi101  1  0.13045526  0.42099894  0.73263138  1
  Bi2+  Bi102  1  0.17725908  0.75348191  0.22268176  1
  Bi2+  Bi103  1  0.14040106  0.72515697  0.72122183  1
  Bi2+  Bi104  1  0.38826429  -0.06181042  0.22672158  1
  Bi2+  Bi105  1  0.36069052  0.07296493  0.71172935  1
  Bi2+  Bi106  1  0.38985488  0.27356317  0.21158916  1
  Bi2+  Bi107  1  0.37888237  0.27010550  0.69449958  1
  Bi2+  Bi108  1  0.39564501  0.51623933  0.19873490  1
  Bi2+  Bi109  1  0.36859961  0.46444613  0.70853430  1
  Bi2+  Bi110  1  0.36971792  0.72187076  0.19906828  1
  Bi2+  Bi111  1  0.39329428  0.77345934  0.71432446  1
  Bi2+  Bi112  1  0.67387857  0.01312068  0.16864689  1
  Bi2+  Bi113  1  0.62515274  0.06651504  0.74305442  1
  Bi2+  Bi114  1  0.66153433  0.21705187  0.20725401  1
  Bi2+  Bi115  1  0.57943062  0.26601797  0.68532308  1
  Bi2+  Bi116  1  0.69515775  0.50343794  0.22539766  1
  Bi2+  Bi117  1  0.62934182  0.43512769  0.74133463  1
  Bi2+  Bi118  1  0.62993398  0.82232716  0.18817996  1
  Bi2+  Bi119  1  0.64072829  0.78497308  0.71008642  1
  Bi2+  Bi120  1  0.86518264  -0.00328708  0.21180495  1
  Bi2+  Bi121  1  0.85163685  -0.00089409  0.71139002  1
  Bi2+  Bi122  1  0.85767923  0.24953486  0.21176065  1
  Bi2+  Bi123  1  0.92216728  0.24194660  0.68614453  1
  Bi2+  Bi124  1  0.88594218  0.51522073  0.20111892  1
  Bi2+  Bi125  1  0.81208352  0.43113150  0.69370837  1
  Bi2+  Bi126  1  0.80981874  0.75568271  0.21022748  1
  Bi2+  Bi127  1  0.88893632  0.71568933  0.70509203  1
  S2-  S128  1  0.08277248  0.13321205  0.16070472  1
  S2-  S129  1  -0.01261299  0.02895625  0.64783964  1
  S2-  S130  1  0.06378580  0.39031796  0.17299390  1
  S2-  S131  1  -0.03326815  0.39478721  0.64806257  1
  S2-  S132  1  0.00799897  0.61787831  0.15020664  1
  S2-  S133  1  0.07877979  0.61078322  0.65286958  1
  S2-  S134  1  0.10450023  0.86600864  0.15093678  1
  S2-  S135  1  0.02830519  0.82040922  0.68420814  1
  S2-  S136  1  0.26287819  0.15661768  0.22474522  1
  S2-  S137  1  0.24227596  0.04258760  0.63695001  1
  S2-  S138  1  0.25784285  0.31161546  0.15748192  1
  S2-  S139  1  0.22897805  0.44984626  0.64514748  1
  S2-  S140  1  0.25483548  0.53088503  0.13205710  1
  S2-  S141  1  0.30643809  0.63428129  0.69168516  1
  S2-  S142  1  0.25912794  0.98924586  0.15874378  1
  S2-  S143  1  0.25335464  0.83587931  0.67288399  1
  S2-  S144  1  0.42905143  0.14281408  0.14787771  1
  S2-  S145  1  0.51814707  0.10497944  0.65882183  1
  S2-  S146  1  0.49034990  0.38821943  0.16135045  1
  S2-  S147  1  0.48693225  0.48320423  0.64427441  1
  S2-  S148  1  0.49143169  0.62095629  0.14319685  1
  S2-  S149  1  0.52111592  0.67525098  0.68022887  1
  S2-  S150  1  0.40579776  0.85164446  0.13408162  1
  S2-  S151  1  0.52975987  0.88371630  0.66999405  1
  S2-  S152  1  0.86244913  0.12364690  0.13750501  1
  S2-  S153  1  0.73098752  0.02938166  0.64825945  1
  S2-  S154  1  0.84657323  0.38074413  0.14071535  1
  S2-  S155  1  0.74111806  0.25410122  0.63812220  1
  S2-  S156  1  0.76422785  0.61422389  0.14934730  1
  S2-  S157  1  0.73561032  0.65174274  0.66213295  1
  S2-  S158  1  0.86735373  0.86990624  0.13992140  1
  S2-  S159  1  0.83836214  0.86175795  0.65937497  1
  S2-  S160  1  0.15841510  0.03072189  0.32087173  1
  S2-  S161  1  0.03699950  -0.01183598  0.85984798  1
  S2-  S162  1  0.18149001  0.26820550  0.32844158  1
  S2-  S163  1  0.09662638  0.25519935  0.85607141  1
  S2-  S164  1  0.11162178  0.47625624  0.33858360  1
  S2-  S165  1  0.16904127  0.49506166  0.83878638  1
  S2-  S166  1  0.11408034  0.82566347  0.36661083  1
  S2-  S167  1  0.13300114  0.75784698  0.83474621  1
  S2-  S168  1  0.43409199  0.04822715  0.34161432  1
  S2-  S169  1  0.35103750  -0.09460737  0.85396046  1
  S2-  S170  1  0.38779782  0.28536384  0.33783576  1
  S2-  S171  1  0.35761098  0.33428463  0.85643353  1
  S2-  S172  1  0.40709022  0.50735361  0.34330168  1
  S2-  S173  1  0.37859333  0.51994711  0.81063949  1
  S2-  S174  1  0.37399627  0.83310097  0.36757720  1
  S2-  S175  1  0.38895971  0.71741156  0.81813434  1
  S2-  S176  1  0.62345738  -0.11293049  0.36601751  1
  S2-  S177  1  0.63383278  -0.02366307  0.83522026  1
  S2-  S178  1  0.59126739  0.23806576  0.33694255  1
  S2-  S179  1  0.63197477  0.21999147  0.84521416  1
  S2-  S180  1  0.64315968  0.42816513  0.35476355  1
  S2-  S181  1  0.58613278  0.48954119  0.84245995  1
  S2-  S182  1  0.60995178  0.64409967  0.36513508  1
  S2-  S183  1  0.60849751  0.73809915  0.83065435  1
  S2-  S184  1  0.95674368  -0.01498263  0.35878879  1
  S2-  S185  1  0.85010212  -0.05099352  0.81496570  1
  S2-  S186  1  0.97389862  0.26356704  0.35076973  1
  S2-  S187  1  0.86649073  0.14870838  0.85363865  1
  S2-  S188  1  0.87681368  0.51813717  0.34187178  1
  S2-  S189  1  0.92499704  0.52539637  0.83588659  1
  S2-  S190  1  0.85447990  0.77203174  0.35368353  1
  S2-  S191  1  0.89833330  0.74763033  0.83830892  1
  S2-  S192  1  -0.00920729  0.12781327  0.45405267  1
  S2-  S193  1  -0.00194086  0.13113758  0.96032157  1
  S2-  S194  1  -0.01044253  0.38481362  0.44865923  1
  S2-  S195  1  -0.00433973  0.37720721  0.95840906  1
  S2-  S196  1  -0.01057733  0.63481578  0.45678341  1
  S2-  S197  1  -0.00430436  0.63008181  0.94483856  1
  S2-  S198  1  -0.01243594  0.87789318  0.47087294  1
  S2-  S199  1  -0.00477226  0.87323168  0.95794281  1
  S2-  S200  1  0.23857419  0.12471629  0.44491997  1
  S2-  S201  1  0.24460376  0.13141831  0.94828176  1
  S2-  S202  1  0.23912784  0.38038509  0.44970382  1
  S2-  S203  1  0.24184241  0.37769404  0.95730460  1
  S2-  S204  1  0.23795093  0.63548929  0.44462873  1
  S2-  S205  1  0.24493031  0.62582449  0.94285435  1
  S2-  S206  1  0.23662373  0.88048384  0.46743608  1
  S2-  S207  1  0.24111291  0.87843498  0.95823855  1
  S2-  S208  1  0.49483973  0.13132140  0.45275517  1
  S2-  S209  1  0.49625424  0.12792787  0.95162245  1
  S2-  S210  1  0.48714928  0.38355409  0.45646618  1
  S2-  S211  1  0.49826266  0.37614905  0.95198892  1
  S2-  S212  1  0.48423735  0.63370452  0.46804003  1
  S2-  S213  1  0.49522300  0.62640869  0.93897999  1
  S2-  S214  1  0.49198552  0.88021491  0.46483291  1
  S2-  S215  1  0.49893345  0.88030522  0.94594297  1
  S2-  S216  1  0.73708450  0.12957936  0.45207771  1
  S2-  S217  1  0.74797801  0.12663959  0.95488905  1
  S2-  S218  1  0.74503939  0.38081010  0.45777245  1
  S2-  S219  1  0.74532230  0.37834892  0.95241825  1
  S2-  S220  1  0.74497496  0.63631430  0.45920025  1
  S2-  S221  1  0.74628892  0.62651900  0.94039740  1
  S2-  S222  1  0.74177732  0.88163461  0.46710703  1
  S2-  S223  1  0.74940485  0.87987097  0.94887561  1
  S2-  S224  1  0.12322932  0.00805985  0.05145629  1
  S2-  S225  1  0.11243831  0.00612846  0.54173813  1
  S2-  S226  1  0.12011358  0.25884759  0.05756430  1
  S2-  S227  1  0.11549624  0.25544075  0.53744035  1
  S2-  S228  1  0.11657642  0.50514624  0.04143854  1
  S2-  S229  1  0.11424207  0.50470708  0.54196636  1
  S2-  S230  1  0.12523564  0.74759137  0.04394273  1
  S2-  S231  1  0.11959518  0.75430170  0.56030801  1
  S2-  S232  1  0.37297684  0.00214005  0.04180000  1
  S2-  S233  1  0.36605652  0.00598305  0.54161714  1
  S2-  S234  1  0.36664040  0.25396250  0.04559535  1
  S2-  S235  1  0.35835245  0.25505103  0.54584405  1
  S2-  S236  1  0.37349169  0.50408118  0.02964184  1
  S2-  S237  1  0.35570273  0.50782378  0.54691162  1
  S2-  S238  1  0.36863189  0.74961497  0.03026529  1
  S2-  S239  1  0.35995000  0.75091255  0.56402275  1
  S2-  S240  1  0.62020714  0.00081862  0.04175017  1
  S2-  S241  1  0.60909210  0.00574397  0.54469746  1
  S2-  S242  1  0.62333062  0.25063062  0.05270480  1
  S2-  S243  1  0.60939238  0.25921620  0.54239852  1
  S2-  S244  1  0.62086360  0.50128001  0.04500138  1
  S2-  S245  1  0.61927313  0.50213394  0.54826678  1
  S2-  S246  1  0.62114987  0.75729640  0.04029017  1
  S2-  S247  1  0.61390300  0.75605930  0.55347569  1
  S2-  S248  1  0.87023649  0.00195000  0.03605402  1
  S2-  S249  1  0.86237908  0.00901000  0.54720200  1
  S2-  S250  1  0.86912936  0.25334289  0.04004448  1
  S2-  S251  1  0.86931847  0.25650097  0.53811482  1
  S2-  S252  1  0.87026463  0.50558964  0.03858547  1
  S2-  S253  1  0.86686994  0.50515259  0.54940785  1
  S2-  S254  1  0.86953269  0.75154705  0.04041731  1
  S2-  S255  1  0.86679263  0.75282494  0.55644977  1
