# generated using pymatgen
data_La6Ce6Pr19Nd20Sm13(BiS2)64
_symmetry_space_group_name_H-M   'P 1'
_cell_length_a   16.14432848
_cell_length_b   16.09786089
_cell_length_c   27.15982080
_cell_angle_alpha   89.90388712
_cell_angle_beta   89.98963314
_cell_angle_gamma   89.91372765
_symmetry_Int_Tables_number   1
_chemical_formula_structural   La6Ce6Pr19Nd20Sm13(BiS2)64
_chemical_formula_sum   'La6 Ce6 Pr19 Nd20 Sm13 Bi64 S128'
_cell_volume   7058.52480695
_cell_formula_units_Z   1
loop_
 _symmetry_equiv_pos_site_id
 _symmetry_equiv_pos_as_xyz
  1  'x, y, z'
loop_
 _atom_type_symbol
 _atom_type_oxidation_number
  La3+  3.0
  Ce3+  3.0
  Pr3+  3.0
  Nd3+  3.0
  Sm3+  3.0
  Bi2+  2.0
  S2-  -2.0
loop_
 _atom_site_type_symbol
 _atom_site_label
 _atom_site_symmetry_multiplicity
 _atom_site_fract_x
 _atom_site_fract_y
 _atom_site_fract_z
 _atom_site_occupancy
  La3+  La0  1  0.75384856  0.63514118  0.08273446  1
  La3+  La1  1  0.01207310  0.13588482  0.11038448  1
  La3+  La2  1  0.75742042  0.38469293  0.07114390  1
  La3+  La3  1  0.51486786  0.39322848  0.58317137  1
  La3+  La4  1  0.49057167  0.63336205  0.09053204  1
  La3+  La5  1  0.12208358  0.51146477  0.91940179  1
  Ce3+  Ce6  1  0.63474861  0.27015195  0.43584715  1
  Ce3+  Ce7  1  0.38930277  0.51519453  0.44555529  1
  Ce3+  Ce8  1  0.37369819  0.25980773  0.94000515  1
  Ce3+  Ce9  1  0.75813248  0.89105194  0.54948191  1
  Ce3+  Ce10  1  0.25169042  0.13504430  0.06099970  1
  Ce3+  Ce11  1  0.13792554  0.75881145  0.43502889  1
  Pr3+  Pr12  1  0.00878960  0.88792644  0.55296537  1
  Pr3+  Pr13  1  0.26043208  0.14071529  0.57187191  1
  Pr3+  Pr14  1  -0.00022529  0.88441440  0.07233855  1
  Pr3+  Pr15  1  0.00536058  0.38279576  0.57021036  1
  Pr3+  Pr16  1  0.00840489  0.14180200  0.56036120  1
  Pr3+  Pr17  1  0.50069795  0.13494762  0.06930552  1
  Pr3+  Pr18  1  0.63423665  0.01438753  0.41912626  1
  Pr3+  Pr19  1  0.74526619  0.88316995  0.06318349  1
  Pr3+  Pr20  1  0.62336924  0.25802677  0.93536264  1
  Pr3+  Pr21  1  0.14206995  0.27203965  0.42844539  1
  Pr3+  Pr22  1  0.89360318  0.26468089  0.42148345  1
  Pr3+  Pr23  1  0.24629882  0.63246300  0.05801114  1
  Pr3+  Pr24  1  0.51085090  0.64173207  0.55990865  1
  Pr3+  Pr25  1  0.00128527  0.63184331  0.06221724  1
  Pr3+  Pr26  1  0.74778799  0.13472114  0.06883377  1
  Pr3+  Pr27  1  0.61859928  0.50530707  0.90280319  1
  Pr3+  Pr28  1  0.37816377  0.76209441  0.93543776  1
  Pr3+  Pr29  1  0.75965744  0.38709675  0.56246155  1
  Pr3+  Pr30  1  0.88594800  0.76449345  0.43427327  1
  Nd3+  Nd31  1  0.87103102  0.26044419  0.94013654  1
  Nd3+  Nd32  1  0.75783837  0.63718068  0.55783768  1
  Nd3+  Nd33  1  0.38292465  0.01525149  0.44326184  1
  Nd3+  Nd34  1  0.25056847  0.38577429  0.05784217  1
  Nd3+  Nd35  1  0.00868319  0.63894088  0.56152467  1
  Nd3+  Nd36  1  0.38311796  0.26778224  0.44431417  1
  Nd3+  Nd37  1  0.75865685  0.13961579  0.54754088  1
  Nd3+  Nd38  1  0.25760156  0.39026544  0.56979866  1
  Nd3+  Nd39  1  0.62419548  0.00901244  0.93553065  1
  Nd3+  Nd40  1  0.12105650  0.75999781  0.93389992  1
  Nd3+  Nd41  1  0.63657265  0.51787730  0.42734035  1
  Nd3+  Nd42  1  0.51315839  0.89145418  0.55533506  1
  Nd3+  Nd43  1  0.13691071  0.51649687  0.43731766  1
  Nd3+  Nd44  1  0.63335515  0.76505009  0.42642982  1
  Nd3+  Nd45  1  0.26029611  0.88490700  0.57025348  1
  Nd3+  Nd46  1  0.37342237  0.51914571  0.92223507  1
  Nd3+  Nd47  1  0.24844063  0.88312613  0.05960690  1
  Nd3+  Nd48  1  0.25845319  0.63699074  0.56933298  1
  Nd3+  Nd49  1  0.86899586  0.51423844  0.93077239  1
  Nd3+  Nd50  1  0.38261607  0.76570398  0.43503477  1
  Sm3+  Sm51  1  0.13820121  0.01642746  0.44295294  1
  Sm3+  Sm52  1  0.88421234  0.51325690  0.44165254  1
  Sm3+  Sm53  1  0.62294841  0.74935305  0.94735803  1
  Sm3+  Sm54  1  0.37424286  0.00452896  0.94419954  1
  Sm3+  Sm55  1  0.11845950  0.01056031  0.94622889  1
  Sm3+  Sm56  1  -0.00086636  0.38384350  0.05675377  1
  Sm3+  Sm57  1  0.12163879  0.25634666  0.94620244  1
  Sm3+  Sm58  1  0.49843104  0.88087627  0.06734450  1
  Sm3+  Sm59  1  0.50291182  0.39055670  0.05211173  1
  Sm3+  Sm60  1  0.88794214  0.01629900  0.43556756  1
  Sm3+  Sm61  1  0.51282394  0.13951078  0.54962256  1
  Sm3+  Sm62  1  0.87056731  0.75692858  0.94424638  1
  Sm3+  Sm63  1  0.87306761  0.00907435  0.94889613  1
  Bi2+  Bi64  1  0.02266105  0.10683000  0.28806170  1
  Bi2+  Bi65  1  -0.01834995  0.06261818  0.77668729  1
  Bi2+  Bi66  1  0.00912868  0.37725312  0.29715311  1
  Bi2+  Bi67  1  0.00611248  0.36638024  0.78478602  1
  Bi2+  Bi68  1  -0.00405763  0.65616031  0.29370108  1
  Bi2+  Bi69  1  -0.00462345  0.62377225  0.78961403  1
  Bi2+  Bi70  1  0.04769674  0.84426453  0.27135307  1
  Bi2+  Bi71  1  0.05706201  0.88109534  0.81553230  1
  Bi2+  Bi72  1  0.29752107  0.11118636  0.29318413  1
  Bi2+  Bi73  1  0.26515910  0.06659920  0.79318974  1
  Bi2+  Bi74  1  0.28432850  0.38184131  0.29619336  1
  Bi2+  Bi75  1  0.25090704  0.33666208  0.79314962  1
  Bi2+  Bi76  1  0.20605986  0.62699054  0.26182525  1
  Bi2+  Bi77  1  0.24150619  0.60569685  0.77929089  1
  Bi2+  Bi78  1  0.22994237  0.80138321  0.31613635  1
  Bi2+  Bi79  1  0.25919371  0.86376296  0.79958071  1
  Bi2+  Bi80  1  0.54043856  0.06512782  0.29749387  1
  Bi2+  Bi81  1  0.53237519  0.08590783  0.77868580  1
  Bi2+  Bi82  1  0.44792725  0.30639859  0.24830888  1
  Bi2+  Bi83  1  0.49512040  0.36180108  0.78011103  1
  Bi2+  Bi84  1  0.48932864  0.58767883  0.30400365  1
  Bi2+  Bi85  1  0.49339107  0.64694262  0.78683207  1
  Bi2+  Bi86  1  0.47979918  0.87884779  0.28438648  1
  Bi2+  Bi87  1  0.55464079  0.90203125  0.81913509  1
  Bi2+  Bi88  1  0.74006160  0.06433294  0.29194941  1
  Bi2+  Bi89  1  0.73623072  0.09794142  0.78155228  1
  Bi2+  Bi90  1  0.72566287  0.39047152  0.30732726  1
  Bi2+  Bi91  1  0.75909069  0.36023300  0.78385914  1
  Bi2+  Bi92  1  0.75642586  0.62593312  0.28467866  1
  Bi2+  Bi93  1  0.74629502  0.63477528  0.78743489  1
  Bi2+  Bi94  1  0.74724267  0.86964112  0.27603436  1
  Bi2+  Bi95  1  0.75391654  0.90064834  0.80018426  1
  Bi2+  Bi96  1  0.20769761  -0.04372818  0.24732785  1
  Bi2+  Bi97  1  0.12658100  0.00853226  0.70782636  1
  Bi2+  Bi98  1  0.19135077  0.24709075  0.22299211  1
  Bi2+  Bi99  1  0.13770731  0.21998559  0.72180039  1
  Bi2+  Bi100  1  0.12446330  0.55243479  0.16625799  1
  Bi2+  Bi101  1  0.10125596  0.49453831  0.71684389  1
  Bi2+  Bi102  1  0.09351695  0.74631459  0.17059424  1
  Bi2+  Bi103  1  0.13068514  0.80524918  0.71507005  1
  Bi2+  Bi104  1  0.47117193  0.00065940  0.19147958  1
  Bi2+  Bi105  1  0.38898383  -0.02158165  0.71452755  1
  Bi2+  Bi106  1  0.36223798  0.16518322  0.18207176  1
  Bi2+  Bi107  1  0.33573788  0.20114431  0.72077480  1
  Bi2+  Bi108  1  0.34240091  0.46657616  0.19843254  1
  Bi2+  Bi109  1  0.37033319  0.51148156  0.71240854  1
  Bi2+  Bi110  1  0.32976269  0.75456287  0.21384303  1
  Bi2+  Bi111  1  0.36929602  0.77846835  0.71960755  1
  Bi2+  Bi112  1  0.66780755  -0.03055590  0.18246612  1
  Bi2+  Bi113  1  0.60238586  -0.02428720  0.68521349  1
  Bi2+  Bi114  1  0.62272610  0.21317739  0.23362979  1
  Bi2+  Bi115  1  0.65206819  0.21981069  0.70416702  1
  Bi2+  Bi116  1  0.60868501  0.45704992  0.20697967  1
  Bi2+  Bi117  1  0.62684570  0.51180999  0.70519051  1
  Bi2+  Bi118  1  0.61742012  0.72895735  0.20867766  1
  Bi2+  Bi119  1  0.63283059  0.78279274  0.74117061  1
  Bi2+  Bi120  1  0.86026742  -0.01296344  0.20251848  1
  Bi2+  Bi121  1  0.88514873  -0.02919277  0.69381489  1
  Bi2+  Bi122  1  0.85736841  0.27643569  0.21154554  1
  Bi2+  Bi123  1  0.88548488  0.25247434  0.70511090  1
  Bi2+  Bi124  1  0.95634607  0.50594912  0.22018239  1
  Bi2+  Bi125  1  0.87267068  0.52364376  0.70704716  1
  Bi2+  Bi126  1  0.90349912  0.77131598  0.19679441  1
  Bi2+  Bi127  1  0.91369693  0.80339277  0.74745171  1
  S2-  S128  1  0.02329558  0.22102410  0.20554820  1
  S2-  S129  1  0.01894275  0.24400638  0.64211065  1
  S2-  S130  1  -0.09174032  0.39054144  0.14180644  1
  S2-  S131  1  -0.12556249  0.39083992  0.64227650  1
  S2-  S132  1  -0.09866696  0.62344012  0.14538313  1
  S2-  S133  1  0.00376319  0.60251762  0.65986361  1
  S2-  S134  1  0.00892121  0.97856084  0.15863945  1
  S2-  S135  1  -0.00988278  0.84591197  0.65059054  1
  S2-  S136  1  0.18228605  0.12474039  0.15006074  1
  S2-  S137  1  0.26262679  0.00876871  0.64360210  1
  S2-  S138  1  0.20200861  0.38817171  0.15522823  1
  S2-  S139  1  0.24648686  0.26741914  0.64312862  1
  S2-  S140  1  0.33585399  0.62206591  0.14482478  1
  S2-  S141  1  0.24367861  0.51436212  0.64395957  1
  S2-  S142  1  0.26651182  0.88313846  0.15984462  1
  S2-  S143  1  0.25302825  0.75958896  0.64309311  1
  S2-  S144  1  0.62316359  0.13308666  0.14312552  1
  S2-  S145  1  0.54201660  0.13582186  0.64687224  1
  S2-  S146  1  0.47279807  0.38398535  0.15067555  1
  S2-  S147  1  0.43984637  0.37397879  0.67665867  1
  S2-  S148  1  0.51483711  0.59399244  0.19756077  1
  S2-  S149  1  0.50265318  0.59042927  0.65641613  1
  S2-  S150  1  0.49713710  0.78443099  0.15056488  1
  S2-  S151  1  0.48428408  0.85281819  0.65120488  1
  S2-  S152  1  0.84963908  0.14617642  0.15269825  1
  S2-  S153  1  0.79080330  0.16357862  0.64650692  1
  S2-  S154  1  0.71045836  0.33561878  0.16723116  1
  S2-  S155  1  0.65424677  0.38131679  0.64724891  1
  S2-  S156  1  0.71596085  0.57343444  0.18438732  1
  S2-  S157  1  0.74824230  0.61356395  0.65684272  1
  S2-  S158  1  0.74793827  0.78214162  0.14648902  1
  S2-  S159  1  0.74145090  0.90161420  0.64672978  1
  S2-  S160  1  0.14269021  0.03357365  0.34398894  1
  S2-  S161  1  0.11598908  0.04348238  0.84897917  1
  S2-  S162  1  0.03153255  0.23137871  0.35214659  1
  S2-  S163  1  0.12002228  0.28199512  0.84751039  1
  S2-  S164  1  0.13452059  0.41372304  0.35455163  1
  S2-  S165  1  -0.01409223  0.49064348  0.85290883  1
  S2-  S166  1  0.13092259  0.63904081  0.36144551  1
  S2-  S167  1  0.12448450  0.66161618  0.85031548  1
  S2-  S168  1  0.37796786  -0.01468855  0.34514421  1
  S2-  S169  1  0.39263192  -0.10289329  0.86661196  1
  S2-  S170  1  0.28357293  0.24617103  0.36303583  1
  S2-  S171  1  0.39469136  0.26262075  0.84251235  1
  S2-  S172  1  0.35787817  0.52425331  0.34818078  1
  S2-  S173  1  0.25064758  0.48284440  0.84927847  1
  S2-  S174  1  0.43950446  0.74378765  0.34097977  1
  S2-  S175  1  0.36702768  0.66911377  0.84729953  1
  S2-  S176  1  0.62952028  -0.11836347  0.34981820  1
  S2-  S177  1  0.63078492  0.12964472  0.86185694  1
  S2-  S178  1  0.63704774  0.25241001  0.33921262  1
  S2-  S179  1  0.62142791  0.34743258  0.84488634  1
  S2-  S180  1  0.56958434  0.45442456  0.34062403  1
  S2-  S181  1  0.47787894  0.49414846  0.83804641  1
  S2-  S182  1  0.63875738  0.64655423  0.35020661  1
  S2-  S183  1  0.62560666  0.66843299  0.85822338  1
  S2-  S184  1  0.89996572  0.02807896  0.33741335  1
  S2-  S185  1  0.85431868  0.02127247  0.85040387  1
  S2-  S186  1  0.85129840  0.28818630  0.32012707  1
  S2-  S187  1  0.86693928  0.27243609  0.83698926  1
  S2-  S188  1  0.83292581  0.51069712  0.34646305  1
  S2-  S189  1  0.76660312  0.49767814  0.84712781  1
  S2-  S190  1  0.85475785  0.74798748  0.33576438  1
  S2-  S191  1  0.86785270  0.69301295  0.85239825  1
  S2-  S192  1  0.01181664  0.13349814  0.45442828  1
  S2-  S193  1  -0.00458330  0.13330157  0.94788547  1
  S2-  S194  1  0.00580662  0.39260453  0.45590119  1
  S2-  S195  1  -0.00080018  0.37866931  0.95359216  1
  S2-  S196  1  0.00448535  0.63809529  0.45550328  1
  S2-  S197  1  -0.00263475  0.63840706  0.95547699  1
  S2-  S198  1  0.01309103  0.89095294  0.44420968  1
  S2-  S199  1  -0.00433001  0.88416193  0.95757337  1
  S2-  S200  1  0.26044765  0.13595397  0.46332088  1
  S2-  S201  1  0.24913076  0.13000932  0.95300942  1
  S2-  S202  1  0.26445906  0.39489844  0.46266172  1
  S2-  S203  1  0.24700976  0.37848241  0.95298781  1
  S2-  S204  1  0.26353305  0.64023801  0.46107477  1
  S2-  S205  1  0.24842513  0.63966414  0.95267858  1
  S2-  S206  1  0.25885426  0.88992896  0.45854261  1
  S2-  S207  1  0.24249315  0.88758624  0.95428984  1
  S2-  S208  1  0.50799978  0.14080281  0.44402619  1
  S2-  S209  1  0.49402274  0.12954081  0.95888608  1
  S2-  S210  1  0.50946396  0.38827973  0.45850979  1
  S2-  S211  1  0.49709894  0.38719633  0.94967990  1
  S2-  S212  1  0.51051388  0.64295234  0.45376149  1
  S2-  S213  1  0.49890930  0.63163220  0.95595419  1
  S2-  S214  1  0.50808728  0.89041432  0.44984290  1
  S2-  S215  1  0.50647374  0.88356399  0.96409402  1
  S2-  S216  1  0.76250409  0.13965515  0.44044534  1
  S2-  S217  1  0.75097736  0.13120838  0.96081240  1
  S2-  S218  1  0.76099904  0.39002966  0.45105566  1
  S2-  S219  1  0.74683046  0.38492045  0.95707775  1
  S2-  S220  1  0.76191300  0.64051315  0.45261798  1
  S2-  S221  1  0.74962028  0.63617482  0.96431489  1
  S2-  S222  1  0.76361982  0.89287335  0.44377937  1
  S2-  S223  1  0.74678404  0.88170647  0.95407615  1
  S2-  S224  1  0.12334611  0.01010708  0.04926685  1
  S2-  S225  1  0.13163150  0.01373474  0.54758796  1
  S2-  S226  1  0.12124866  0.25783058  0.05132309  1
  S2-  S227  1  0.13412336  0.26574840  0.53726666  1
  S2-  S228  1  0.12343105  0.50553721  0.03551138  1
  S2-  S229  1  0.12650748  0.51221272  0.54471008  1
  S2-  S230  1  0.12370639  0.76162601  0.04178455  1
  S2-  S231  1  0.13210994  0.76224567  0.54222771  1
  S2-  S232  1  0.37541626  0.00612978  0.04929341  1
  S2-  S233  1  0.39036262  0.01531559  0.54821410  1
  S2-  S234  1  0.37696865  0.26198497  0.04725083  1
  S2-  S235  1  0.39112547  0.26402040  0.55010277  1
  S2-  S236  1  0.37448830  0.50738878  0.04049944  1
  S2-  S237  1  0.38742580  0.51394532  0.55090045  1
  S2-  S238  1  0.37314201  0.76187207  0.04370619  1
  S2-  S239  1  0.38684821  0.76674395  0.54327726  1
  S2-  S240  1  0.61974993  0.00520123  0.04281229  1
  S2-  S241  1  0.63474832  0.01602919  0.53138844  1
  S2-  S242  1  0.62217667  0.26342772  0.04373479  1
  S2-  S243  1  0.63360156  0.26285067  0.54187702  1
  S2-  S244  1  0.62245247  0.51075404  0.06700786  1
  S2-  S245  1  0.63457906  0.51514562  0.54013072  1
  S2-  S246  1  0.61912545  0.75420542  0.04976276  1
  S2-  S247  1  0.63585632  0.76461551  0.54069951  1
  S2-  S248  1  0.87325416  0.00571577  0.05218992  1
  S2-  S249  1  0.88474102  0.01524371  0.54142709  1
  S2-  S250  1  0.88145215  0.25474177  0.04557604  1
  S2-  S251  1  0.88318306  0.26199562  0.53248516  1
  S2-  S252  1  0.87742085  0.50856288  0.03894815  1
  S2-  S253  1  0.88454326  0.51618175  0.54493958  1
  S2-  S254  1  0.87771701  0.76329565  0.04671872  1
  S2-  S255  1  0.88214242  0.76264899  0.54308122  1
