# generated using pymatgen
data_La6Ce6Pr19Nd20Sm13(BiS2)64
_symmetry_space_group_name_H-M   'P 1'
_cell_length_a   16.04083403
_cell_length_b   16.14100420
_cell_length_c   27.29197337
_cell_angle_alpha   90.20415091
_cell_angle_beta   89.68425765
_cell_angle_gamma   89.89452126
_symmetry_Int_Tables_number   1
_chemical_formula_structural   La6Ce6Pr19Nd20Sm13(BiS2)64
_chemical_formula_sum   'La6 Ce6 Pr19 Nd20 Sm13 Bi64 S128'
_cell_volume   7066.14152472
_cell_formula_units_Z   1
loop_
 _symmetry_equiv_pos_site_id
 _symmetry_equiv_pos_as_xyz
  1  'x, y, z'
loop_
 _atom_type_symbol
 _atom_type_oxidation_number
  La3+  3.0
  Ce3+  3.0
  Pr3+  3.0
  Nd3+  3.0
  Sm3+  3.0
  Bi2+  2.0
  S2-  -2.0
loop_
 _atom_site_type_symbol
 _atom_site_label
 _atom_site_symmetry_multiplicity
 _atom_site_fract_x
 _atom_site_fract_y
 _atom_site_fract_z
 _atom_site_occupancy
  La3+  La0  1  0.25898824  0.64316160  0.58841040  1
  La3+  La1  1  0.77207888  0.34827819  0.10980619  1
  La3+  La2  1  0.50132493  0.35391573  0.08560397  1
  La3+  La3  1  -0.00432309  0.39293285  0.58497147  1
  La3+  La4  1  0.38173621  0.22501475  0.92142925  1
  La3+  La5  1  0.76298168  0.60674956  0.08650841  1
  Ce3+  Ce6  1  0.12091033  0.75874879  0.44238014  1
  Ce3+  Ce7  1  0.14273470  0.48589293  0.91386779  1
  Ce3+  Ce8  1  0.25221659  0.88115141  0.55835695  1
  Ce3+  Ce9  1  0.13368145  0.72877643  0.92810868  1
  Ce3+  Ce10  1  0.74820956  0.63173430  0.55606261  1
  Ce3+  Ce11  1  0.75624149  0.11078874  0.05698759  1
  Pr3+  Pr12  1  0.01011444  0.60238633  0.06167714  1
  Pr3+  Pr13  1  0.25873860  0.35397772  0.05010890  1
  Pr3+  Pr14  1  0.50041485  0.13579275  0.55645613  1
  Pr3+  Pr15  1  0.12349238  0.24329336  0.88641071  1
  Pr3+  Pr16  1  0.62706011  0.23113926  0.94230162  1
  Pr3+  Pr17  1  0.12392694  0.50829653  0.44909264  1
  Pr3+  Pr18  1  0.62903985  0.47668691  0.95305444  1
  Pr3+  Pr19  1  0.25101657  0.85543060  0.05476511  1
  Pr3+  Pr20  1  -0.00624811  0.14138888  0.58882268  1
  Pr3+  Pr21  1  -0.00733056  0.63505854  0.57646239  1
  Pr3+  Pr22  1  0.37270504  0.00791681  0.42640439  1
  Pr3+  Pr23  1  0.88184948  0.71958099  0.93282464  1
  Pr3+  Pr24  1  0.88171522  0.26221414  0.44278976  1
  Pr3+  Pr25  1  0.00302614  0.85483185  0.05613124  1
  Pr3+  Pr26  1  -0.00266250  0.88054188  0.57703141  1
  Pr3+  Pr27  1  0.50002035  0.88061115  0.54876890  1
  Pr3+  Pr28  1  0.63065407  0.00987230  0.43947172  1
  Pr3+  Pr29  1  0.13074223  -0.02171485  0.92281818  1
  Pr3+  Pr30  1  0.88027832  0.00978888  0.44571275  1
  Nd3+  Nd31  1  0.75049302  0.88103994  0.56784147  1
  Nd3+  Nd32  1  0.38509140  -0.02167421  0.93349545  1
  Nd3+  Nd33  1  0.88184266  0.22964549  0.93210244  1
  Nd3+  Nd34  1  0.63558463  0.51798155  0.41165661  1
  Nd3+  Nd35  1  0.25824681  0.38841652  0.57139221  1
  Nd3+  Nd36  1  0.25327414  0.13584009  0.57005074  1
  Nd3+  Nd37  1  0.62730788  0.26335021  0.43946164  1
  Nd3+  Nd38  1  0.88368165  0.47635581  0.94264332  1
  Nd3+  Nd39  1  0.37556860  0.75592948  0.42481906  1
  Nd3+  Nd40  1  0.37594807  0.50949947  0.42866707  1
  Nd3+  Nd41  1  0.75779091  0.85751844  0.06143662  1
  Nd3+  Nd42  1  0.50204308  0.10547007  0.06712045  1
  Nd3+  Nd43  1  0.37261429  0.25727610  0.43208388  1
  Nd3+  Nd44  1  0.38660706  0.72872934  0.94330944  1
  Nd3+  Nd45  1  0.00862567  0.35510960  0.05090653  1
  Nd3+  Nd46  1  0.50642861  0.60500726  0.07320268  1
  Nd3+  Nd47  1  0.25466751  0.10579078  0.05065352  1
  Nd3+  Nd48  1  0.50077361  0.85942602  0.07215363  1
  Nd3+  Nd49  1  0.88142750  -0.02167632  0.93646603  1
  Nd3+  Nd50  1  0.74961147  0.13748859  0.56504674  1
  Sm3+  Sm51  1  0.63165572  -0.02211265  0.94701357  1
  Sm3+  Sm52  1  0.88196138  0.76018858  0.43801884  1
  Sm3+  Sm53  1  0.74849877  0.38991476  0.55662438  1
  Sm3+  Sm54  1  0.63833571  0.75890571  0.42719537  1
  Sm3+  Sm55  1  0.38763368  0.47852935  0.93769967  1
  Sm3+  Sm56  1  0.49904066  0.39155775  0.55243667  1
  Sm3+  Sm57  1  0.00607322  0.10888081  0.04844131  1
  Sm3+  Sm58  1  0.12676045  0.25975068  0.45783341  1
  Sm3+  Sm59  1  0.25277599  0.60420827  0.05906474  1
  Sm3+  Sm60  1  0.12536139  0.01149024  0.45655726  1
  Sm3+  Sm61  1  0.63287808  0.72892425  0.95517296  1
  Sm3+  Sm62  1  0.88244412  0.51045698  0.43579397  1
  Sm3+  Sm63  1  0.50204608  0.63350207  0.55020710  1
  Bi2+  Bi64  1  -0.03838002  0.07433857  0.27563671  1
  Bi2+  Bi65  1  -0.00365259  0.09762977  0.78001797  1
  Bi2+  Bi66  1  0.00645314  0.35805571  0.30041173  1
  Bi2+  Bi67  1  -0.05938593  0.39106366  0.79948925  1
  Bi2+  Bi68  1  0.02682575  0.61669790  0.29312537  1
  Bi2+  Bi69  1  -0.03616593  0.64076301  0.79123760  1
  Bi2+  Bi70  1  0.00482714  0.87897797  0.29224674  1
  Bi2+  Bi71  1  -0.01889926  0.87467743  0.79597746  1
  Bi2+  Bi72  1  0.21589035  0.14582172  0.30653458  1
  Bi2+  Bi73  1  0.27661601  0.10704454  0.77902508  1
  Bi2+  Bi74  1  0.21709521  0.40678628  0.30105056  1
  Bi2+  Bi75  1  0.33147281  0.37926337  0.77126144  1
  Bi2+  Bi76  1  0.22606904  0.61355812  0.29221689  1
  Bi2+  Bi77  1  0.26739588  0.61754139  0.79233469  1
  Bi2+  Bi78  1  0.21862912  0.81171415  0.29891995  1
  Bi2+  Bi79  1  0.25101463  0.90426096  0.78999382  1
  Bi2+  Bi80  1  0.49042362  0.07350176  0.28349304  1
  Bi2+  Bi81  1  0.53559653  0.11297033  0.79691942  1
  Bi2+  Bi82  1  0.42956019  0.44836734  0.27794615  1
  Bi2+  Bi83  1  0.52940117  0.37641853  0.78556595  1
  Bi2+  Bi84  1  0.48323613  0.67895884  0.27530936  1
  Bi2+  Bi85  1  0.50380306  0.61332275  0.80446988  1
  Bi2+  Bi86  1  0.50211796  0.87611460  0.29418627  1
  Bi2+  Bi87  1  0.50230760  0.85676502  0.81282563  1
  Bi2+  Bi88  1  0.74955354  0.13433570  0.24015108  1
  Bi2+  Bi89  1  0.72696696  0.18222524  0.79283062  1
  Bi2+  Bi90  1  0.74340347  0.35828390  0.31172969  1
  Bi2+  Bi91  1  0.73681704  0.38300301  0.79162347  1
  Bi2+  Bi92  1  0.74954301  0.66017609  0.28568736  1
  Bi2+  Bi93  1  0.68289087  0.65522797  0.76854389  1
  Bi2+  Bi94  1  0.75747899  0.91050589  0.29243773  1
  Bi2+  Bi95  1  0.67100267  0.90490581  0.75454814  1
  Bi2+  Bi96  1  0.15920135  -0.01510127  0.25362378  1
  Bi2+  Bi97  1  0.10681137  -0.06113685  0.71311475  1
  Bi2+  Bi98  1  0.15217081  0.27098748  0.22041803  1
  Bi2+  Bi99  1  0.13649195  0.24867074  0.71564285  1
  Bi2+  Bi100  1  0.11743331  0.46646118  0.20747824  1
  Bi2+  Bi101  1  0.10388247  0.48961211  0.72821533  1
  Bi2+  Bi102  1  0.18621160  0.73484717  0.19454896  1
  Bi2+  Bi103  1  0.15912965  0.74937258  0.71822602  1
  Bi2+  Bi104  1  0.36484809  -0.00356725  0.20845255  1
  Bi2+  Bi105  1  0.40552539  -0.05359454  0.72699901  1
  Bi2+  Bi106  1  0.35138800  0.23498474  0.20688990  1
  Bi2+  Bi107  1  0.40924875  0.24692588  0.70169992  1
  Bi2+  Bi108  1  0.31773287  0.51032008  0.19486849  1
  Bi2+  Bi109  1  0.45708909  0.50582754  0.70476645  1
  Bi2+  Bi110  1  0.38888854  0.72221483  0.18032498  1
  Bi2+  Bi111  1  0.44342750  0.75200552  0.71521304  1
  Bi2+  Bi112  1  0.70560366  -0.03566058  0.18965086  1
  Bi2+  Bi113  1  0.64628799  0.08015229  0.69372579  1
  Bi2+  Bi114  1  0.57832562  0.23188903  0.23836128  1
  Bi2+  Bi115  1  0.63533897  0.27934293  0.70231219  1
  Bi2+  Bi116  1  0.62211160  0.48947709  0.21868355  1
  Bi2+  Bi117  1  0.61757332  0.51101697  0.63741431  1
  Bi2+  Bi118  1  0.56456145  0.81117914  0.19449836  1
  Bi2+  Bi119  1  0.63647906  0.76350185  0.67887777  1
  Bi2+  Bi120  1  0.92320602  -0.03561202  0.18223987  1
  Bi2+  Bi121  1  0.82738099  0.00596556  0.72144160  1
  Bi2+  Bi122  1  0.94283804  0.22653383  0.20567499  1
  Bi2+  Bi123  1  0.85377870  0.26600331  0.71244807  1
  Bi2+  Bi124  1  0.87544619  0.53917388  0.23615253  1
  Bi2+  Bi125  1  0.77575848  0.52002171  0.70601758  1
  Bi2+  Bi126  1  0.96122874  0.74269271  0.21291614  1
  Bi2+  Bi127  1  0.88754553  0.75583132  0.71065575  1
  S2-  S128  1  0.01176248  0.09346634  0.14661931  1
  S2-  S129  1  0.06253956  0.08846287  0.68067855  1
  S2-  S130  1  -0.05397693  0.35237686  0.14438661  1
  S2-  S131  1  0.00378495  0.27433384  0.66077012  1
  S2-  S132  1  -0.09099935  0.61175326  0.14581481  1
  S2-  S133  1  0.00965260  0.52058910  0.65657224  1
  S2-  S134  1  0.05625128  0.84921130  0.15153587  1
  S2-  S135  1  0.02560166  0.75596409  0.65014679  1
  S2-  S136  1  0.27783902  0.10980904  0.15076240  1
  S2-  S137  1  0.26684773  0.15802876  0.66966236  1
  S2-  S138  1  0.34159250  0.35697581  0.14062893  1
  S2-  S139  1  0.18524149  0.37806891  0.66678828  1
  S2-  S140  1  0.13810203  0.59914522  0.13550635  1
  S2-  S141  1  0.21690900  0.59155678  0.68833490  1
  S2-  S142  1  0.29169377  0.86639899  0.15242382  1
  S2-  S143  1  0.26050797  0.80050111  0.64300425  1
  S2-  S144  1  0.49401939  0.20302332  0.15103752  1
  S2-  S145  1  0.48265033  0.11814866  0.65544029  1
  S2-  S146  1  0.61861614  0.35269678  0.16236039  1
  S2-  S147  1  0.40002670  0.38374055  0.63478490  1
  S2-  S148  1  0.48694749  0.51810713  0.15792331  1
  S2-  S149  1  0.41731495  0.63931589  0.63812816  1
  S2-  S150  1  0.49048200  0.98384406  0.14258236  1
  S2-  S151  1  0.50707499  0.87962943  0.64891161  1
  S2-  S152  1  0.77573027  0.18194367  0.14654016  1
  S2-  S153  1  0.84469504  0.12826785  0.64852054  1
  S2-  S154  1  0.78150567  0.40949853  0.21330564  1
  S2-  S155  1  0.83174336  0.39248993  0.64320638  1
  S2-  S156  1  0.69566607  0.62252533  0.18247351  1
  S2-  S157  1  0.83729480  0.64440353  0.64002809  1
  S2-  S158  1  0.80645541  0.83218777  0.15538315  1
  S2-  S159  1  0.85866087  0.89075184  0.64744034  1
  S2-  S160  1  0.13379786  0.01925258  0.35877150  1
  S2-  S161  1  0.13133718  0.08662285  0.83838259  1
  S2-  S162  1  0.11582755  0.26349458  0.35923233  1
  S2-  S163  1  0.09854810  0.39389903  0.83040272  1
  S2-  S164  1  0.01399764  0.49527695  0.36805043  1
  S2-  S165  1  0.11836081  0.62287417  0.84873670  1
  S2-  S166  1  0.00766464  0.75799055  0.36555631  1
  S2-  S167  1  0.12262177  0.84501025  0.85351340  1
  S2-  S168  1  0.36950578  0.13536054  0.35613623  1
  S2-  S169  1  0.39325614  0.07594005  0.85076629  1
  S2-  S170  1  0.36152548  0.37603840  0.35783999  1
  S2-  S171  1  0.27869307  0.25134858  0.83414523  1
  S2-  S172  1  0.37814108  0.62731024  0.35092867  1
  S2-  S173  1  0.29527186  0.48919848  0.85102875  1
  S2-  S174  1  0.35552854  0.88113965  0.35248869  1
  S2-  S175  1  0.36332089  0.72290529  0.84463310  1
  S2-  S176  1  0.61934360  -0.00776497  0.33967446  1
  S2-  S177  1  0.61757033  -0.02197035  0.84918405  1
  S2-  S178  1  0.63682907  0.23251591  0.34157714  1
  S2-  S179  1  0.52561236  0.24373998  0.85916900  1
  S2-  S180  1  0.58198695  0.44407817  0.32218040  1
  S2-  S181  1  0.52354035  0.48823372  0.87017239  1
  S2-  S182  1  0.61481660  0.65794134  0.34561885  1
  S2-  S183  1  0.61059901  0.73122412  0.85796502  1
  S2-  S184  1  0.84579503  0.01962001  0.34704554  1
  S2-  S185  1  0.88211381  0.00254484  0.83858086  1
  S2-  S186  1  0.87473302  0.27200093  0.34153272  1
  S2-  S187  1  0.95976639  0.23147824  0.84133585  1
  S2-  S188  1  0.78725019  0.51698749  0.35012965  1
  S2-  S189  1  0.88062067  0.54487883  0.85056728  1
  S2-  S190  1  0.77499398  0.77941500  0.35712009  1
  S2-  S191  1  0.86437401  0.76638893  0.83606835  1
  S2-  S192  1  0.00372152  0.13545128  0.46270561  1
  S2-  S193  1  0.00645283  0.10545670  0.94522040  1
  S2-  S194  1  0.00276220  0.38153212  0.47085168  1
  S2-  S195  1  0.00973919  0.35227986  0.94605524  1
  S2-  S196  1  -0.00134177  0.63451163  0.46616608  1
  S2-  S197  1  0.00831445  0.60038098  0.95477034  1
  S2-  S198  1  0.00298142  0.88851981  0.46597348  1
  S2-  S199  1  0.00177574  0.85277827  0.95001139  1
  S2-  S200  1  0.24882842  0.13320729  0.46303999  1
  S2-  S201  1  0.25483855  0.10131668  0.94637832  1
  S2-  S202  1  0.24866131  0.38286384  0.46292025  1
  S2-  S203  1  0.25675727  0.35321762  0.94555010  1
  S2-  S204  1  0.24596612  0.63589124  0.44692293  1
  S2-  S205  1  0.26191792  0.60711933  0.95562096  1
  S2-  S206  1  0.24593822  0.88502179  0.45510786  1
  S2-  S207  1  0.26064841  0.85545624  0.94832918  1
  S2-  S208  1  0.50431318  0.13415698  0.45071595  1
  S2-  S209  1  0.50990809  0.09877087  0.95951174  1
  S2-  S210  1  0.50239754  0.38474680  0.44892759  1
  S2-  S211  1  0.50282934  0.35487142  0.96774040  1
  S2-  S212  1  0.50647061  0.63580357  0.44785631  1
  S2-  S213  1  0.50883729  0.60953495  0.96700506  1
  S2-  S214  1  0.50690465  0.88171084  0.44397950  1
  S2-  S215  1  0.50917617  0.85519732  0.96292395  1
  S2-  S216  1  0.75244227  0.13735959  0.45719197  1
  S2-  S217  1  0.75512668  0.10415555  0.94845330  1
  S2-  S218  1  0.75295189  0.38588540  0.45133731  1
  S2-  S219  1  0.75591575  0.35428094  0.93854503  1
  S2-  S220  1  0.75845791  0.63645729  0.45186131  1
  S2-  S221  1  0.75332173  0.60405031  0.95970534  1
  S2-  S222  1  0.75378528  0.88616166  0.46061578  1
  S2-  S223  1  0.75630556  0.85322692  0.95306561  1
  S2-  S224  1  0.12747325  -0.01855767  0.03738348  1
  S2-  S225  1  0.12593408  0.00959611  0.56124174  1
  S2-  S226  1  0.13033375  0.22992436  0.05187252  1
  S2-  S227  1  0.12908375  0.25825335  0.55996186  1
  S2-  S228  1  0.13438170  0.47745952  0.03553999  1
  S2-  S229  1  0.13652900  0.51684321  0.55473706  1
  S2-  S230  1  0.13054526  0.73105782  0.03655203  1
  S2-  S231  1  0.12890368  0.75798920  0.54581995  1
  S2-  S232  1  0.37737597  -0.02129332  0.03887833  1
  S2-  S233  1  0.37547522  0.00873614  0.54308014  1
  S2-  S234  1  0.37943161  0.22433487  0.03660158  1
  S2-  S235  1  0.37620667  0.25784081  0.53990395  1
  S2-  S236  1  0.37971943  0.48753091  0.04302229  1
  S2-  S237  1  0.37600878  0.51519525  0.53588745  1
  S2-  S238  1  0.37921044  0.72937752  0.04953742  1
  S2-  S239  1  0.37698397  0.75725265  0.53268361  1
  S2-  S240  1  0.63369392  -0.01906256  0.05011163  1
  S2-  S241  1  0.62761671  0.00819434  0.54742409  1
  S2-  S242  1  0.63499786  0.23379463  0.04813668  1
  S2-  S243  1  0.62421429  0.26425558  0.54763327  1
  S2-  S244  1  0.63688084  0.48380278  0.05844265  1
  S2-  S245  1  0.62486838  0.50930527  0.52488181  1
  S2-  S246  1  0.63118127  0.73295780  0.05967385  1
  S2-  S247  1  0.62720880  0.75825531  0.53667513  1
  S2-  S248  1  0.88035344  -0.01607655  0.04282816  1
  S2-  S249  1  0.87548582  0.01125263  0.54991762  1
  S2-  S250  1  0.88233629  0.23240115  0.03769611  1
  S2-  S251  1  0.87086831  0.26130000  0.54812492  1
  S2-  S252  1  0.87505153  0.47398487  0.04748610  1
  S2-  S253  1  0.87135520  0.50967842  0.54044234  1
  S2-  S254  1  0.87925002  0.72964978  0.04125225  1
  S2-  S255  1  0.87307681  0.76262316  0.54180614  1
