# generated using pymatgen
data_La6Ce6Pr19Nd20Sm13(BiS2)64
_symmetry_space_group_name_H-M   'P 1'
_cell_length_a   16.10386277
_cell_length_b   16.08996881
_cell_length_c   27.53401782
_cell_angle_alpha   89.98799349
_cell_angle_beta   89.78042840
_cell_angle_gamma   89.95651342
_symmetry_Int_Tables_number   1
_chemical_formula_structural   La6Ce6Pr19Nd20Sm13(BiS2)64
_chemical_formula_sum   'La6 Ce6 Pr19 Nd20 Sm13 Bi64 S128'
_cell_volume   7134.30264931
_cell_formula_units_Z   1
loop_
 _symmetry_equiv_pos_site_id
 _symmetry_equiv_pos_as_xyz
  1  'x, y, z'
loop_
 _atom_type_symbol
 _atom_type_oxidation_number
  La3+  3.0
  Ce3+  3.0
  Pr3+  3.0
  Nd3+  3.0
  Sm3+  3.0
  Bi2+  2.0
  S2-  -2.0
loop_
 _atom_site_type_symbol
 _atom_site_label
 _atom_site_symmetry_multiplicity
 _atom_site_fract_x
 _atom_site_fract_y
 _atom_site_fract_z
 _atom_site_occupancy
  La3+  La0  1  0.85213963  -0.01381780  0.42087086  1
  La3+  La1  1  -0.02364088  0.88146811  0.58637699  1
  La3+  La2  1  -0.02331217  0.60804228  0.57916379  1
  La3+  La3  1  0.37955444  0.25866346  0.90099733  1
  La3+  La4  1  0.87277796  0.74012944  0.88292345  1
  La3+  La5  1  0.02415960  0.37892564  0.11463807  1
  Ce3+  Ce6  1  0.88210461  0.49991700  0.94086548  1
  Ce3+  Ce7  1  0.12841500  0.49821229  0.93869879  1
  Ce3+  Ce8  1  0.35073966  0.49390093  0.43900562  1
  Ce3+  Ce9  1  0.00303260  0.88128714  0.05516669  1
  Ce3+  Ce10  1  0.62991007  0.75399199  0.93512080  1
  Ce3+  Ce11  1  0.23139057  0.86683047  0.56409925  1
  Pr3+  Pr12  1  0.48497927  0.86619270  0.56866709  1
  Pr3+  Pr13  1  0.73438430  0.11944005  0.55420600  1
  Pr3+  Pr14  1  0.60819676  0.74421453  0.43903572  1
  Pr3+  Pr15  1  0.25093069  0.13004007  0.06298031  1
  Pr3+  Pr16  1  0.37630345  0.74902742  0.92735284  1
  Pr3+  Pr17  1  0.35454689  -0.01201366  0.44102107  1
  Pr3+  Pr18  1  -0.02117541  0.12131116  0.55566701  1
  Pr3+  Pr19  1  0.25366693  0.37372277  0.05876292  1
  Pr3+  Pr20  1  0.23098739  0.11976017  0.55821600  1
  Pr3+  Pr21  1  0.50533873  0.62748182  0.05416649  1
  Pr3+  Pr22  1  0.62612983  0.00402294  0.93753215  1
  Pr3+  Pr23  1  0.48268125  0.37215121  0.55289159  1
  Pr3+  Pr24  1  0.76064508  0.37441989  0.07324963  1
  Pr3+  Pr25  1  0.60742842  0.24279052  0.43386346  1
  Pr3+  Pr26  1  -0.02797842  0.36715760  0.56063689  1
  Pr3+  Pr27  1  0.22760517  0.61620705  0.56990597  1
  Pr3+  Pr28  1  0.13016832  0.00615308  0.93105348  1
  Pr3+  Pr29  1  0.50452477  0.12619873  0.06621630  1
  Pr3+  Pr30  1  0.87792665  0.00205507  0.92980472  1
  Nd3+  Nd31  1  0.48212111  0.12164516  0.55144666  1
  Nd3+  Nd32  1  0.75321692  0.87728508  0.05764734  1
  Nd3+  Nd33  1  0.88061716  0.24633089  0.94681917  1
  Nd3+  Nd34  1  0.73371192  0.61913327  0.56150500  1
  Nd3+  Nd35  1  0.25203711  0.62465162  0.05937083  1
  Nd3+  Nd36  1  0.63055640  0.49911762  0.93976929  1
  Nd3+  Nd37  1  0.13039359  0.75240687  0.93141380  1
  Nd3+  Nd38  1  0.62700306  0.25193455  0.94328105  1
  Nd3+  Nd39  1  0.85245732  0.49212971  0.42619024  1
  Nd3+  Nd40  1  0.73101442  0.87140185  0.56808807  1
  Nd3+  Nd41  1  0.10719837  -0.00844725  0.44353210  1
  Nd3+  Nd42  1  0.35496170  0.73823774  0.44481228  1
  Nd3+  Nd43  1  0.51040168  0.37672253  0.06824593  1
  Nd3+  Nd44  1  0.25268494  0.87573299  0.05356398  1
  Nd3+  Nd45  1  0.75405066  0.11820156  0.07046209  1
  Nd3+  Nd46  1  0.10899102  0.25079635  0.43478546  1
  Nd3+  Nd47  1  0.00232780  0.62396978  0.05780606  1
  Nd3+  Nd48  1  0.09802985  0.51277119  0.42803629  1
  Nd3+  Nd49  1  0.37968647  0.49895261  0.94458251  1
  Nd3+  Nd50  1  0.61002189  0.49365109  0.42899544  1
  Sm3+  Sm51  1  0.60749699  -0.00775462  0.44143604  1
  Sm3+  Sm52  1  0.86103607  0.23660304  0.42311996  1
  Sm3+  Sm53  1  0.85941248  0.74673656  0.44774304  1
  Sm3+  Sm54  1  0.10322886  0.74413010  0.45627364  1
  Sm3+  Sm55  1  0.35692246  0.24390341  0.44492047  1
  Sm3+  Sm56  1  0.37882349  0.00851603  0.94544562  1
  Sm3+  Sm57  1  0.75787645  0.62650743  0.05155254  1
  Sm3+  Sm58  1  0.13175472  0.24790025  0.93675026  1
  Sm3+  Sm59  1  0.48380657  0.61565153  0.55295972  1
  Sm3+  Sm60  1  0.00117226  0.12325098  0.06830604  1
  Sm3+  Sm61  1  0.22644811  0.37284712  0.55737610  1
  Sm3+  Sm62  1  0.50117453  0.87332241  0.05350823  1
  Sm3+  Sm63  1  0.73294303  0.36907178  0.54970841  1
  Bi2+  Bi64  1  0.01584488  0.10572442  0.28058335  1
  Bi2+  Bi65  1  -0.02214019  0.13621969  0.78196074  1
  Bi2+  Bi66  1  0.01281980  0.37514868  0.31689033  1
  Bi2+  Bi67  1  -0.03143911  0.33921585  0.77943525  1
  Bi2+  Bi68  1  0.01493423  0.64732310  0.28735171  1
  Bi2+  Bi69  1  0.00654526  0.60818400  0.79079476  1
  Bi2+  Bi70  1  -0.00478159  0.86470324  0.29707548  1
  Bi2+  Bi71  1  0.01851507  0.88335692  0.78995590  1
  Bi2+  Bi72  1  0.28911486  0.14548248  0.28664038  1
  Bi2+  Bi73  1  0.22333565  0.12680716  0.79981760  1
  Bi2+  Bi74  1  0.30075512  0.41707121  0.29515081  1
  Bi2+  Bi75  1  0.24865689  0.33033255  0.75042678  1
  Bi2+  Bi76  1  0.25357006  0.68459201  0.29930356  1
  Bi2+  Bi77  1  0.27776402  0.57392283  0.80911475  1
  Bi2+  Bi78  1  0.24682540  0.90493185  0.30988938  1
  Bi2+  Bi79  1  0.29909330  0.86453110  0.79058555  1
  Bi2+  Bi80  1  0.48666900  0.17639018  0.27337220  1
  Bi2+  Bi81  1  0.52634713  0.08446645  0.81486610  1
  Bi2+  Bi82  1  0.53210343  0.45913835  0.30230987  1
  Bi2+  Bi83  1  0.50207780  0.37755624  0.79025772  1
  Bi2+  Bi84  1  0.51816256  0.66249970  0.28763438  1
  Bi2+  Bi85  1  0.45877324  0.64144813  0.80857975  1
  Bi2+  Bi86  1  0.49425230  0.86257087  0.25016580  1
  Bi2+  Bi87  1  0.49006078  0.84130969  0.82771036  1
  Bi2+  Bi88  1  0.73954951  0.10246094  0.28997676  1
  Bi2+  Bi89  1  0.74697311  0.16532992  0.79414047  1
  Bi2+  Bi90  1  0.70898622  0.37438026  0.29183275  1
  Bi2+  Bi91  1  0.76943742  0.35892439  0.78594155  1
  Bi2+  Bi92  1  0.76748738  0.66607406  0.27643374  1
  Bi2+  Bi93  1  0.65064198  0.59867186  0.78379962  1
  Bi2+  Bi94  1  0.74587036  0.86317407  0.28630790  1
  Bi2+  Bi95  1  0.66800487  0.87442695  0.78005362  1
  Bi2+  Bi96  1  0.11461481  -0.01902777  0.21089187  1
  Bi2+  Bi97  1  0.13735165  0.00341953  0.69354732  1
  Bi2+  Bi98  1  0.15560887  0.24148710  0.21483117  1
  Bi2+  Bi99  1  0.09158080  0.24918860  0.70344287  1
  Bi2+  Bi100  1  0.15063733  0.51531143  0.21173117  1
  Bi2+  Bi101  1  0.14845247  0.50843452  0.69783954  1
  Bi2+  Bi102  1  0.10411368  0.78022430  0.21473223  1
  Bi2+  Bi103  1  0.17736418  0.74814904  0.70855737  1
  Bi2+  Bi104  1  0.31328493  -0.00967516  0.21424585  1
  Bi2+  Bi105  1  0.36762085  0.03492475  0.74082111  1
  Bi2+  Bi106  1  0.43457247  0.34517163  0.21849642  1
  Bi2+  Bi107  1  0.41440091  0.23110962  0.72879315  1
  Bi2+  Bi108  1  0.40874957  0.54745661  0.20815205  1
  Bi2+  Bi109  1  0.44863968  0.51209595  0.71094628  1
  Bi2+  Bi110  1  0.35944046  0.73878664  0.20643172  1
  Bi2+  Bi111  1  0.43899101  0.77550200  0.72229806  1
  Bi2+  Bi112  1  0.62051531  -0.00287321  0.20615595  1
  Bi2+  Bi113  1  0.55481561  -0.00938440  0.71193382  1
  Bi2+  Bi114  1  0.61985208  0.24971375  0.20171204  1
  Bi2+  Bi115  1  0.61239102  0.19246439  0.71365063  1
  Bi2+  Bi116  1  0.65279711  0.51518308  0.21282488  1
  Bi2+  Bi117  1  0.63722211  0.44711747  0.70903222  1
  Bi2+  Bi118  1  0.63330931  0.74519252  0.20225432  1
  Bi2+  Bi119  1  0.63237204  0.73109484  0.70224605  1
  Bi2+  Bi120  1  0.87814128  -0.03766844  0.21390987  1
  Bi2+  Bi121  1  0.85123578  0.03618097  0.71304675  1
  Bi2+  Bi122  1  0.88202072  0.25768503  0.21816102  1
  Bi2+  Bi123  1  0.90303755  0.21537144  0.67536154  1
  Bi2+  Bi124  1  0.87620930  0.53396381  0.21404137  1
  Bi2+  Bi125  1  0.87530618  0.46049385  0.70710319  1
  Bi2+  Bi126  1  0.90501428  0.76274248  0.20619492  1
  Bi2+  Bi127  1  0.89140598  0.74131927  0.68534960  1
  S2-  S128  1  0.01129611  0.21382311  0.15365160  1
  S2-  S129  1  -0.00988923  0.04181267  0.64480603  1
  S2-  S130  1  0.03882634  0.38217199  0.22371858  1
  S2-  S131  1  0.01275252  0.46118356  0.64219937  1
  S2-  S132  1  0.01918758  0.55122942  0.14822293  1
  S2-  S133  1  0.05185001  0.65439859  0.67171668  1
  S2-  S134  1  -0.00159998  0.98703307  0.13586897  1
  S2-  S135  1  0.04133753  0.85621276  0.68454448  1
  S2-  S136  1  0.25221455  0.14114575  0.16363376  1
  S2-  S137  1  0.20969182  0.13766000  0.65655156  1
  S2-  S138  1  0.19596688  0.37748365  0.15341886  1
  S2-  S139  1  0.24754515  0.40430654  0.65250739  1
  S2-  S140  1  0.25513239  0.60622907  0.15790093  1
  S2-  S141  1  0.26538918  0.62942942  0.66808432  1
  S2-  S142  1  0.27818004  0.85698814  0.15001981  1
  S2-  S143  1  0.25436690  0.88800204  0.65870745  1
  S2-  S144  1  0.51627140  0.10918395  0.16607808  1
  S2-  S145  1  0.48326799  0.13431366  0.64810708  1
  S2-  S146  1  0.62660214  0.38727767  0.14250985  1
  S2-  S147  1  0.50436293  0.38608424  0.65056606  1
  S2-  S148  1  0.53762011  0.62043519  0.15170386  1
  S2-  S149  1  0.51025678  0.63921267  0.64722116  1
  S2-  S150  1  0.53830242  0.87107392  0.14786442  1
  S2-  S151  1  0.60601611  0.87530472  0.64032780  1
  S2-  S152  1  0.76794693  0.19398798  0.16233595  1
  S2-  S153  1  0.73540076  0.11448117  0.65381927  1
  S2-  S154  1  0.85965309  0.38367743  0.15797862  1
  S2-  S155  1  0.82641789  0.35069680  0.63038567  1
  S2-  S156  1  0.77369388  0.58658563  0.14684351  1
  S2-  S157  1  0.82506473  0.59741813  0.64422885  1
  S2-  S158  1  0.75354181  0.97997623  0.13948383  1
  S2-  S159  1  0.83107635  0.88793978  0.64924974  1
  S2-  S160  1  0.09741007  -0.01043456  0.34554821  1
  S2-  S161  1  0.15369727  -0.06711032  0.83610989  1
  S2-  S162  1  0.08484471  0.21708810  0.33798639  1
  S2-  S163  1  0.09645367  0.13484780  0.86197132  1
  S2-  S164  1  0.16492777  0.42820379  0.34944457  1
  S2-  S165  1  0.13657710  0.51311313  0.83990381  1
  S2-  S166  1  0.12107146  0.67499063  0.36659584  1
  S2-  S167  1  0.04086658  0.74042743  0.84561751  1
  S2-  S168  1  0.36356950  0.02120524  0.34370610  1
  S2-  S169  1  0.36752963  0.09022870  0.85916617  1
  S2-  S170  1  0.34640454  0.26755838  0.34959540  1
  S2-  S171  1  0.22811221  0.27637927  0.84831627  1
  S2-  S172  1  0.33632436  0.56297123  0.35108614  1
  S2-  S173  1  0.38450373  0.42788269  0.85478470  1
  S2-  S174  1  0.35592364  0.79707128  0.35277615  1
  S2-  S175  1  0.25517974  0.72996963  0.85463921  1
  S2-  S176  1  0.68250622  -0.01613820  0.35377818  1
  S2-  S177  1  0.68606350  0.01528821  0.84353345  1
  S2-  S178  1  0.61732743  0.20984342  0.33531241  1
  S2-  S179  1  0.54007278  0.24549722  0.85721803  1
  S2-  S180  1  0.72305984  0.50783680  0.35495686  1
  S2-  S181  1  0.65002271  0.45858054  0.84482119  1
  S2-  S182  1  0.63938427  0.74293789  0.34158034  1
  S2-  S183  1  0.70261659  0.74388489  0.84740740  1
  S2-  S184  1  0.86655205  0.11180121  0.34895932  1
  S2-  S185  1  0.89011148  -0.09358586  0.84513502  1
  S2-  S186  1  0.84949746  0.33196649  0.34138527  1
  S2-  S187  1  0.87212045  0.14510605  0.86473540  1
  S2-  S188  1  0.96701900  0.52927917  0.35538518  1
  S2-  S189  1  0.88749674  0.56252591  0.85106979  1
  S2-  S190  1  0.86421687  0.83800672  0.36349349  1
  S2-  S191  1  0.87829864  0.72060108  0.77573750  1
  S2-  S192  1  -0.01271080  0.11889491  0.45089272  1
  S2-  S193  1  0.00410374  0.12567558  0.96544484  1
  S2-  S194  1  -0.01749019  0.36970027  0.45099230  1
  S2-  S195  1  0.00506309  0.36941338  0.93693867  1
  S2-  S196  1  -0.02445477  0.62641012  0.46627665  1
  S2-  S197  1  0.00664190  0.62609367  0.95364406  1
  S2-  S198  1  -0.01487129  0.86929025  0.46183944  1
  S2-  S199  1  0.00989576  0.87821544  0.95247358  1
  S2-  S200  1  0.23263708  0.12053700  0.45142598  1
  S2-  S201  1  0.25994923  0.13389628  0.95909133  1
  S2-  S202  1  0.23470777  0.36675750  0.45584918  1
  S2-  S203  1  0.25632804  0.37317385  0.95566207  1
  S2-  S204  1  0.23052087  0.62006914  0.46411171  1
  S2-  S205  1  0.25386943  0.62215796  0.95606165  1
  S2-  S206  1  0.23031341  0.86381933  0.45841250  1
  S2-  S207  1  0.25878925  0.88104170  0.94963675  1
  S2-  S208  1  0.48140512  0.11702063  0.44651947  1
  S2-  S209  1  0.50038887  0.13009826  0.96115897  1
  S2-  S210  1  0.48243528  0.36950113  0.44687088  1
  S2-  S211  1  0.50336894  0.37552674  0.96280428  1
  S2-  S212  1  0.48464972  0.61623160  0.44897034  1
  S2-  S213  1  0.50496446  0.62542849  0.94809000  1
  S2-  S214  1  0.48374246  0.86807806  0.45885829  1
  S2-  S215  1  0.49910888  0.87836166  0.95147150  1
  S2-  S216  1  0.72954623  0.11807936  0.44994347  1
  S2-  S217  1  0.74755088  0.12634217  0.96262071  1
  S2-  S218  1  0.73199994  0.36357606  0.44856269  1
  S2-  S219  1  0.75507023  0.37389367  0.95592289  1
  S2-  S220  1  0.73502844  0.62346176  0.45558952  1
  S2-  S221  1  0.75494089  0.62598424  0.94968042  1
  S2-  S222  1  0.72836497  0.86773470  0.46148262  1
  S2-  S223  1  0.75166048  0.87726306  0.95295318  1
  S2-  S224  1  0.13330530  0.00310426  0.04172401  1
  S2-  S225  1  0.10939929  -0.00713028  0.54767646  1
  S2-  S226  1  0.12369120  0.25321262  0.04522481  1
  S2-  S227  1  0.10602257  0.24725290  0.54342988  1
  S2-  S228  1  0.12805896  0.49833158  0.04432764  1
  S2-  S229  1  0.10706640  0.49362162  0.53900917  1
  S2-  S230  1  0.12874106  0.75041135  0.04609127  1
  S2-  S231  1  0.10329832  0.74591043  0.55838330  1
  S2-  S232  1  0.37902032  0.00048763  0.05033604  1
  S2-  S233  1  0.36009521  -0.00668396  0.54864874  1
  S2-  S234  1  0.38300282  0.25422299  0.06601812  1
  S2-  S235  1  0.35480882  0.24810656  0.54934771  1
  S2-  S236  1  0.38099343  0.49982109  0.05139488  1
  S2-  S237  1  0.35628154  0.49566373  0.54651905  1
  S2-  S238  1  0.37773086  0.74993414  0.03995564  1
  S2-  S239  1  0.36037713  0.74051215  0.55172829  1
  S2-  S240  1  0.62219038  -0.00266667  0.04334623  1
  S2-  S241  1  0.60434851  -0.00225237  0.54338666  1
  S2-  S242  1  0.63156883  0.24829550  0.04858561  1
  S2-  S243  1  0.60814084  0.24614748  0.54188783  1
  S2-  S244  1  0.63320906  0.50453954  0.04363760  1
  S2-  S245  1  0.61088450  0.49464824  0.53944523  1
  S2-  S246  1  0.63070273  0.75179575  0.04224977  1
  S2-  S247  1  0.60668458  0.73991615  0.54403133  1
  S2-  S248  1  0.87706241  0.00057369  0.03721082  1
  S2-  S249  1  0.85552463  -0.00491647  0.53771928  1
  S2-  S250  1  0.87702462  0.24409248  0.04954288  1
  S2-  S251  1  0.85451309  0.24202351  0.52828442  1
  S2-  S252  1  0.87973114  0.50031765  0.04353814  1
  S2-  S253  1  0.85156939  0.49245417  0.53405493  1
  S2-  S254  1  0.87858419  0.75236922  0.05689906  1
  S2-  S255  1  0.85732367  0.74685231  0.55039388  1
