# generated using pymatgen
data_La6Ce6Pr19Nd20Sm13(BiS2)64
_symmetry_space_group_name_H-M   'P 1'
_cell_length_a   16.16264853
_cell_length_b   16.13961550
_cell_length_c   27.32494324
_cell_angle_alpha   89.96839112
_cell_angle_beta   89.97931012
_cell_angle_gamma   90.03816119
_symmetry_Int_Tables_number   1
_chemical_formula_structural   La6Ce6Pr19Nd20Sm13(BiS2)64
_chemical_formula_sum   'La6 Ce6 Pr19 Nd20 Sm13 Bi64 S128'
_cell_volume   7127.95239557
_cell_formula_units_Z   1
loop_
 _symmetry_equiv_pos_site_id
 _symmetry_equiv_pos_as_xyz
  1  'x, y, z'
loop_
 _atom_type_symbol
 _atom_type_oxidation_number
  La3+  3.0
  Ce3+  3.0
  Pr3+  3.0
  Nd3+  3.0
  Sm3+  3.0
  Bi2+  2.0
  S2-  -2.0
loop_
 _atom_site_type_symbol
 _atom_site_label
 _atom_site_symmetry_multiplicity
 _atom_site_fract_x
 _atom_site_fract_y
 _atom_site_fract_z
 _atom_site_occupancy
  La3+  La0  1  0.39018488  0.50166406  0.91469136  1
  La3+  La1  1  0.76382286  0.62818061  0.10254502  1
  La3+  La2  1  0.26475797  0.61490889  0.59861587  1
  La3+  La3  1  0.25328836  0.12682391  0.10812492  1
  La3+  La4  1  0.25319897  0.87911217  0.60576255  1
  La3+  La5  1  0.88174430  0.50922060  0.92584386  1
  Ce3+  Ce6  1  0.88567018  0.50034079  0.43924407  1
  Ce3+  Ce7  1  0.75769646  0.88021569  0.06275892  1
  Ce3+  Ce8  1  0.50277923  0.87461446  0.56434053  1
  Ce3+  Ce9  1  0.26075722  0.37682409  0.05608007  1
  Ce3+  Ce10  1  0.76391862  0.37513899  0.06522710  1
  Ce3+  Ce11  1  0.14020591  0.00453420  0.94396918  1
  Pr3+  Pr12  1  0.88364422  0.00427327  0.92937519  1
  Pr3+  Pr13  1  0.50770255  0.38818834  0.06379304  1
  Pr3+  Pr14  1  0.63258668  -0.00179609  0.43814046  1
  Pr3+  Pr15  1  0.00775034  0.37987102  0.04992867  1
  Pr3+  Pr16  1  0.89532495  0.75163857  0.41839037  1
  Pr3+  Pr17  1  0.00707163  0.88067367  0.05774763  1
  Pr3+  Pr18  1  0.75899663  0.87462838  0.54933121  1
  Pr3+  Pr19  1  0.75801249  0.13067792  0.05864106  1
  Pr3+  Pr20  1  0.37923906  0.74928572  0.44669047  1
  Pr3+  Pr21  1  0.76011181  0.62624987  0.55747703  1
  Pr3+  Pr22  1  0.88091144  0.75774267  0.93150419  1
  Pr3+  Pr23  1  0.13717491  0.25367774  0.94171395  1
  Pr3+  Pr24  1  0.26233635  0.12832246  0.56480322  1
  Pr3+  Pr25  1  0.01031892  0.37444513  0.55558768  1
  Pr3+  Pr26  1  0.13262086  -0.00175820  0.44234911  1
  Pr3+  Pr27  1  0.75962473  0.37233245  0.55839737  1
  Pr3+  Pr28  1  0.39154807  0.25158797  0.42860823  1
  Pr3+  Pr29  1  0.88238528  0.25653889  0.92451680  1
  Pr3+  Pr30  1  0.50469291  0.62553947  0.56303389  1
  Nd3+  Nd31  1  0.38509022  0.25347384  0.93772721  1
  Nd3+  Nd32  1  0.38165326  0.50320169  0.43873640  1
  Nd3+  Nd33  1  0.63226274  0.00466008  0.93541825  1
  Nd3+  Nd34  1  0.50353954  0.13024111  0.06532513  1
  Nd3+  Nd35  1  0.00783318  0.62705519  0.56465212  1
  Nd3+  Nd36  1  0.14363022  0.24697251  0.43105118  1
  Nd3+  Nd37  1  0.25950930  0.63155666  0.05646627  1
  Nd3+  Nd38  1  0.50716136  0.12257492  0.55664709  1
  Nd3+  Nd39  1  0.50701577  0.63209552  0.06106116  1
  Nd3+  Nd40  1  0.25640114  0.87266361  0.07112149  1
  Nd3+  Nd41  1  0.00329518  0.63000474  0.05912874  1
  Nd3+  Nd42  1  0.63410311  0.75331923  0.94762585  1
  Nd3+  Nd43  1  0.00579594  0.87385139  0.56605666  1
  Nd3+  Nd44  1  0.00775135  0.13005874  0.05728791  1
  Nd3+  Nd45  1  0.63654047  0.50366643  0.44036895  1
  Nd3+  Nd46  1  0.75777193  0.12515694  0.55525263  1
  Nd3+  Nd47  1  0.50834190  0.88185277  0.06238174  1
  Nd3+  Nd48  1  0.63319189  0.25718022  0.94504985  1
  Nd3+  Nd49  1  0.13652075  0.75590222  0.93279399  1
  Nd3+  Nd50  1  0.63272903  0.74922169  0.44037029  1
  Sm3+  Sm51  1  0.01291707  0.12516928  0.55518825  1
  Sm3+  Sm52  1  0.38401676  0.75846143  0.93794055  1
  Sm3+  Sm53  1  0.38239749  0.00365565  0.94858688  1
  Sm3+  Sm54  1  0.37981307  -0.00268343  0.44382139  1
  Sm3+  Sm55  1  0.63195757  0.24964743  0.43886412  1
  Sm3+  Sm56  1  0.13693945  0.50863254  0.94256901  1
  Sm3+  Sm57  1  0.25959311  0.37577555  0.55689870  1
  Sm3+  Sm58  1  0.50588414  0.37581401  0.55623175  1
  Sm3+  Sm59  1  0.13235923  0.50082511  0.44552170  1
  Sm3+  Sm60  1  0.13314876  0.75009739  0.45426621  1
  Sm3+  Sm61  1  0.63537912  0.50950153  0.95128724  1
  Sm3+  Sm62  1  0.88511792  0.24961110  0.44085640  1
  Sm3+  Sm63  1  0.88452924  0.00214880  0.44250877  1
  Bi2+  Bi64  1  -0.00131459  0.12119726  0.31316258  1
  Bi2+  Bi65  1  -0.05510060  0.12590205  0.75959007  1
  Bi2+  Bi66  1  0.03741770  0.40644533  0.28494809  1
  Bi2+  Bi67  1  -0.01465461  0.32514681  0.78518502  1
  Bi2+  Bi68  1  -0.00419015  0.62396598  0.30808656  1
  Bi2+  Bi69  1  -0.03019072  0.54654575  0.78600326  1
  Bi2+  Bi70  1  0.08075006  0.87661758  0.28983435  1
  Bi2+  Bi71  1  -0.06060517  0.93100624  0.75891169  1
  Bi2+  Bi72  1  0.28661868  0.07431792  0.29096309  1
  Bi2+  Bi73  1  0.21890251  0.12681618  0.80117768  1
  Bi2+  Bi74  1  0.23545680  0.34644997  0.29373140  1
  Bi2+  Bi75  1  0.26311731  0.32940149  0.79207834  1
  Bi2+  Bi76  1  0.26046435  0.67855170  0.29546935  1
  Bi2+  Bi77  1  0.24230342  0.63697327  0.79486808  1
  Bi2+  Bi78  1  0.26089524  0.86832067  0.24688982  1
  Bi2+  Bi79  1  0.24849827  0.88097469  0.81015595  1
  Bi2+  Bi80  1  0.54338171  0.11371841  0.29084564  1
  Bi2+  Bi81  1  0.41014617  0.18139026  0.79890566  1
  Bi2+  Bi82  1  0.48721449  0.36499256  0.28799029  1
  Bi2+  Bi83  1  0.52733308  0.32261252  0.74527602  1
  Bi2+  Bi84  1  0.51449198  0.61235816  0.31331333  1
  Bi2+  Bi85  1  0.50590262  0.64343919  0.79904427  1
  Bi2+  Bi86  1  0.45500169  0.84501579  0.26732279  1
  Bi2+  Bi87  1  0.50689588  0.91456888  0.78585176  1
  Bi2+  Bi88  1  0.74506676  0.16753508  0.29438878  1
  Bi2+  Bi89  1  0.73344008  0.13575199  0.79388487  1
  Bi2+  Bi90  1  0.73898832  0.36159826  0.23766795  1
  Bi2+  Bi91  1  0.73601794  0.35090932  0.78605259  1
  Bi2+  Bi92  1  0.74712189  0.60925978  0.29678328  1
  Bi2+  Bi93  1  0.73189151  0.62846120  0.80220782  1
  Bi2+  Bi94  1  0.69909253  0.92453493  0.25334769  1
  Bi2+  Bi95  1  0.75468336  0.88774636  0.79351069  1
  Bi2+  Bi96  1  0.09181992  -0.00880104  0.19694303  1
  Bi2+  Bi97  1  0.13004511  0.03429129  0.71428957  1
  Bi2+  Bi98  1  0.11937581  0.28495204  0.20579769  1
  Bi2+  Bi99  1  0.11790650  0.24233200  0.69890026  1
  Bi2+  Bi100  1  0.11635144  0.52305785  0.19953071  1
  Bi2+  Bi101  1  0.12253443  0.44927427  0.74837220  1
  Bi2+  Bi102  1  0.12378802  0.71891657  0.21548368  1
  Bi2+  Bi103  1  0.09139934  0.75193144  0.72425263  1
  Bi2+  Bi104  1  0.48666213  0.00103777  0.20179281  1
  Bi2+  Bi105  1  0.40137786  0.03683498  0.71848279  1
  Bi2+  Bi106  1  0.37972623  0.26426225  0.21838108  1
  Bi2+  Bi107  1  0.30691582  0.23902801  0.69193944  1
  Bi2+  Bi108  1  0.29929703  0.50639552  0.23887707  1
  Bi2+  Bi109  1  0.37981986  0.48377620  0.70790596  1
  Bi2+  Bi110  1  0.37915688  0.67573205  0.19965525  1
  Bi2+  Bi111  1  0.41111403  0.75224362  0.71989357  1
  Bi2+  Bi112  1  0.66306332  0.01854475  0.15366289  1
  Bi2+  Bi113  1  0.58460122  -0.04240164  0.67971629  1
  Bi2+  Bi114  1  0.63892359  0.20210233  0.20148250  1
  Bi2+  Bi115  1  0.59891377  0.15182741  0.70750166  1
  Bi2+  Bi116  1  0.57922513  0.46972900  0.21006849  1
  Bi2+  Bi117  1  0.61919801  0.50003433  0.74969183  1
  Bi2+  Bi118  1  0.61352209  0.76850591  0.21341156  1
  Bi2+  Bi119  1  0.60452118  0.77282001  0.72465151  1
  Bi2+  Bi120  1  0.86611054  0.02068330  0.25252175  1
  Bi2+  Bi121  1  0.78214788  0.00732141  0.69937099  1
  Bi2+  Bi122  1  0.89543852  0.23165246  0.20609086  1
  Bi2+  Bi123  1  0.85136107  0.28850069  0.69639652  1
  Bi2+  Bi124  1  0.91454341  0.49098857  0.20755826  1
  Bi2+  Bi125  1  0.85915660  0.50219726  0.69690885  1
  Bi2+  Bi126  1  0.88739574  0.77005088  0.21461275  1
  Bi2+  Bi127  1  0.86893087  0.74265016  0.69552419  1
  S2-  S128  1  -0.02057845  0.10592804  0.15429197  1
  S2-  S129  1  0.01370235  0.12830991  0.65254790  1
  S2-  S130  1  -0.01695457  0.35274420  0.14791235  1
  S2-  S131  1  -0.02246998  0.39343016  0.65235502  1
  S2-  S132  1  -0.07793644  0.63509474  0.14886429  1
  S2-  S133  1  0.00285996  0.63936148  0.66322782  1
  S2-  S134  1  -0.01331103  0.86123121  0.15786224  1
  S2-  S135  1  0.00237151  0.86715733  0.66488303  1
  S2-  S136  1  0.18582994  0.13405722  0.20853680  1
  S2-  S137  1  0.25868285  0.03837957  0.65001892  1
  S2-  S138  1  0.25878598  0.30214233  0.14395354  1
  S2-  S139  1  0.25774253  0.45605401  0.64513734  1
  S2-  S140  1  0.24704521  0.73486157  0.13684568  1
  S2-  S141  1  0.22666028  0.68091154  0.69048162  1
  S2-  S142  1  0.24892289  0.96566334  0.15513921  1
  S2-  S143  1  0.20112564  0.87871864  0.70838359  1
  S2-  S144  1  0.41222762  0.13430610  0.15159944  1
  S2-  S145  1  0.44682725  0.15947862  0.64656785  1
  S2-  S146  1  0.49637648  0.34374874  0.16082282  1
  S2-  S147  1  0.49362968  0.39263321  0.65342112  1
  S2-  S148  1  0.47163804  0.55949095  0.14869902  1
  S2-  S149  1  0.42420270  0.61320676  0.65198147  1
  S2-  S150  1  0.47643609  0.81835000  0.15315797  1
  S2-  S151  1  0.41062786  0.86605977  0.64939525  1
  S2-  S152  1  0.78356178  0.24381134  0.13442595  1
  S2-  S153  1  0.74356795  0.17795230  0.64837498  1
  S2-  S154  1  0.77575418  0.46434110  0.14933762  1
  S2-  S155  1  0.74058419  0.40700289  0.65533223  1
  S2-  S156  1  0.68025167  0.62382051  0.19809847  1
  S2-  S157  1  0.76203735  0.63104996  0.65789908  1
  S2-  S158  1  0.77296288  0.79373431  0.14776005  1
  S2-  S159  1  0.78693755  0.85320322  0.64695101  1
  S2-  S160  1  0.14305013  0.02275190  0.34255711  1
  S2-  S161  1  0.13408525  -0.01192600  0.84588057  1
  S2-  S162  1  0.08467801  0.25142416  0.33794585  1
  S2-  S163  1  0.11738605  0.25358772  0.84247253  1
  S2-  S164  1  0.11229324  0.52372169  0.34882375  1
  S2-  S165  1  0.13321260  0.52638025  0.84526466  1
  S2-  S166  1  0.05264978  0.75992028  0.36659865  1
  S2-  S167  1  0.12351379  0.75851932  0.83281742  1
  S2-  S168  1  0.39127094  0.00183369  0.34602356  1
  S2-  S169  1  0.37419392  -0.04696526  0.85465378  1
  S2-  S170  1  0.28877058  0.21705392  0.35086363  1
  S2-  S171  1  0.39605010  0.34966242  0.85613199  1
  S2-  S172  1  0.39617309  0.48615509  0.34075084  1
  S2-  S173  1  0.36584632  0.53619982  0.81290235  1
  S2-  S174  1  0.40543021  0.73593389  0.34727685  1
  S2-  S175  1  0.36316206  0.73788159  0.84129254  1
  S2-  S176  1  0.63095771  -0.00896580  0.33862712  1
  S2-  S177  1  0.63484984  0.00495274  0.83657934  1
  S2-  S178  1  0.52963835  0.25290458  0.35985369  1
  S2-  S179  1  0.63651132  0.25198455  0.84609250  1
  S2-  S180  1  0.63428469  0.49700696  0.34160230  1
  S2-  S181  1  0.59983829  0.51896428  0.85486808  1
  S2-  S182  1  0.63087565  0.71632112  0.34247949  1
  S2-  S183  1  0.67277890  0.75733058  0.85049944  1
  S2-  S184  1  0.90823998  -0.02671656  0.34815896  1
  S2-  S185  1  0.88633294  -0.11855590  0.85601856  1
  S2-  S186  1  0.87724277  0.23620384  0.34372981  1
  S2-  S187  1  0.88088526  0.12728511  0.85414171  1
  S2-  S188  1  0.86650199  0.51599707  0.34291309  1
  S2-  S189  1  0.86192352  0.38381657  0.85392893  1
  S2-  S190  1  0.85036792  0.73780413  0.31821387  1
  S2-  S191  1  0.88569144  0.63968685  0.85284574  1
  S2-  S192  1  0.00848713  0.12684166  0.45131417  1
  S2-  S193  1  0.01299624  0.12765177  0.95087855  1
  S2-  S194  1  0.01086421  0.37215235  0.44851410  1
  S2-  S195  1  0.01472356  0.38393450  0.94478014  1
  S2-  S196  1  0.00926671  0.62394983  0.45868853  1
  S2-  S197  1  0.01465175  0.63181260  0.95264384  1
  S2-  S198  1  0.00559071  0.87763539  0.46036918  1
  S2-  S199  1  0.01387688  0.88015714  0.95219955  1
  S2-  S200  1  0.26062215  0.12131107  0.45813775  1
  S2-  S201  1  0.26372995  0.12853854  0.94639353  1
  S2-  S202  1  0.25792907  0.37796173  0.45162723  1
  S2-  S203  1  0.25889307  0.38398927  0.95067891  1
  S2-  S204  1  0.25250698  0.62472514  0.45082179  1
  S2-  S205  1  0.26332262  0.63052022  0.94963138  1
  S2-  S206  1  0.25482742  0.87288365  0.44525820  1
  S2-  S207  1  0.26091784  0.87635123  0.96124657  1
  S2-  S208  1  0.50706836  0.11984588  0.45270088  1
  S2-  S209  1  0.50718505  0.12772764  0.95382665  1
  S2-  S210  1  0.51125540  0.38168414  0.45318678  1
  S2-  S211  1  0.51183921  0.38410962  0.95693209  1
  S2-  S212  1  0.50868555  0.62486535  0.45649117  1
  S2-  S213  1  0.50477938  0.63130069  0.95372530  1
  S2-  S214  1  0.50648078  0.87406748  0.45479899  1
  S2-  S215  1  0.50815060  0.87946306  0.95443513  1
  S2-  S216  1  0.75819993  0.12634925  0.44884395  1
  S2-  S217  1  0.75393552  0.12950513  0.95295599  1
  S2-  S218  1  0.75733927  0.37148559  0.44998206  1
  S2-  S219  1  0.75326808  0.38238361  0.95766594  1
  S2-  S220  1  0.76235126  0.62979387  0.45034102  1
  S2-  S221  1  0.75557090  0.63083694  0.95357985  1
  S2-  S222  1  0.76257742  0.87315408  0.44295303  1
  S2-  S223  1  0.75427356  0.88260369  0.95635109  1
  S2-  S224  1  0.13537193  0.00761773  0.05059898  1
  S2-  S225  1  0.13323515  -0.00366417  0.55031472  1
  S2-  S226  1  0.13504888  0.25045213  0.04764795  1
  S2-  S227  1  0.13626765  0.25053058  0.54285106  1
  S2-  S228  1  0.13429164  0.50701103  0.04776610  1
  S2-  S229  1  0.13458833  0.50304317  0.54969674  1
  S2-  S230  1  0.12827160  0.75308466  0.04024507  1
  S2-  S231  1  0.13706750  0.75155174  0.55940672  1
  S2-  S232  1  0.38005664  0.00318975  0.05132040  1
  S2-  S233  1  0.38056144  -0.00287731  0.54773134  1
  S2-  S234  1  0.38687996  0.25709769  0.04244433  1
  S2-  S235  1  0.38365575  0.25510916  0.53777048  1
  S2-  S236  1  0.37952617  0.50645513  0.03868774  1
  S2-  S237  1  0.38202573  0.49870349  0.54336266  1
  S2-  S238  1  0.38547989  0.75547740  0.04157200  1
  S2-  S239  1  0.37192726  0.74717234  0.55183255  1
  S2-  S240  1  0.62833518  0.00664690  0.04048607  1
  S2-  S241  1  0.63309364  0.00038614  0.54481767  1
  S2-  S242  1  0.62666544  0.25497151  0.04961715  1
  S2-  S243  1  0.62875876  0.25067718  0.54317998  1
  S2-  S244  1  0.63670905  0.51129032  0.05461774  1
  S2-  S245  1  0.63128567  0.50017144  0.54795170  1
  S2-  S246  1  0.63250606  0.75408991  0.05300849  1
  S2-  S247  1  0.63099700  0.75015728  0.54840465  1
  S2-  S248  1  0.88200655  0.00544388  0.04204625  1
  S2-  S249  1  0.88553239  0.00375968  0.54818160  1
  S2-  S250  1  0.88796919  0.25241932  0.03173128  1
  S2-  S251  1  0.88597141  0.24664551  0.54546224  1
  S2-  S252  1  0.88439425  0.50575277  0.03915466  1
  S2-  S253  1  0.88399101  0.50021519  0.54562062  1
  S2-  S254  1  0.88313800  0.75554489  0.04008424  1
  S2-  S255  1  0.88578385  0.74983092  0.53994487  1
