# generated using pymatgen
data_La6Ce6Pr19Nd20Sm13(BiS2)64
_symmetry_space_group_name_H-M   'P 1'
_cell_length_a   16.11809107
_cell_length_b   16.05185736
_cell_length_c   27.41776544
_cell_angle_alpha   89.92385039
_cell_angle_beta   90.60224721
_cell_angle_gamma   89.90199087
_symmetry_Int_Tables_number   1
_chemical_formula_structural   La6Ce6Pr19Nd20Sm13(BiS2)64
_chemical_formula_sum   'La6 Ce6 Pr19 Nd20 Sm13 Bi64 S128'
_cell_volume   7093.26086937
_cell_formula_units_Z   1
loop_
 _symmetry_equiv_pos_site_id
 _symmetry_equiv_pos_as_xyz
  1  'x, y, z'
loop_
 _atom_type_symbol
 _atom_type_oxidation_number
  La3+  3.0
  Ce3+  3.0
  Pr3+  3.0
  Nd3+  3.0
  Sm3+  3.0
  Bi2+  2.0
  S2-  -2.0
loop_
 _atom_site_type_symbol
 _atom_site_label
 _atom_site_symmetry_multiplicity
 _atom_site_fract_x
 _atom_site_fract_y
 _atom_site_fract_z
 _atom_site_occupancy
  La3+  La0  1  0.50242436  0.37684687  0.57444429  1
  La3+  La1  1  0.27783058  0.88636879  0.08191616  1
  La3+  La2  1  0.11935417  -0.00267385  0.40934186  1
  La3+  La3  1  0.12885861  0.50877658  0.40167713  1
  La3+  La4  1  0.24663502  0.13382287  0.56202470  1
  La3+  La5  1  0.62358199  0.76092798  0.43082966  1
  Ce3+  Ce6  1  0.75134075  0.63365103  0.55993529  1
  Ce3+  Ce7  1  0.27631933  0.13047458  0.06076473  1
  Ce3+  Ce8  1  0.02387032  0.12866443  0.06683354  1
  Ce3+  Ce9  1  0.02967960  0.63360191  0.07630845  1
  Ce3+  Ce10  1  0.87533644  0.00767746  0.43738806  1
  Ce3+  Ce11  1  0.89454098  0.00466923  0.94503453  1
  Pr3+  Pr12  1  0.36904219  0.26096553  0.43701347  1
  Pr3+  Pr13  1  0.87770870  0.26628029  0.42344142  1
  Pr3+  Pr14  1  0.00416672  0.38148759  0.55517368  1
  Pr3+  Pr15  1  0.89986272  0.50661751  0.94919246  1
  Pr3+  Pr16  1  0.62753368  0.01232716  0.42927567  1
  Pr3+  Pr17  1  0.64767183  0.00448069  0.93393903  1
  Pr3+  Pr18  1  0.27872638  0.37870657  0.07073997  1
  Pr3+  Pr19  1  0.62498626  0.26112547  0.42906235  1
  Pr3+  Pr20  1  0.37584985  0.50908224  0.43581325  1
  Pr3+  Pr21  1  0.87526225  0.50849920  0.43707497  1
  Pr3+  Pr22  1  0.27925263  0.63163877  0.07135609  1
  Pr3+  Pr23  1  0.75383106  0.87874128  0.58217381  1
  Pr3+  Pr24  1  0.25120024  0.89113099  0.58424768  1
  Pr3+  Pr25  1  0.50154799  0.63692325  0.56297566  1
  Pr3+  Pr26  1  0.39164689  0.75595586  0.93333317  1
  Pr3+  Pr27  1  0.75089288  0.37954853  0.57039404  1
  Pr3+  Pr28  1  0.25155529  0.63296557  0.55683153  1
  Pr3+  Pr29  1  0.39294213  0.25409731  0.92617606  1
  Pr3+  Pr30  1  0.77234578  0.13396918  0.05864930  1
  Nd3+  Nd31  1  0.64256037  0.75746282  0.94123026  1
  Nd3+  Nd32  1  0.37086558  0.76305789  0.44579877  1
  Nd3+  Nd33  1  0.00504768  0.63216760  0.55976139  1
  Nd3+  Nd34  1  0.37094790  0.00797219  0.43807412  1
  Nd3+  Nd35  1  0.02261208  0.88040618  0.06468559  1
  Nd3+  Nd36  1  0.89770014  0.25849190  0.95128067  1
  Nd3+  Nd37  1  0.02890843  0.38238704  0.08473097  1
  Nd3+  Nd38  1  0.89618975  0.75530237  0.94964587  1
  Nd3+  Nd39  1  0.12344665  0.76229790  0.44534160  1
  Nd3+  Nd40  1  0.87674456  0.75995107  0.44488637  1
  Nd3+  Nd41  1  0.52577822  0.88955680  0.07060072  1
  Nd3+  Nd42  1  0.11986276  0.25792047  0.42394852  1
  Nd3+  Nd43  1  0.14399320  0.00522842  0.94031671  1
  Nd3+  Nd44  1  0.14437914  0.25768581  0.94862831  1
  Nd3+  Nd45  1  0.64295171  0.50629797  0.93919789  1
  Nd3+  Nd46  1  0.77119882  0.38433618  0.05826898  1
  Nd3+  Nd47  1  0.00307448  0.88792647  0.57059979  1
  Nd3+  Nd48  1  0.14487883  0.50624192  0.95095824  1
  Nd3+  Nd49  1  0.50468134  0.88724696  0.56571747  1
  Nd3+  Nd50  1  0.14648143  0.75694558  0.94818834  1
  Sm3+  Sm51  1  0.39278840  0.00301180  0.93223258  1
  Sm3+  Sm52  1  0.25495462  0.38037314  0.56252138  1
  Sm3+  Sm53  1  0.52074830  0.13002469  0.05206249  1
  Sm3+  Sm54  1  0.51776729  0.38148225  0.05763272  1
  Sm3+  Sm55  1  0.51885756  0.63370828  0.05652745  1
  Sm3+  Sm56  1  0.62439388  0.50700745  0.43841877  1
  Sm3+  Sm57  1  0.50668215  0.13366521  0.55044183  1
  Sm3+  Sm58  1  0.77143994  0.63096707  0.05769028  1
  Sm3+  Sm59  1  0.00255611  0.13189633  0.55055597  1
  Sm3+  Sm60  1  0.39162951  0.50573883  0.93086500  1
  Sm3+  Sm61  1  0.64451536  0.25742651  0.94365869  1
  Sm3+  Sm62  1  0.76683326  0.88313899  0.06845224  1
  Sm3+  Sm63  1  0.75386290  0.13637316  0.55382677  1
  Bi2+  Bi64  1  -0.05542390  0.11441159  0.27098308  1
  Bi2+  Bi65  1  -0.04973632  0.14467227  0.73782647  1
  Bi2+  Bi66  1  -0.02269875  0.35775740  0.28867233  1
  Bi2+  Bi67  1  0.01094631  0.36582388  0.82525502  1
  Bi2+  Bi68  1  -0.09090194  0.60637843  0.28708441  1
  Bi2+  Bi69  1  0.01139212  0.61589749  0.82060067  1
  Bi2+  Bi70  1  -0.00082525  0.86317164  0.29163536  1
  Bi2+  Bi71  1  0.02775138  0.87405425  0.81736502  1
  Bi2+  Bi72  1  0.29897219  0.13326195  0.28647845  1
  Bi2+  Bi73  1  0.24764673  0.17013663  0.78821544  1
  Bi2+  Bi74  1  0.26027328  0.38209060  0.27992019  1
  Bi2+  Bi75  1  0.25568939  0.36780456  0.77614282  1
  Bi2+  Bi76  1  0.26751488  0.61734498  0.26745316  1
  Bi2+  Bi77  1  0.21664453  0.55491578  0.73999865  1
  Bi2+  Bi78  1  0.27400940  0.89025401  0.30116045  1
  Bi2+  Bi79  1  0.25295917  0.84696124  0.79265237  1
  Bi2+  Bi80  1  0.51816757  0.13058597  0.23085085  1
  Bi2+  Bi81  1  0.44909471  0.12225894  0.76414960  1
  Bi2+  Bi82  1  0.49672590  0.37839892  0.29361184  1
  Bi2+  Bi83  1  0.50941896  0.36362347  0.79764298  1
  Bi2+  Bi84  1  0.46265339  0.57627530  0.30328583  1
  Bi2+  Bi85  1  0.48622633  0.62625015  0.79708878  1
  Bi2+  Bi86  1  0.51632941  0.79989698  0.29370859  1
  Bi2+  Bi87  1  0.52552662  0.83261011  0.80065241  1
  Bi2+  Bi88  1  0.77001649  0.07385941  0.31430657  1
  Bi2+  Bi89  1  0.72995811  0.12969466  0.78793837  1
  Bi2+  Bi90  1  0.72320368  0.26913741  0.30557699  1
  Bi2+  Bi91  1  0.75372577  0.32631393  0.79603785  1
  Bi2+  Bi92  1  0.71399270  0.58687834  0.28922778  1
  Bi2+  Bi93  1  0.76020174  0.64544275  0.77646496  1
  Bi2+  Bi94  1  0.75907482  0.85181377  0.29588423  1
  Bi2+  Bi95  1  0.76864727  0.93813536  0.80812649  1
  Bi2+  Bi96  1  0.14054630  0.00455212  0.20529478  1
  Bi2+  Bi97  1  0.14525646  0.01105373  0.70919095  1
  Bi2+  Bi98  1  0.16532761  0.25032337  0.21409225  1
  Bi2+  Bi99  1  0.10872910  0.24867202  0.71035931  1
  Bi2+  Bi100  1  0.08801582  0.50804435  0.21141223  1
  Bi2+  Bi101  1  0.02632408  0.52393230  0.71500045  1
  Bi2+  Bi102  1  0.09001305  0.75414045  0.20970416  1
  Bi2+  Bi103  1  0.12896357  0.73831338  0.71331744  1
  Bi2+  Bi104  1  0.40577708  -0.02175117  0.20868149  1
  Bi2+  Bi105  1  0.38197575  -0.05259819  0.73304971  1
  Bi2+  Bi106  1  0.34710659  0.21312641  0.18315813  1
  Bi2+  Bi107  1  0.36047748  0.25907447  0.69720446  1
  Bi2+  Bi108  1  0.35942917  0.48402792  0.20109715  1
  Bi2+  Bi109  1  0.40289740  0.48515430  0.72932837  1
  Bi2+  Bi110  1  0.40479365  0.72043719  0.21618371  1
  Bi2+  Bi111  1  0.39634834  0.72794602  0.71017261  1
  Bi2+  Bi112  1  0.66624076  -0.01284111  0.22524114  1
  Bi2+  Bi113  1  0.60847306  0.05072013  0.70667503  1
  Bi2+  Bi114  1  0.60672597  0.29991852  0.20783951  1
  Bi2+  Bi115  1  0.63270717  0.25854732  0.69620419  1
  Bi2+  Bi116  1  0.57529355  0.50301574  0.21636876  1
  Bi2+  Bi117  1  0.65813538  0.48537063  0.74069369  1
  Bi2+  Bi118  1  0.63604965  0.73766809  0.21215464  1
  Bi2+  Bi119  1  0.63340237  0.77237174  0.70982207  1
  Bi2+  Bi120  1  0.86054314  -0.05002561  0.20670627  1
  Bi2+  Bi121  1  0.80480372  0.03013089  0.69631152  1
  Bi2+  Bi122  1  0.81662771  0.21685024  0.21128511  1
  Bi2+  Bi123  1  0.87328779  0.32172345  0.70526607  1
  Bi2+  Bi124  1  0.81003635  0.48675182  0.21197537  1
  Bi2+  Bi125  1  0.83106950  0.52250944  0.69479910  1
  Bi2+  Bi126  1  0.83197506  0.75012979  0.20226000  1
  Bi2+  Bi127  1  0.83271026  0.81013078  0.72917897  1
  S2-  S128  1  0.05047852  0.14092102  0.16370990  1
  S2-  S129  1  0.03081373  0.10912141  0.64905239  1
  S2-  S130  1  -0.02960887  0.40484172  0.18161358  1
  S2-  S131  1  0.02319264  0.37108401  0.65584540  1
  S2-  S132  1  -0.03543815  0.65119469  0.16715383  1
  S2-  S133  1  0.00632330  0.67043875  0.65796837  1
  S2-  S134  1  0.01338366  0.91342892  0.16181211  1
  S2-  S135  1  -0.11053450  0.89815312  0.64740708  1
  S2-  S136  1  0.27216553  0.03860825  0.14461658  1
  S2-  S137  1  0.26161887  0.03709883  0.64905978  1
  S2-  S138  1  0.16713508  0.39069166  0.15215965  1
  S2-  S139  1  0.22310159  0.26024556  0.63542720  1
  S2-  S140  1  0.16345094  0.63166275  0.15023907  1
  S2-  S141  1  0.25449646  0.65971049  0.65628697  1
  S2-  S142  1  0.20920177  0.85006576  0.18054548  1
  S2-  S143  1  0.11583367  0.87813799  0.65195257  1
  S2-  S144  1  0.51377902  0.04661973  0.13695350  1
  S2-  S145  1  0.50197546  0.21969955  0.63572931  1
  S2-  S146  1  0.41628447  0.36197206  0.13604442  1
  S2-  S147  1  0.36932042  0.40895892  0.64082354  1
  S2-  S148  1  0.41987797  0.61595645  0.13583519  1
  S2-  S149  1  0.52182258  0.65154474  0.66291488  1
  S2-  S150  1  0.41744261  0.85438358  0.14588433  1
  S2-  S151  1  0.39452958  0.86789595  0.64578431  1
  S2-  S152  1  0.75785213  0.08729831  0.15386306  1
  S2-  S153  1  0.77090904  0.23839566  0.63425416  1
  S2-  S154  1  0.75074114  0.36181487  0.15439037  1
  S2-  S155  1  0.62882944  0.40680908  0.64635211  1
  S2-  S156  1  0.73566462  0.62030282  0.15197248  1
  S2-  S157  1  0.75053689  0.72547075  0.64224886  1
  S2-  S158  1  0.65468195  0.87318879  0.14265269  1
  S2-  S159  1  0.61611748  0.90674543  0.64392602  1
  S2-  S160  1  0.16898025  0.04362103  0.31101018  1
  S2-  S161  1  0.15305049  -0.02612880  0.84150902  1
  S2-  S162  1  0.12956870  0.36344118  0.34239128  1
  S2-  S163  1  0.12070293  0.23942780  0.85097323  1
  S2-  S164  1  0.06349240  0.57204018  0.31123079  1
  S2-  S165  1  0.12601852  0.49785573  0.85279587  1
  S2-  S166  1  0.13209498  0.83359037  0.35394654  1
  S2-  S167  1  0.13935426  0.74401794  0.84819211  1
  S2-  S168  1  0.38589167  0.00511142  0.33796003  1
  S2-  S169  1  0.38304561  -0.11940483  0.86035196  1
  S2-  S170  1  0.36951956  0.27740861  0.33747013  1
  S2-  S171  1  0.37966075  0.12196390  0.85777181  1
  S2-  S172  1  0.28283404  0.52094126  0.34983975  1
  S2-  S173  1  0.37555712  0.38518459  0.85757843  1
  S2-  S174  1  0.36112531  0.77911124  0.34655245  1
  S2-  S175  1  0.36767210  0.62891174  0.86125320  1
  S2-  S176  1  0.61506156  -0.11329048  0.35674904  1
  S2-  S177  1  0.60596903  -0.02476791  0.83836479  1
  S2-  S178  1  0.62081153  0.13714932  0.35343455  1
  S2-  S179  1  0.61526131  0.25097198  0.84736559  1
  S2-  S180  1  0.63433271  0.39157333  0.36086404  1
  S2-  S181  1  0.59403789  0.50079126  0.84430246  1
  S2-  S182  1  0.60853865  0.62407743  0.36286762  1
  S2-  S183  1  0.65463802  0.73249706  0.84374531  1
  S2-  S184  1  0.96503476  -0.01397433  0.35275598  1
  S2-  S185  1  0.92754928  -0.00488081  0.84948411  1
  S2-  S186  1  0.99133445  0.22198492  0.34634306  1
  S2-  S187  1  0.89527721  0.26243239  0.85214444  1
  S2-  S188  1  0.87551253  0.40621578  0.35381368  1
  S2-  S189  1  0.90086829  0.49832724  0.84893741  1
  S2-  S190  1  0.88782341  0.75592557  0.34567487  1
  S2-  S191  1  0.91630639  0.74963839  0.85202111  1
  S2-  S192  1  0.00320116  0.12840989  0.44913013  1
  S2-  S193  1  0.01919081  0.13094877  0.95968246  1
  S2-  S194  1  0.00830558  0.39128738  0.45013353  1
  S2-  S195  1  0.02155186  0.38101475  0.97032077  1
  S2-  S196  1  0.00527930  0.63033859  0.45128633  1
  S2-  S197  1  0.02212808  0.63312662  0.96701083  1
  S2-  S198  1  -0.00077312  0.88367267  0.46129499  1
  S2-  S199  1  0.02009980  0.88038422  0.95922238  1
  S2-  S200  1  0.24381922  0.13148086  0.44410251  1
  S2-  S201  1  0.26589537  0.12964220  0.95573226  1
  S2-  S202  1  0.24595348  0.38759817  0.45500185  1
  S2-  S203  1  0.26795844  0.38091249  0.96091216  1
  S2-  S204  1  0.24541475  0.63536785  0.45096742  1
  S2-  S205  1  0.26681052  0.62981224  0.96386778  1
  S2-  S206  1  0.24687015  0.88798802  0.45725363  1
  S2-  S207  1  0.26660493  0.88364688  0.96079907  1
  S2-  S208  1  0.49488661  0.13418257  0.44851404  1
  S2-  S209  1  0.52434178  0.13014008  0.94965275  1
  S2-  S210  1  0.49739913  0.38444819  0.45662009  1
  S2-  S211  1  0.52139000  0.38024779  0.95483746  1
  S2-  S212  1  0.49438270  0.63637503  0.45747782  1
  S2-  S213  1  0.52075513  0.63019674  0.95400799  1
  S2-  S214  1  0.49634809  0.88635706  0.45806117  1
  S2-  S215  1  0.52306621  0.88327816  0.95804749  1
  S2-  S216  1  0.75781879  0.13870682  0.45118013  1
  S2-  S217  1  0.77066184  0.13434439  0.95092719  1
  S2-  S218  1  0.75320426  0.38679126  0.46191732  1
  S2-  S219  1  0.76862521  0.38191556  0.95284015  1
  S2-  S220  1  0.75298645  0.63290275  0.45449231  1
  S2-  S221  1  0.76933665  0.63025303  0.95313103  1
  S2-  S222  1  0.75401581  0.88405910  0.45406145  1
  S2-  S223  1  0.76997666  0.87871940  0.96069184  1
  S2-  S224  1  0.14478796  0.00521200  0.04730281  1
  S2-  S225  1  0.12402783  0.00790053  0.54283568  1
  S2-  S226  1  0.14844070  0.25386319  0.05432291  1
  S2-  S227  1  0.12277712  0.25693845  0.53192142  1
  S2-  S228  1  0.15012537  0.50457673  0.05369890  1
  S2-  S229  1  0.13045821  0.50584192  0.55836390  1
  S2-  S230  1  0.15140689  0.76188367  0.05314509  1
  S2-  S231  1  0.12687891  0.75948874  0.54870988  1
  S2-  S232  1  0.39761109  0.00728258  0.03661880  1
  S2-  S233  1  0.38091011  0.01367524  0.54388851  1
  S2-  S234  1  0.40036113  0.25211355  0.03442838  1
  S2-  S235  1  0.37573530  0.25489882  0.54012392  1
  S2-  S236  1  0.39953063  0.50406109  0.03596431  1
  S2-  S237  1  0.37778488  0.51068836  0.54162413  1
  S2-  S238  1  0.39966291  0.75831670  0.04020093  1
  S2-  S239  1  0.37365900  0.76122059  0.54826469  1
  S2-  S240  1  0.65042585  0.01004683  0.04010850  1
  S2-  S241  1  0.63168924  0.01471174  0.53836654  1
  S2-  S242  1  0.64310388  0.25782435  0.04857878  1
  S2-  S243  1  0.62848938  0.25670915  0.53556677  1
  S2-  S244  1  0.64237746  0.50661352  0.04684011  1
  S2-  S245  1  0.62591129  0.51207865  0.54381497  1
  S2-  S246  1  0.64620407  0.75192237  0.04603896  1
  S2-  S247  1  0.62573282  0.75954363  0.54054112  1
  S2-  S248  1  0.89412914  0.00367081  0.05195426  1
  S2-  S249  1  0.87468554  0.01257527  0.54365846  1
  S2-  S250  1  0.89984903  0.26065648  0.05816667  1
  S2-  S251  1  0.88226540  0.25691080  0.53410988  1
  S2-  S252  1  0.89789018  0.50720836  0.05691450  1
  S2-  S253  1  0.87776402  0.50856616  0.54701557  1
  S2-  S254  1  0.89155038  0.75862797  0.05560745  1
  S2-  S255  1  0.88099421  0.75701524  0.54781550  1
