# generated using pymatgen
data_La6Ce6Pr19Nd20Sm13(BiS2)64
_symmetry_space_group_name_H-M   'P 1'
_cell_length_a   16.06051101
_cell_length_b   16.11885123
_cell_length_c   27.26488006
_cell_angle_alpha   90.17355476
_cell_angle_beta   90.34793556
_cell_angle_gamma   90.14699128
_symmetry_Int_Tables_number   1
_chemical_formula_structural   La6Ce6Pr19Nd20Sm13(BiS2)64
_chemical_formula_sum   'La6 Ce6 Pr19 Nd20 Sm13 Bi64 S128'
_cell_volume   7058.06393248
_cell_formula_units_Z   1
loop_
 _symmetry_equiv_pos_site_id
 _symmetry_equiv_pos_as_xyz
  1  'x, y, z'
loop_
 _atom_type_symbol
 _atom_type_oxidation_number
  La3+  3.0
  Ce3+  3.0
  Pr3+  3.0
  Nd3+  3.0
  Sm3+  3.0
  Bi2+  2.0
  S2-  -2.0
loop_
 _atom_site_type_symbol
 _atom_site_label
 _atom_site_symmetry_multiplicity
 _atom_site_fract_x
 _atom_site_fract_y
 _atom_site_fract_z
 _atom_site_occupancy
  La3+  La0  1  0.63095580  0.74654133  0.39839358  1
  La3+  La1  1  0.12345195  0.24910508  0.90032330  1
  La3+  La2  1  0.63108391  0.49193376  0.40076833  1
  La3+  La3  1  0.76537590  0.87787076  0.09280977  1
  La3+  La4  1  0.77159476  0.13209446  0.07874656  1
  La3+  La5  1  0.87982777  0.25921822  0.92919019  1
  Ce3+  Ce6  1  0.88459217  -0.00583106  0.44274395  1
  Ce3+  Ce7  1  0.51308936  0.13127789  0.05063665  1
  Ce3+  Ce8  1  0.26116947  0.36842787  0.55725898  1
  Ce3+  Ce9  1  0.01117540  0.11822009  0.57392848  1
  Ce3+  Ce10  1  0.26021957  0.37805664  0.05846222  1
  Ce3+  Ce11  1  0.76003862  0.61970161  0.55620549  1
  Pr3+  Pr12  1  0.38344179  0.50506586  0.93982097  1
  Pr3+  Pr13  1  0.51408812  0.11633577  0.56407487  1
  Pr3+  Pr14  1  0.75921031  0.62742189  0.07014980  1
  Pr3+  Pr15  1  0.01921883  0.13178547  0.05845467  1
  Pr3+  Pr16  1  0.88328662  0.74144569  0.43385445  1
  Pr3+  Pr17  1  0.63982487  0.00626982  0.94208020  1
  Pr3+  Pr18  1  0.01069740  0.62780241  0.05670996  1
  Pr3+  Pr19  1  0.75191365  0.38098016  0.07421051  1
  Pr3+  Pr20  1  0.26126864  0.86898827  0.55766825  1
  Pr3+  Pr21  1  0.63347814  0.50762940  0.94035824  1
  Pr3+  Pr22  1  0.26846088  0.11211795  0.59212190  1
  Pr3+  Pr23  1  0.38291829  0.75245515  0.94284077  1
  Pr3+  Pr24  1  0.26388147  0.61686336  0.56840702  1
  Pr3+  Pr25  1  0.14082184  0.50331532  0.90783024  1
  Pr3+  Pr26  1  0.38422281  0.00381527  0.93593850  1
  Pr3+  Pr27  1  0.38454309  0.24423837  0.44396384  1
  Pr3+  Pr28  1  0.13514783  -0.00244085  0.92070727  1
  Pr3+  Pr29  1  0.51172921  0.88281919  0.05962603  1
  Pr3+  Pr30  1  0.13289226  0.74055006  0.43282879  1
  Nd3+  Nd31  1  0.37721873  0.25525744  0.93126879  1
  Nd3+  Nd32  1  0.38558999  -0.00582388  0.43621140  1
  Nd3+  Nd33  1  0.12988820  0.75124320  0.92704016  1
  Nd3+  Nd34  1  0.13303162  0.24170163  0.45014820  1
  Nd3+  Nd35  1  0.88277358  0.49468138  0.43988102  1
  Nd3+  Nd36  1  0.12897149  0.49393220  0.43777094  1
  Nd3+  Nd37  1  0.63514578  0.26331788  0.93218269  1
  Nd3+  Nd38  1  0.01592463  0.87955906  0.06769328  1
  Nd3+  Nd39  1  0.63714171  -0.00427906  0.42887483  1
  Nd3+  Nd40  1  0.75982568  0.37096758  0.56078199  1
  Nd3+  Nd41  1  0.25579801  0.88080215  0.05778024  1
  Nd3+  Nd42  1  0.25478144  0.63065471  0.06084021  1
  Nd3+  Nd43  1  0.50221780  0.37841337  0.06655001  1
  Nd3+  Nd44  1  0.00963065  0.86761586  0.56089772  1
  Nd3+  Nd45  1  0.88468688  0.75381242  0.94314602  1
  Nd3+  Nd46  1  0.01425005  0.36927965  0.57017173  1
  Nd3+  Nd47  1  0.51090498  0.61828314  0.55830696  1
  Nd3+  Nd48  1  0.38314082  0.49709357  0.43286636  1
  Nd3+  Nd49  1  0.13459889  -0.00461477  0.44260073  1
  Nd3+  Nd50  1  0.50860394  0.63510104  0.07168645  1
  Sm3+  Sm51  1  0.88676379  0.00465985  0.94523399  1
  Sm3+  Sm52  1  0.01490549  0.62003560  0.57019820  1
  Sm3+  Sm53  1  0.51325796  0.86918295  0.55058796  1
  Sm3+  Sm54  1  0.51165118  0.36769988  0.55577645  1
  Sm3+  Sm55  1  0.88435219  0.24528905  0.44611326  1
  Sm3+  Sm56  1  0.76091236  0.11912665  0.55802151  1
  Sm3+  Sm57  1  0.63549186  0.24409719  0.43283275  1
  Sm3+  Sm58  1  0.01402765  0.37642799  0.04885934  1
  Sm3+  Sm59  1  0.63644235  0.75157318  0.94038585  1
  Sm3+  Sm60  1  0.75854167  0.86724541  0.55454773  1
  Sm3+  Sm61  1  0.38531435  0.74079968  0.43669727  1
  Sm3+  Sm62  1  0.88273762  0.50311109  0.94441379  1
  Sm3+  Sm63  1  0.25519058  0.13043733  0.05101821  1
  Bi2+  Bi64  1  0.04780948  0.12669589  0.28231332  1
  Bi2+  Bi65  1  -0.01876387  0.11169331  0.77671051  1
  Bi2+  Bi66  1  0.03529825  0.38077023  0.29209841  1
  Bi2+  Bi67  1  -0.02490748  0.37898341  0.78032827  1
  Bi2+  Bi68  1  0.05883221  0.62364150  0.29775062  1
  Bi2+  Bi69  1  -0.02561965  0.62557341  0.77262191  1
  Bi2+  Bi70  1  -0.03116633  0.86312861  0.24463747  1
  Bi2+  Bi71  1  -0.02423810  0.86306020  0.79265565  1
  Bi2+  Bi72  1  0.25382370  0.19864592  0.29815284  1
  Bi2+  Bi73  1  0.24391563  0.12368527  0.77534880  1
  Bi2+  Bi74  1  0.23562601  0.41177034  0.29166338  1
  Bi2+  Bi75  1  0.33543236  0.37884668  0.78716157  1
  Bi2+  Bi76  1  0.23951361  0.59428018  0.34331022  1
  Bi2+  Bi77  1  0.23958178  0.63266055  0.78074491  1
  Bi2+  Bi78  1  0.14478979  0.84681109  0.30552828  1
  Bi2+  Bi79  1  0.26373666  0.85029346  0.78945681  1
  Bi2+  Bi80  1  0.51215319  0.13605692  0.28365954  1
  Bi2+  Bi81  1  0.43439758  0.08103674  0.80508193  1
  Bi2+  Bi82  1  0.50147726  0.34311142  0.27720293  1
  Bi2+  Bi83  1  0.49731592  0.27334092  0.81840824  1
  Bi2+  Bi84  1  0.46671295  0.60466885  0.28215397  1
  Bi2+  Bi85  1  0.47462304  0.62602958  0.80391038  1
  Bi2+  Bi86  1  0.47415554  0.94069648  0.28502133  1
  Bi2+  Bi87  1  0.53287305  0.90809490  0.79633133  1
  Bi2+  Bi88  1  0.76348113  0.13877095  0.29416430  1
  Bi2+  Bi89  1  0.69655064  0.13683622  0.77506136  1
  Bi2+  Bi90  1  0.76901507  0.36068694  0.28746098  1
  Bi2+  Bi91  1  0.73450692  0.36725452  0.79596252  1
  Bi2+  Bi92  1  0.77792557  0.62021141  0.28013645  1
  Bi2+  Bi93  1  0.76563806  0.61096874  0.80268889  1
  Bi2+  Bi94  1  0.75624283  0.88702475  0.28448089  1
  Bi2+  Bi95  1  0.69897870  0.80052240  0.79435709  1
  Bi2+  Bi96  1  0.13574756  0.00329254  0.21023236  1
  Bi2+  Bi97  1  0.13135603  -0.06212339  0.71997036  1
  Bi2+  Bi98  1  0.18973007  0.25693885  0.19426577  1
  Bi2+  Bi99  1  0.12403213  0.29413236  0.71419810  1
  Bi2+  Bi100  1  0.09942289  0.49478740  0.19973432  1
  Bi2+  Bi101  1  0.15393573  0.50159775  0.71677357  1
  Bi2+  Bi102  1  0.18370991  0.74790591  0.20564572  1
  Bi2+  Bi103  1  0.07295923  0.75046323  0.70184736  1
  Bi2+  Bi104  1  0.32249336  0.03543074  0.23542572  1
  Bi2+  Bi105  1  0.39046101  -0.03476532  0.70779378  1
  Bi2+  Bi106  1  0.38591229  0.23584232  0.20155754  1
  Bi2+  Bi107  1  0.39309544  0.23799574  0.71350741  1
  Bi2+  Bi108  1  0.29415403  0.50368320  0.19944096  1
  Bi2+  Bi109  1  0.42040666  0.50228461  0.71503267  1
  Bi2+  Bi110  1  0.31794537  0.75233974  0.29086270  1
  Bi2+  Bi111  1  0.33507054  0.74449857  0.70234031  1
  Bi2+  Bi112  1  0.58662967  -0.00514861  0.19641334  1
  Bi2+  Bi113  1  0.63419218  0.00081415  0.69994205  1
  Bi2+  Bi114  1  0.64692888  0.24059540  0.20585396  1
  Bi2+  Bi115  1  0.59103793  0.27657726  0.71654761  1
  Bi2+  Bi116  1  0.65023193  0.49587331  0.21306554  1
  Bi2+  Bi117  1  0.61023404  0.55210196  0.72875130  1
  Bi2+  Bi118  1  0.60119206  0.75510489  0.20588833  1
  Bi2+  Bi119  1  0.53673425  0.75066222  0.72135660  1
  Bi2+  Bi120  1  0.88540421  0.04019499  0.23219821  1
  Bi2+  Bi121  1  0.81086527  -0.04778582  0.75345466  1
  Bi2+  Bi122  1  0.93435757  0.25737274  0.20327743  1
  Bi2+  Bi123  1  0.85050960  0.23916278  0.69101373  1
  Bi2+  Bi124  1  0.89920095  0.47518764  0.22157192  1
  Bi2+  Bi125  1  0.80351107  0.50433265  0.70870330  1
  Bi2+  Bi126  1  0.91792318  0.68079913  0.21117101  1
  Bi2+  Bi127  1  0.81000966  0.75262107  0.70061863  1
  S2-  S128  1  -0.07153258  0.12379249  0.14618335  1
  S2-  S129  1  -0.04180823  0.12587071  0.66911852  1
  S2-  S130  1  0.05568848  0.34428191  0.14449741  1
  S2-  S131  1  -0.01782503  0.37050432  0.66883029  1
  S2-  S132  1  0.05752876  0.65655793  0.15264533  1
  S2-  S133  1  -0.06155764  0.65618257  0.65848610  1
  S2-  S134  1  -0.08404490  0.86889544  0.15059885  1
  S2-  S135  1  0.00190112  0.89600414  0.65950634  1
  S2-  S136  1  0.15580599  0.12441514  0.13303450  1
  S2-  S137  1  0.17542944  0.15595096  0.67594585  1
  S2-  S138  1  0.37101269  0.37779931  0.13829905  1
  S2-  S139  1  0.22877777  0.39342552  0.65196148  1
  S2-  S140  1  0.30220208  0.66079180  0.15593293  1
  S2-  S141  1  0.14419780  0.61470706  0.64194101  1
  S2-  S142  1  0.15035918  0.88144205  0.13749364  1
  S2-  S143  1  0.25732722  0.95795055  0.64460122  1
  S2-  S144  1  0.52195526  0.14238985  0.14805237  1
  S2-  S145  1  0.42040057  0.11039279  0.64863320  1
  S2-  S146  1  0.60371192  0.37930628  0.14884725  1
  S2-  S147  1  0.48645259  0.36684994  0.65358361  1
  S2-  S148  1  0.52698440  0.60851598  0.17135424  1
  S2-  S149  1  0.39788984  0.61607032  0.63740052  1
  S2-  S150  1  0.48745946  0.85414477  0.15821140  1
  S2-  S151  1  0.52045721  0.89299132  0.64853935  1
  S2-  S152  1  0.73258411  0.01426980  0.15723619  1
  S2-  S153  1  0.73673983  0.13370298  0.65476953  1
  S2-  S154  1  0.78172297  0.26420243  0.15071973  1
  S2-  S155  1  0.73951952  0.36685614  0.66039707  1
  S2-  S156  1  0.77234363  0.50929642  0.14771252  1
  S2-  S157  1  0.71423223  0.62794424  0.65143393  1
  S2-  S158  1  0.72904123  0.73665046  0.15176940  1
  S2-  S159  1  0.75608353  0.89532765  0.65243261  1
  S2-  S160  1  0.09125014  -0.00188390  0.34612908  1
  S2-  S161  1  0.11108596  0.10078610  0.83706824  1
  S2-  S162  1  0.10374107  0.24724820  0.35268637  1
  S2-  S163  1  0.11257340  0.38877036  0.83044553  1
  S2-  S164  1  0.00641453  0.49602266  0.36506088  1
  S2-  S165  1  0.10342403  0.63819443  0.84455422  1
  S2-  S166  1  0.00960276  0.74431802  0.35939364  1
  S2-  S167  1  0.11374698  0.86473822  0.85048724  1
  S2-  S168  1  0.34251543  -0.00709047  0.33985116  1
  S2-  S169  1  0.29438786  -0.00319295  0.84951491  1
  S2-  S170  1  0.40659547  0.24324727  0.34451033  1
  S2-  S171  1  0.27553634  0.24639065  0.84730855  1
  S2-  S172  1  0.46554889  0.48128230  0.34430302  1
  S2-  S173  1  0.29633213  0.50999568  0.85180880  1
  S2-  S174  1  0.46505391  0.74152022  0.34923638  1
  S2-  S175  1  0.38878438  0.76160401  0.84318790  1
  S2-  S176  1  0.63312507  0.12322443  0.35891989  1
  S2-  S177  1  0.64283484  0.02414016  0.84219820  1
  S2-  S178  1  0.63184492  0.33938848  0.34822169  1
  S2-  S179  1  0.75131928  0.23375087  0.85737887  1
  S2-  S180  1  0.62231156  0.61662812  0.32665919  1
  S2-  S181  1  0.61505029  0.39856919  0.86002762  1
  S2-  S182  1  0.62579692  0.89936561  0.34234810  1
  S2-  S183  1  0.62827687  0.63532226  0.86612139  1
  S2-  S184  1  0.84447792  -0.00851530  0.34736118  1
  S2-  S185  1  0.89775707  0.00292267  0.84450853  1
  S2-  S186  1  0.86119891  0.24560433  0.34765192  1
  S2-  S187  1  0.96728002  0.23757154  0.83847198  1
  S2-  S188  1  0.79123134  0.49203317  0.35224855  1
  S2-  S189  1  0.86605336  0.43970592  0.85311802  1
  S2-  S190  1  0.78793037  0.75229428  0.34617035  1
  S2-  S191  1  0.89889854  0.72697437  0.84289304  1
  S2-  S192  1  0.00706463  0.11959209  0.46119010  1
  S2-  S193  1  0.00812022  0.12740716  0.95064624  1
  S2-  S194  1  0.00758896  0.36548660  0.46278480  1
  S2-  S195  1  0.01399548  0.38568170  0.94629848  1
  S2-  S196  1  0.00915778  0.61977484  0.46488890  1
  S2-  S197  1  0.00663941  0.62335579  0.95142685  1
  S2-  S198  1  0.00948931  0.87117049  0.45594786  1
  S2-  S199  1  0.00645517  0.87719898  0.95667442  1
  S2-  S200  1  0.25948627  0.11804937  0.45128612  1
  S2-  S201  1  0.25740278  0.12719986  0.94921342  1
  S2-  S202  1  0.25701059  0.36982374  0.44916782  1
  S2-  S203  1  0.25727999  0.38117722  0.95180052  1
  S2-  S204  1  0.26022696  0.61991743  0.46099273  1
  S2-  S205  1  0.25520891  0.62956461  0.95328732  1
  S2-  S206  1  0.26029715  0.86706118  0.44999113  1
  S2-  S207  1  0.25939729  0.87527755  0.95328194  1
  S2-  S208  1  0.50890903  0.11856220  0.45676105  1
  S2-  S209  1  0.50973205  0.13217325  0.94516311  1
  S2-  S210  1  0.51189469  0.36946041  0.45273325  1
  S2-  S211  1  0.50208646  0.37867500  0.95992313  1
  S2-  S212  1  0.50973988  0.61824297  0.45253554  1
  S2-  S213  1  0.50679833  0.63196505  0.96346435  1
  S2-  S214  1  0.50873407  0.86852512  0.44810761  1
  S2-  S215  1  0.51216311  0.87768159  0.95127751  1
  S2-  S216  1  0.76200824  0.12199751  0.45571377  1
  S2-  S217  1  0.76365753  0.12669062  0.96140848  1
  S2-  S218  1  0.75925523  0.36630251  0.45608159  1
  S2-  S219  1  0.75733132  0.38464325  0.96412480  1
  S2-  S220  1  0.75250548  0.61841233  0.45107719  1
  S2-  S221  1  0.76284035  0.62923854  0.96152661  1
  S2-  S222  1  0.75719405  0.86921514  0.45193203  1
  S2-  S223  1  0.75969139  0.87656858  0.94532854  1
  S2-  S224  1  0.13618762  0.00265384  0.03180695  1
  S2-  S225  1  0.13417135  -0.00300432  0.54889163  1
  S2-  S226  1  0.13948014  0.25705018  0.03309383  1
  S2-  S227  1  0.13759795  0.24013529  0.55584468  1
  S2-  S228  1  0.13674233  0.50283152  0.04898853  1
  S2-  S229  1  0.13416083  0.49157008  0.54330904  1
  S2-  S230  1  0.13443297  0.75298543  0.03578738  1
  S2-  S231  1  0.13506561  0.74615336  0.54358017  1
  S2-  S232  1  0.38143188  0.00611270  0.04571520  1
  S2-  S233  1  0.38746938  -0.00695605  0.54202554  1
  S2-  S234  1  0.38194553  0.24859377  0.03823811  1
  S2-  S235  1  0.38448122  0.24219031  0.54987893  1
  S2-  S236  1  0.38453144  0.51315054  0.04610016  1
  S2-  S237  1  0.38710349  0.48843132  0.53977044  1
  S2-  S238  1  0.38278803  0.75775016  0.04893185  1
  S2-  S239  1  0.38805838  0.74847769  0.54115507  1
  S2-  S240  1  0.63885555  0.00304750  0.04741929  1
  S2-  S241  1  0.63810003  -0.00571085  0.54086215  1
  S2-  S242  1  0.63362604  0.25395956  0.04147424  1
  S2-  S243  1  0.63582030  0.24375854  0.54570642  1
  S2-  S244  1  0.62580584  0.50979699  0.04751216  1
  S2-  S245  1  0.63199871  0.49179907  0.55393918  1
  S2-  S246  1  0.63496000  0.75757984  0.04395901  1
  S2-  S247  1  0.63296028  0.74624516  0.55054332  1
  S2-  S248  1  0.88598040  -0.00170758  0.04755371  1
  S2-  S249  1  0.88291785  -0.00556357  0.55033021  1
  S2-  S250  1  0.89080325  0.25763171  0.04010719  1
  S2-  S251  1  0.88563452  0.24418663  0.55177741  1
  S2-  S252  1  0.89026840  0.49967617  0.04827188  1
  S2-  S253  1  0.88893771  0.49460841  0.55184128  1
  S2-  S254  1  0.88452577  0.75271452  0.04770555  1
  S2-  S255  1  0.88433329  0.74596366  0.54430751  1
