# generated using pymatgen
data_La6Ce6Pr19Nd20Sm13(BiS2)64
_symmetry_space_group_name_H-M   'P 1'
_cell_length_a   16.09620964
_cell_length_b   16.14821512
_cell_length_c   27.39956005
_cell_angle_alpha   90.16817308
_cell_angle_beta   89.73761922
_cell_angle_gamma   90.12582701
_symmetry_Int_Tables_number   1
_chemical_formula_structural   La6Ce6Pr19Nd20Sm13(BiS2)64
_chemical_formula_sum   'La6 Ce6 Pr19 Nd20 Sm13 Bi64 S128'
_cell_volume   7121.70986035
_cell_formula_units_Z   1
loop_
 _symmetry_equiv_pos_site_id
 _symmetry_equiv_pos_as_xyz
  1  'x, y, z'
loop_
 _atom_type_symbol
 _atom_type_oxidation_number
  La3+  3.0
  Ce3+  3.0
  Pr3+  3.0
  Nd3+  3.0
  Sm3+  3.0
  Bi2+  2.0
  S2-  -2.0
loop_
 _atom_site_type_symbol
 _atom_site_label
 _atom_site_symmetry_multiplicity
 _atom_site_fract_x
 _atom_site_fract_y
 _atom_site_fract_z
 _atom_site_occupancy
  La3+  La0  1  0.25876406  0.86552647  0.06843754  1
  La3+  La1  1  0.23071435  0.12190457  0.58934302  1
  La3+  La2  1  0.23143411  0.38596015  0.59078659  1
  La3+  La3  1  0.75172980  0.10131266  0.07896521  1
  La3+  La4  1  0.87237571  0.25745917  0.38553252  1
  La3+  La5  1  0.00476554  0.13209070  0.10252626  1
  Ce3+  Ce6  1  0.01552548  0.60974449  0.05460715  1
  Ce3+  Ce7  1  0.48733514  0.62279743  0.56430741  1
  Ce3+  Ce8  1  0.86532403  0.74994484  0.43911280  1
  Ce3+  Ce9  1  0.48673928  0.12249392  0.56803907  1
  Ce3+  Ce10  1  0.86718826  0.00756000  0.44044027  1
  Ce3+  Ce11  1  0.76343135  0.86305209  0.05929633  1
  Pr3+  Pr12  1  0.88900576  -0.01175067  0.94342708  1
  Pr3+  Pr13  1  0.38769086  0.73241528  0.92870791  1
  Pr3+  Pr14  1  0.61412532  0.49350665  0.43775427  1
  Pr3+  Pr15  1  0.76088769  0.60978265  0.06953862  1
  Pr3+  Pr16  1  0.73767729  0.12547858  0.56056822  1
  Pr3+  Pr17  1  0.14309644  -0.01356355  0.93667264  1
  Pr3+  Pr18  1  0.61142171  0.00062324  0.43992290  1
  Pr3+  Pr19  1  0.48535833  0.86896922  0.56472464  1
  Pr3+  Pr20  1  0.39863867  0.22835033  0.90934395  1
  Pr3+  Pr21  1  0.11823709  0.74886968  0.43199424  1
  Pr3+  Pr22  1  0.37230799  0.73714671  0.42978002  1
  Pr3+  Pr23  1  0.26186174  0.10741709  0.05715144  1
  Pr3+  Pr24  1  0.64575513  -0.01416223  0.93142809  1
  Pr3+  Pr25  1  0.23516549  0.62896657  0.56349645  1
  Pr3+  Pr26  1  0.64149486  0.73005288  0.93894692  1
  Pr3+  Pr27  1  0.73844874  0.37096579  0.55537244  1
  Pr3+  Pr28  1  0.26300473  0.35473636  0.05402318  1
  Pr3+  Pr29  1  0.14546483  0.23391803  0.92396970  1
  Pr3+  Pr30  1  0.64593983  0.23349727  0.93245981  1
  Nd3+  Nd31  1  0.14279968  0.73479650  0.93962793  1
  Nd3+  Nd32  1  0.35792177  0.24763744  0.45646174  1
  Nd3+  Nd33  1  0.61282952  0.24179797  0.43100884  1
  Nd3+  Nd34  1  -0.01468943  0.62653954  0.55293424  1
  Nd3+  Nd35  1  -0.01387611  0.87503974  0.56015168  1
  Nd3+  Nd36  1  -0.01242900  0.37425319  0.56366171  1
  Nd3+  Nd37  1  0.39736926  -0.01845625  0.92017966  1
  Nd3+  Nd38  1  0.51612561  0.60950181  0.06541063  1
  Nd3+  Nd39  1  0.27038293  0.61576142  0.07450290  1
  Nd3+  Nd40  1  0.36185247  0.49481431  0.44596373  1
  Nd3+  Nd41  1  0.64107252  0.48207806  0.94035200  1
  Nd3+  Nd42  1  0.11921420  0.00169911  0.44117639  1
  Nd3+  Nd43  1  0.51173237  0.10650636  0.05595585  1
  Nd3+  Nd44  1  0.89081921  0.73240837  0.94481865  1
  Nd3+  Nd45  1  0.01739825  0.36015810  0.05001250  1
  Nd3+  Nd46  1  0.61548802  0.74761281  0.44220947  1
  Nd3+  Nd47  1  0.14611176  0.48448226  0.93778824  1
  Nd3+  Nd48  1  0.23056510  0.87302598  0.57196384  1
  Nd3+  Nd49  1  0.11925043  0.25001416  0.44254116  1
  Nd3+  Nd50  1  0.89016251  0.48422827  0.94681479  1
  Sm3+  Sm51  1  0.36094992  -0.00241313  0.45132768  1
  Sm3+  Sm52  1  0.86415728  0.49352476  0.44021027  1
  Sm3+  Sm53  1  0.39067174  0.48405297  0.94284791  1
  Sm3+  Sm54  1  0.73710587  0.62344528  0.55504509  1
  Sm3+  Sm55  1  0.76531955  0.35372700  0.06477539  1
  Sm3+  Sm56  1  0.01635347  0.86310666  0.05491892  1
  Sm3+  Sm57  1  0.11218333  0.49546094  0.44629934  1
  Sm3+  Sm58  1  0.48703682  0.37380452  0.56323401  1
  Sm3+  Sm59  1  0.51457771  0.35820499  0.05403976  1
  Sm3+  Sm60  1  0.73805736  0.87735131  0.55162171  1
  Sm3+  Sm61  1  0.50951650  0.85906780  0.04807897  1
  Sm3+  Sm62  1  0.88903936  0.23326883  0.94130724  1
  Sm3+  Sm63  1  -0.00901505  0.12672557  0.55991719  1
  Bi2+  Bi64  1  0.00451891  0.11793997  0.28942687  1
  Bi2+  Bi65  1  -0.02165644  0.12313072  0.78478855  1
  Bi2+  Bi66  1  0.04887279  0.39742397  0.29566417  1
  Bi2+  Bi67  1  -0.01083700  0.40543586  0.78561793  1
  Bi2+  Bi68  1  0.06729660  0.62308690  0.30468636  1
  Bi2+  Bi69  1  -0.00868808  0.68692777  0.78056794  1
  Bi2+  Bi70  1  -0.08192968  0.82269929  0.24289514  1
  Bi2+  Bi71  1  -0.02044478  0.88535316  0.78722655  1
  Bi2+  Bi72  1  0.26090684  0.13665334  0.30033178  1
  Bi2+  Bi73  1  0.24337176  0.13719953  0.79220330  1
  Bi2+  Bi74  1  0.30538716  0.35437119  0.29303598  1
  Bi2+  Bi75  1  0.25600754  0.42470549  0.79072680  1
  Bi2+  Bi76  1  0.28551064  0.65420162  0.28010894  1
  Bi2+  Bi77  1  0.28459593  0.66613400  0.79520174  1
  Bi2+  Bi78  1  0.21733123  0.90002287  0.30657594  1
  Bi2+  Bi79  1  0.22825436  0.86923446  0.78653468  1
  Bi2+  Bi80  1  0.47814881  0.15354238  0.30133237  1
  Bi2+  Bi81  1  0.52246294  0.11284066  0.78557562  1
  Bi2+  Bi82  1  0.49376576  0.35255636  0.32143577  1
  Bi2+  Bi83  1  0.54074748  0.39783618  0.76245741  1
  Bi2+  Bi84  1  0.51355795  0.56884065  0.31201536  1
  Bi2+  Bi85  1  0.49117499  0.66200580  0.80021547  1
  Bi2+  Bi86  1  0.53724272  0.84790511  0.28112081  1
  Bi2+  Bi87  1  0.49274976  0.85666783  0.78368512  1
  Bi2+  Bi88  1  0.73150681  0.13452271  0.28947414  1
  Bi2+  Bi89  1  0.78147592  0.11145111  0.78723862  1
  Bi2+  Bi90  1  0.66472904  0.38783214  0.26657610  1
  Bi2+  Bi91  1  0.72792312  0.37093370  0.80833857  1
  Bi2+  Bi92  1  0.76313509  0.65342893  0.29742839  1
  Bi2+  Bi93  1  0.79138120  0.59315847  0.78834531  1
  Bi2+  Bi94  1  0.73613341  0.86704881  0.29513792  1
  Bi2+  Bi95  1  0.77917719  0.88106348  0.78453205  1
  Bi2+  Bi96  1  0.16329921  0.00629941  0.19633963  1
  Bi2+  Bi97  1  0.10926525  -0.01258071  0.70628193  1
  Bi2+  Bi98  1  0.15590170  0.27504783  0.21295297  1
  Bi2+  Bi99  1  0.12968948  0.26278029  0.70823521  1
  Bi2+  Bi100  1  0.14263982  0.54292062  0.20754016  1
  Bi2+  Bi101  1  0.09502215  0.53973758  0.70932802  1
  Bi2+  Bi102  1  0.13239074  0.74792438  0.20507666  1
  Bi2+  Bi103  1  0.15564830  0.72725463  0.69350805  1
  Bi2+  Bi104  1  0.38708433  0.01138107  0.22407502  1
  Bi2+  Bi105  1  0.40644007  -0.00788448  0.70633976  1
  Bi2+  Bi106  1  0.36324862  0.20733547  0.20804856  1
  Bi2+  Bi107  1  0.40551165  0.27352617  0.71240407  1
  Bi2+  Bi108  1  0.33151735  0.49082296  0.21347936  1
  Bi2+  Bi109  1  0.39214488  0.58739357  0.70915037  1
  Bi2+  Bi110  1  0.39822100  0.76760879  0.21467862  1
  Bi2+  Bi111  1  0.34211878  0.78331878  0.69462718  1
  Bi2+  Bi112  1  0.57333163  -0.01920085  0.19723599  1
  Bi2+  Bi113  1  0.67217747  -0.01975806  0.70794037  1
  Bi2+  Bi114  1  0.56031037  0.25312582  0.21016303  1
  Bi2+  Bi115  1  0.67147228  0.25878751  0.71989896  1
  Bi2+  Bi116  1  0.53273248  0.52714250  0.20547166  1
  Bi2+  Bi117  1  0.65654515  0.53135212  0.70478040  1
  Bi2+  Bi118  1  0.66827929  0.74385280  0.21183458  1
  Bi2+  Bi119  1  0.65702255  0.71719093  0.73834370  1
  Bi2+  Bi120  1  0.83230902  -0.01291277  0.22358468  1
  Bi2+  Bi121  1  0.90811401  0.00071783  0.70259357  1
  Bi2+  Bi122  1  0.87495122  0.31458288  0.19429473  1
  Bi2+  Bi123  1  0.88526835  0.26966420  0.72706552  1
  Bi2+  Bi124  1  0.90670037  0.52841908  0.26541990  1
  Bi2+  Bi125  1  0.85768838  0.46461789  0.70781851  1
  Bi2+  Bi126  1  0.84921785  0.66870253  0.18818948  1
  Bi2+  Bi127  1  0.88101197  0.78256516  0.70274936  1
  S2-  S128  1  0.00042290  0.04638017  0.19321419  1
  S2-  S129  1  0.07325359  0.13182465  0.64687073  1
  S2-  S130  1  0.02862147  0.30362960  0.14333370  1
  S2-  S131  1  0.07504584  0.38227257  0.64945936  1
  S2-  S132  1  0.02911157  0.63041346  0.15033254  1
  S2-  S133  1  -0.00007162  0.62672794  0.65123906  1
  S2-  S134  1  0.10333830  0.87090976  0.13990171  1
  S2-  S135  1  0.08890900  0.85672071  0.64032337  1
  S2-  S136  1  0.16831372  0.14381145  0.14238947  1
  S2-  S137  1  0.27108358  0.16954923  0.68894989  1
  S2-  S138  1  0.26014633  0.35510420  0.15430599  1
  S2-  S139  1  0.27274516  0.36145747  0.69123871  1
  S2-  S140  1  0.26920735  0.74909697  0.14554119  1
  S2-  S141  1  0.24599643  0.54731010  0.65122880  1
  S2-  S142  1  0.30680897  0.99139538  0.13551737  1
  S2-  S143  1  0.25511395  0.97852914  0.65152664  1
  S2-  S144  1  0.60158152  0.11669983  0.14221175  1
  S2-  S145  1  0.48373578  0.13281221  0.66615176  1
  S2-  S146  1  0.50341568  0.37754560  0.15114357  1
  S2-  S147  1  0.48620130  0.39657666  0.65955041  1
  S2-  S148  1  0.40373219  0.59816946  0.14174600  1
  S2-  S149  1  0.48413955  0.69741516  0.65040303  1
  S2-  S150  1  0.49658873  0.84223388  0.14637036  1
  S2-  S151  1  0.52768306  0.91736126  0.65817850  1
  S2-  S152  1  0.84289865  0.17300441  0.15261150  1
  S2-  S153  1  0.71276327  0.12066090  0.65934409  1
  S2-  S154  1  0.73572926  0.38333249  0.16053562  1
  S2-  S155  1  0.72658026  0.38481860  0.65457890  1
  S2-  S156  1  0.63419042  0.61166408  0.14066272  1
  S2-  S157  1  0.74919556  0.64290072  0.65146270  1
  S2-  S158  1  0.74624124  0.94790847  0.14314180  1
  S2-  S159  1  0.77347149  0.88058019  0.64687644  1
  S2-  S160  1  0.09241370  0.01629771  0.34195367  1
  S2-  S161  1  0.16776204  -0.00151400  0.83684174  1
  S2-  S162  1  0.04086840  0.24932105  0.35209769  1
  S2-  S163  1  0.09782843  0.22456573  0.82569698  1
  S2-  S164  1  0.15099173  0.48696585  0.35062725  1
  S2-  S165  1  0.11919867  0.47940133  0.83944273  1
  S2-  S166  1  0.10366049  0.79256282  0.33540558  1
  S2-  S167  1  0.14311761  0.73569494  0.84040624  1
  S2-  S168  1  0.33022416  0.01136711  0.35523775  1
  S2-  S169  1  0.37665512  0.09147634  0.84069870  1
  S2-  S170  1  0.25733241  0.25301236  0.37514810  1
  S2-  S171  1  0.30254328  0.28663236  0.83177128  1
  S2-  S172  1  0.36517622  0.58484660  0.36163815  1
  S2-  S173  1  0.34725852  0.52080742  0.85099884  1
  S2-  S174  1  0.32265354  0.79509675  0.33987655  1
  S2-  S175  1  0.36886071  0.85141544  0.85312065  1
  S2-  S176  1  0.60360868  0.07731320  0.35011073  1
  S2-  S177  1  0.54918312  -0.01864053  0.84603195  1
  S2-  S178  1  0.70569525  0.26355460  0.34670557  1
  S2-  S179  1  0.54473940  0.23208852  0.84833531  1
  S2-  S180  1  0.67270495  0.50342750  0.34228511  1
  S2-  S181  1  0.60791608  0.48405884  0.84341897  1
  S2-  S182  1  0.53546310  0.72738053  0.35636937  1
  S2-  S183  1  0.62405465  0.75481135  0.84053195  1
  S2-  S184  1  0.86622963  0.07781175  0.35175268  1
  S2-  S185  1  0.78122798  -0.00799704  0.86304172  1
  S2-  S186  1  0.87191657  0.23643488  0.27793096  1
  S2-  S187  1  0.78158472  0.23181261  0.86433938  1
  S2-  S188  1  0.89282082  0.42654690  0.35201821  1
  S2-  S189  1  0.86553561  0.46810204  0.85006960  1
  S2-  S190  1  0.87467288  0.76930227  0.34319330  1
  S2-  S191  1  0.86278448  0.71469702  0.84873711  1
  S2-  S192  1  -0.00667637  0.12660121  0.45770537  1
  S2-  S193  1  0.01234198  0.11225836  0.93587012  1
  S2-  S194  1  -0.01152228  0.37314949  0.45937470  1
  S2-  S195  1  0.01527250  0.35907487  0.94464129  1
  S2-  S196  1  -0.01229320  0.62071013  0.44709625  1
  S2-  S197  1  0.01712863  0.60790758  0.94772831  1
  S2-  S198  1  -0.00959610  0.87672509  0.45318956  1
  S2-  S199  1  0.01446479  0.85917475  0.94954370  1
  S2-  S200  1  0.24010215  0.11943239  0.47177437  1
  S2-  S201  1  0.26937033  0.11247662  0.94868406  1
  S2-  S202  1  0.23675677  0.38039375  0.47138267  1
  S2-  S203  1  0.26964955  0.35856848  0.94860006  1
  S2-  S204  1  0.23593073  0.62119113  0.45664013  1
  S2-  S205  1  0.26517205  0.60977362  0.95867647  1
  S2-  S206  1  0.23990331  0.87319094  0.45933247  1
  S2-  S207  1  0.26242293  0.85902804  0.95633824  1
  S2-  S208  1  0.48393464  0.12460487  0.46015356  1
  S2-  S209  1  0.51839625  0.11051861  0.95200609  1
  S2-  S210  1  0.48798500  0.36952790  0.45819768  1
  S2-  S211  1  0.51214511  0.36028422  0.94970344  1
  S2-  S212  1  0.49345697  0.61795298  0.46175189  1
  S2-  S213  1  0.51417146  0.60667379  0.95388897  1
  S2-  S214  1  0.48719677  0.87353055  0.45492222  1
  S2-  S215  1  0.51771559  0.85398896  0.94692752  1
  S2-  S216  1  0.73781802  0.12580045  0.45515535  1
  S2-  S217  1  0.76701017  0.11124467  0.96704973  1
  S2-  S218  1  0.74182062  0.36965797  0.45116204  1
  S2-  S219  1  0.76670003  0.36161809  0.96032277  1
  S2-  S220  1  0.74097391  0.62179223  0.45031427  1
  S2-  S221  1  0.76551447  0.60718619  0.96024412  1
  S2-  S222  1  0.73907739  0.87702874  0.44732841  1
  S2-  S223  1  0.76674765  0.85515260  0.95530393  1
  S2-  S224  1  0.12852937  -0.00648760  0.04083194  1
  S2-  S225  1  0.10961603  -0.00163020  0.54608523  1
  S2-  S226  1  0.13547860  0.23448892  0.03192650  1
  S2-  S227  1  0.11422135  0.25275817  0.54940374  1
  S2-  S228  1  0.14368603  0.48743634  0.04553510  1
  S2-  S229  1  0.10870648  0.50435040  0.54823669  1
  S2-  S230  1  0.13758760  0.73271428  0.04326403  1
  S2-  S231  1  0.10992209  0.74847774  0.53863706  1
  S2-  S232  1  0.39364171  -0.01620610  0.02996936  1
  S2-  S233  1  0.36390120  -0.00294921  0.55349776  1
  S2-  S234  1  0.39210800  0.23359802  0.05060836  1
  S2-  S235  1  0.36026045  0.25276918  0.56174651  1
  S2-  S236  1  0.38810201  0.48108798  0.04445124  1
  S2-  S237  1  0.36495172  0.49827346  0.55142094  1
  S2-  S238  1  0.39083374  0.73414727  0.03740143  1
  S2-  S239  1  0.35973684  0.74956013  0.54381928  1
  S2-  S240  1  0.63393889  -0.02097458  0.03772828  1
  S2-  S241  1  0.61280665  -0.00214348  0.54635054  1
  S2-  S242  1  0.63925799  0.23871167  0.04317986  1
  S2-  S243  1  0.60922838  0.24959680  0.54649258  1
  S2-  S244  1  0.64088890  0.47840058  0.04569120  1
  S2-  S245  1  0.61325183  0.49775772  0.54659453  1
  S2-  S246  1  0.63905371  0.73892785  0.04457260  1
  S2-  S247  1  0.61830225  0.75063978  0.54790355  1
  S2-  S248  1  0.89791689  -0.01055550  0.05062832  1
  S2-  S249  1  0.86519635  0.00200168  0.54698118  1
  S2-  S250  1  0.89330078  0.23658028  0.04229767  1
  S2-  S251  1  0.86631965  0.24745245  0.56434725  1
  S2-  S252  1  0.88750938  0.48329409  0.05346964  1
  S2-  S253  1  0.86159713  0.50000734  0.54696486  1
  S2-  S254  1  0.89047594  0.73755285  0.05063424  1
  S2-  S255  1  0.85965244  0.75048782  0.54435507  1
