# generated using pymatgen
data_La6Ce6Pr19Nd20Sm13(BiS2)64
_symmetry_space_group_name_H-M   'P 1'
_cell_length_a   16.15761754
_cell_length_b   16.14023504
_cell_length_c   27.27049062
_cell_angle_alpha   90.20287664
_cell_angle_beta   90.14228852
_cell_angle_gamma   89.99381558
_symmetry_Int_Tables_number   1
_chemical_formula_structural   La6Ce6Pr19Nd20Sm13(BiS2)64
_chemical_formula_sum   'La6 Ce6 Pr19 Nd20 Sm13 Bi64 S128'
_cell_volume   7111.74319825
_cell_formula_units_Z   1
loop_
 _symmetry_equiv_pos_site_id
 _symmetry_equiv_pos_as_xyz
  1  'x, y, z'
loop_
 _atom_type_symbol
 _atom_type_oxidation_number
  La3+  3.0
  Ce3+  3.0
  Pr3+  3.0
  Nd3+  3.0
  Sm3+  3.0
  Bi2+  2.0
  S2-  -2.0
loop_
 _atom_site_type_symbol
 _atom_site_label
 _atom_site_symmetry_multiplicity
 _atom_site_fract_x
 _atom_site_fract_y
 _atom_site_fract_z
 _atom_site_occupancy
  La3+  La0  1  0.60485099  0.01086663  0.92861572  1
  La3+  La1  1  0.60494022  0.50104660  0.92136470  1
  La3+  La2  1  0.60799230  0.75748786  0.91971972  1
  La3+  La3  1  0.00452384  0.61664284  0.59725176  1
  La3+  La4  1  0.72451388  0.88228011  0.07062941  1
  La3+  La5  1  0.00126067  0.10843050  0.11847940  1
  Ce3+  Ce6  1  0.37613855  0.24773598  0.44380962  1
  Ce3+  Ce7  1  0.50414772  0.12710187  0.55891878  1
  Ce3+  Ce8  1  0.35979314  0.75791079  0.92915566  1
  Ce3+  Ce9  1  0.85874449  0.75502158  0.94500163  1
  Ce3+  Ce10  1  -0.00426181  0.37580531  0.55480391  1
  Ce3+  Ce11  1  0.23417995  0.13088712  0.05702343  1
  Pr3+  Pr12  1  -0.01461403  0.62653649  0.06516251  1
  Pr3+  Pr13  1  0.23242471  0.38399181  0.06040520  1
  Pr3+  Pr14  1  0.10862746  0.75246326  0.93572319  1
  Pr3+  Pr15  1  0.12063144  -0.00477330  0.43467904  1
  Pr3+  Pr16  1  0.85715070  0.00692885  0.94556511  1
  Pr3+  Pr17  1  0.23270670  0.88257645  0.05475600  1
  Pr3+  Pr18  1  0.61306945  -0.00779808  0.41009787  1
  Pr3+  Pr19  1  0.73153873  0.38597850  0.06496211  1
  Pr3+  Pr20  1  0.35892907  0.25403997  0.94819627  1
  Pr3+  Pr21  1  0.11921181  0.49918433  0.43323220  1
  Pr3+  Pr22  1  0.62305035  0.50223675  0.43248213  1
  Pr3+  Pr23  1  0.10461307  0.49699139  0.92523615  1
  Pr3+  Pr24  1  0.61226585  0.25365479  0.40945069  1
  Pr3+  Pr25  1  0.60940447  0.25463833  0.94738159  1
  Pr3+  Pr26  1  0.74273083  0.12759216  0.58735864  1
  Pr3+  Pr27  1  0.73882201  0.13578221  0.07815879  1
  Pr3+  Pr28  1  0.35979632  0.50431076  0.93090255  1
  Pr3+  Pr29  1  0.12562601  0.23928409  0.42930877  1
  Pr3+  Pr30  1  0.86311975  -0.00175533  0.43537567  1
  Nd3+  Nd31  1  0.24534070  0.62650348  0.55891035  1
  Nd3+  Nd32  1  0.24592297  0.37707377  0.55107849  1
  Nd3+  Nd33  1  0.23367753  0.63316351  0.04947759  1
  Nd3+  Nd34  1  0.11976636  0.75218416  0.43529930  1
  Nd3+  Nd35  1  0.87242989  0.50126892  0.44271489  1
  Nd3+  Nd36  1  -0.00193213  0.12549405  0.56227187  1
  Nd3+  Nd37  1  0.48348920  0.63305324  0.05058858  1
  Nd3+  Nd38  1  0.37456572  0.74923217  0.44945705  1
  Nd3+  Nd39  1  0.48942972  0.12799898  0.07236586  1
  Nd3+  Nd40  1  0.72958995  0.63141620  0.05076320  1
  Nd3+  Nd41  1  -0.01347774  0.37702079  0.06770155  1
  Nd3+  Nd42  1  0.62494229  0.74613130  0.44052618  1
  Nd3+  Nd43  1  0.85856709  0.50418757  0.93621234  1
  Nd3+  Nd44  1  0.86673453  0.24691395  0.43369201  1
  Nd3+  Nd45  1  0.85788526  0.25415873  0.94794515  1
  Nd3+  Nd46  1  0.24668363  0.12757606  0.56665575  1
  Nd3+  Nd47  1  0.74706379  0.87851789  0.56738965  1
  Nd3+  Nd48  1  0.48440966  0.38492820  0.06312513  1
  Nd3+  Nd49  1  -0.00327340  0.87658463  0.55903945  1
  Nd3+  Nd50  1  0.50075837  0.62501016  0.56347574  1
  Sm3+  Sm51  1  0.10582380  0.25580862  0.94173453  1
  Sm3+  Sm52  1  0.10533800  0.00744911  0.94246451  1
  Sm3+  Sm53  1  0.37130802  0.50051331  0.44658428  1
  Sm3+  Sm54  1  -0.01884085  0.88222504  0.05764454  1
  Sm3+  Sm55  1  0.35872710  0.00757085  0.93859223  1
  Sm3+  Sm56  1  0.50409116  0.37493586  0.55636674  1
  Sm3+  Sm57  1  0.74504471  0.63169029  0.57293039  1
  Sm3+  Sm58  1  0.48329823  0.88090931  0.05446982  1
  Sm3+  Sm59  1  0.74757426  0.37750385  0.55160044  1
  Sm3+  Sm60  1  0.37662598  -0.00074132  0.44564021  1
  Sm3+  Sm61  1  0.50217345  0.88049101  0.56194412  1
  Sm3+  Sm62  1  0.86903887  0.74695484  0.45121363  1
  Sm3+  Sm63  1  0.24775179  0.87626168  0.55646407  1
  Bi2+  Bi64  1  0.00047295  0.14279187  0.31987691  1
  Bi2+  Bi65  1  0.03366520  0.13005885  0.77674697  1
  Bi2+  Bi66  1  0.00246916  0.40737697  0.29402878  1
  Bi2+  Bi67  1  -0.00931028  0.38123736  0.79736470  1
  Bi2+  Bi68  1  0.07960434  0.65431110  0.31300176  1
  Bi2+  Bi69  1  0.00149755  0.64480016  0.79536715  1
  Bi2+  Bi70  1  0.06958795  0.83824754  0.26957565  1
  Bi2+  Bi71  1  0.05403252  0.90225799  0.77033226  1
  Bi2+  Bi72  1  0.28188229  0.12256536  0.28595391  1
  Bi2+  Bi73  1  0.28253718  0.00512152  0.81048438  1
  Bi2+  Bi74  1  0.28439649  0.39434757  0.28282999  1
  Bi2+  Bi75  1  0.26233750  0.28587349  0.77019755  1
  Bi2+  Bi76  1  0.25646497  0.71877912  0.27696451  1
  Bi2+  Bi77  1  0.30133727  0.56120604  0.80502793  1
  Bi2+  Bi78  1  0.34315527  0.91462042  0.29921742  1
  Bi2+  Bi79  1  0.25869660  0.80494097  0.81317576  1
  Bi2+  Bi80  1  0.48671292  0.12747948  0.28552796  1
  Bi2+  Bi81  1  0.45155583  0.13604349  0.78574235  1
  Bi2+  Bi82  1  0.47773850  0.38795805  0.29196534  1
  Bi2+  Bi83  1  0.46543106  0.32002376  0.74183180  1
  Bi2+  Bi84  1  0.52941955  0.60932204  0.30362734  1
  Bi2+  Bi85  1  0.48567583  0.60428405  0.78729306  1
  Bi2+  Bi86  1  0.51172101  0.80137682  0.27074911  1
  Bi2+  Bi87  1  0.43618568  0.86944947  0.78153195  1
  Bi2+  Bi88  1  0.77779871  0.11253847  0.30244235  1
  Bi2+  Bi89  1  0.75945734  0.12472333  0.82476819  1
  Bi2+  Bi90  1  0.74085939  0.45476289  0.28199186  1
  Bi2+  Bi91  1  0.72112319  0.35353460  0.79829550  1
  Bi2+  Bi92  1  0.71366746  0.63142932  0.33434383  1
  Bi2+  Bi93  1  0.77173095  0.62852898  0.78803797  1
  Bi2+  Bi94  1  0.75750157  0.84156255  0.30565816  1
  Bi2+  Bi95  1  0.78919769  0.88005338  0.80371158  1
  Bi2+  Bi96  1  0.23484819  -0.02431400  0.21129376  1
  Bi2+  Bi97  1  0.16755193  0.02843775  0.70881879  1
  Bi2+  Bi98  1  0.12477261  0.25263817  0.21417516  1
  Bi2+  Bi99  1  0.09351206  0.28353553  0.71318666  1
  Bi2+  Bi100  1  0.12963572  0.50765116  0.20596150  1
  Bi2+  Bi101  1  0.12559136  0.48483673  0.70766410  1
  Bi2+  Bi102  1  0.10528394  0.70430522  0.18502378  1
  Bi2+  Bi103  1  0.17046980  0.76094525  0.71415171  1
  Bi2+  Bi104  1  0.40633894  0.06121414  0.18829390  1
  Bi2+  Bi105  1  0.36435769  -0.01038075  0.70057846  1
  Bi2+  Bi106  1  0.36914513  0.25339975  0.21607262  1
  Bi2+  Bi107  1  0.35106414  0.18324580  0.68501719  1
  Bi2+  Bi108  1  0.36701967  0.55807138  0.24233971  1
  Bi2+  Bi109  1  0.35112337  0.47212506  0.70918736  1
  Bi2+  Bi110  1  0.39194463  0.73838256  0.19023489  1
  Bi2+  Bi111  1  0.35944724  0.70230700  0.72243226  1
  Bi2+  Bi112  1  0.64464562  -0.03236057  0.20263090  1
  Bi2+  Bi113  1  0.62844824  0.00562512  0.71153378  1
  Bi2+  Bi114  1  0.61991598  0.25742271  0.20885949  1
  Bi2+  Bi115  1  0.66055470  0.19756206  0.73410444  1
  Bi2+  Bi116  1  0.61977497  0.51533067  0.19563639  1
  Bi2+  Bi117  1  0.63799045  0.48651785  0.69219121  1
  Bi2+  Bi118  1  0.66824507  0.70163833  0.22640984  1
  Bi2+  Bi119  1  0.62825005  0.75606087  0.71225659  1
  Bi2+  Bi120  1  0.89627012  -0.02169158  0.21988429  1
  Bi2+  Bi121  1  0.88980934  0.03018012  0.71161238  1
  Bi2+  Bi122  1  0.86620395  0.25443004  0.21924253  1
  Bi2+  Bi123  1  0.87838348  0.23670755  0.73177871  1
  Bi2+  Bi124  1  0.89043525  0.51354128  0.22171257  1
  Bi2+  Bi125  1  0.84776723  0.42627245  0.70754314  1
  Bi2+  Bi126  1  0.93269903  0.70154320  0.23621587  1
  Bi2+  Bi127  1  0.88186660  0.80769725  0.71190388  1
  S2-  S128  1  0.02068558  0.10407020  0.22760437  1
  S2-  S129  1  -0.10868816  0.14849773  0.64032683  1
  S2-  S130  1  -0.01276770  0.27958412  0.15391875  1
  S2-  S131  1  -0.00436747  0.45728891  0.64359382  1
  S2-  S132  1  -0.00931821  0.50451558  0.13842791  1
  S2-  S133  1  -0.03445097  0.67381164  0.69265384  1
  S2-  S134  1  0.00444285  0.93589962  0.14958746  1
  S2-  S135  1  -0.01262726  0.91205810  0.65597080  1
  S2-  S136  1  0.17508965  0.12731522  0.14778264  1
  S2-  S137  1  0.12187397  0.13378599  0.63584501  1
  S2-  S138  1  0.19291067  0.36630249  0.15883746  1
  S2-  S139  1  0.23262477  0.39067867  0.64951308  1
  S2-  S140  1  0.22697860  0.58927257  0.14509752  1
  S2-  S141  1  0.16280877  0.62150930  0.64608222  1
  S2-  S142  1  0.26761465  0.84314625  0.15030475  1
  S2-  S143  1  0.23755424  0.88262315  0.65413009  1
  S2-  S144  1  0.61002721  0.11744775  0.14870199  1
  S2-  S145  1  0.59202765  0.13614208  0.64430773  1
  S2-  S146  1  0.52611753  0.37335089  0.15907948  1
  S2-  S147  1  0.49493635  0.40281219  0.65291057  1
  S2-  S148  1  0.49798334  0.61292952  0.14832234  1
  S2-  S149  1  0.56423672  0.62922677  0.65617252  1
  S2-  S150  1  0.57631388  0.87262245  0.13716201  1
  S2-  S151  1  0.54814852  0.87754825  0.65768883  1
  S2-  S152  1  0.83856153  0.11308225  0.16327903  1
  S2-  S153  1  0.75197965  -0.01524920  0.65095226  1
  S2-  S154  1  0.74711075  0.31176856  0.15719484  1
  S2-  S155  1  0.72366727  0.35141106  0.64777228  1
  S2-  S156  1  0.74475251  0.60738603  0.14851792  1
  S2-  S157  1  0.77311119  0.55822369  0.66198121  1
  S2-  S158  1  0.78044424  0.88924003  0.16927350  1
  S2-  S159  1  0.74483108  0.76330108  0.64542102  1
  S2-  S160  1  0.15411337  0.10006360  0.35676901  1
  S2-  S161  1  0.11368872  0.02606197  0.84491846  1
  S2-  S162  1  0.09867096  0.28381789  0.33166834  1
  S2-  S163  1  0.11038777  0.35280796  0.85998775  1
  S2-  S164  1  0.14170005  0.49437614  0.33303929  1
  S2-  S165  1  0.12744077  0.57267068  0.83395713  1
  S2-  S166  1  0.12131687  0.86823309  0.36072849  1
  S2-  S167  1  0.07601402  0.78695024  0.83918578  1
  S2-  S168  1  0.45699908  0.00451576  0.35864687  1
  S2-  S169  1  0.46298051  0.02129782  0.86026145  1
  S2-  S170  1  0.45246474  0.25197621  0.35735943  1
  S2-  S171  1  0.36257097  0.24937332  0.84771737  1
  S2-  S172  1  0.37234889  0.50306088  0.34921513  1
  S2-  S173  1  0.46995494  0.47967318  0.85214121  1
  S2-  S174  1  0.37137514  0.76406986  0.35119521  1
  S2-  S175  1  0.47007956  0.75239413  0.85221949  1
  S2-  S176  1  0.66747836  -0.00224274  0.30756740  1
  S2-  S177  1  0.66692155  -0.01791108  0.83320354  1
  S2-  S178  1  0.64764003  0.20639215  0.31002982  1
  S2-  S179  1  0.61844888  0.23778571  0.84801449  1
  S2-  S180  1  0.62004474  0.40177174  0.34938703  1
  S2-  S181  1  0.68330157  0.51134249  0.82838643  1
  S2-  S182  1  0.60839804  0.83624945  0.35766278  1
  S2-  S183  1  0.67095774  0.74469715  0.81980075  1
  S2-  S184  1  0.90424848  -0.00392558  0.33623772  1
  S2-  S185  1  0.87768935  0.00358523  0.84447751  1
  S2-  S186  1  0.86678425  0.25971333  0.33200125  1
  S2-  S187  1  0.86029791  0.27694304  0.84856430  1
  S2-  S188  1  0.89062868  0.49495411  0.34391584  1
  S2-  S189  1  0.90371882  0.51979472  0.84021112  1
  S2-  S190  1  0.86374742  0.75453737  0.35223914  1
  S2-  S191  1  0.87349520  0.73722501  0.84748205  1
  S2-  S192  1  -0.00752482  0.12271466  0.45342321  1
  S2-  S193  1  -0.01442458  0.13276395  0.94594857  1
  S2-  S194  1  -0.00446825  0.37125577  0.44835643  1
  S2-  S195  1  -0.01935989  0.37871839  0.95957308  1
  S2-  S196  1  -0.00389364  0.62758744  0.44802395  1
  S2-  S197  1  -0.01578016  0.62819993  0.95596666  1
  S2-  S198  1  -0.01123971  0.87261246  0.45431892  1
  S2-  S199  1  -0.01504930  0.88174063  0.95254859  1
  S2-  S200  1  0.25568336  0.12221565  0.46066925  1
  S2-  S201  1  0.23101791  0.13039437  0.95006408  1
  S2-  S202  1  0.24861250  0.37360289  0.44516562  1
  S2-  S203  1  0.23685397  0.38032225  0.95414202  1
  S2-  S204  1  0.24663701  0.62593135  0.45164398  1
  S2-  S205  1  0.23571790  0.62995960  0.94477370  1
  S2-  S206  1  0.25364243  0.87572390  0.45407007  1
  S2-  S207  1  0.23268091  0.88510677  0.94825333  1
  S2-  S208  1  0.50141142  0.12402620  0.45529237  1
  S2-  S209  1  0.48224062  0.13284378  0.96455541  1
  S2-  S210  1  0.49557413  0.38017438  0.45405393  1
  S2-  S211  1  0.48300410  0.37752337  0.95729575  1
  S2-  S212  1  0.49638077  0.62308907  0.45577965  1
  S2-  S213  1  0.48416422  0.62881632  0.94712534  1
  S2-  S214  1  0.49677028  0.87397700  0.45929977  1
  S2-  S215  1  0.48196473  0.88229900  0.95221436  1
  S2-  S216  1  0.73627846  0.12447030  0.43247488  1
  S2-  S217  1  0.73307470  0.13096194  0.96221829  1
  S2-  S218  1  0.74813535  0.37486440  0.44671297  1
  S2-  S219  1  0.73317333  0.38186125  0.95453628  1
  S2-  S220  1  0.74754435  0.62350684  0.46471705  1
  S2-  S221  1  0.73243521  0.62899193  0.94456838  1
  S2-  S222  1  0.74518190  0.87184383  0.45834547  1
  S2-  S223  1  0.73238906  0.87970229  0.95396163  1
  S2-  S224  1  0.10619817  0.00641434  0.04590292  1
  S2-  S225  1  0.12453564  -0.00324894  0.54201735  1
  S2-  S226  1  0.11161147  0.25564473  0.04409071  1
  S2-  S227  1  0.12244545  0.25389757  0.53746863  1
  S2-  S228  1  0.11141921  0.50656467  0.03557309  1
  S2-  S229  1  0.12140077  0.50187820  0.53974880  1
  S2-  S230  1  0.10574946  0.75728548  0.04369368  1
  S2-  S231  1  0.12271187  0.75319703  0.54399420  1
  S2-  S232  1  0.36106962  0.00581987  0.04492469  1
  S2-  S233  1  0.37352557  0.00077051  0.55100246  1
  S2-  S234  1  0.36174319  0.25610563  0.05617227  1
  S2-  S235  1  0.37480035  0.25428312  0.54958878  1
  S2-  S236  1  0.35938077  0.50709165  0.04228696  1
  S2-  S237  1  0.37308257  0.50193115  0.55090185  1
  S2-  S238  1  0.35971663  0.75729397  0.03726731  1
  S2-  S239  1  0.37456037  0.75234987  0.55632664  1
  S2-  S240  1  0.60568154  0.00643576  0.03945548  1
  S2-  S241  1  0.62366095  0.00059393  0.54352473  1
  S2-  S242  1  0.60730845  0.25845136  0.05202992  1
  S2-  S243  1  0.62560016  0.25382778  0.53938923  1
  S2-  S244  1  0.60660031  0.50653218  0.03745770  1
  S2-  S245  1  0.62402583  0.50142274  0.54343209  1
  S2-  S246  1  0.60644186  0.75480991  0.03383663  1
  S2-  S247  1  0.61909902  0.75233230  0.54557387  1
  S2-  S248  1  0.85844331  0.00414379  0.05141649  1
  S2-  S249  1  0.87062525  0.00224129  0.54264658  1
  S2-  S250  1  0.85571065  0.26088497  0.05091126  1
  S2-  S251  1  0.86759282  0.25295326  0.53937603  1
  S2-  S252  1  0.85541934  0.50692838  0.04311409  1
  S2-  S253  1  0.87100147  0.50383055  0.54741493  1
  S2-  S254  1  0.85918452  0.75528814  0.05287326  1
  S2-  S255  1  0.88187758  0.74282918  0.55472909  1
