# generated using pymatgen
data_La6Ce6Pr19Nd20Sm13(BiS2)64
_symmetry_space_group_name_H-M   'P 1'
_cell_length_a   16.03906656
_cell_length_b   16.11388502
_cell_length_c   27.29459184
_cell_angle_alpha   90.17642577
_cell_angle_beta   90.14793931
_cell_angle_gamma   89.94845649
_symmetry_Int_Tables_number   1
_chemical_formula_structural   La6Ce6Pr19Nd20Sm13(BiS2)64
_chemical_formula_sum   'La6 Ce6 Pr19 Nd20 Sm13 Bi64 S128'
_cell_volume   7054.27319892
_cell_formula_units_Z   1
loop_
 _symmetry_equiv_pos_site_id
 _symmetry_equiv_pos_as_xyz
  1  'x, y, z'
loop_
 _atom_type_symbol
 _atom_type_oxidation_number
  La3+  3.0
  Ce3+  3.0
  Pr3+  3.0
  Nd3+  3.0
  Sm3+  3.0
  Bi2+  2.0
  S2-  -2.0
loop_
 _atom_site_type_symbol
 _atom_site_label
 _atom_site_symmetry_multiplicity
 _atom_site_fract_x
 _atom_site_fract_y
 _atom_site_fract_z
 _atom_site_occupancy
  La3+  La0  1  0.86080468  0.24012746  0.89208121  1
  La3+  La1  1  0.50294172  0.12535547  0.10023718  1
  La3+  La2  1  0.76238392  0.36212383  0.58345423  1
  La3+  La3  1  0.03750707  0.36970972  0.57618050  1
  La3+  La4  1  0.28092944  0.63192462  0.57574531  1
  La3+  La5  1  0.28404328  0.12239508  0.57255746  1
  Ce3+  Ce6  1  0.77886784  0.87184309  0.55240900  1
  Ce3+  Ce7  1  0.25922599  0.87649157  0.06557564  1
  Ce3+  Ce8  1  0.62867468  0.24875785  0.94443899  1
  Ce3+  Ce9  1  0.75249623  0.62670236  0.06470142  1
  Ce3+  Ce10  1  0.28049440  0.37548106  0.55826846  1
  Ce3+  Ce11  1  0.28738033  0.86665650  0.54612632  1
  Pr3+  Pr12  1  0.62899794  0.49782332  0.94522692  1
  Pr3+  Pr13  1  0.39603765  0.73646648  0.41455567  1
  Pr3+  Pr14  1  0.50598077  0.87404763  0.10845364  1
  Pr3+  Pr15  1  0.62549639  0.74810514  0.95251767  1
  Pr3+  Pr16  1  0.50293111  0.37707484  0.07306552  1
  Pr3+  Pr17  1  0.03141910  0.86991608  0.55861969  1
  Pr3+  Pr18  1  0.24904117  0.62277878  0.06933973  1
  Pr3+  Pr19  1  0.03220109  0.12004742  0.56842367  1
  Pr3+  Pr20  1  0.90302976  0.74275464  0.43448758  1
  Pr3+  Pr21  1  0.15454094  0.24784226  0.43275813  1
  Pr3+  Pr22  1  0.12414337  0.00056225  0.94283205  1
  Pr3+  Pr23  1  0.00090665  0.37501591  0.05093198  1
  Pr3+  Pr24  1  0.12811458  0.74859504  0.94166532  1
  Pr3+  Pr25  1  0.66050222  0.24535271  0.42715267  1
  Pr3+  Pr26  1  0.75470751  0.37582953  0.05815800  1
  Pr3+  Pr27  1  0.65832195  0.74188937  0.42321788  1
  Pr3+  Pr28  1  0.37867878  0.75000405  0.94546480  1
  Pr3+  Pr29  1  0.14921380  0.74492101  0.43102588  1
  Pr3+  Pr30  1  0.53139539  0.12294523  0.55775283  1
  Nd3+  Nd31  1  0.53159994  0.86988348  0.54160325  1
  Nd3+  Nd32  1  0.49276928  0.62335910  0.09745543  1
  Nd3+  Nd33  1  0.77889572  0.62191849  0.57021831  1
  Nd3+  Nd34  1  0.38102147  0.00114552  0.94585114  1
  Nd3+  Nd35  1  0.02729232  0.62159442  0.56767636  1
  Nd3+  Nd36  1  -0.00060618  0.12738603  0.06381174  1
  Nd3+  Nd37  1  0.66449426  0.49337802  0.43272573  1
  Nd3+  Nd38  1  0.75457120  0.87228898  0.07332394  1
  Nd3+  Nd39  1  0.37604871  0.49924724  0.93797139  1
  Nd3+  Nd40  1  0.40563059  -0.00037679  0.42695176  1
  Nd3+  Nd41  1  0.12990099  0.49848085  0.93022161  1
  Nd3+  Nd42  1  0.62831727  -0.00076946  0.95140636  1
  Nd3+  Nd43  1  0.88170689  0.50205215  0.91279764  1
  Nd3+  Nd44  1  0.87585122  -0.00220533  0.94261194  1
  Nd3+  Nd45  1  0.90235646  0.49164019  0.45223651  1
  Nd3+  Nd46  1  0.40528666  0.49948064  0.43542913  1
  Nd3+  Nd47  1  0.90764304  0.24795315  0.44183156  1
  Nd3+  Nd48  1  0.66239581  -0.00145344  0.42489497  1
  Nd3+  Nd49  1  0.75566482  0.12730976  0.07026569  1
  Nd3+  Nd50  1  0.00267816  0.87587529  0.06991651  1
  Sm3+  Sm51  1  0.25520677  0.37438191  0.05382540  1
  Sm3+  Sm52  1  0.87720917  0.74756195  0.93992402  1
  Sm3+  Sm53  1  0.53517849  0.62305609  0.55951348  1
  Sm3+  Sm54  1  0.90666363  -0.00266860  0.43310592  1
  Sm3+  Sm55  1  0.15635756  -0.00083427  0.44557867  1
  Sm3+  Sm56  1  0.00644473  0.62471064  0.06010703  1
  Sm3+  Sm57  1  0.15374997  0.49842292  0.44390351  1
  Sm3+  Sm58  1  0.12250776  0.24863137  0.93817955  1
  Sm3+  Sm59  1  0.40232698  0.24789956  0.43300976  1
  Sm3+  Sm60  1  0.25631241  0.12445028  0.05979763  1
  Sm3+  Sm61  1  0.38047926  0.24579433  0.94404660  1
  Sm3+  Sm62  1  0.78723432  0.11857349  0.56243185  1
  Sm3+  Sm63  1  0.52956748  0.37325341  0.54580788  1
  Bi2+  Bi64  1  0.00973765  0.09217596  0.30429178  1
  Bi2+  Bi65  1  0.00121659  0.05875779  0.80092131  1
  Bi2+  Bi66  1  0.00130363  0.38293258  0.30287607  1
  Bi2+  Bi67  1  0.00152778  0.36504879  0.78802539  1
  Bi2+  Bi68  1  -0.00206212  0.62578750  0.30705589  1
  Bi2+  Bi69  1  -0.01340333  0.63013651  0.78661142  1
  Bi2+  Bi70  1  0.00602668  0.81978220  0.32930655  1
  Bi2+  Bi71  1  -0.09386646  0.89095027  0.82581051  1
  Bi2+  Bi72  1  0.19869440  0.15390561  0.28181415  1
  Bi2+  Bi73  1  0.26448813  0.09512824  0.81132478  1
  Bi2+  Bi74  1  0.19125611  0.33873835  0.23921704  1
  Bi2+  Bi75  1  0.22353809  0.42989664  0.77408530  1
  Bi2+  Bi76  1  0.18976852  0.59274180  0.28851997  1
  Bi2+  Bi77  1  0.23601859  0.64989584  0.79522856  1
  Bi2+  Bi78  1  0.17605654  0.87095661  0.28434032  1
  Bi2+  Bi79  1  0.22178929  0.86857602  0.72676256  1
  Bi2+  Bi80  1  0.47654871  0.16414123  0.30086929  1
  Bi2+  Bi81  1  0.52315571  0.15505517  0.80449637  1
  Bi2+  Bi82  1  0.37277314  0.37072785  0.30719924  1
  Bi2+  Bi83  1  0.49283721  0.42114277  0.78902020  1
  Bi2+  Bi84  1  0.51477486  0.63723501  0.29528482  1
  Bi2+  Bi85  1  0.44475375  0.61299409  0.79197918  1
  Bi2+  Bi86  1  0.51550425  0.91316500  0.29326885  1
  Bi2+  Bi87  1  0.48073659  0.96751401  0.77533796  1
  Bi2+  Bi88  1  0.81850750  0.12332507  0.28190627  1
  Bi2+  Bi89  1  0.68285218  0.12651771  0.73144434  1
  Bi2+  Bi90  1  0.73495035  0.36215677  0.30222288  1
  Bi2+  Bi91  1  0.70798707  0.36259541  0.78205338  1
  Bi2+  Bi92  1  0.80105400  0.59002420  0.28591370  1
  Bi2+  Bi93  1  0.71354562  0.62567896  0.79741862  1
  Bi2+  Bi94  1  0.83065698  0.85849062  0.28961639  1
  Bi2+  Bi95  1  0.71199167  0.89306384  0.80761007  1
  Bi2+  Bi96  1  0.11162631  -0.05554709  0.18051331  1
  Bi2+  Bi97  1  0.09897825  0.01519410  0.70637499  1
  Bi2+  Bi98  1  0.09700772  0.14325803  0.18438271  1
  Bi2+  Bi99  1  0.17339996  0.21578689  0.74118181  1
  Bi2+  Bi100  1  0.06219298  0.49812298  0.21555161  1
  Bi2+  Bi101  1  0.09217900  0.48894210  0.69753648  1
  Bi2+  Bi102  1  0.11487953  0.75165296  0.19705340  1
  Bi2+  Bi103  1  0.06256136  0.75130504  0.71170014  1
  Bi2+  Bi104  1  0.34394922  0.00883567  0.22122473  1
  Bi2+  Bi105  1  0.33087865  0.02725570  0.70740499  1
  Bi2+  Bi106  1  0.37318375  0.25554163  0.21566665  1
  Bi2+  Bi107  1  0.34961856  0.30445924  0.72196077  1
  Bi2+  Bi108  1  0.37280950  0.48680292  0.21664706  1
  Bi2+  Bi109  1  0.36604911  0.50043609  0.70010909  1
  Bi2+  Bi110  1  0.36028588  0.75082801  0.22185966  1
  Bi2+  Bi111  1  0.39895648  0.76563621  0.70271704  1
  Bi2+  Bi112  1  0.65065352  0.01396286  0.23114055  1
  Bi2+  Bi113  1  0.61742196  -0.04387419  0.68922705  1
  Bi2+  Bi114  1  0.64576792  0.26079089  0.22089788  1
  Bi2+  Bi115  1  0.52774138  0.23496443  0.69698135  1
  Bi2+  Bi116  1  0.63799113  0.50504680  0.23689274  1
  Bi2+  Bi117  1  0.57265426  0.51101209  0.69694975  1
  Bi2+  Bi118  1  0.66849763  0.75543373  0.22175909  1
  Bi2+  Bi119  1  0.57896801  0.74562129  0.75010471  1
  Bi2+  Bi120  1  0.91929411  -0.00584305  0.21118010  1
  Bi2+  Bi121  1  0.81934678  -0.01822864  0.70338541  1
  Bi2+  Bi122  1  0.93525911  0.24938654  0.21948388  1
  Bi2+  Bi123  1  0.86662050  0.23581488  0.69629142  1
  Bi2+  Bi124  1  0.85019967  0.44846485  0.20911546  1
  Bi2+  Bi125  1  0.82053047  0.56193505  0.71415601  1
  Bi2+  Bi126  1  0.92037800  0.73244844  0.21053658  1
  Bi2+  Bi127  1  0.83637913  0.78477097  0.73837306  1
  S2-  S128  1  -0.10939412  0.12924480  0.14370169  1
  S2-  S129  1  -0.09231074  0.09734440  0.64180665  1
  S2-  S130  1  -0.01087211  0.37531101  0.15215848  1
  S2-  S131  1  -0.00841168  0.34217346  0.67536492  1
  S2-  S132  1  0.11277730  0.60660984  0.13759764  1
  S2-  S133  1  -0.09522040  0.63417362  0.64350865  1
  S2-  S134  1  -0.11457231  0.86507774  0.14442584  1
  S2-  S135  1  0.00979987  0.87959402  0.65843607  1
  S2-  S136  1  0.32961017  0.12244887  0.14913707  1
  S2-  S137  1  0.15411029  0.14230562  0.64500108  1
  S2-  S138  1  0.26516424  0.39216243  0.15101631  1
  S2-  S139  1  0.18908917  0.38129548  0.63950345  1
  S2-  S140  1  0.34234416  0.62039081  0.15551980  1
  S2-  S141  1  0.14066222  0.62609028  0.64765071  1
  S2-  S142  1  0.33912366  0.87145791  0.15477992  1
  S2-  S143  1  0.27335984  0.79426282  0.63376444  1
  S2-  S144  1  0.51125779  0.27298106  0.15588062  1
  S2-  S145  1  0.42392309  0.11986501  0.63919475  1
  S2-  S146  1  0.51444980  0.48588920  0.15826001  1
  S2-  S147  1  0.58513051  0.37210912  0.63857635  1
  S2-  S148  1  0.51391200  0.73675513  0.17511207  1
  S2-  S149  1  0.42268611  0.63174176  0.63713020  1
  S2-  S150  1  0.49592314  1.00619308  0.17969822  1
  S2-  S151  1  0.49879187  0.86460838  0.63997855  1
  S2-  S152  1  0.66504114  0.12372250  0.15791401  1
  S2-  S153  1  0.72396956  0.20432749  0.63923791  1
  S2-  S154  1  0.74135807  0.34118503  0.15774962  1
  S2-  S155  1  0.78674682  0.39828332  0.68667685  1
  S2-  S156  1  0.76432212  0.66620032  0.15964262  1
  S2-  S157  1  0.64765349  0.62007140  0.63882866  1
  S2-  S158  1  0.66673266  0.88491888  0.16184447  1
  S2-  S159  1  0.75943025  0.84412626  0.64822967  1
  S2-  S160  1  0.15222104  0.01659227  0.34783081  1
  S2-  S161  1  0.13610015  -0.01473977  0.84334686  1
  S2-  S162  1  0.02362117  0.24978166  0.36248879  1
  S2-  S163  1  0.12312430  0.26812546  0.84003706  1
  S2-  S164  1  0.14638164  0.45547440  0.34844525  1
  S2-  S165  1  0.02638957  0.50312108  0.84937339  1
  S2-  S166  1  0.22739802  0.73036862  0.34232972  1
  S2-  S167  1  0.10751779  0.72670104  0.84247015  1
  S2-  S168  1  0.38189634  0.01850431  0.32774402  1
  S2-  S169  1  0.36106293  -0.02817464  0.84763986  1
  S2-  S170  1  0.28304059  0.24320160  0.35983419  1
  S2-  S171  1  0.38135999  0.21987567  0.84612876  1
  S2-  S172  1  0.39103771  0.59082855  0.35112003  1
  S2-  S173  1  0.26144868  0.51087764  0.86117734  1
  S2-  S174  1  0.40877699  0.80117824  0.31724474  1
  S2-  S175  1  0.35198072  0.73385039  0.84462019  1
  S2-  S176  1  0.60232617  0.05388043  0.33446798  1
  S2-  S177  1  0.61164666  0.01249307  0.85058547  1
  S2-  S178  1  0.57977264  0.27533686  0.33437525  1
  S2-  S179  1  0.69301185  0.24800940  0.85141278  1
  S2-  S180  1  0.59291465  0.51448449  0.33798677  1
  S2-  S181  1  0.63747779  0.48611071  0.84406258  1
  S2-  S182  1  0.61301701  0.78301502  0.32362122  1
  S2-  S183  1  0.62587555  0.75409199  0.85129607  1
  S2-  S184  1  0.80018637  -0.00876817  0.35413453  1
  S2-  S185  1  0.85269281  0.06987825  0.85414370  1
  S2-  S186  1  0.79788746  0.23819855  0.36046935  1
  S2-  S187  1  0.92371540  0.22100801  0.79142501  1
  S2-  S188  1  0.80625551  0.47834931  0.36763363  1
  S2-  S189  1  0.85006071  0.39363376  0.83516643  1
  S2-  S190  1  0.79457021  0.71850244  0.35550612  1
  S2-  S191  1  0.86164980  0.65016708  0.85783765  1
  S2-  S192  1  0.03037634  0.11587161  0.46026044  1
  S2-  S193  1  -0.00075155  0.12777166  0.95348945  1
  S2-  S194  1  0.03281131  0.37477148  0.46457777  1
  S2-  S195  1  -0.00165952  0.36970820  0.94551597  1
  S2-  S196  1  0.02704568  0.61795581  0.45575905  1
  S2-  S197  1  0.00210490  0.62359492  0.95716889  1
  S2-  S198  1  0.03008702  0.87538761  0.45170662  1
  S2-  S199  1  0.00103289  0.87180455  0.95998380  1
  S2-  S200  1  0.28209824  0.11797045  0.45811478  1
  S2-  S201  1  0.25121602  0.12691580  0.95492942  1
  S2-  S202  1  0.28053844  0.37698769  0.45453937  1
  S2-  S203  1  0.25293615  0.36585226  0.94976784  1
  S2-  S204  1  0.27477857  0.62030269  0.45663783  1
  S2-  S205  1  0.25205067  0.62573719  0.96168045  1
  S2-  S206  1  0.27972183  0.87342713  0.44076959  1
  S2-  S207  1  0.25198827  0.87638576  0.95748569  1
  S2-  S208  1  0.52760592  0.12415615  0.44925914  1
  S2-  S209  1  0.50411822  0.12519976  0.95500493  1
  S2-  S210  1  0.52765596  0.37176483  0.44327201  1
  S2-  S211  1  0.49971886  0.37363505  0.95450797  1
  S2-  S212  1  0.53481123  0.62050977  0.45027747  1
  S2-  S213  1  0.50076078  0.62096018  0.94720215  1
  S2-  S214  1  0.53203204  0.87386975  0.43635244  1
  S2-  S215  1  0.50312586  0.87532896  0.95039796  1
  S2-  S216  1  0.78434566  0.11780327  0.45783392  1
  S2-  S217  1  0.75293122  0.12514137  0.96164416  1
  S2-  S218  1  0.77961432  0.36618545  0.46755810  1
  S2-  S219  1  0.75894793  0.37616416  0.95241127  1
  S2-  S220  1  0.78052496  0.61947437  0.46370050  1
  S2-  S221  1  0.75461341  0.62241678  0.95921228  1
  S2-  S222  1  0.78090785  0.87114459  0.44894859  1
  S2-  S223  1  0.75419824  0.87062862  0.96190927  1
  S2-  S224  1  0.12896963  0.00264127  0.04941160  1
  S2-  S225  1  0.16089673  -0.00831592  0.54992198  1
  S2-  S226  1  0.13112331  0.24878827  0.04516627  1
  S2-  S227  1  0.15986565  0.24625671  0.53893879  1
  S2-  S228  1  0.13014150  0.49492912  0.03714553  1
  S2-  S229  1  0.15675343  0.50291703  0.54515538  1
  S2-  S230  1  0.12785304  0.75516791  0.04836064  1
  S2-  S231  1  0.15138644  0.74631215  0.53753354  1
  S2-  S232  1  0.38380751  0.00131868  0.05112467  1
  S2-  S233  1  0.40688157  -0.00479632  0.53484234  1
  S2-  S234  1  0.37780209  0.25024172  0.04814902  1
  S2-  S235  1  0.40513260  0.25099554  0.53810676  1
  S2-  S236  1  0.37824219  0.49897287  0.04404680  1
  S2-  S237  1  0.40683557  0.49699223  0.54161029  1
  S2-  S238  1  0.38311301  0.74857531  0.05194001  1
  S2-  S239  1  0.41019021  0.74528763  0.52734090  1
  S2-  S240  1  0.62614681  -0.00333195  0.05612088  1
  S2-  S241  1  0.65587237  -0.00099599  0.53828398  1
  S2-  S242  1  0.62675164  0.25050478  0.04877041  1
  S2-  S243  1  0.64898635  0.24457109  0.53376059  1
  S2-  S244  1  0.62576367  0.50459583  0.05194759  1
  S2-  S245  1  0.65395464  0.49473196  0.53965761  1
  S2-  S246  1  0.62109847  0.74784891  0.05806774  1
  S2-  S247  1  0.65539435  0.74724860  0.53450122  1
  S2-  S248  1  0.87840175  -0.00172417  0.04705829  1
  S2-  S249  1  0.90583043  -0.00751021  0.53799033  1
  S2-  S250  1  0.87781374  0.25178340  0.04693536  1
  S2-  S251  1  0.90563925  0.24747422  0.55045475  1
  S2-  S252  1  0.88032606  0.50496369  0.05448890  1
  S2-  S253  1  0.90156625  0.48783089  0.55639314  1
  S2-  S254  1  0.88216907  0.74558036  0.04462688  1
  S2-  S255  1  0.90485035  0.74802034  0.54093555  1
