# generated using pymatgen
data_La6Ce6Pr19Nd20Sm13(BiS2)64
_symmetry_space_group_name_H-M   'P 1'
_cell_length_a   16.09053723
_cell_length_b   16.04669262
_cell_length_c   27.44800960
_cell_angle_alpha   90.15534793
_cell_angle_beta   90.37195543
_cell_angle_gamma   89.99012364
_symmetry_Int_Tables_number   1
_chemical_formula_structural   La6Ce6Pr19Nd20Sm13(BiS2)64
_chemical_formula_sum   'La6 Ce6 Pr19 Nd20 Sm13 Bi64 S128'
_cell_volume   7086.89799730
_cell_formula_units_Z   1
loop_
 _symmetry_equiv_pos_site_id
 _symmetry_equiv_pos_as_xyz
  1  'x, y, z'
loop_
 _atom_type_symbol
 _atom_type_oxidation_number
  La3+  3.0
  Ce3+  3.0
  Pr3+  3.0
  Nd3+  3.0
  Sm3+  3.0
  Bi2+  2.0
  S2-  -2.0
loop_
 _atom_site_type_symbol
 _atom_site_label
 _atom_site_symmetry_multiplicity
 _atom_site_fract_x
 _atom_site_fract_y
 _atom_site_fract_z
 _atom_site_occupancy
  La3+  La0  1  0.49358357  0.15646194  0.56561707  1
  La3+  La1  1  0.63064345  0.26296617  0.38555239  1
  La3+  La2  1  0.36663524  0.53080622  0.43965810  1
  La3+  La3  1  0.86708731  -0.01320730  0.88500593  1
  La3+  La4  1  0.86632296  0.78763388  0.43019732  1
  La3+  La5  1  0.36083139  0.02546372  0.43263584  1
  Ce3+  Ce6  1  0.61531228  0.03177721  0.44013834  1
  Ce3+  Ce7  1  0.51210187  0.86842644  0.05939427  1
  Ce3+  Ce8  1  0.26482770  0.87075310  0.05810367  1
  Ce3+  Ce9  1  0.51113211  0.36631963  0.05952037  1
  Ce3+  Ce10  1  0.24403772  0.15209687  0.56655651  1
  Ce3+  Ce11  1  0.13417033  0.74206718  0.94322951  1
  Pr3+  Pr12  1  0.74512691  0.91261144  0.56624430  1
  Pr3+  Pr13  1  0.76865466  0.11758475  0.06480368  1
  Pr3+  Pr14  1  0.89255812  0.24230441  0.92454506  1
  Pr3+  Pr15  1  0.13935035  0.24365288  0.93347577  1
  Pr3+  Pr16  1  0.88649036  0.74034136  0.92910709  1
  Pr3+  Pr17  1  0.37011740  0.27895648  0.43518593  1
  Pr3+  Pr18  1  0.24222721  0.65108434  0.57428547  1
  Pr3+  Pr19  1  0.24581768  0.40005608  0.57194402  1
  Pr3+  Pr20  1  0.26831431  0.61702394  0.06502397  1
  Pr3+  Pr21  1  -0.00595995  0.40665695  0.56825601  1
  Pr3+  Pr22  1  0.51834216  0.11100532  0.09227532  1
  Pr3+  Pr23  1  0.14177313  0.49322153  0.93603727  1
  Pr3+  Pr24  1  0.76141690  0.36696475  0.05692698  1
  Pr3+  Pr25  1  0.63961805  0.23860557  0.94004511  1
  Pr3+  Pr26  1  -0.00787264  0.90967943  0.57125008  1
  Pr3+  Pr27  1  0.87089818  0.53103939  0.43754064  1
  Pr3+  Pr28  1  0.76516140  0.86696561  0.05828450  1
  Pr3+  Pr29  1  0.49567652  0.90511473  0.57360039  1
  Pr3+  Pr30  1  0.24453218  0.90497162  0.57570707  1
  Nd3+  Nd31  1  0.12468928  0.28097500  0.44019075  1
  Nd3+  Nd32  1  0.26268590  0.36615044  0.06437256  1
  Nd3+  Nd33  1  0.61146613  0.52566829  0.43016629  1
  Nd3+  Nd34  1  0.01030339  0.86744781  0.05538629  1
  Nd3+  Nd35  1  0.38927163  0.74369299  0.94000383  1
  Nd3+  Nd36  1  0.74417700  0.16173872  0.56167628  1
  Nd3+  Nd37  1  0.89085119  0.49079332  0.91837086  1
  Nd3+  Nd38  1  0.01104490  0.11741606  0.05706863  1
  Nd3+  Nd39  1  0.86811168  0.03554516  0.43463181  1
  Nd3+  Nd40  1  0.26527532  0.11681075  0.06072150  1
  Nd3+  Nd41  1  0.01203658  0.61576261  0.05830841  1
  Nd3+  Nd42  1  0.61538032  0.78030752  0.44585065  1
  Nd3+  Nd43  1  0.11934862  0.78236765  0.44773343  1
  Nd3+  Nd44  1  0.13515339  -0.00814408  0.93147101  1
  Nd3+  Nd45  1  0.38382427  -0.00778581  0.93449376  1
  Nd3+  Nd46  1  0.49771954  0.65116759  0.57659700  1
  Nd3+  Nd47  1  0.87301606  0.28451193  0.43389463  1
  Nd3+  Nd48  1  -0.00656888  0.15869237  0.56604683  1
  Nd3+  Nd49  1  0.38824802  0.49243030  0.93330105  1
  Nd3+  Nd50  1  0.38467416  0.23959656  0.93613419  1
  Sm3+  Sm51  1  0.01218616  0.36849747  0.05558722  1
  Sm3+  Sm52  1  -0.00855209  0.65471301  0.55632962  1
  Sm3+  Sm53  1  0.11763525  0.03111298  0.44214053  1
  Sm3+  Sm54  1  0.49607296  0.40367974  0.56087650  1
  Sm3+  Sm55  1  0.63801298  -0.00688781  0.94315756  1
  Sm3+  Sm56  1  0.73975342  0.40303487  0.55304256  1
  Sm3+  Sm57  1  0.51507499  0.61220409  0.06175535  1
  Sm3+  Sm58  1  0.74585387  0.65785098  0.55571191  1
  Sm3+  Sm59  1  0.63746414  0.74270688  0.94421136  1
  Sm3+  Sm60  1  0.36790404  0.77708453  0.45321984  1
  Sm3+  Sm61  1  0.76338554  0.61587678  0.05027140  1
  Sm3+  Sm62  1  0.63034334  0.49020764  0.93306890  1
  Sm3+  Sm63  1  0.12350595  0.53366049  0.43810432  1
  Bi2+  Bi64  1  0.03588952  0.11449264  0.32714332  1
  Bi2+  Bi65  1  -0.00923321  0.12529806  0.78613535  1
  Bi2+  Bi66  1  0.02100729  0.31583901  0.32896889  1
  Bi2+  Bi67  1  -0.01066203  0.37502874  0.78514606  1
  Bi2+  Bi68  1  0.01593094  0.51135598  0.31803054  1
  Bi2+  Bi69  1  0.02858653  0.63928640  0.79775841  1
  Bi2+  Bi70  1  -0.01833007  0.85850912  0.30023532  1
  Bi2+  Bi71  1  0.00147166  0.86126164  0.78695825  1
  Bi2+  Bi72  1  0.24976495  0.12015437  0.30897977  1
  Bi2+  Bi73  1  0.26713696  0.11610559  0.78818404  1
  Bi2+  Bi74  1  0.26743857  0.39962463  0.29101713  1
  Bi2+  Bi75  1  0.25267473  0.37209601  0.78333164  1
  Bi2+  Bi76  1  0.27992193  0.66346869  0.30509517  1
  Bi2+  Bi77  1  0.25905005  0.58968818  0.77873274  1
  Bi2+  Bi78  1  0.17286055  0.90044669  0.27467493  1
  Bi2+  Bi79  1  0.25073563  0.84210942  0.74415409  1
  Bi2+  Bi80  1  0.50070013  0.13650399  0.28326353  1
  Bi2+  Bi81  1  0.46228763  0.14342280  0.81460223  1
  Bi2+  Bi82  1  0.50105887  0.39926096  0.28787186  1
  Bi2+  Bi83  1  0.46913819  0.34662692  0.79864650  1
  Bi2+  Bi84  1  0.52228872  0.67379386  0.30156213  1
  Bi2+  Bi85  1  0.45236145  0.62525732  0.79992229  1
  Bi2+  Bi86  1  0.54627654  0.88887098  0.23687068  1
  Bi2+  Bi87  1  0.42210879  0.92599878  0.80907656  1
  Bi2+  Bi88  1  0.84745384  0.10689161  0.29170408  1
  Bi2+  Bi89  1  0.72390596  0.17608389  0.77158024  1
  Bi2+  Bi90  1  0.84760503  0.37930545  0.27907884  1
  Bi2+  Bi91  1  0.72040222  0.45789615  0.81118611  1
  Bi2+  Bi92  1  0.78547464  0.65727337  0.28139756  1
  Bi2+  Bi93  1  0.83390371  0.62246722  0.81189898  1
  Bi2+  Bi94  1  0.73823278  0.84989908  0.28776004  1
  Bi2+  Bi95  1  0.68970434  0.84888126  0.78242841  1
  Bi2+  Bi96  1  0.10031869  0.05984077  0.21884070  1
  Bi2+  Bi97  1  0.11200310  -0.03783513  0.70062893  1
  Bi2+  Bi98  1  0.06697961  0.25668539  0.22316462  1
  Bi2+  Bi99  1  0.15348442  0.22991839  0.72075538  1
  Bi2+  Bi100  1  0.14956893  0.51553496  0.23194018  1
  Bi2+  Bi101  1  0.10338982  0.41423601  0.69414391  1
  Bi2+  Bi102  1  0.09999123  0.71907479  0.25743783  1
  Bi2+  Bi103  1  0.12005067  0.62843266  0.70108982  1
  Bi2+  Bi104  1  0.35547164  0.01299670  0.18996352  1
  Bi2+  Bi105  1  0.37928556  -0.03729417  0.69731915  1
  Bi2+  Bi106  1  0.30802310  0.25261956  0.22167742  1
  Bi2+  Bi107  1  0.39566744  0.22431323  0.71489058  1
  Bi2+  Bi108  1  0.39295027  0.53250195  0.19117585  1
  Bi2+  Bi109  1  0.38808945  0.46502485  0.71813798  1
  Bi2+  Bi110  1  0.35829647  0.82879726  0.24973308  1
  Bi2+  Bi111  1  0.38875789  0.71050845  0.70353374  1
  Bi2+  Bi112  1  0.70450437  0.01513196  0.22635614  1
  Bi2+  Bi113  1  0.58451380  0.01023926  0.76454622  1
  Bi2+  Bi114  1  0.62300331  0.29358053  0.17900215  1
  Bi2+  Bi115  1  0.61892382  0.28798177  0.70901361  1
  Bi2+  Bi116  1  0.63804134  0.53570584  0.25790782  1
  Bi2+  Bi117  1  0.63447271  0.48840010  0.70733256  1
  Bi2+  Bi118  1  0.61367676  0.70970372  0.20034425  1
  Bi2+  Bi119  1  0.64364927  0.65839592  0.76921517  1
  Bi2+  Bi120  1  0.91776670  -0.02268612  0.20542418  1
  Bi2+  Bi121  1  0.85753137  -0.04809329  0.68284557  1
  Bi2+  Bi122  1  0.86984425  0.23476089  0.20371239  1
  Bi2+  Bi123  1  0.85913925  0.27770395  0.71074820  1
  Bi2+  Bi124  1  0.95691008  0.48809219  0.20694074  1
  Bi2+  Bi125  1  0.84114825  0.47601230  0.72016058  1
  Bi2+  Bi126  1  0.87121199  0.74710204  0.17922101  1
  Bi2+  Bi127  1  0.84807911  0.69662329  0.69618040  1
  S2-  S128  1  -0.09744729  0.11645378  0.13637130  1
  S2-  S129  1  -0.00821554  0.04688712  0.64434596  1
  S2-  S130  1  0.05757670  0.37476649  0.15092161  1
  S2-  S131  1  -0.01028755  0.28347965  0.64103807  1
  S2-  S132  1  -0.01334108  0.63756280  0.15559640  1
  S2-  S133  1  -0.02144104  0.59942461  0.64860957  1
  S2-  S134  1  0.00014391  0.85829324  0.15491425  1
  S2-  S135  1  0.00290744  0.84243941  0.66901884  1
  S2-  S136  1  0.22981745  0.12814731  0.15727930  1
  S2-  S137  1  0.23784500  0.03685578  0.64488295  1
  S2-  S138  1  0.31235832  0.37991012  0.15912914  1
  S2-  S139  1  0.25728704  0.26485747  0.64365286  1
  S2-  S140  1  0.24978398  0.60672713  0.16463613  1
  S2-  S141  1  0.22943908  0.52013785  0.64649182  1
  S2-  S142  1  0.28128572  0.87403369  0.15481022  1
  S2-  S143  1  0.24090804  0.77613115  0.64942969  1
  S2-  S144  1  0.45210168  0.17116278  0.18071091  1
  S2-  S145  1  0.49504395  0.03528158  0.64482409  1
  S2-  S146  1  0.52871309  0.43748637  0.14806968  1
  S2-  S147  1  0.49375354  0.28556315  0.64048002  1
  S2-  S148  1  0.46137262  0.66189791  0.15072120  1
  S2-  S149  1  0.49639239  0.51412224  0.64299432  1
  S2-  S150  1  0.50514736  0.95503215  0.14400079  1
  S2-  S151  1  0.50653528  0.77658263  0.65005751  1
  S2-  S152  1  0.66742877  0.12797772  0.14954796  1
  S2-  S153  1  0.74689160  0.04652515  0.64017758  1
  S2-  S154  1  0.76981869  0.36813897  0.15690116  1
  S2-  S155  1  0.74474010  0.29587874  0.63459531  1
  S2-  S156  1  0.75167925  0.63364456  0.14668956  1
  S2-  S157  1  0.74110167  0.59259637  0.64657362  1
  S2-  S158  1  0.76521268  0.88979036  0.15808875  1
  S2-  S159  1  0.76037897  0.80933083  0.65153100  1
  S2-  S160  1  0.21403347  -0.01805911  0.36531897  1
  S2-  S161  1  0.03668198  -0.00322620  0.84789319  1
  S2-  S162  1  0.24027392  0.27738148  0.36150732  1
  S2-  S163  1  0.03779556  0.24052991  0.84939431  1
  S2-  S164  1  0.24182830  0.52199321  0.36448663  1
  S2-  S165  1  0.03272661  0.49676943  0.85498698  1
  S2-  S166  1  0.14112301  0.71837587  0.35573980  1
  S2-  S167  1  0.11162998  0.76843065  0.84765911  1
  S2-  S168  1  0.40132237  0.04395703  0.33233352  1
  S2-  S169  1  0.26665027  -0.00932655  0.85874253  1
  S2-  S170  1  0.46286264  0.27435335  0.34645365  1
  S2-  S171  1  0.26667684  0.24481752  0.86014038  1
  S2-  S172  1  0.47388983  0.55271506  0.35852162  1
  S2-  S173  1  0.26409279  0.49206803  0.86144895  1
  S2-  S174  1  0.36980467  0.78050852  0.35365339  1
  S2-  S175  1  0.36888041  0.76358877  0.84299087  1
  S2-  S176  1  0.61846893  0.09181596  0.34795072  1
  S2-  S177  1  0.69203413  -0.01841173  0.85005615  1
  S2-  S178  1  0.62091549  0.27040558  0.27071459  1
  S2-  S179  1  0.62189839  0.25068876  0.84008243  1
  S2-  S180  1  0.63525647  0.42916651  0.34653985  1
  S2-  S181  1  0.51030055  0.48806528  0.85978427  1
  S2-  S182  1  0.61221411  0.81215763  0.34785589  1
  S2-  S183  1  0.60301991  0.76266506  0.84958755  1
  S2-  S184  1  0.85227416  -0.07636677  0.35800668  1
  S2-  S185  1  0.88002615  -0.01097781  0.77412099  1
  S2-  S186  1  0.79603334  0.25169554  0.34641567  1
  S2-  S187  1  0.84758183  0.14800839  0.84333863  1
  S2-  S188  1  0.83438235  0.51729009  0.33972169  1
  S2-  S189  1  0.85635615  0.36690021  0.85084736  1
  S2-  S190  1  0.91029374  0.71690299  0.34150942  1
  S2-  S191  1  0.86765195  0.82148736  0.84120927  1
  S2-  S192  1  -0.00547665  0.15617747  0.45602228  1
  S2-  S193  1  0.01610861  0.11797853  0.95438653  1
  S2-  S194  1  -0.00121742  0.40896760  0.45755098  1
  S2-  S195  1  0.01309664  0.37104115  0.95434106  1
  S2-  S196  1  -0.00377014  0.65516788  0.45370511  1
  S2-  S197  1  0.00969028  0.61706146  0.95370059  1
  S2-  S198  1  -0.00352945  0.90864424  0.45617554  1
  S2-  S199  1  0.01012392  0.86671767  0.95078350  1
  S2-  S200  1  0.24085146  0.15157296  0.46008804  1
  S2-  S201  1  0.26108684  0.11603657  0.95808754  1
  S2-  S202  1  0.24037185  0.40661994  0.46498058  1
  S2-  S203  1  0.26571447  0.36696039  0.96059397  1
  S2-  S204  1  0.24182191  0.65788203  0.46736735  1
  S2-  S205  1  0.26474657  0.62232215  0.95767210  1
  S2-  S206  1  0.24359633  0.89823165  0.46876641  1
  S2-  S207  1  0.26073763  0.86454468  0.95512634  1
  S2-  S208  1  0.49034139  0.15021158  0.45371852  1
  S2-  S209  1  0.51123798  0.11404743  0.94811719  1
  S2-  S210  1  0.49060952  0.40591602  0.45648836  1
  S2-  S211  1  0.51037646  0.36168610  0.95499799  1
  S2-  S212  1  0.49431467  0.65842088  0.46549465  1
  S2-  S213  1  0.51320652  0.62080533  0.95697627  1
  S2-  S214  1  0.49018444  0.90261728  0.45817342  1
  S2-  S215  1  0.51385174  0.86946513  0.95358910  1
  S2-  S216  1  0.74390622  0.15614523  0.45286054  1
  S2-  S217  1  0.76317039  0.11323859  0.95456530  1
  S2-  S218  1  0.74635426  0.40490486  0.45087790  1
  S2-  S219  1  0.75693695  0.37244190  0.95188962  1
  S2-  S220  1  0.74123088  0.65499066  0.44823556  1
  S2-  S221  1  0.75731304  0.61303336  0.94550340  1
  S2-  S222  1  0.73904728  0.90814154  0.45871152  1
  S2-  S223  1  0.76038955  0.86580849  0.95191289  1
  S2-  S224  1  0.13607536  -0.00729180  0.04721056  1
  S2-  S225  1  0.11550582  0.03005140  0.54343119  1
  S2-  S226  1  0.13725882  0.24393350  0.04646235  1
  S2-  S227  1  0.11874941  0.28019273  0.54389955  1
  S2-  S228  1  0.13946211  0.49254139  0.04678092  1
  S2-  S229  1  0.11421555  0.53053728  0.54287114  1
  S2-  S230  1  0.13869339  0.74124002  0.05099503  1
  S2-  S231  1  0.11197906  0.77859979  0.55168958  1
  S2-  S232  1  0.38959050  -0.00426383  0.04133954  1
  S2-  S233  1  0.36774276  0.02732394  0.54310948  1
  S2-  S234  1  0.38970174  0.23836604  0.04748361  1
  S2-  S235  1  0.36909316  0.28132415  0.54081647  1
  S2-  S236  1  0.38936288  0.49270715  0.04201679  1
  S2-  S237  1  0.36937492  0.53088716  0.54790646  1
  S2-  S238  1  0.38994279  0.74355657  0.04570249  1
  S2-  S239  1  0.37117368  0.77831018  0.55384195  1
  S2-  S240  1  0.63821597  -0.00653539  0.04584057  1
  S2-  S241  1  0.61793547  0.03138727  0.54275003  1
  S2-  S242  1  0.63411568  0.23976648  0.04579962  1
  S2-  S243  1  0.61872630  0.28271038  0.54050198  1
  S2-  S244  1  0.63757180  0.49452173  0.03832343  1
  S2-  S245  1  0.62365950  0.53080012  0.53931320  1
  S2-  S246  1  0.63642643  0.73997057  0.04786026  1
  S2-  S247  1  0.62273563  0.77849406  0.54899847  1
  S2-  S248  1  0.88909053  -0.01134754  0.04429157  1
  S2-  S249  1  0.87059084  0.03405153  0.53807611  1
  S2-  S250  1  0.88993505  0.24813343  0.03785895  1
  S2-  S251  1  0.87078138  0.28365705  0.53754154  1
  S2-  S252  1  0.88738669  0.49245877  0.04580258  1
  S2-  S253  1  0.86704808  0.52855836  0.54376672  1
  S2-  S254  1  0.88645219  0.73904461  0.03790183  1
  S2-  S255  1  0.87090064  0.77952183  0.54142750  1
