# generated using pymatgen
data_La6Ce6Pr19Nd20Sm13(BiS2)64
_symmetry_space_group_name_H-M   'P 1'
_cell_length_a   16.09519830
_cell_length_b   16.03710001
_cell_length_c   27.50600712
_cell_angle_alpha   90.28406629
_cell_angle_beta   89.73143647
_cell_angle_gamma   90.04372343
_symmetry_Int_Tables_number   1
_chemical_formula_structural   La6Ce6Pr19Nd20Sm13(BiS2)64
_chemical_formula_sum   'La6 Ce6 Pr19 Nd20 Sm13 Bi64 S128'
_cell_volume   7099.69174688
_cell_formula_units_Z   1
loop_
 _symmetry_equiv_pos_site_id
 _symmetry_equiv_pos_as_xyz
  1  'x, y, z'
loop_
 _atom_type_symbol
 _atom_type_oxidation_number
  La3+  3.0
  Ce3+  3.0
  Pr3+  3.0
  Nd3+  3.0
  Sm3+  3.0
  Bi2+  2.0
  S2-  -2.0
loop_
 _atom_site_type_symbol
 _atom_site_label
 _atom_site_symmetry_multiplicity
 _atom_site_fract_x
 _atom_site_fract_y
 _atom_site_fract_z
 _atom_site_occupancy
  La3+  La0  1  0.74303002  0.36414516  0.07702975  1
  La3+  La1  1  0.88395240  0.01319821  0.42398274  1
  La3+  La2  1  0.14529343  0.51080338  0.42431885  1
  La3+  La3  1  0.25390257  0.64063420  0.58007944  1
  La3+  La4  1  0.48781319  0.86857365  0.07062659  1
  La3+  La5  1  0.13633002  0.01015314  0.39880462  1
  Ce3+  Ce6  1  0.76164168  0.39122552  0.55198675  1
  Ce3+  Ce7  1  0.14161523  0.76884677  0.44102411  1
  Ce3+  Ce8  1  0.86447770  0.49206744  0.94878076  1
  Ce3+  Ce9  1  0.76455808  0.14022857  0.55670166  1
  Ce3+  Ce10  1  0.51037439  0.64499605  0.56679418  1
  Ce3+  Ce11  1  0.61268151  -0.01364852  0.94109801  1
  Pr3+  Pr12  1  0.15284639  0.26297388  0.41767227  1
  Pr3+  Pr13  1  0.61701762  0.24335214  0.93947383  1
  Pr3+  Pr14  1  0.11475830  0.24280850  0.93398578  1
  Pr3+  Pr15  1  0.86793206  0.23940317  0.94805256  1
  Pr3+  Pr16  1  0.88701760  0.76348301  0.44304557  1
  Pr3+  Pr17  1  0.24760671  0.86005865  0.06727823  1
  Pr3+  Pr18  1  0.52185203  0.89259643  0.58006771  1
  Pr3+  Pr19  1  0.26052440  0.14017104  0.56681363  1
  Pr3+  Pr20  1  0.26294452  0.89519615  0.57060066  1
  Pr3+  Pr21  1  0.64447725  0.74783809  0.88201261  1
  Pr3+  Pr22  1  0.23548914  0.36788882  0.06946926  1
  Pr3+  Pr23  1  0.63908190  0.76441256  0.44963721  1
  Pr3+  Pr24  1  0.00315369  0.11384443  0.09329300  1
  Pr3+  Pr25  1  0.01467648  0.63857639  0.55320719  1
  Pr3+  Pr26  1  0.38787924  0.76744352  0.44718511  1
  Pr3+  Pr27  1  0.11536246  0.48731880  0.93316088  1
  Pr3+  Pr28  1  0.63570270  0.26599014  0.44073119  1
  Pr3+  Pr29  1  0.12251450  0.73797888  0.92721117  1
  Pr3+  Pr30  1  0.37568325  0.73453523  0.92387331  1
  Nd3+  Nd31  1  0.77112409  0.90109418  0.57859171  1
  Nd3+  Nd32  1  -0.00924173  0.36682866  0.07320262  1
  Nd3+  Nd33  1  0.36651217  -0.01220493  0.94432699  1
  Nd3+  Nd34  1  0.73818409  0.61864283  0.06253551  1
  Nd3+  Nd35  1  0.26258744  0.39043923  0.56819928  1
  Nd3+  Nd36  1  0.76309752  0.62880105  0.56811077  1
  Nd3+  Nd37  1  0.51356101  0.14010813  0.56457553  1
  Nd3+  Nd38  1  0.01657809  0.14066822  0.54810085  1
  Nd3+  Nd39  1  -0.00488472  0.86423629  0.06840357  1
  Nd3+  Nd40  1  -0.00472838  0.62021377  0.06340802  1
  Nd3+  Nd41  1  0.48867299  0.37940651  0.07721592  1
  Nd3+  Nd42  1  0.38814600  0.01228842  0.43827245  1
  Nd3+  Nd43  1  0.86706770  0.74085942  0.94620373  1
  Nd3+  Nd44  1  0.88992144  0.51308730  0.43611998  1
  Nd3+  Nd45  1  0.11671884  -0.01082340  0.94217940  1
  Nd3+  Nd46  1  0.49161403  0.11978549  0.06725196  1
  Nd3+  Nd47  1  0.63758419  0.01036690  0.43515484  1
  Nd3+  Nd48  1  0.36975895  0.48311635  0.93484026  1
  Nd3+  Nd49  1  0.63134596  0.51591469  0.43027137  1
  Nd3+  Nd50  1  0.61999317  0.48907178  0.93629273  1
  Sm3+  Sm51  1  0.38771445  0.26292875  0.44619811  1
  Sm3+  Sm52  1  0.74029833  0.86866527  0.06075548  1
  Sm3+  Sm53  1  0.23709550  0.11905946  0.05430537  1
  Sm3+  Sm54  1  0.49235766  0.61822200  0.05066651  1
  Sm3+  Sm55  1  0.89224989  0.26438785  0.44103746  1
  Sm3+  Sm56  1  0.38550604  0.51633363  0.43912721  1
  Sm3+  Sm57  1  0.74376874  0.11434762  0.05496158  1
  Sm3+  Sm58  1  0.51326181  0.40074986  0.56420529  1
  Sm3+  Sm59  1  0.01043887  0.89363254  0.55570151  1
  Sm3+  Sm60  1  0.24294580  0.61609650  0.05119778  1
  Sm3+  Sm61  1  0.86678533  -0.01308862  0.94455742  1
  Sm3+  Sm62  1  0.36816515  0.24447545  0.94318128  1
  Sm3+  Sm63  1  0.01951501  0.38892394  0.55227574  1
  Bi2+  Bi64  1  -0.01283311  0.15653020  0.28696500  1
  Bi2+  Bi65  1  0.09462850  0.14573325  0.80963431  1
  Bi2+  Bi66  1  -0.03045772  0.39636846  0.28846693  1
  Bi2+  Bi67  1  -0.02922150  0.37103362  0.74210921  1
  Bi2+  Bi68  1  -0.03979626  0.63789637  0.30037281  1
  Bi2+  Bi69  1  -0.00150814  0.55832302  0.78484829  1
  Bi2+  Bi70  1  -0.04704645  0.88620961  0.27017081  1
  Bi2+  Bi71  1  0.04459125  0.83789707  0.80314143  1
  Bi2+  Bi72  1  0.35134224  0.09265364  0.27274421  1
  Bi2+  Bi73  1  0.28931672  0.17520482  0.80205146  1
  Bi2+  Bi74  1  0.25637152  0.38101661  0.29397384  1
  Bi2+  Bi75  1  0.23242743  0.36608031  0.79421069  1
  Bi2+  Bi76  1  0.16468688  0.61210465  0.29623047  1
  Bi2+  Bi77  1  0.24177570  0.64179546  0.78691905  1
  Bi2+  Bi78  1  0.25813531  0.86369478  0.29148179  1
  Bi2+  Bi79  1  0.26097745  0.89663117  0.78490380  1
  Bi2+  Bi80  1  0.55872920  0.06443094  0.27527116  1
  Bi2+  Bi81  1  0.55409849  0.16365729  0.82174279  1
  Bi2+  Bi82  1  0.48285631  0.33691856  0.27502790  1
  Bi2+  Bi83  1  0.50388687  0.36482047  0.79498143  1
  Bi2+  Bi84  1  0.45556824  0.62718406  0.29287601  1
  Bi2+  Bi85  1  0.48752841  0.62373535  0.78940646  1
  Bi2+  Bi86  1  0.50202877  0.86244273  0.29635279  1
  Bi2+  Bi87  1  0.51799278  0.97706664  0.78632714  1
  Bi2+  Bi88  1  0.73338293  0.15360265  0.26813421  1
  Bi2+  Bi89  1  0.74476281  0.14687564  0.79550746  1
  Bi2+  Bi90  1  0.66177179  0.40607919  0.30440793  1
  Bi2+  Bi91  1  0.77671768  0.36473209  0.79999868  1
  Bi2+  Bi92  1  0.66051073  0.62797228  0.31021253  1
  Bi2+  Bi93  1  0.76094092  0.60867149  0.78965721  1
  Bi2+  Bi94  1  0.75673839  0.88843269  0.29517050  1
  Bi2+  Bi95  1  0.78424122  0.88348720  0.79157437  1
  Bi2+  Bi96  1  0.11358592  0.01386330  0.21324729  1
  Bi2+  Bi97  1  0.04634162  -0.05624871  0.70420948  1
  Bi2+  Bi98  1  0.20101433  0.20702417  0.23987834  1
  Bi2+  Bi99  1  0.17024664  0.19484404  0.70992384  1
  Bi2+  Bi100  1  0.11923602  0.48692278  0.20659824  1
  Bi2+  Bi101  1  0.13996872  0.49332085  0.70365194  1
  Bi2+  Bi102  1  0.07775152  0.74957770  0.22860804  1
  Bi2+  Bi103  1  0.11780301  0.75262627  0.70946939  1
  Bi2+  Bi104  1  0.35013539  -0.05524741  0.19509976  1
  Bi2+  Bi105  1  0.37061835  0.00975727  0.71319790  1
  Bi2+  Bi106  1  0.38066628  0.21718129  0.18760603  1
  Bi2+  Bi107  1  0.44566206  0.21011297  0.72864993  1
  Bi2+  Bi108  1  0.39408184  0.48918948  0.21836450  1
  Bi2+  Bi109  1  0.36238797  0.39038218  0.70849552  1
  Bi2+  Bi110  1  0.29131521  0.69550094  0.21840906  1
  Bi2+  Bi111  1  0.36934623  0.75787990  0.72802549  1
  Bi2+  Bi112  1  0.61907582  -0.08018419  0.19852841  1
  Bi2+  Bi113  1  0.65035243  0.02409926  0.70483749  1
  Bi2+  Bi114  1  0.57936015  0.21298344  0.19862699  1
  Bi2+  Bi115  1  0.71506612  0.27088320  0.70543767  1
  Bi2+  Bi116  1  0.61999101  0.50312868  0.20550196  1
  Bi2+  Bi117  1  0.61573832  0.44583583  0.70337015  1
  Bi2+  Bi118  1  0.57565292  0.72764346  0.21822401  1
  Bi2+  Bi119  1  0.63206697  0.70632205  0.68285228  1
  Bi2+  Bi120  1  0.84345034  0.04040822  0.19742813  1
  Bi2+  Bi121  1  0.92874206  0.07256838  0.76260623  1
  Bi2+  Bi122  1  0.80568974  0.33042934  0.23640763  1
  Bi2+  Bi123  1  0.89825488  0.21427738  0.68547299  1
  Bi2+  Bi124  1  0.95249132  0.58312366  0.19158707  1
  Bi2+  Bi125  1  0.87243449  0.53107975  0.70223081  1
  Bi2+  Bi126  1  0.77605093  0.70255705  0.22893706  1
  Bi2+  Bi127  1  0.91241212  0.78960317  0.72255489  1
  S2-  S128  1  -0.04704796  0.16687138  0.18826553  1
  S2-  S129  1  0.03580129  0.13844188  0.64752497  1
  S2-  S130  1  0.11276657  0.36062871  0.14392280  1
  S2-  S131  1  0.04918236  0.38606237  0.64904350  1
  S2-  S132  1  -0.00169781  0.73582267  0.13981984  1
  S2-  S133  1  0.09344291  0.62224337  0.64106125  1
  S2-  S134  1  -0.01433250  0.96707071  0.14996232  1
  S2-  S135  1  -0.08179634  0.89683318  0.63962634  1
  S2-  S136  1  0.16558686  0.12870863  0.14448357  1
  S2-  S137  1  0.25758319  0.02151361  0.64563103  1
  S2-  S138  1  0.35432360  0.37275068  0.14467795  1
  S2-  S139  1  0.26133655  0.26573937  0.64218141  1
  S2-  S140  1  0.22617438  0.59642005  0.14921640  1
  S2-  S141  1  0.28388148  0.50573479  0.64661197  1
  S2-  S142  1  0.18875051  0.90062162  0.16129770  1
  S2-  S143  1  0.25992161  0.77700719  0.64948580  1
  S2-  S144  1  0.49193940  0.00315425  0.14257486  1
  S2-  S145  1  0.50986187  0.03558975  0.64455817  1
  S2-  S146  1  0.61464013  0.36371795  0.14758054  1
  S2-  S147  1  0.50651997  0.32684644  0.65276797  1
  S2-  S148  1  0.49173969  0.54719551  0.14094071  1
  S2-  S149  1  0.53594132  0.55277083  0.64851323  1
  S2-  S150  1  0.37347546  0.80284925  0.14139302  1
  S2-  S151  1  0.48496351  0.76422598  0.65048288  1
  S2-  S152  1  0.72459767  0.13597998  0.15108063  1
  S2-  S153  1  0.77333345  0.05737527  0.64062471  1
  S2-  S154  1  0.86562105  0.36739994  0.14962728  1
  S2-  S155  1  0.75203706  0.47610753  0.63616954  1
  S2-  S156  1  0.76019099  0.58012750  0.15934024  1
  S2-  S157  1  0.80613451  0.68204006  0.66060231  1
  S2-  S158  1  0.77075220  0.88533000  0.15658204  1
  S2-  S159  1  0.65898271  0.87415536  0.65425161  1
  S2-  S160  1  -0.01606334  0.00752250  0.33905759  1
  S2-  S161  1  0.13203993  -0.02164247  0.84309513  1
  S2-  S162  1  0.13255103  0.15501199  0.33566824  1
  S2-  S163  1  0.10670013  0.36183212  0.85954573  1
  S2-  S164  1  0.10521504  0.38919432  0.34757946  1
  S2-  S165  1  0.10942685  0.60473322  0.85459928  1
  S2-  S166  1  0.13479118  0.84251609  0.35271687  1
  S2-  S167  1  0.24850582  0.76964378  0.85484549  1
  S2-  S168  1  0.29272031  0.00120188  0.35173118  1
  S2-  S169  1  0.37604414  -0.02041572  0.84556251  1
  S2-  S170  1  0.31384947  0.27580022  0.35804361  1
  S2-  S171  1  0.37117805  0.35131350  0.86537418  1
  S2-  S172  1  0.27923448  0.52339603  0.35752497  1
  S2-  S173  1  0.36525341  0.57747157  0.84746386  1
  S2-  S174  1  0.37879263  0.76927938  0.34602042  1
  S2-  S175  1  0.48188995  0.75805549  0.84307525  1
  S2-  S176  1  0.51299738  -0.00039263  0.36479316  1
  S2-  S177  1  0.64655060  -0.07886654  0.85259888  1
  S2-  S178  1  0.57859399  0.26468929  0.34624404  1
  S2-  S179  1  0.63182376  0.36195596  0.86401630  1
  S2-  S180  1  0.50039337  0.51628976  0.36321903  1
  S2-  S181  1  0.62723628  0.57971981  0.84714654  1
  S2-  S182  1  0.63653580  0.79567859  0.35090558  1
  S2-  S183  1  0.65913926  0.74817482  0.77248803  1
  S2-  S184  1  0.75027686  0.01757425  0.35445344  1
  S2-  S185  1  0.88038989  -0.02594479  0.84689735  1
  S2-  S186  1  0.89020844  0.26317719  0.34352020  1
  S2-  S187  1  0.86118394  0.24462891  0.84741077  1
  S2-  S188  1  0.86654579  0.50818492  0.33815738  1
  S2-  S189  1  0.86251097  0.50049279  0.85153463  1
  S2-  S190  1  0.88520512  0.79002964  0.34441822  1
  S2-  S191  1  0.81792155  0.73773094  0.85150449  1
  S2-  S192  1  0.01549860  0.14183378  0.44418412  1
  S2-  S193  1  -0.00973856  0.11125877  0.94560692  1
  S2-  S194  1  0.01256129  0.38744117  0.45041290  1
  S2-  S195  1  -0.01249704  0.36709068  0.96373793  1
  S2-  S196  1  0.01601205  0.63824592  0.44634148  1
  S2-  S197  1  -0.00910621  0.61766579  0.95781304  1
  S2-  S198  1  0.01170165  0.89059058  0.45306263  1
  S2-  S199  1  -0.00691358  0.86425535  0.95624078  1
  S2-  S200  1  0.26509494  0.13742910  0.45666665  1
  S2-  S201  1  0.24285866  0.11828358  0.95007852  1
  S2-  S202  1  0.26792349  0.38923880  0.46060122  1
  S2-  S203  1  0.24035339  0.36252403  0.96270012  1
  S2-  S204  1  0.26220690  0.64293773  0.45987513  1
  S2-  S205  1  0.24375105  0.61039140  0.95075767  1
  S2-  S206  1  0.26151930  0.89219030  0.46005464  1
  S2-  S207  1  0.24179727  0.86763849  0.95909240  1
  S2-  S208  1  0.51308919  0.14144283  0.45916165  1
  S2-  S209  1  0.48913415  0.11743572  0.95895674  1
  S2-  S210  1  0.50935588  0.38815583  0.45911447  1
  S2-  S211  1  0.49311544  0.36338857  0.96725316  1
  S2-  S212  1  0.51225692  0.64194463  0.45992115  1
  S2-  S213  1  0.49467203  0.60858834  0.95079128  1
  S2-  S214  1  0.51544161  0.88767562  0.46774052  1
  S2-  S215  1  0.49021838  0.86758725  0.95960329  1
  S2-  S216  1  0.76319883  0.14588044  0.45170203  1
  S2-  S217  1  0.74158862  0.11159136  0.95043167  1
  S2-  S218  1  0.76361513  0.38988122  0.44666189  1
  S2-  S219  1  0.74577967  0.36455024  0.96689981  1
  S2-  S220  1  0.76300907  0.63412501  0.45392535  1
  S2-  S221  1  0.73937713  0.62038567  0.95695836  1
  S2-  S222  1  0.76417932  0.88861599  0.46058436  1
  S2-  S223  1  0.74093685  0.86332236  0.95710915  1
  S2-  S224  1  0.11697699  -0.00857413  0.04553718  1
  S2-  S225  1  0.13247624  0.01281285  0.54664696  1
  S2-  S226  1  0.10960292  0.23608786  0.04037988  1
  S2-  S227  1  0.13897119  0.26605963  0.53679857  1
  S2-  S228  1  0.11461750  0.49542186  0.04276504  1
  S2-  S229  1  0.13902155  0.51174348  0.53633347  1
  S2-  S230  1  0.12187078  0.74135364  0.03883186  1
  S2-  S231  1  0.13276980  0.77056772  0.54543946  1
  S2-  S232  1  0.36016071  -0.00273193  0.04833223  1
  S2-  S233  1  0.39028502  0.01676766  0.54411711  1
  S2-  S234  1  0.36444669  0.23885161  0.04600932  1
  S2-  S235  1  0.39356035  0.26702559  0.54765959  1
  S2-  S236  1  0.36479079  0.49492656  0.04092257  1
  S2-  S237  1  0.38922769  0.51750587  0.54380056  1
  S2-  S238  1  0.36747144  0.73412702  0.03302854  1
  S2-  S239  1  0.38431397  0.76577667  0.54988081  1
  S2-  S240  1  0.61924073  -0.00691276  0.04571101  1
  S2-  S241  1  0.64158344  0.01735727  0.54168045  1
  S2-  S242  1  0.61757352  0.23654569  0.04568683  1
  S2-  S243  1  0.63683178  0.26762946  0.54798220  1
  S2-  S244  1  0.61902107  0.49364437  0.04329953  1
  S2-  S245  1  0.63639557  0.51498096  0.53511411  1
  S2-  S246  1  0.61500459  0.74368319  0.06355876  1
  S2-  S247  1  0.64711754  0.76043889  0.55307406  1
  S2-  S248  1  0.86820233  -0.00856784  0.04708771  1
  S2-  S249  1  0.89041882  0.01913766  0.53448498  1
  S2-  S250  1  0.87424958  0.22927990  0.05303286  1
  S2-  S251  1  0.88993211  0.26854685  0.54533123  1
  S2-  S252  1  0.86830216  0.49721502  0.05142625  1
  S2-  S253  1  0.89315457  0.51100771  0.54173637  1
  S2-  S254  1  0.86212006  0.74448965  0.04990362  1
  S2-  S255  1  0.88600549  0.76038660  0.54691391  1
