# generated using pymatgen
data_La6Ce6Pr19Nd20Sm13(BiS2)64
_symmetry_space_group_name_H-M   'P 1'
_cell_length_a   16.06188322
_cell_length_b   16.02088986
_cell_length_c   27.30675423
_cell_angle_alpha   90.24285538
_cell_angle_beta   89.92357199
_cell_angle_gamma   90.10212875
_symmetry_Int_Tables_number   1
_chemical_formula_structural   La6Ce6Pr19Nd20Sm13(BiS2)64
_chemical_formula_sum   'La6 Ce6 Pr19 Nd20 Sm13 Bi64 S128'
_cell_volume   7026.64814730
_cell_formula_units_Z   1
loop_
 _symmetry_equiv_pos_site_id
 _symmetry_equiv_pos_as_xyz
  1  'x, y, z'
loop_
 _atom_type_symbol
 _atom_type_oxidation_number
  La3+  3.0
  Ce3+  3.0
  Pr3+  3.0
  Nd3+  3.0
  Sm3+  3.0
  Bi2+  2.0
  S2-  -2.0
loop_
 _atom_site_type_symbol
 _atom_site_label
 _atom_site_symmetry_multiplicity
 _atom_site_fract_x
 _atom_site_fract_y
 _atom_site_fract_z
 _atom_site_occupancy
  La3+  La0  1  0.49595381  0.63788252  0.10685806  1
  La3+  La1  1  0.61913125  0.24873815  0.40070449  1
  La3+  La2  1  0.88723993  0.24131273  0.41023313  1
  La3+  La3  1  0.62324349  0.75566763  0.91933471  1
  La3+  La4  1  0.00317347  0.88014759  0.57532917  1
  La3+  La5  1  0.37227372  0.74369646  0.89407173  1
  Ce3+  Ce6  1  0.00000245  0.36869586  0.56351056  1
  Ce3+  Ce7  1  0.50595100  0.86776530  0.56306484  1
  Ce3+  Ce8  1  0.12164769  0.74516971  0.94294393  1
  Ce3+  Ce9  1  -0.00271493  0.87333684  0.05568062  1
  Ce3+  Ce10  1  0.37106890  -0.00612025  0.93886708  1
  Ce3+  Ce11  1  0.12126530  -0.00152005  0.94698063  1
  Pr3+  Pr12  1  0.12321228  0.25340345  0.92987896  1
  Pr3+  Pr13  1  0.51670832  0.36855717  0.56892333  1
  Pr3+  Pr14  1  0.74878846  0.62864944  0.06476137  1
  Pr3+  Pr15  1  0.88084013  -0.00626281  0.43493136  1
  Pr3+  Pr16  1  0.87189303  0.24869963  0.93291693  1
  Pr3+  Pr17  1  0.61826822  0.50539143  0.95127665  1
  Pr3+  Pr18  1  0.38335985  0.49662734  0.44847571  1
  Pr3+  Pr19  1  0.49641611  0.12595942  0.04911762  1
  Pr3+  Pr20  1  0.12468650  0.50661421  0.93366155  1
  Pr3+  Pr21  1  0.25529202  0.12597745  0.56051975  1
  Pr3+  Pr22  1  0.62835640  0.00026419  0.93629323  1
  Pr3+  Pr23  1  0.74901093  0.11944541  0.07451662  1
  Pr3+  Pr24  1  -0.00069712  0.62720281  0.57750247  1
  Pr3+  Pr25  1  0.49633820  0.37521420  0.07467791  1
  Pr3+  Pr26  1  0.37811925  0.25065520  0.43509301  1
  Pr3+  Pr27  1  0.62934839  0.74818609  0.43159726  1
  Pr3+  Pr28  1  0.00218857  0.13392856  0.07276803  1
  Pr3+  Pr29  1  0.88939682  0.49872362  0.42935225  1
  Pr3+  Pr30  1  0.26172915  0.36683396  0.58889916  1
  Nd3+  Nd31  1  0.75127696  0.87393089  0.06482761  1
  Nd3+  Nd32  1  0.37868727  0.49923954  0.93890396  1
  Nd3+  Nd33  1  0.24897372  0.61958952  0.57010802  1
  Nd3+  Nd34  1  0.87127032  0.74318526  0.92720146  1
  Nd3+  Nd35  1  0.25011581  0.62451389  0.06368934  1
  Nd3+  Nd36  1  0.24903311  0.37740619  0.06346981  1
  Nd3+  Nd37  1  0.50081266  0.62542000  0.60427344  1
  Nd3+  Nd38  1  0.86875829  0.49749345  0.93763210  1
  Nd3+  Nd39  1  0.49738310  0.87024980  0.05641581  1
  Nd3+  Nd40  1  0.36853144  0.25303326  0.92947212  1
  Nd3+  Nd41  1  0.38117275  -0.00497818  0.44597683  1
  Nd3+  Nd42  1  0.62156404  0.25437062  0.94240598  1
  Nd3+  Nd43  1  0.12942417  0.23742455  0.43214132  1
  Nd3+  Nd44  1  0.75357975  0.12881841  0.55175952  1
  Nd3+  Nd45  1  0.75134867  0.87386750  0.56627554  1
  Nd3+  Nd46  1  0.24837628  0.12632664  0.05812536  1
  Nd3+  Nd47  1  0.88130919  0.75211554  0.43963314  1
  Nd3+  Nd48  1  0.63530711  0.50243065  0.42662195  1
  Nd3+  Nd49  1  0.25743033  0.87083084  0.56662563  1
  Nd3+  Nd50  1  0.12728025  0.49560629  0.44623702  1
  Sm3+  Sm51  1  0.50661541  0.12819496  0.55199177  1
  Sm3+  Sm52  1  0.74821707  0.62223965  0.55584523  1
  Sm3+  Sm53  1  0.74550906  0.37248509  0.07283593  1
  Sm3+  Sm54  1  0.13062102  -0.01056395  0.44070520  1
  Sm3+  Sm55  1  -0.00783423  0.62377017  0.06307797  1
  Sm3+  Sm56  1  0.13009612  0.74975284  0.44558342  1
  Sm3+  Sm57  1  0.63101415  0.00060099  0.44168988  1
  Sm3+  Sm58  1  0.24987212  0.86903529  0.05392470  1
  Sm3+  Sm59  1  0.75179010  0.37466411  0.54325315  1
  Sm3+  Sm60  1  0.00356116  0.12912967  0.56323239  1
  Sm3+  Sm61  1  0.87460636  0.00125111  0.94531191  1
  Sm3+  Sm62  1  0.38347811  0.74416686  0.44497622  1
  Sm3+  Sm63  1  -0.00898012  0.37576539  0.06190064  1
  Bi2+  Bi64  1  0.02525617  0.14465137  0.28686226  1
  Bi2+  Bi65  1  0.01767903  0.12708650  0.77825371  1
  Bi2+  Bi66  1  0.04252270  0.41549223  0.28184047  1
  Bi2+  Bi67  1  0.00516435  0.37402749  0.78449779  1
  Bi2+  Bi68  1  -0.02402018  0.69768252  0.28775695  1
  Bi2+  Bi69  1  -0.02121113  0.71486157  0.80272764  1
  Bi2+  Bi70  1  0.05192043  0.88519292  0.27540137  1
  Bi2+  Bi71  1  0.00853985  0.90177683  0.77716582  1
  Bi2+  Bi72  1  0.24218750  0.16106873  0.29446297  1
  Bi2+  Bi73  1  0.29052883  0.10116072  0.77968577  1
  Bi2+  Bi74  1  0.25443098  0.35645573  0.29484998  1
  Bi2+  Bi75  1  0.29081555  0.35139114  0.79577449  1
  Bi2+  Bi76  1  0.15577751  0.61030256  0.28987613  1
  Bi2+  Bi77  1  0.21299159  0.58098798  0.79551272  1
  Bi2+  Bi78  1  0.25230965  0.88242496  0.29536297  1
  Bi2+  Bi79  1  0.21801866  0.91648353  0.80205865  1
  Bi2+  Bi80  1  0.42565811  0.10060941  0.27691142  1
  Bi2+  Bi81  1  0.49120751  0.14430063  0.79386041  1
  Bi2+  Bi82  1  0.45671424  0.37533172  0.29081209  1
  Bi2+  Bi83  1  0.57387194  0.33605160  0.80349297  1
  Bi2+  Bi84  1  0.48257833  0.61244453  0.29538025  1
  Bi2+  Bi85  1  0.50893403  0.57955566  0.79403185  1
  Bi2+  Bi86  1  0.51398780  0.84810718  0.31733651  1
  Bi2+  Bi87  1  0.50374099  0.88989720  0.77987384  1
  Bi2+  Bi88  1  0.76540188  0.13107964  0.28921089  1
  Bi2+  Bi89  1  0.81849307  0.13884577  0.79425791  1
  Bi2+  Bi90  1  0.73205134  0.40077337  0.27994563  1
  Bi2+  Bi91  1  0.81605142  0.34714821  0.81050077  1
  Bi2+  Bi92  1  0.76060678  0.66357265  0.29554816  1
  Bi2+  Bi93  1  0.75756279  0.58418563  0.79090036  1
  Bi2+  Bi94  1  0.73450593  0.86330566  0.31600030  1
  Bi2+  Bi95  1  0.75799944  0.87376969  0.78749112  1
  Bi2+  Bi96  1  0.15413362  0.02068203  0.21809443  1
  Bi2+  Bi97  1  0.14347272  0.02085300  0.71186796  1
  Bi2+  Bi98  1  0.15420588  0.35449769  0.19234200  1
  Bi2+  Bi99  1  0.13588408  0.27409851  0.71181082  1
  Bi2+  Bi100  1  0.10720928  0.55043496  0.16394527  1
  Bi2+  Bi101  1  0.01823186  0.53807680  0.72191723  1
  Bi2+  Bi102  1  0.11871548  0.73970913  0.20593287  1
  Bi2+  Bi103  1  0.10900656  0.75017881  0.70979692  1
  Bi2+  Bi104  1  0.34651540  -0.03598857  0.20461550  1
  Bi2+  Bi105  1  0.41678535  0.01725338  0.70329009  1
  Bi2+  Bi106  1  0.34715886  0.23126999  0.19173165  1
  Bi2+  Bi107  1  0.40383493  0.23947582  0.70723842  1
  Bi2+  Bi108  1  0.28018459  0.51149505  0.22049278  1
  Bi2+  Bi109  1  0.34288738  0.49267432  0.71473189  1
  Bi2+  Bi110  1  0.35590642  0.76956167  0.21482622  1
  Bi2+  Bi111  1  0.36270844  0.76360201  0.71528897  1
  Bi2+  Bi112  1  0.60701299  -0.01159750  0.25784807  1
  Bi2+  Bi113  1  0.60672399  0.03441599  0.72317395  1
  Bi2+  Bi114  1  0.59413833  0.24119443  0.19910983  1
  Bi2+  Bi115  1  0.67872789  0.21801469  0.69168727  1
  Bi2+  Bi116  1  0.66872624  0.53067037  0.20871218  1
  Bi2+  Bi117  1  0.70231882  0.43158135  0.72506160  1
  Bi2+  Bi118  1  0.62060544  0.79572594  0.22426576  1
  Bi2+  Bi119  1  0.63967808  0.74531441  0.70975930  1
  Bi2+  Bi120  1  0.85158069  -0.02377548  0.20974655  1
  Bi2+  Bi121  1  0.88296126  0.01071970  0.71376348  1
  Bi2+  Bi122  1  0.89355277  0.26437568  0.20035687  1
  Bi2+  Bi123  1  0.87257760  0.29426532  0.70067883  1
  Bi2+  Bi124  1  0.92600365  0.51980356  0.21240485  1
  Bi2+  Bi125  1  0.87167447  0.48306313  0.65351647  1
  Bi2+  Bi126  1  0.84169171  0.76257106  0.20685257  1
  Bi2+  Bi127  1  0.86491793  0.66807769  0.70767884  1
  S2-  S128  1  -0.06472071  0.09815672  0.16836205  1
  S2-  S129  1  0.01085225  0.01834209  0.64240260  1
  S2-  S130  1  0.02794716  0.27366695  0.13955662  1
  S2-  S131  1  0.00690104  0.25016838  0.63814607  1
  S2-  S132  1  -0.12086063  0.63088789  0.13998695  1
  S2-  S133  1  0.12769327  0.62111223  0.64894600  1
  S2-  S134  1  -0.05959653  0.86312383  0.14728548  1
  S2-  S135  1  -0.02557192  0.76614188  0.64945896  1
  S2-  S136  1  0.20421872  0.14291237  0.15362076  1
  S2-  S137  1  0.25427987  0.21369200  0.64750865  1
  S2-  S138  1  0.36193955  0.37129153  0.14302238  1
  S2-  S139  1  0.19140164  0.41747971  0.67911987  1
  S2-  S140  1  0.33368055  0.63201479  0.15314077  1
  S2-  S141  1  0.34264150  0.63826827  0.65514313  1
  S2-  S142  1  0.23632770  0.85016998  0.15153387  1
  S2-  S143  1  0.24010117  0.85024871  0.66477558  1
  S2-  S144  1  0.48507711  0.13941449  0.14830478  1
  S2-  S145  1  0.52687767  0.20625161  0.63789538  1
  S2-  S146  1  0.62350251  0.37804441  0.14881571  1
  S2-  S147  1  0.40645634  0.38134646  0.64920169  1
  S2-  S148  1  0.50656806  0.54723339  0.20109732  1
  S2-  S149  1  0.50582835  0.54689478  0.70108248  1
  S2-  S150  1  0.49278559  0.80624954  0.15134787  1
  S2-  S151  1  0.50239392  0.78826947  0.65123112  1
  S2-  S152  1  0.74291542  0.20956536  0.16232787  1
  S2-  S153  1  0.76613011  0.09040371  0.64974583  1
  S2-  S154  1  0.86740046  0.39660570  0.14428969  1
  S2-  S155  1  0.66556350  0.37083317  0.63201092  1
  S2-  S156  1  0.65849268  0.66368160  0.15153482  1
  S2-  S157  1  0.66583501  0.63075983  0.64224441  1
  S2-  S158  1  0.73080552  0.98219134  0.14376641  1
  S2-  S159  1  0.74073447  0.85399421  0.66622183  1
  S2-  S160  1  0.12977128  0.09166286  0.35981034  1
  S2-  S161  1  0.09045738  0.01359167  0.85212277  1
  S2-  S162  1  0.03663461  0.27582165  0.34941992  1
  S2-  S163  1  0.24542039  0.22664146  0.85487887  1
  S2-  S164  1  0.03170490  0.51479020  0.36295397  1
  S2-  S165  1  0.14883432  0.42954450  0.84189343  1
  S2-  S166  1  0.13087192  0.86240965  0.36921843  1
  S2-  S167  1  0.11124118  0.64291870  0.86320203  1
  S2-  S168  1  0.38185144  -0.02378670  0.34740740  1
  S2-  S169  1  0.37477774  -0.08204545  0.85124726  1
  S2-  S170  1  0.45934885  0.23653082  0.34633565  1
  S2-  S171  1  0.42357622  0.36837504  0.85922622  1
  S2-  S172  1  0.38455000  0.50614400  0.34609965  1
  S2-  S173  1  0.35916445  0.57596898  0.84778004  1
  S2-  S174  1  0.38804066  0.73467902  0.34581238  1
  S2-  S175  1  0.27354031  0.74759686  0.80377581  1
  S2-  S176  1  0.63723520  0.06881164  0.35172951  1
  S2-  S177  1  0.62782422  -0.08217185  0.84759746  1
  S2-  S178  1  0.65138592  0.24761463  0.29663675  1
  S2-  S179  1  0.69101882  0.22951697  0.85211919  1
  S2-  S180  1  0.58967094  0.41644584  0.34279923  1
  S2-  S181  1  0.63016570  0.49038660  0.84991282  1
  S2-  S182  1  0.61571420  0.63478275  0.35194411  1
  S2-  S183  1  0.51780362  0.73567267  0.83357866  1
  S2-  S184  1  0.89895943  0.08947517  0.34857985  1
  S2-  S185  1  0.83299627  -0.00467137  0.84973047  1
  S2-  S186  1  0.84519592  0.28659433  0.30860706  1
  S2-  S187  1  0.99599025  0.23899336  0.85876394  1
  S2-  S188  1  0.79675559  0.51513234  0.34392995  1
  S2-  S189  1  0.88993240  0.58192539  0.85153063  1
  S2-  S190  1  0.88462367  0.86376692  0.36232519  1
  S2-  S191  1  0.75697441  0.75013702  0.84908500  1
  S2-  S192  1  0.00652372  0.11711652  0.45994600  1
  S2-  S193  1  -0.00235154  0.12375687  0.96246561  1
  S2-  S194  1  0.00428443  0.36766002  0.45731776  1
  S2-  S195  1  -0.00398497  0.37886818  0.95519775  1
  S2-  S196  1  0.00567067  0.63128553  0.46388177  1
  S2-  S197  1  -0.00786628  0.62353256  0.96120892  1
  S2-  S198  1  0.00569308  0.87083909  0.46791179  1
  S2-  S199  1  -0.00517243  0.87153940  0.94794022  1
  S2-  S200  1  0.25861617  0.11869929  0.45463306  1
  S2-  S201  1  0.24808162  0.11925874  0.95354021  1
  S2-  S202  1  0.25045314  0.37247834  0.44428590  1
  S2-  S203  1  0.24849568  0.37950645  0.95714365  1
  S2-  S204  1  0.25245184  0.62458084  0.45606480  1
  S2-  S205  1  0.25368639  0.62907496  0.95679391  1
  S2-  S206  1  0.26089819  0.86808601  0.46140350  1
  S2-  S207  1  0.24598956  0.86848767  0.95002693  1
  S2-  S208  1  0.50388115  0.12101330  0.44959396  1
  S2-  S209  1  0.49690615  0.12518086  0.94236126  1
  S2-  S210  1  0.50660581  0.37145334  0.45370087  1
  S2-  S211  1  0.50036130  0.37322837  0.96708441  1
  S2-  S212  1  0.50377553  0.62376031  0.45209127  1
  S2-  S213  1  0.49711975  0.63086941  0.94367249  1
  S2-  S214  1  0.50676678  0.87301102  0.45659078  1
  S2-  S215  1  0.49726275  0.87450762  0.95159447  1
  S2-  S216  1  0.75606347  0.12443063  0.44688220  1
  S2-  S217  1  0.74980578  0.12442959  0.95980598  1
  S2-  S218  1  0.75820044  0.36833483  0.43915863  1
  S2-  S219  1  0.74648596  0.37498571  0.96015836  1
  S2-  S220  1  0.75970408  0.62726696  0.45214326  1
  S2-  S221  1  0.74767414  0.62518801  0.95588035  1
  S2-  S222  1  0.74911330  0.87489376  0.45926488  1
  S2-  S223  1  0.75335559  0.87646303  0.95779300  1
  S2-  S224  1  0.12429945  -0.00241054  0.05347714  1
  S2-  S225  1  0.13623306  -0.00196712  0.54518881  1
  S2-  S226  1  0.12782708  0.25428913  0.03760078  1
  S2-  S227  1  0.13380970  0.25028280  0.53993447  1
  S2-  S228  1  0.12012129  0.49920126  0.04325023  1
  S2-  S229  1  0.12907552  0.49008222  0.55045836  1
  S2-  S230  1  0.12028345  0.74692577  0.04884617  1
  S2-  S231  1  0.13033566  0.75086719  0.54875200  1
  S2-  S232  1  0.37017652  -0.00287592  0.04656299  1
  S2-  S233  1  0.38311023  -0.00108419  0.55294804  1
  S2-  S234  1  0.37026356  0.24962669  0.03755987  1
  S2-  S235  1  0.38069457  0.25059416  0.54071710  1
  S2-  S236  1  0.37773460  0.50603658  0.04750685  1
  S2-  S237  1  0.38274676  0.50248806  0.55355525  1
  S2-  S238  1  0.37259886  0.74914665  0.04940334  1
  S2-  S239  1  0.37969923  0.74392298  0.54873295  1
  S2-  S240  1  0.62006312  -0.00145208  0.04211697  1
  S2-  S241  1  0.62636386  0.00048094  0.54859745  1
  S2-  S242  1  0.62587689  0.24699912  0.04688836  1
  S2-  S243  1  0.63165383  0.24662682  0.52837744  1
  S2-  S244  1  0.61822091  0.50738341  0.05588000  1
  S2-  S245  1  0.62988825  0.50008857  0.53535150  1
  S2-  S246  1  0.62415394  0.75475872  0.04139621  1
  S2-  S247  1  0.62984513  0.74971760  0.54065386  1
  S2-  S248  1  0.87804001  0.00224946  0.04777031  1
  S2-  S249  1  0.87490864  -0.00035079  0.54409012  1
  S2-  S250  1  0.86887225  0.25020754  0.04345809  1
  S2-  S251  1  0.87590022  0.25032389  0.53903967  1
  S2-  S252  1  0.86966772  0.49878119  0.04141416  1
  S2-  S253  1  0.87738013  0.50031395  0.53748954  1
  S2-  S254  1  0.87414088  0.75156023  0.03718090  1
  S2-  S255  1  0.87112682  0.74819597  0.54603117  1
