# generated using pymatgen
data_La6Ce6Pr19Nd20Sm13(BiS2)64
_symmetry_space_group_name_H-M   'P 1'
_cell_length_a   16.09103734
_cell_length_b   16.08205192
_cell_length_c   27.35495316
_cell_angle_alpha   89.74103471
_cell_angle_beta   89.77738683
_cell_angle_gamma   90.01162903
_symmetry_Int_Tables_number   1
_chemical_formula_structural   La6Ce6Pr19Nd20Sm13(BiS2)64
_chemical_formula_sum   'La6 Ce6 Pr19 Nd20 Sm13 Bi64 S128'
_cell_volume   7078.70401480
_cell_formula_units_Z   1
loop_
 _symmetry_equiv_pos_site_id
 _symmetry_equiv_pos_as_xyz
  1  'x, y, z'
loop_
 _atom_type_symbol
 _atom_type_oxidation_number
  La3+  3.0
  Ce3+  3.0
  Pr3+  3.0
  Nd3+  3.0
  Sm3+  3.0
  Bi2+  2.0
  S2-  -2.0
loop_
 _atom_site_type_symbol
 _atom_site_label
 _atom_site_symmetry_multiplicity
 _atom_site_fract_x
 _atom_site_fract_y
 _atom_site_fract_z
 _atom_site_occupancy
  La3+  La0  1  0.88938987  0.00440695  0.40312513  1
  La3+  La1  1  -0.00085479  0.87748733  0.60681185  1
  La3+  La2  1  0.26199929  0.35047492  0.09423524  1
  La3+  La3  1  0.88905821  0.73167417  0.92974824  1
  La3+  La4  1  0.38946563  0.73390018  0.88963973  1
  La3+  La5  1  0.76029955  0.60319226  0.06842190  1
  Ce3+  Ce6  1  0.00756144  0.84626092  0.06875874  1
  Ce3+  Ce7  1  0.12737867  0.74622758  0.45061881  1
  Ce3+  Ce8  1  0.50623128  0.86543603  0.56596560  1
  Ce3+  Ce9  1  0.63416343  0.74637442  0.44215340  1
  Ce3+  Ce10  1  0.13573385  0.73661254  0.93407789  1
  Ce3+  Ce11  1  0.50500800  0.34698761  0.07042490  1
  Pr3+  Pr12  1  0.63261070  0.48171362  0.94740733  1
  Pr3+  Pr13  1  0.88470003  0.48360464  0.92969828  1
  Pr3+  Pr14  1  0.12955535  -0.00552894  0.44230653  1
  Pr3+  Pr15  1  0.38063722  0.24685623  0.43699331  1
  Pr3+  Pr16  1  0.38610910  0.23399815  0.93072395  1
  Pr3+  Pr17  1  0.38092499  0.74689077  0.44316679  1
  Pr3+  Pr18  1  0.75972236  0.35650446  0.06609586  1
  Pr3+  Pr19  1  0.00935935  0.35891510  0.06275822  1
  Pr3+  Pr20  1  0.13721610  0.48323678  0.94111939  1
  Pr3+  Pr21  1  0.00463828  0.37420398  0.56610026  1
  Pr3+  Pr22  1  0.50722777  0.10578936  0.06103838  1
  Pr3+  Pr23  1  0.75889490  0.11498095  0.56092039  1
  Pr3+  Pr24  1  0.01178408  0.60303584  0.06671898  1
  Pr3+  Pr25  1  0.38514773  -0.01653282  0.92929191  1
  Pr3+  Pr26  1  0.50606956  0.11732290  0.55694172  1
  Pr3+  Pr27  1  0.63388555  0.73296198  0.93855585  1
  Pr3+  Pr28  1  0.25396996  0.11833614  0.57192964  1
  Pr3+  Pr29  1  0.25682227  0.62385554  0.57720133  1
  Pr3+  Pr30  1  0.25641627  0.37137658  0.56911766  1
  Nd3+  Nd31  1  0.13287181  0.49608281  0.43581889  1
  Nd3+  Nd32  1  0.13428016  0.23355817  0.94336385  1
  Nd3+  Nd33  1  0.89198667  0.74462043  0.43087923  1
  Nd3+  Nd34  1  0.76575312  0.85695014  0.07585528  1
  Nd3+  Nd35  1  0.75520862  0.37094394  0.55188321  1
  Nd3+  Nd36  1  0.25954516  0.85526945  0.05222509  1
  Nd3+  Nd37  1  0.63343704  -0.00817821  0.44010885  1
  Nd3+  Nd38  1  -0.00151196  0.62149717  0.57207411  1
  Nd3+  Nd39  1  0.50567752  0.37084345  0.55609744  1
  Nd3+  Nd40  1  0.63310008  0.24088614  0.43940881  1
  Nd3+  Nd41  1  0.50299284  0.60433711  0.05702339  1
  Nd3+  Nd42  1  0.50753405  0.61193303  0.56732652  1
  Nd3+  Nd43  1  0.50665319  0.85296260  0.05845974  1
  Nd3+  Nd44  1  0.12661604  -0.01619720  0.93307995  1
  Nd3+  Nd45  1  0.88263312  -0.02362611  0.93235684  1
  Nd3+  Nd46  1  0.88364672  0.49657215  0.42942068  1
  Nd3+  Nd47  1  0.00354650  0.11630433  0.56026881  1
  Nd3+  Nd48  1  0.63644795  0.23175566  0.94225892  1
  Nd3+  Nd49  1  0.38650483  0.47823719  0.93139420  1
  Nd3+  Nd50  1  0.00911894  0.10165019  0.06265099  1
  Sm3+  Sm51  1  0.76224290  0.10253756  0.05746971  1
  Sm3+  Sm52  1  0.63008063  0.49763008  0.42639550  1
  Sm3+  Sm53  1  0.76517268  0.86736731  0.55171018  1
  Sm3+  Sm54  1  0.37998928  0.50003413  0.43425918  1
  Sm3+  Sm55  1  0.37902955  -0.00671230  0.44605693  1
  Sm3+  Sm56  1  0.88451866  0.23199542  0.94732149  1
  Sm3+  Sm57  1  0.13292775  0.24713990  0.44813451  1
  Sm3+  Sm58  1  0.26279293  0.60476491  0.04741283  1
  Sm3+  Sm59  1  0.63590543  -0.02055074  0.95018148  1
  Sm3+  Sm60  1  0.75807462  0.61799499  0.55378165  1
  Sm3+  Sm61  1  0.25829034  0.10529736  0.05450474  1
  Sm3+  Sm62  1  0.88321484  0.24407103  0.44198955  1
  Sm3+  Sm63  1  0.25244231  0.87115167  0.57449500  1
  Bi2+  Bi64  1  -0.01639682  0.19719642  0.28768494  1
  Bi2+  Bi65  1  0.00723814  0.15555547  0.78875182  1
  Bi2+  Bi66  1  -0.01947131  0.39677138  0.27323486  1
  Bi2+  Bi67  1  -0.07896507  0.38890397  0.79982452  1
  Bi2+  Bi68  1  -0.02998785  0.63191796  0.30032173  1
  Bi2+  Bi69  1  0.01150737  0.58542113  0.80033662  1
  Bi2+  Bi70  1  0.00405457  0.90625981  0.28393467  1
  Bi2+  Bi71  1  0.00930911  0.88803110  0.80399744  1
  Bi2+  Bi72  1  0.23379400  0.06306441  0.28746815  1
  Bi2+  Bi73  1  0.24922739  0.14145635  0.80106198  1
  Bi2+  Bi74  1  0.22047464  0.34604896  0.29445807  1
  Bi2+  Bi75  1  0.32314976  0.33364690  0.77390261  1
  Bi2+  Bi76  1  0.23050141  0.59995077  0.28960439  1
  Bi2+  Bi77  1  0.26428401  0.56518094  0.78658953  1
  Bi2+  Bi78  1  0.25983660  0.86985354  0.30289790  1
  Bi2+  Bi79  1  0.28107168  0.94342970  0.77531858  1
  Bi2+  Bi80  1  0.43821731  0.08043454  0.28012348  1
  Bi2+  Bi81  1  0.43983750  0.11885731  0.82008134  1
  Bi2+  Bi82  1  0.48107338  0.33763651  0.28905248  1
  Bi2+  Bi83  1  0.55587461  0.31012322  0.76903753  1
  Bi2+  Bi84  1  0.44675420  0.64740024  0.29535936  1
  Bi2+  Bi85  1  0.53857752  0.60925202  0.78416150  1
  Bi2+  Bi86  1  0.44085728  0.88223356  0.25480553  1
  Bi2+  Bi87  1  0.51125446  0.86191841  0.76057698  1
  Bi2+  Bi88  1  0.70285774  0.19038414  0.27536584  1
  Bi2+  Bi89  1  0.76578541  0.13487213  0.79269971  1
  Bi2+  Bi90  1  0.78544000  0.38489167  0.28917413  1
  Bi2+  Bi91  1  0.72704107  0.40378006  0.78908789  1
  Bi2+  Bi92  1  0.70352868  0.65155546  0.29995088  1
  Bi2+  Bi93  1  0.74907672  0.64661203  0.78465618  1
  Bi2+  Bi94  1  0.67694092  0.91903725  0.28585972  1
  Bi2+  Bi95  1  0.74769232  0.86994716  0.78198651  1
  Bi2+  Bi96  1  0.13407240  -0.04465416  0.20125739  1
  Bi2+  Bi97  1  0.11936942  0.06980801  0.70686984  1
  Bi2+  Bi98  1  0.12731299  0.15817591  0.21098296  1
  Bi2+  Bi99  1  0.14147675  0.28954464  0.71063486  1
  Bi2+  Bi100  1  0.12312310  0.51667416  0.20757903  1
  Bi2+  Bi101  1  0.12313202  0.48795814  0.72145570  1
  Bi2+  Bi102  1  0.11670910  0.75605773  0.25482332  1
  Bi2+  Bi103  1  0.13620104  0.74373558  0.72883683  1
  Bi2+  Bi104  1  0.32574513  -0.00593088  0.18444121  1
  Bi2+  Bi105  1  0.37552545  0.07453203  0.70968611  1
  Bi2+  Bi106  1  0.38977853  0.24125501  0.20773288  1
  Bi2+  Bi107  1  0.43799957  0.27523126  0.68366582  1
  Bi2+  Bi108  1  0.39116394  0.48926463  0.23546880  1
  Bi2+  Bi109  1  0.38960694  0.47409219  0.69838948  1
  Bi2+  Bi110  1  0.34979469  0.69627359  0.19378257  1
  Bi2+  Bi111  1  0.37431941  0.74348192  0.71501643  1
  Bi2+  Bi112  1  0.58708928  0.09174821  0.20701182  1
  Bi2+  Bi113  1  0.59698625  0.03963603  0.76994478  1
  Bi2+  Bi114  1  0.67939639  0.34479407  0.19368808  1
  Bi2+  Bi115  1  0.74149485  0.25693454  0.70288712  1
  Bi2+  Bi116  1  0.58938958  0.49610636  0.25569464  1
  Bi2+  Bi117  1  0.64969271  0.55347631  0.69371592  1
  Bi2+  Bi118  1  0.59882099  0.74870962  0.19724538  1
  Bi2+  Bi119  1  0.64668461  0.75158086  0.70394545  1
  Bi2+  Bi120  1  0.86203413  0.02654598  0.21061255  1
  Bi2+  Bi121  1  0.84516105  0.00468604  0.71726414  1
  Bi2+  Bi122  1  0.87133819  0.28307694  0.20211878  1
  Bi2+  Bi123  1  0.94535173  0.28149688  0.69822400  1
  Bi2+  Bi124  1  0.88374228  0.56374703  0.19680286  1
  Bi2+  Bi125  1  0.87340301  0.48773384  0.70268601  1
  Bi2+  Bi126  1  0.85897947  0.77725149  0.20513909  1
  Bi2+  Bi127  1  0.87268626  0.73936925  0.71211125  1
  S2-  S128  1  -0.01940700  0.11972333  0.16010545  1
  S2-  S129  1  -0.01840160  0.04788130  0.65122156  1
  S2-  S130  1  0.00091650  0.47450309  0.13915290  1
  S2-  S131  1  0.00968528  0.48885480  0.64169857  1
  S2-  S132  1  -0.00999989  0.71300706  0.14566832  1
  S2-  S133  1  0.01765249  0.71945338  0.65741012  1
  S2-  S134  1  -0.09483423  0.90317052  0.14219493  1
  S2-  S135  1  0.07648462  0.89023197  0.70626329  1
  S2-  S136  1  0.26681558  0.18382650  0.14207042  1
  S2-  S137  1  0.26111519  0.24641473  0.64421153  1
  S2-  S138  1  0.18503696  0.36957313  0.18891486  1
  S2-  S139  1  0.24544354  0.48888856  0.64524931  1
  S2-  S140  1  0.24916909  0.59343018  0.14559391  1
  S2-  S141  1  0.24123622  0.75623315  0.65177735  1
  S2-  S142  1  0.26512660  0.83843433  0.15206051  1
  S2-  S143  1  0.24863952  0.99765639  0.64662642  1
  S2-  S144  1  0.51597914  0.20910091  0.14143150  1
  S2-  S145  1  0.51248084  0.12136447  0.65672569  1
  S2-  S146  1  0.40519840  0.38923439  0.14919898  1
  S2-  S147  1  0.53136251  0.47313952  0.63522763  1
  S2-  S148  1  0.50455522  0.63039688  0.15563512  1
  S2-  S149  1  0.40118221  0.62940873  0.64806769  1
  S2-  S150  1  0.50525736  0.86954975  0.15772280  1
  S2-  S151  1  0.45703837  0.86808865  0.65936827  1
  S2-  S152  1  0.74668641  0.09110560  0.15559804  1
  S2-  S153  1  0.74195286  0.09344164  0.66033451  1
  S2-  S154  1  0.77694373  0.47126361  0.14252350  1
  S2-  S155  1  0.74243669  0.40813447  0.64818141  1
  S2-  S156  1  0.74983798  0.66962007  0.16386238  1
  S2-  S157  1  0.84005838  0.62200899  0.63973487  1
  S2-  S158  1  0.71682565  0.86723574  0.17669119  1
  S2-  S159  1  0.83265426  0.86852012  0.64421292  1
  S2-  S160  1  0.04733591  0.01256561  0.35252966  1
  S2-  S161  1  0.16647266  -0.08079833  0.84225365  1
  S2-  S162  1  0.11584919  0.26503352  0.35063038  1
  S2-  S163  1  0.12305384  0.23618385  0.84407310  1
  S2-  S164  1  0.01253990  0.49244389  0.35949999  1
  S2-  S165  1  0.13204919  0.48076307  0.84085877  1
  S2-  S166  1  0.05133520  0.73239328  0.36182406  1
  S2-  S167  1  0.03920858  0.73310403  0.85322031  1
  S2-  S168  1  0.40608458  -0.05190404  0.35330402  1
  S2-  S169  1  0.39857659  -0.10518575  0.84291345  1
  S2-  S170  1  0.33929495  0.26539852  0.33968967  1
  S2-  S171  1  0.40907832  0.35522253  0.85729150  1
  S2-  S172  1  0.25756908  0.48097813  0.36142964  1
  S2-  S173  1  0.40188679  0.57350225  0.84567455  1
  S2-  S174  1  0.31692268  0.72125771  0.35108970  1
  S2-  S175  1  0.26273223  0.72370281  0.81037045  1
  S2-  S176  1  0.64255766  0.04031716  0.34466171  1
  S2-  S177  1  0.66297276  -0.03194159  0.85412080  1
  S2-  S178  1  0.62012678  0.28028936  0.34348348  1
  S2-  S179  1  0.64485518  0.23894014  0.84336450  1
  S2-  S180  1  0.50035192  0.51829500  0.36035194  1
  S2-  S181  1  0.63755317  0.50587536  0.84807403  1
  S2-  S182  1  0.61485558  0.77791815  0.34530878  1
  S2-  S183  1  0.55341598  0.73878098  0.84842094  1
  S2-  S184  1  0.83097593  -0.04749452  0.30805375  1
  S2-  S185  1  0.99761598  0.02054512  0.85865812  1
  S2-  S186  1  0.86747125  0.16623030  0.35509857  1
  S2-  S187  1  0.88107508  0.23055850  0.84953164  1
  S2-  S188  1  0.75677278  0.50891599  0.35637299  1
  S2-  S189  1  0.86720491  0.60372227  0.85590377  1
  S2-  S190  1  0.83509160  0.72823398  0.33339464  1
  S2-  S191  1  0.86212987  0.85573795  0.85768675  1
  S2-  S192  1  0.00747195  0.12486524  0.45617136  1
  S2-  S193  1  0.00739840  0.11231040  0.95927507  1
  S2-  S194  1  0.00568072  0.36512464  0.45882245  1
  S2-  S195  1  0.00771223  0.35657742  0.95429051  1
  S2-  S196  1  0.00625736  0.61737930  0.46318733  1
  S2-  S197  1  0.01250966  0.60471847  0.95874974  1
  S2-  S198  1  0.00249999  0.87553290  0.44798468  1
  S2-  S199  1  0.01174581  0.85809219  0.96087235  1
  S2-  S200  1  0.25652357  0.11994874  0.45671119  1
  S2-  S201  1  0.25716534  0.10587489  0.94970464  1
  S2-  S202  1  0.25686266  0.36746098  0.46151569  1
  S2-  S203  1  0.25793746  0.35503448  0.94845365  1
  S2-  S204  1  0.25588815  0.62235332  0.46273940  1
  S2-  S205  1  0.26248759  0.61150201  0.94333112  1
  S2-  S206  1  0.25549838  0.87183550  0.46074490  1
  S2-  S207  1  0.26334730  0.85637204  0.94757996  1
  S2-  S208  1  0.50446373  0.11696139  0.44945967  1
  S2-  S209  1  0.51297375  0.10567055  0.95432506  1
  S2-  S210  1  0.50809904  0.36949628  0.45149131  1
  S2-  S211  1  0.51341305  0.35269285  0.96184856  1
  S2-  S212  1  0.50787194  0.62505978  0.46036539  1
  S2-  S213  1  0.50738045  0.60885992  0.95294614  1
  S2-  S214  1  0.50666792  0.87161377  0.45908016  1
  S2-  S215  1  0.50959677  0.85977509  0.95375836  1
  S2-  S216  1  0.75769581  0.11725964  0.45496313  1
  S2-  S217  1  0.76139500  0.10548556  0.95283387  1
  S2-  S218  1  0.75739904  0.36497043  0.44726863  1
  S2-  S219  1  0.76149963  0.35676846  0.95458327  1
  S2-  S220  1  0.75798615  0.62403363  0.45196408  1
  S2-  S221  1  0.75613260  0.60702868  0.95909010  1
  S2-  S222  1  0.76271100  0.87296199  0.44613300  1
  S2-  S223  1  0.75528877  0.85634964  0.96496034  1
  S2-  S224  1  0.13382630  -0.01949527  0.04636730  1
  S2-  S225  1  0.12460928  -0.01017437  0.54890691  1
  S2-  S226  1  0.13299850  0.23170366  0.04960182  1
  S2-  S227  1  0.12613332  0.24391627  0.55147018  1
  S2-  S228  1  0.14492931  0.47365055  0.04673419  1
  S2-  S229  1  0.13126507  0.49608472  0.54198389  1
  S2-  S230  1  0.13852760  0.72806779  0.04252500  1
  S2-  S231  1  0.12359826  0.75423723  0.55254020  1
  S2-  S232  1  0.38292653  -0.01714502  0.04062129  1
  S2-  S233  1  0.38110978  -0.00751978  0.54893923  1
  S2-  S234  1  0.37929692  0.22931282  0.03850709  1
  S2-  S235  1  0.38357618  0.24356843  0.54275326  1
  S2-  S236  1  0.38101552  0.47827125  0.04022145  1
  S2-  S237  1  0.38180688  0.49386970  0.53883981  1
  S2-  S238  1  0.38256320  0.73079967  0.04710156  1
  S2-  S239  1  0.37962649  0.74912381  0.54813517  1
  S2-  S240  1  0.63537409  -0.01944262  0.05443108  1
  S2-  S241  1  0.63348675  -0.01093382  0.54840171  1
  S2-  S242  1  0.64153128  0.22733726  0.04686678  1
  S2-  S243  1  0.63105902  0.24426996  0.54689665  1
  S2-  S244  1  0.62684804  0.47731335  0.05308585  1
  S2-  S245  1  0.63533127  0.49552078  0.53134618  1
  S2-  S246  1  0.63226991  0.73154754  0.04818769  1
  S2-  S247  1  0.63465957  0.74281984  0.55096701  1
  S2-  S248  1  0.88387733  -0.01668382  0.03887748  1
  S2-  S249  1  0.88203600  -0.00774169  0.54421056  1
  S2-  S250  1  0.88424477  0.23019402  0.05163847  1
  S2-  S251  1  0.88038488  0.24491124  0.54824963  1
  S2-  S252  1  0.88483332  0.47913202  0.03592727  1
  S2-  S253  1  0.87766669  0.49240913  0.53642091  1
  S2-  S254  1  0.88035220  0.73028134  0.04288339  1
  S2-  S255  1  0.88066131  0.74464502  0.53846410  1
