# generated using pymatgen
data_La6Ce6Pr19Nd20Sm13(BiS2)64
_symmetry_space_group_name_H-M   'P 1'
_cell_length_a   16.09608155
_cell_length_b   16.04451689
_cell_length_c   27.29932927
_cell_angle_alpha   90.11206499
_cell_angle_beta   90.33365398
_cell_angle_gamma   89.90426784
_symmetry_Int_Tables_number   1
_chemical_formula_structural   La6Ce6Pr19Nd20Sm13(BiS2)64
_chemical_formula_sum   'La6 Ce6 Pr19 Nd20 Sm13 Bi64 S128'
_cell_volume   7050.01421357
_cell_formula_units_Z   1
loop_
 _symmetry_equiv_pos_site_id
 _symmetry_equiv_pos_as_xyz
  1  'x, y, z'
loop_
 _atom_type_symbol
 _atom_type_oxidation_number
  La3+  3.0
  Ce3+  3.0
  Pr3+  3.0
  Nd3+  3.0
  Sm3+  3.0
  Bi2+  2.0
  S2-  -2.0
loop_
 _atom_site_type_symbol
 _atom_site_label
 _atom_site_symmetry_multiplicity
 _atom_site_fract_x
 _atom_site_fract_y
 _atom_site_fract_z
 _atom_site_occupancy
  La3+  La0  1  -0.00713760  0.12579897  0.11553429  1
  La3+  La1  1  0.88117575  0.49702674  0.88946292  1
  La3+  La2  1  0.61771438  0.24339511  0.92658844  1
  La3+  La3  1  0.10970270  0.24039074  0.92521255  1
  La3+  La4  1  0.26832463  0.11907445  0.60857016  1
  La3+  La5  1  0.73591306  0.85881513  0.08358694  1
  Ce3+  Ce6  1  0.13053601  0.73460458  0.44579600  1
  Ce3+  Ce7  1  0.49710602  0.86786286  0.05449197  1
  Ce3+  Ce8  1  0.25906446  0.61566362  0.56870981  1
  Ce3+  Ce9  1  0.75909068  0.86152167  0.55418594  1
  Ce3+  Ce10  1  0.63229359  0.23692241  0.44244953  1
  Ce3+  Ce11  1  0.00385149  0.60713247  0.57110478  1
  Pr3+  Pr12  1  0.11205317  0.74501391  0.93019743  1
  Pr3+  Pr13  1  -0.00581761  0.36811591  0.06071548  1
  Pr3+  Pr14  1  0.76242941  0.61402734  0.56256875  1
  Pr3+  Pr15  1  0.63623283  0.73788148  0.42354709  1
  Pr3+  Pr16  1  0.74382691  0.12932737  0.07671981  1
  Pr3+  Pr17  1  0.88351868  0.73243219  0.43174056  1
  Pr3+  Pr18  1  0.49107433  0.12928904  0.07006620  1
  Pr3+  Pr19  1  0.38103123  -0.01411357  0.44667799  1
  Pr3+  Pr20  1  0.26014799  0.36515445  0.56718212  1
  Pr3+  Pr21  1  0.13822086  -0.02198772  0.43069395  1
  Pr3+  Pr22  1  0.86684867  -0.00523779  0.95855689  1
  Pr3+  Pr23  1  0.24474102  0.86449272  0.06242532  1
  Pr3+  Pr24  1  0.49622515  0.37366621  0.05829850  1
  Pr3+  Pr25  1  0.88270119  -0.01117155  0.43298677  1
  Pr3+  Pr26  1  0.74801492  0.37065003  0.04834533  1
  Pr3+  Pr27  1  0.36814529  0.49384175  0.93097891  1
  Pr3+  Pr28  1  0.24135863  0.11756273  0.06338596  1
  Pr3+  Pr29  1  0.37739561  0.48673144  0.43135744  1
  Pr3+  Pr30  1  0.36859918  0.74347994  0.93265405  1
  Nd3+  Nd31  1  0.37964783  0.23480243  0.44278998  1
  Nd3+  Nd32  1  -0.00657611  0.86930039  0.06890931  1
  Nd3+  Nd33  1  0.49839661  0.61456446  0.04950190  1
  Nd3+  Nd34  1  0.62897567  0.48425272  0.40607162  1
  Nd3+  Nd35  1  0.88157289  0.23919403  0.44241344  1
  Nd3+  Nd36  1  0.01164314  0.10906827  0.56909829  1
  Nd3+  Nd37  1  0.75844374  0.11331220  0.55829855  1
  Nd3+  Nd38  1  0.50876361  0.11272783  0.56521031  1
  Nd3+  Nd39  1  0.38150728  0.73617703  0.44117082  1
  Nd3+  Nd40  1  0.61973143  -0.00054742  0.94629884  1
  Nd3+  Nd41  1  0.24524412  0.62034217  0.05377673  1
  Nd3+  Nd42  1  0.87768069  0.48487864  0.43572469  1
  Nd3+  Nd43  1  0.35902140  0.24437467  0.92630389  1
  Nd3+  Nd44  1  0.25823569  0.86095888  0.57089170  1
  Nd3+  Nd45  1  0.75497139  0.37051159  0.56663559  1
  Nd3+  Nd46  1  0.24202778  0.36646985  0.05411941  1
  Nd3+  Nd47  1  0.86009651  0.74799348  0.93195371  1
  Nd3+  Nd48  1  0.50751912  0.36578668  0.55869535  1
  Nd3+  Nd49  1  0.36726589  -0.00482013  0.94144902  1
  Nd3+  Nd50  1  0.11434440  -0.00758002  0.93572856  1
  Sm3+  Sm51  1  0.51129919  0.61140190  0.55070961  1
  Sm3+  Sm52  1  0.74424703  0.61677527  0.04882750  1
  Sm3+  Sm53  1  0.11208999  0.49587038  0.94743870  1
  Sm3+  Sm54  1  0.00923850  0.35640656  0.56712711  1
  Sm3+  Sm55  1  0.87186138  0.23998652  0.94128161  1
  Sm3+  Sm56  1  0.62825610  -0.01707317  0.43536585  1
  Sm3+  Sm57  1  -0.00857354  0.62596477  0.06034725  1
  Sm3+  Sm58  1  0.13186958  0.48760697  0.44128835  1
  Sm3+  Sm59  1  0.00947559  0.86858245  0.55890302  1
  Sm3+  Sm60  1  0.62280661  0.74561374  0.93037428  1
  Sm3+  Sm61  1  0.13317237  0.23419635  0.44932061  1
  Sm3+  Sm62  1  0.62281304  0.48788607  0.91945175  1
  Sm3+  Sm63  1  0.50914369  0.86115620  0.56428130  1
  Bi2+  Bi64  1  0.01427138  0.14972795  0.32488629  1
  Bi2+  Bi65  1  -0.02041993  0.11190104  0.79868552  1
  Bi2+  Bi66  1  -0.01048002  0.40669779  0.29238031  1
  Bi2+  Bi67  1  0.03258116  0.35976451  0.78473857  1
  Bi2+  Bi68  1  0.00341077  0.58533608  0.34759211  1
  Bi2+  Bi69  1  0.05510334  0.62961201  0.78826231  1
  Bi2+  Bi70  1  -0.04196677  0.76343468  0.30504221  1
  Bi2+  Bi71  1  -0.00315056  0.84525740  0.78745964  1
  Bi2+  Bi72  1  0.26491754  0.12712147  0.31870560  1
  Bi2+  Bi73  1  0.25616045  0.15282651  0.79596406  1
  Bi2+  Bi74  1  0.28748420  0.40034887  0.27824187  1
  Bi2+  Bi75  1  0.25901838  0.41095007  0.77147791  1
  Bi2+  Bi76  1  0.18412686  0.60634363  0.29380287  1
  Bi2+  Bi77  1  0.24502355  0.69019158  0.80018220  1
  Bi2+  Bi78  1  0.27831648  0.83950996  0.29974376  1
  Bi2+  Bi79  1  0.25851008  0.88355577  0.79025063  1
  Bi2+  Bi80  1  0.50375198  0.13474584  0.28277127  1
  Bi2+  Bi81  1  0.49043842  0.06734837  0.80189681  1
  Bi2+  Bi82  1  0.48092568  0.41755379  0.25403465  1
  Bi2+  Bi83  1  0.45361896  0.45740846  0.79607577  1
  Bi2+  Bi84  1  0.47278508  0.61385838  0.27864449  1
  Bi2+  Bi85  1  0.53532094  0.63927350  0.78843731  1
  Bi2+  Bi86  1  0.52961395  0.85357944  0.23884919  1
  Bi2+  Bi87  1  0.55729554  0.84026662  0.80481261  1
  Bi2+  Bi88  1  0.75606966  0.16866848  0.30827864  1
  Bi2+  Bi89  1  0.75713412  0.18450489  0.80957223  1
  Bi2+  Bi90  1  0.68066341  0.40365567  0.27188842  1
  Bi2+  Bi91  1  0.70733045  0.37405811  0.78437202  1
  Bi2+  Bi92  1  0.74431067  0.61273253  0.28569713  1
  Bi2+  Bi93  1  0.76652525  0.66793775  0.78597880  1
  Bi2+  Bi94  1  0.72032934  0.91216288  0.30682104  1
  Bi2+  Bi95  1  0.75181952  0.94998682  0.80226732  1
  Bi2+  Bi96  1  0.13949129  0.00959519  0.21573298  1
  Bi2+  Bi97  1  0.12168484  -0.02335402  0.71780367  1
  Bi2+  Bi98  1  0.12819309  0.35078422  0.21757762  1
  Bi2+  Bi99  1  0.13346969  0.30686579  0.69783203  1
  Bi2+  Bi100  1  0.06748519  0.53747225  0.20418989  1
  Bi2+  Bi101  1  0.14042969  0.54358483  0.69459314  1
  Bi2+  Bi102  1  0.09095816  0.73520963  0.22464655  1
  Bi2+  Bi103  1  0.11179414  0.75553582  0.70599750  1
  Bi2+  Bi104  1  0.39899818  0.00256588  0.22056168  1
  Bi2+  Bi105  1  0.40013232  -0.03375183  0.71279194  1
  Bi2+  Bi106  1  0.37480655  0.24722322  0.20368657  1
  Bi2+  Bi107  1  0.43363790  0.25996783  0.71534338  1
  Bi2+  Bi108  1  0.32297924  0.55724860  0.21021864  1
  Bi2+  Bi109  1  0.32952743  0.51029752  0.68050423  1
  Bi2+  Bi110  1  0.35837448  0.78603712  0.19777369  1
  Bi2+  Bi111  1  0.38125894  0.69735210  0.71164587  1
  Bi2+  Bi112  1  0.59228337  0.03333253  0.19809694  1
  Bi2+  Bi113  1  0.61182254  -0.02045072  0.72304039  1
  Bi2+  Bi114  1  0.63154277  0.22283323  0.20838842  1
  Bi2+  Bi115  1  0.63504751  0.17827280  0.72133945  1
  Bi2+  Bi116  1  0.68049874  0.49073628  0.16863645  1
  Bi2+  Bi117  1  0.58624180  0.49126542  0.71106612  1
  Bi2+  Bi118  1  0.57945611  0.65282694  0.18310116  1
  Bi2+  Bi119  1  0.64153399  0.75265315  0.71229758  1
  Bi2+  Bi120  1  0.89075778  0.00008775  0.22645710  1
  Bi2+  Bi121  1  0.89449307  -0.01803360  0.72232117  1
  Bi2+  Bi122  1  0.86128351  0.33740582  0.21061154  1
  Bi2+  Bi123  1  0.86877736  0.21604767  0.71088643  1
  Bi2+  Bi124  1  0.87033989  0.53324964  0.20539441  1
  Bi2+  Bi125  1  0.85852353  0.49808950  0.69491010  1
  Bi2+  Bi126  1  0.85587839  0.74576426  0.20795630  1
  Bi2+  Bi127  1  0.86559379  0.78034343  0.70911754  1
  S2-  S128  1  0.01114658  0.12939001  0.23176008  1
  S2-  S129  1  0.00118944  0.23363797  0.64307243  1
  S2-  S130  1  -0.00634290  0.29750437  0.15273376  1
  S2-  S131  1  0.00508260  0.47228162  0.64148855  1
  S2-  S132  1  -0.00447808  0.73649870  0.13852586  1
  S2-  S133  1  -0.11632455  0.64455655  0.64140324  1
  S2-  S134  1  0.01432021  0.95839946  0.15804304  1
  S2-  S135  1  0.00279105  0.97789554  0.63871387  1
  S2-  S136  1  0.15776726  0.12675909  0.15251437  1
  S2-  S137  1  0.17647357  0.13168131  0.70147904  1
  S2-  S138  1  0.26811592  0.35986052  0.15243224  1
  S2-  S139  1  0.29151767  0.28403784  0.65503950  1
  S2-  S140  1  0.25064412  0.67279622  0.14778486  1
  S2-  S141  1  0.25804499  0.73359443  0.64405300  1
  S2-  S142  1  0.24186913  0.89875211  0.16204133  1
  S2-  S143  1  0.25515589  0.96015780  0.65365422  1
  S2-  S144  1  0.36507124  0.11210898  0.14263417  1
  S2-  S145  1  0.43053235  0.11810483  0.65519354  1
  S2-  S146  1  0.50189653  0.26851636  0.14018152  1
  S2-  S147  1  0.53191189  0.34274809  0.65804891  1
  S2-  S148  1  0.51412629  0.50876190  0.12962773  1
  S2-  S149  1  0.48182682  0.59312381  0.64778717  1
  S2-  S150  1  0.57400848  0.84440267  0.13979490  1
  S2-  S151  1  0.46194928  0.84507448  0.65884126  1
  S2-  S152  1  0.83625701  0.10719943  0.16443170  1
  S2-  S153  1  0.75551128  0.11238426  0.65731998  1
  S2-  S154  1  0.73926832  0.28708432  0.13787884  1
  S2-  S155  1  0.80463367  0.34248262  0.66241260  1
  S2-  S156  1  0.73509476  0.69608428  0.13741693  1
  S2-  S157  1  0.71446042  0.52160957  0.64664451  1
  S2-  S158  1  0.78184805  0.88993820  0.18490600  1
  S2-  S159  1  0.73611643  0.85403946  0.65048158  1
  S2-  S160  1  0.11562638  0.02397263  0.33148555  1
  S2-  S161  1  0.11919805  0.09701399  0.85121263  1
  S2-  S162  1  0.15576961  0.24222474  0.35065190  1
  S2-  S163  1  0.22219876  0.28384996  0.84732473  1
  S2-  S164  1  0.24055008  0.48278923  0.36302271  1
  S2-  S165  1  0.05885789  0.48681944  0.85450670  1
  S2-  S166  1  0.15457625  0.82443296  0.36408763  1
  S2-  S167  1  0.11793268  0.87028662  0.85843517  1
  S2-  S168  1  0.34842086  -0.02554759  0.34750861  1
  S2-  S169  1  0.33131176  0.01353605  0.84391043  1
  S2-  S170  1  0.38852846  0.22511032  0.34273132  1
  S2-  S171  1  0.41357144  0.21454329  0.83031730  1
  S2-  S172  1  0.48026914  0.46412018  0.35001234  1
  S2-  S173  1  0.30791299  0.53452462  0.83902161  1
  S2-  S174  1  0.37130929  0.71710561  0.34223974  1
  S2-  S175  1  0.39165007  0.80189656  0.83902051  1
  S2-  S176  1  0.64641693  0.06284862  0.34555032  1
  S2-  S177  1  0.62303414  0.10054270  0.86349086  1
  S2-  S178  1  0.65182769  0.28652567  0.34988519  1
  S2-  S179  1  0.58698965  0.36050412  0.84886040  1
  S2-  S180  1  0.61348831  0.62886435  0.34375414  1
  S2-  S181  1  0.72269844  0.52110125  0.84029458  1
  S2-  S182  1  0.59312347  0.86848792  0.35694943  1
  S2-  S183  1  0.73584851  0.78850584  0.85859547  1
  S2-  S184  1  0.86495008  0.01247466  0.33297743  1
  S2-  S185  1  0.88405022  -0.00464254  0.85713606  1
  S2-  S186  1  0.88408598  0.27108294  0.34408041  1
  S2-  S187  1  0.96709978  0.25453615  0.85743927  1
  S2-  S188  1  0.77662621  0.48451734  0.35155598  1
  S2-  S189  1  0.88335540  0.42740591  0.78991173  1
  S2-  S190  1  0.78568633  0.76341883  0.34731418  1
  S2-  S191  1  0.90762939  0.65787585  0.84825306  1
  S2-  S192  1  0.00838286  0.11200969  0.45678510  1
  S2-  S193  1  -0.00849258  0.11572388  0.95628479  1
  S2-  S194  1  0.01016468  0.36189657  0.45745344  1
  S2-  S195  1  -0.01440206  0.37804516  0.95544254  1
  S2-  S196  1  0.00729816  0.60834453  0.46302991  1
  S2-  S197  1  -0.01021606  0.61934702  0.95721177  1
  S2-  S198  1  0.00442880  0.86262684  0.45420890  1
  S2-  S199  1  -0.01113586  0.86548773  0.95935577  1
  S2-  S200  1  0.25529744  0.11103669  0.45107284  1
  S2-  S201  1  0.24320471  0.11811497  0.95484753  1
  S2-  S202  1  0.25542381  0.35788175  0.46016781  1
  S2-  S203  1  0.23805264  0.37614476  0.94987320  1
  S2-  S204  1  0.25558508  0.61446738  0.46065014  1
  S2-  S205  1  0.23885318  0.62039941  0.94847006  1
  S2-  S206  1  0.26061675  0.85847791  0.46475587  1
  S2-  S207  1  0.24627084  0.86591275  0.95455005  1
  S2-  S208  1  0.50827576  0.11011411  0.45668958  1
  S2-  S209  1  0.48657179  0.12173560  0.95814566  1
  S2-  S210  1  0.50554506  0.35975773  0.45371397  1
  S2-  S211  1  0.48712523  0.36784533  0.95076084  1
  S2-  S212  1  0.50701685  0.61179995  0.44873605  1
  S2-  S213  1  0.49878336  0.61830045  0.94022552  1
  S2-  S214  1  0.50599445  0.86002147  0.46064282  1
  S2-  S215  1  0.49757585  0.87035134  0.94878352  1
  S2-  S216  1  0.75679803  0.11118691  0.45299512  1
  S2-  S217  1  0.74608813  0.12357657  0.96471682  1
  S2-  S218  1  0.75583686  0.36232447  0.45789224  1
  S2-  S219  1  0.75466601  0.37131143  0.94120259  1
  S2-  S220  1  0.75736783  0.61167562  0.45425942  1
  S2-  S221  1  0.74333195  0.61732335  0.94661253  1
  S2-  S222  1  0.75761030  0.86608467  0.45131862  1
  S2-  S223  1  0.73640960  0.87284603  0.96717694  1
  S2-  S224  1  0.12088765  -0.01255588  0.04378584  1
  S2-  S225  1  0.13540442  -0.01339919  0.54195486  1
  S2-  S226  1  0.11867546  0.24589212  0.04172864  1
  S2-  S227  1  0.14162185  0.23117510  0.55290064  1
  S2-  S228  1  0.11786448  0.49911382  0.05260362  1
  S2-  S229  1  0.13593687  0.48611580  0.54531574  1
  S2-  S230  1  0.11976782  0.74284623  0.03822473  1
  S2-  S231  1  0.12538965  0.73793439  0.55047029  1
  S2-  S232  1  0.37162005  -0.01114774  0.04621720  1
  S2-  S233  1  0.38547089  -0.01260823  0.55237678  1
  S2-  S234  1  0.36609614  0.24845460  0.03587418  1
  S2-  S235  1  0.38427686  0.23520607  0.54751694  1
  S2-  S236  1  0.36530499  0.49562953  0.03823747  1
  S2-  S237  1  0.38345899  0.48909475  0.54085057  1
  S2-  S238  1  0.37427168  0.74055447  0.04035552  1
  S2-  S239  1  0.38850972  0.73660055  0.54673159  1
  S2-  S240  1  0.61729815  0.00160754  0.05168019  1
  S2-  S241  1  0.63123187  -0.01289592  0.54682238  1
  S2-  S242  1  0.61904887  0.24728849  0.03540781  1
  S2-  S243  1  0.63309630  0.23821100  0.55075928  1
  S2-  S244  1  0.62357430  0.49320904  0.02501261  1
  S2-  S245  1  0.62968114  0.48751873  0.54001932  1
  S2-  S246  1  0.61700408  0.73831474  0.03310738  1
  S2-  S247  1  0.63165478  0.73685438  0.54545390  1
  S2-  S248  1  0.86230611  -0.01060955  0.06232138  1
  S2-  S249  1  0.88098965  -0.01105071  0.54084697  1
  S2-  S250  1  0.87444387  0.24059001  0.04473708  1
  S2-  S251  1  0.88051810  0.23776707  0.54640970  1
  S2-  S252  1  0.87072718  0.49945803  0.05825422  1
  S2-  S253  1  0.88292130  0.48185532  0.54084587  1
  S2-  S254  1  0.86481696  0.74352420  0.03961322  1
  S2-  S255  1  0.88699012  0.74419851  0.53876941  1
