# generated using pymatgen
data_La6Ce6Pr19Nd20Sm13(BiS2)64
_symmetry_space_group_name_H-M   'P 1'
_cell_length_a   16.09894756
_cell_length_b   16.08341475
_cell_length_c   27.33690274
_cell_angle_alpha   89.54412859
_cell_angle_beta   90.03847864
_cell_angle_gamma   90.02652478
_symmetry_Int_Tables_number   1
_chemical_formula_structural   La6Ce6Pr19Nd20Sm13(BiS2)64
_chemical_formula_sum   'La6 Ce6 Pr19 Nd20 Sm13 Bi64 S128'
_cell_volume   7078.00988103
_cell_formula_units_Z   1
loop_
 _symmetry_equiv_pos_site_id
 _symmetry_equiv_pos_as_xyz
  1  'x, y, z'
loop_
 _atom_type_symbol
 _atom_type_oxidation_number
  La3+  3.0
  Ce3+  3.0
  Pr3+  3.0
  Nd3+  3.0
  Sm3+  3.0
  Bi2+  2.0
  S2-  -2.0
loop_
 _atom_site_type_symbol
 _atom_site_label
 _atom_site_symmetry_multiplicity
 _atom_site_fract_x
 _atom_site_fract_y
 _atom_site_fract_z
 _atom_site_occupancy
  La3+  La0  1  0.87726348  0.00218273  0.43215998  1
  La3+  La1  1  0.63569671  0.01225881  0.92877145  1
  La3+  La2  1  0.25128126  0.12964576  0.08777173  1
  La3+  La3  1  0.14545515  0.02225817  0.91896289  1
  La3+  La4  1  0.88681732  0.76936748  0.90737093  1
  La3+  La5  1  0.63339878  0.75096577  0.42236175  1
  Ce3+  Ce6  1  0.38497706  0.51413986  0.94929603  1
  Ce3+  Ce7  1  0.25908134  0.64150399  0.06479829  1
  Ce3+  Ce8  1  0.00469639  0.62841378  0.55578950  1
  Ce3+  Ce9  1  0.51233242  0.88604190  0.05802390  1
  Ce3+  Ce10  1  0.36864143  0.51278883  0.40242208  1
  Ce3+  Ce11  1  0.00559054  0.87980835  0.56293282  1
  Pr3+  Pr12  1  0.00789696  0.37374246  0.56397533  1
  Pr3+  Pr13  1  0.88658271  0.01902731  0.93224731  1
  Pr3+  Pr14  1  0.01021405  0.88873160  0.05077084  1
  Pr3+  Pr15  1  0.50560383  0.62582509  0.55007594  1
  Pr3+  Pr16  1  0.63037298  0.50050271  0.43085297  1
  Pr3+  Pr17  1  0.75627282  0.86685495  0.57162892  1
  Pr3+  Pr18  1  0.00624710  0.63914787  0.05434954  1
  Pr3+  Pr19  1  0.13542207  0.00720354  0.42171930  1
  Pr3+  Pr20  1  0.50926430  0.12859186  0.56224972  1
  Pr3+  Pr21  1  0.76062025  0.62342710  0.56536439  1
  Pr3+  Pr22  1  0.51374965  0.38541466  0.06987242  1
  Pr3+  Pr23  1  0.50712671  0.37639530  0.55235515  1
  Pr3+  Pr24  1  0.25854121  0.62676052  0.56198826  1
  Pr3+  Pr25  1  0.63101627  0.25370265  0.43195781  1
  Pr3+  Pr26  1  0.12886025  0.50424475  0.43858963  1
  Pr3+  Pr27  1  0.38261968  0.76304628  0.94330543  1
  Pr3+  Pr28  1  0.13240138  0.75548572  0.44400362  1
  Pr3+  Pr29  1  0.88304949  0.51102828  0.94390376  1
  Pr3+  Pr30  1  0.51816018  0.63819406  0.07124713  1
  Nd3+  Nd31  1  0.63421395  0.51825880  0.93095720  1
  Nd3+  Nd32  1  0.00918409  0.13857581  0.06469846  1
  Nd3+  Nd33  1  0.75873377  0.13251104  0.06682237  1
  Nd3+  Nd34  1  0.50513466  0.87167931  0.56223192  1
  Nd3+  Nd35  1  0.75866510  0.12409427  0.56194084  1
  Nd3+  Nd36  1  0.88060219  0.50180211  0.43761595  1
  Nd3+  Nd37  1  0.13115044  0.25503118  0.43374159  1
  Nd3+  Nd38  1  0.25527127  0.87864223  0.56153368  1
  Nd3+  Nd39  1  0.38436207  0.76254381  0.41463454  1
  Nd3+  Nd40  1  0.13378802  0.51122596  0.94638501  1
  Nd3+  Nd41  1  0.76205230  0.37648016  0.56924698  1
  Nd3+  Nd42  1  0.00806960  0.12452333  0.55547329  1
  Nd3+  Nd43  1  0.63243920  0.26452462  0.93459429  1
  Nd3+  Nd44  1  0.88014462  0.24897186  0.43096029  1
  Nd3+  Nd45  1  0.26902331  0.38644777  0.07713103  1
  Nd3+  Nd46  1  0.25638819  0.37698314  0.55584704  1
  Nd3+  Nd47  1  0.38065062  0.25116779  0.43500961  1
  Nd3+  Nd48  1  0.75692288  0.38529405  0.06441039  1
  Nd3+  Nd49  1  0.38278506  0.26274552  0.95256710  1
  Nd3+  Nd50  1  0.25508201  0.88317273  0.06937699  1
  Sm3+  Sm51  1  0.88554972  0.25886315  0.93989687  1
  Sm3+  Sm52  1  0.13818658  0.26213294  0.95010290  1
  Sm3+  Sm53  1  0.63092088  -0.00223503  0.45266170  1
  Sm3+  Sm54  1  0.63521647  0.76254444  0.92902495  1
  Sm3+  Sm55  1  0.76160302  0.88847420  0.05720575  1
  Sm3+  Sm56  1  0.51157328  0.13458930  0.06029670  1
  Sm3+  Sm57  1  0.37817504  0.01377868  0.95347085  1
  Sm3+  Sm58  1  0.75886622  0.64667961  0.05962572  1
  Sm3+  Sm59  1  0.88008060  0.76130391  0.43127356  1
  Sm3+  Sm60  1  0.00928129  0.38881521  0.06535023  1
  Sm3+  Sm61  1  0.38312048  0.00257357  0.44464149  1
  Sm3+  Sm62  1  0.13366956  0.76430158  0.93277739  1
  Sm3+  Sm63  1  0.25535844  0.13004619  0.56043207  1
  Bi2+  Bi64  1  -0.03807504  0.15822974  0.27958260  1
  Bi2+  Bi65  1  0.01663602  0.18861257  0.79451454  1
  Bi2+  Bi66  1  -0.02624638  0.34065657  0.32382715  1
  Bi2+  Bi67  1  -0.04509707  0.38025270  0.83493224  1
  Bi2+  Bi68  1  0.02537688  0.56123974  0.31457155  1
  Bi2+  Bi69  1  0.03089458  0.55055738  0.76684283  1
  Bi2+  Bi70  1  -0.00413565  0.75735332  0.30130136  1
  Bi2+  Bi71  1  -0.00699221  0.87417739  0.77820226  1
  Bi2+  Bi72  1  0.25478136  0.09381317  0.29576746  1
  Bi2+  Bi73  1  0.26021592  0.19116629  0.77995125  1
  Bi2+  Bi74  1  0.16496217  0.35222887  0.30796166  1
  Bi2+  Bi75  1  0.14417077  0.38636792  0.80039352  1
  Bi2+  Bi76  1  0.18286308  0.60247775  0.24136635  1
  Bi2+  Bi77  1  0.29757101  0.62547076  0.80020967  1
  Bi2+  Bi78  1  0.26122802  0.84542966  0.29063322  1
  Bi2+  Bi79  1  0.23923921  0.87211157  0.80723894  1
  Bi2+  Bi80  1  0.50305014  0.11294024  0.29604983  1
  Bi2+  Bi81  1  0.48794327  0.15648331  0.79202933  1
  Bi2+  Bi82  1  0.55370261  0.36561542  0.27028295  1
  Bi2+  Bi83  1  0.49013403  0.37243547  0.80793224  1
  Bi2+  Bi84  1  0.49106613  0.62156711  0.28689920  1
  Bi2+  Bi85  1  0.47795493  0.58097962  0.75334393  1
  Bi2+  Bi86  1  0.52053380  0.90869568  0.29543678  1
  Bi2+  Bi87  1  0.47321846  0.85650120  0.76559904  1
  Bi2+  Bi88  1  0.69170335  0.15982210  0.30857774  1
  Bi2+  Bi89  1  0.75193711  0.10854633  0.79357255  1
  Bi2+  Bi90  1  0.77966968  0.34215766  0.29217321  1
  Bi2+  Bi91  1  0.70886322  0.31123506  0.77663895  1
  Bi2+  Bi92  1  0.75767761  0.62499873  0.28167184  1
  Bi2+  Bi93  1  0.72705122  0.59556770  0.78802970  1
  Bi2+  Bi94  1  0.77460622  0.88532441  0.29319734  1
  Bi2+  Bi95  1  0.74041613  0.88038925  0.78607090  1
  Bi2+  Bi96  1  0.12153405  -0.00085344  0.21223470  1
  Bi2+  Bi97  1  0.12776476  -0.01233007  0.69434800  1
  Bi2+  Bi98  1  0.13524720  0.26747504  0.20995212  1
  Bi2+  Bi99  1  0.12611400  0.23710349  0.69892278  1
  Bi2+  Bi100  1  0.01907899  0.51269161  0.20513295  1
  Bi2+  Bi101  1  0.10678392  0.43275481  0.68577374  1
  Bi2+  Bi102  1  0.09287923  0.75995581  0.19874995  1
  Bi2+  Bi103  1  0.13346236  0.72149851  0.76407867  1
  Bi2+  Bi104  1  0.38105783  -0.00613605  0.22725981  1
  Bi2+  Bi105  1  0.35701160  0.01756057  0.76422408  1
  Bi2+  Bi106  1  0.42573617  0.25859322  0.21484987  1
  Bi2+  Bi107  1  0.36882718  0.33544305  0.72088146  1
  Bi2+  Bi108  1  0.31077547  0.45735741  0.23012414  1
  Bi2+  Bi109  1  0.28778803  0.51240761  0.70269163  1
  Bi2+  Bi110  1  0.37840222  0.79351034  0.20634133  1
  Bi2+  Bi111  1  0.36215288  0.76333153  0.68534897  1
  Bi2+  Bi112  1  0.67602592  0.01798029  0.22490242  1
  Bi2+  Bi113  1  0.60481230  0.05279869  0.72310616  1
  Bi2+  Bi114  1  0.67241090  0.22067261  0.19464783  1
  Bi2+  Bi115  1  0.60645035  0.23834241  0.68378290  1
  Bi2+  Bi116  1  0.66508322  0.49380003  0.21573473  1
  Bi2+  Bi117  1  0.62076786  0.45881693  0.71837881  1
  Bi2+  Bi118  1  0.61713986  0.75150215  0.19034160  1
  Bi2+  Bi119  1  0.59497772  0.72836855  0.71236660  1
  Bi2+  Bi120  1  0.87639101  0.01434749  0.21890578  1
  Bi2+  Bi121  1  0.86648503  0.05262744  0.70989438  1
  Bi2+  Bi122  1  0.86635180  0.20156830  0.18067436  1
  Bi2+  Bi123  1  0.89164783  0.30430380  0.73627074  1
  Bi2+  Bi124  1  0.84503351  0.42089815  0.19090306  1
  Bi2+  Bi125  1  0.86524266  0.50406175  0.70334471  1
  Bi2+  Bi126  1  0.86296275  0.74352925  0.21746874  1
  Bi2+  Bi127  1  0.86768947  0.76889796  0.69344262  1
  S2-  S128  1  0.09770134  0.12663860  0.15148026  1
  S2-  S129  1  0.00477434  0.09534796  0.65452246  1
  S2-  S130  1  -0.00815920  0.32455907  0.15635796  1
  S2-  S131  1  -0.10695070  0.36425127  0.63933815  1
  S2-  S132  1  -0.03376584  0.65165429  0.15147834  1
  S2-  S133  1  -0.06601509  0.63408880  0.64436173  1
  S2-  S134  1  0.02347788  0.89505988  0.15267167  1
  S2-  S135  1  0.01458297  0.85948425  0.66173709  1
  S2-  S136  1  0.28637896  0.20761572  0.17831278  1
  S2-  S137  1  0.22612516  0.09162849  0.65471182  1
  S2-  S138  1  0.19048398  0.41612713  0.16428876  1
  S2-  S139  1  0.26515441  0.29404787  0.64335063  1
  S2-  S140  1  0.24489114  0.75161221  0.13984494  1
  S2-  S141  1  0.23041980  0.66141162  0.65986853  1
  S2-  S142  1  0.25098103  0.98129521  0.15416683  1
  S2-  S143  1  0.25981264  0.88353095  0.66136085  1
  S2-  S144  1  0.52525323  0.14870745  0.15743322  1
  S2-  S145  1  0.48111929  0.12055979  0.66108999  1
  S2-  S146  1  0.40409413  0.40089442  0.15197142  1
  S2-  S147  1  0.50483522  0.37402315  0.65306719  1
  S2-  S148  1  0.46036446  0.66105713  0.17224450  1
  S2-  S149  1  0.48632261  0.63797874  0.65148925  1
  S2-  S150  1  0.54421244  0.88228526  0.15419526  1
  S2-  S151  1  0.51916361  0.86464788  0.66153362  1
  S2-  S152  1  0.76422703  0.00103191  0.13661223  1
  S2-  S153  1  0.76609069  0.16624381  0.65687239  1
  S2-  S154  1  0.64139865  0.37396298  0.13961528  1
  S2-  S155  1  0.73303113  0.50100969  0.64076381  1
  S2-  S156  1  0.65445448  0.60947706  0.13700971  1
  S2-  S157  1  0.73358380  0.73269316  0.64368867  1
  S2-  S158  1  0.76323428  0.77589321  0.13427662  1
  S2-  S159  1  0.79081112  0.92402858  0.66872781  1
  S2-  S160  1  0.14411486  -0.03800055  0.32014585  1
  S2-  S161  1  0.09821444  -0.02610588  0.81946312  1
  S2-  S162  1  0.14042721  0.15146858  0.35423822  1
  S2-  S163  1  0.14687547  0.17916106  0.86336798  1
  S2-  S164  1  0.21649188  0.49569279  0.35203702  1
  S2-  S165  1  0.15871704  0.53798361  0.84912340  1
  S2-  S166  1  0.15750421  0.74891100  0.34484515  1
  S2-  S167  1  0.03680012  0.75272236  0.84971999  1
  S2-  S168  1  0.37678211  -0.08165941  0.35950015  1
  S2-  S169  1  0.30414575  0.00722330  0.86562397  1
  S2-  S170  1  0.37656667  0.20252079  0.33972084  1
  S2-  S171  1  0.37480673  0.25344882  0.85323584  1
  S2-  S172  1  0.42532895  0.44758387  0.31509465  1
  S2-  S173  1  0.40520455  0.50913845  0.85233891  1
  S2-  S174  1  0.36052295  0.65257070  0.33916267  1
  S2-  S175  1  0.37895972  0.77032422  0.84241362  1
  S2-  S176  1  0.65305193  -0.05506289  0.36104891  1
  S2-  S177  1  0.62870788  -0.11487186  0.85533798  1
  S2-  S178  1  0.64704896  0.37326771  0.35733746  1
  S2-  S179  1  0.62211103  0.14388326  0.86007506  1
  S2-  S180  1  0.62075616  0.59213474  0.34403014  1
  S2-  S181  1  0.63554293  0.39019367  0.86180186  1
  S2-  S182  1  0.52217812  0.76535180  0.34210642  1
  S2-  S183  1  0.62150550  0.64120492  0.85684109  1
  S2-  S184  1  0.90957372  -0.11157869  0.35725141  1
  S2-  S185  1  0.87465280  -0.07792723  0.84646520  1
  S2-  S186  1  0.85793527  0.12775008  0.35639306  1
  S2-  S187  1  0.88697876  0.15144235  0.86117525  1
  S2-  S188  1  0.85899807  0.52741223  0.33966471  1
  S2-  S189  1  0.85763515  0.52556110  0.84524165  1
  S2-  S190  1  0.76607826  0.74661656  0.35542620  1
  S2-  S191  1  0.81469448  0.73634169  0.81143054  1
  S2-  S192  1  0.00817397  0.12710971  0.45095852  1
  S2-  S193  1  0.01480109  0.14089160  0.96033845  1
  S2-  S194  1  0.00624628  0.37536572  0.45521207  1
  S2-  S195  1  0.01148220  0.38393945  0.96073488  1
  S2-  S196  1  0.00268239  0.63178266  0.44957448  1
  S2-  S197  1  0.00949023  0.63695428  0.94908414  1
  S2-  S198  1  0.01371078  0.88407057  0.45678436  1
  S2-  S199  1  0.01735607  0.89375694  0.94546525  1
  S2-  S200  1  0.25956880  0.12535274  0.45523473  1
  S2-  S201  1  0.26018774  0.13988543  0.97060143  1
  S2-  S202  1  0.25911680  0.37671058  0.45103444  1
  S2-  S203  1  0.25897908  0.38823516  0.96348816  1
  S2-  S204  1  0.25669161  0.62926025  0.45521254  1
  S2-  S205  1  0.25559766  0.63883738  0.95710042  1
  S2-  S206  1  0.25604386  0.88170045  0.45497480  1
  S2-  S207  1  0.25536829  0.88446755  0.96114590  1
  S2-  S208  1  0.50846905  0.12542867  0.45339121  1
  S2-  S209  1  0.50200122  0.13444235  0.95686466  1
  S2-  S210  1  0.49738072  0.37891885  0.44630135  1
  S2-  S211  1  0.50640330  0.38783958  0.96283017  1
  S2-  S212  1  0.49505752  0.62352853  0.44605960  1
  S2-  S213  1  0.50836451  0.63982495  0.96015209  1
  S2-  S214  1  0.50593654  0.87800596  0.45789973  1
  S2-  S215  1  0.50229322  0.89122733  0.95247969  1
  S2-  S216  1  0.74895622  0.12637863  0.45746158  1
  S2-  S217  1  0.75962156  0.14045275  0.96045687  1
  S2-  S218  1  0.76228290  0.37369881  0.45740424  1
  S2-  S219  1  0.76413935  0.38213707  0.95831836  1
  S2-  S220  1  0.75968514  0.62536686  0.45643781  1
  S2-  S221  1  0.76408799  0.64308752  0.95287158  1
  S2-  S222  1  0.75675265  0.87755895  0.46344294  1
  S2-  S223  1  0.76326391  0.88664263  0.95242786  1
  S2-  S224  1  0.13408820  0.01201962  0.04325370  1
  S2-  S225  1  0.13420044  0.00383226  0.54059961  1
  S2-  S226  1  0.13582360  0.26905905  0.05365090  1
  S2-  S227  1  0.13184699  0.24978751  0.54037213  1
  S2-  S228  1  0.13356719  0.51275747  0.05287137  1
  S2-  S229  1  0.13076617  0.50187857  0.54628761  1
  S2-  S230  1  0.13099630  0.76030685  0.03748491  1
  S2-  S231  1  0.13110078  0.75329661  0.55050606  1
  S2-  S232  1  0.38614357  0.01076014  0.05651637  1
  S2-  S233  1  0.38155716  0.00379687  0.54965615  1
  S2-  S234  1  0.38626441  0.25623686  0.05714128  1
  S2-  S235  1  0.38184410  0.24888305  0.54157668  1
  S2-  S236  1  0.38580839  0.51910743  0.05422130  1
  S2-  S237  1  0.37992202  0.49884809  0.55371061  1
  S2-  S238  1  0.38785453  0.76181284  0.04904076  1
  S2-  S239  1  0.37920817  0.75416481  0.54417660  1
  S2-  S240  1  0.63347804  0.01244751  0.03985983  1
  S2-  S241  1  0.63167772  -0.00109769  0.55754352  1
  S2-  S242  1  0.63485372  0.25457458  0.04101883  1
  S2-  S243  1  0.63583807  0.25339590  0.54173254  1
  S2-  S244  1  0.63866175  0.51155741  0.03631434  1
  S2-  S245  1  0.63096869  0.49965806  0.53789084  1
  S2-  S246  1  0.63471812  0.76563080  0.03477167  1
  S2-  S247  1  0.62784889  0.75099065  0.53806282  1
  S2-  S248  1  0.88806915  0.01550551  0.04045967  1
  S2-  S249  1  0.88076228  0.00180875  0.54547190  1
  S2-  S250  1  0.88421300  0.26255459  0.04512574  1
  S2-  S251  1  0.88254802  0.24624872  0.53872662  1
  S2-  S252  1  0.88110369  0.51084716  0.05134105  1
  S2-  S253  1  0.88611928  0.50001653  0.54178168  1
  S2-  S254  1  0.88558827  0.76461093  0.03550481  1
  S2-  S255  1  0.88483844  0.75476267  0.53854251  1
