# generated using pymatgen
data_La6Ce6Pr19Nd20Sm13(BiS2)64
_symmetry_space_group_name_H-M   'P 1'
_cell_length_a   16.12360323
_cell_length_b   16.12430199
_cell_length_c   27.16225026
_cell_angle_alpha   89.89981664
_cell_angle_beta   90.17316592
_cell_angle_gamma   90.03304515
_symmetry_Int_Tables_number   1
_chemical_formula_structural   La6Ce6Pr19Nd20Sm13(BiS2)64
_chemical_formula_sum   'La6 Ce6 Pr19 Nd20 Sm13 Bi64 S128'
_cell_volume   7061.64780882
_cell_formula_units_Z   1
loop_
 _symmetry_equiv_pos_site_id
 _symmetry_equiv_pos_as_xyz
  1  'x, y, z'
loop_
 _atom_type_symbol
 _atom_type_oxidation_number
  La3+  3.0
  Ce3+  3.0
  Pr3+  3.0
  Nd3+  3.0
  Sm3+  3.0
  Bi2+  2.0
  S2-  -2.0
loop_
 _atom_site_type_symbol
 _atom_site_label
 _atom_site_symmetry_multiplicity
 _atom_site_fract_x
 _atom_site_fract_y
 _atom_site_fract_z
 _atom_site_occupancy
  La3+  La0  1  0.76066790  0.86973751  0.08665520  1
  La3+  La1  1  0.62523862  0.00184195  0.41573336  1
  La3+  La2  1  0.63519174  0.26538608  0.41079222  1
  La3+  La3  1  0.00140208  0.63629645  0.56835077  1
  La3+  La4  1  0.25067613  0.36787604  0.07483612  1
  La3+  La5  1  0.74501772  0.88951757  0.59704686  1
  Ce3+  Ce6  1  0.13118842  0.26057626  0.43744714  1
  Ce3+  Ce7  1  0.00182041  0.38226639  0.55144526  1
  Ce3+  Ce8  1  0.63537633  0.00018983  0.95314771  1
  Ce3+  Ce9  1  0.38196778  0.25601147  0.93127730  1
  Ce3+  Ce10  1  0.12676316  0.51562727  0.43814252  1
  Ce3+  Ce11  1  0.25778394  0.13143782  0.56065067  1
  Pr3+  Pr12  1  0.12829772  0.76507662  0.44658636  1
  Pr3+  Pr13  1  0.37676355  0.75552752  0.94066064  1
  Pr3+  Pr14  1  0.62996597  0.74860863  0.93303324  1
  Pr3+  Pr15  1  0.49824132  0.37621256  0.07276238  1
  Pr3+  Pr16  1  0.50021731  0.88818219  0.56644722  1
  Pr3+  Pr17  1  0.63033927  0.51437606  0.42670769  1
  Pr3+  Pr18  1  0.75497615  0.62455818  0.06528633  1
  Pr3+  Pr19  1  0.87509619  0.76653387  0.45678380  1
  Pr3+  Pr20  1  0.50252884  0.63076559  0.55858075  1
  Pr3+  Pr21  1  0.00571525  0.37570539  0.06617035  1
  Pr3+  Pr22  1  0.25115943  0.62968163  0.06039173  1
  Pr3+  Pr23  1  0.87693838  0.51172629  0.44066455  1
  Pr3+  Pr24  1  0.87820924  0.25360040  0.43395691  1
  Pr3+  Pr25  1  0.37904066  0.26126487  0.43148975  1
  Pr3+  Pr26  1  0.00588722  0.88233844  0.05756027  1
  Pr3+  Pr27  1  0.37442474  0.00592724  0.43349351  1
  Pr3+  Pr28  1  0.74916762  0.13282204  0.55877688  1
  Pr3+  Pr29  1  0.37459585  0.76007398  0.44536939  1
  Pr3+  Pr30  1  0.88163341  -0.00064139  0.43676176  1
  Nd3+  Nd31  1  0.37396818  0.50101591  0.94264420  1
  Nd3+  Nd32  1  0.36612648  0.52118691  0.40752647  1
  Nd3+  Nd33  1  0.50366702  0.62758102  0.06343852  1
  Nd3+  Nd34  1  0.25242153  0.88193033  0.58511448  1
  Nd3+  Nd35  1  0.62716013  0.50345791  0.93839699  1
  Nd3+  Nd36  1  0.50384217  0.87926200  0.06235699  1
  Nd3+  Nd37  1  0.25498508  0.62724433  0.56938584  1
  Nd3+  Nd38  1  0.76334754  0.13076665  0.07956437  1
  Nd3+  Nd39  1  0.12702718  0.76308968  0.92228165  1
  Nd3+  Nd40  1  0.74975372  0.63364772  0.56098376  1
  Nd3+  Nd41  1  0.00211765  0.13597628  0.56242931  1
  Nd3+  Nd42  1  0.74838143  0.38008632  0.56223320  1
  Nd3+  Nd43  1  0.86424883  0.01186588  0.92206785  1
  Nd3+  Nd44  1  0.00597506  0.63069041  0.04970619  1
  Nd3+  Nd45  1  0.12832130  0.00735607  0.44853904  1
  Nd3+  Nd46  1  0.38134535  0.00327367  0.94133088  1
  Nd3+  Nd47  1  0.12628491  0.25212213  0.92563860  1
  Nd3+  Nd48  1  0.00541879  0.89581887  0.58518821  1
  Nd3+  Nd49  1  0.12307665  0.00942876  0.92909807  1
  Nd3+  Nd50  1  0.62668780  0.25297295  0.94477212  1
  Sm3+  Sm51  1  0.25455977  0.38657410  0.55752053  1
  Sm3+  Sm52  1  0.12767304  0.50200684  0.94150238  1
  Sm3+  Sm53  1  0.25383435  0.13111543  0.04487550  1
  Sm3+  Sm54  1  0.87891538  0.50348851  0.94448729  1
  Sm3+  Sm55  1  0.25010881  0.88168915  0.05932520  1
  Sm3+  Sm56  1  0.74841393  0.37897895  0.06764773  1
  Sm3+  Sm57  1  0.50799330  0.13832642  0.54646435  1
  Sm3+  Sm58  1  0.50238461  0.38542338  0.53900629  1
  Sm3+  Sm59  1  0.87186364  0.25606492  0.94033940  1
  Sm3+  Sm60  1  0.62794298  0.76414614  0.44675153  1
  Sm3+  Sm61  1  0.50581940  0.12765813  0.06107579  1
  Sm3+  Sm62  1  -0.00098009  0.12742133  0.05264129  1
  Sm3+  Sm63  1  0.87776022  0.75663016  0.93716443  1
  Bi2+  Bi64  1  -0.02015722  0.15419821  0.23012737  1
  Bi2+  Bi65  1  -0.01850150  0.16380736  0.78354623  1
  Bi2+  Bi66  1  0.00664631  0.39128513  0.29094979  1
  Bi2+  Bi67  1  0.05985673  0.33788676  0.80741929  1
  Bi2+  Bi68  1  -0.03391028  0.57988009  0.29541301  1
  Bi2+  Bi69  1  -0.01622795  0.51108918  0.77508163  1
  Bi2+  Bi70  1  0.03001301  0.84370482  0.29852657  1
  Bi2+  Bi71  1  0.00850711  0.82728246  0.79712006  1
  Bi2+  Bi72  1  0.23036162  0.05237134  0.27606648  1
  Bi2+  Bi73  1  0.24582563  0.12594567  0.78196587  1
  Bi2+  Bi74  1  0.20375745  0.35367240  0.29686180  1
  Bi2+  Bi75  1  0.26977098  0.31379514  0.81850022  1
  Bi2+  Bi76  1  0.21779115  0.64619571  0.29109774  1
  Bi2+  Bi77  1  0.27385353  0.50604584  0.78976381  1
  Bi2+  Bi78  1  0.22128377  0.89916133  0.34865463  1
  Bi2+  Bi79  1  0.26804215  0.84466396  0.80057560  1
  Bi2+  Bi80  1  0.41459637  0.11941259  0.29160932  1
  Bi2+  Bi81  1  0.45601375  0.12772014  0.74853737  1
  Bi2+  Bi82  1  0.52174754  0.36061187  0.27096580  1
  Bi2+  Bi83  1  0.48299200  0.34777006  0.80037367  1
  Bi2+  Bi84  1  0.54420177  0.59686308  0.30955547  1
  Bi2+  Bi85  1  0.55845475  0.52828298  0.77565862  1
  Bi2+  Bi86  1  0.39938506  0.84156378  0.31667227  1
  Bi2+  Bi87  1  0.48566641  0.89203155  0.79601417  1
  Bi2+  Bi88  1  0.78562694  0.15658959  0.27845802  1
  Bi2+  Bi89  1  0.71865155  0.14560309  0.79507164  1
  Bi2+  Bi90  1  0.76112402  0.40850196  0.27769990  1
  Bi2+  Bi91  1  0.77147269  0.36949409  0.78605372  1
  Bi2+  Bi92  1  0.72507012  0.66610884  0.29689159  1
  Bi2+  Bi93  1  0.75779800  0.62093018  0.79339431  1
  Bi2+  Bi94  1  0.78414902  0.91908546  0.30815001  1
  Bi2+  Bi95  1  0.75560309  0.88841911  0.79844362  1
  Bi2+  Bi96  1  0.07934855  -0.01835918  0.21628708  1
  Bi2+  Bi97  1  0.15268739  0.00149238  0.71347306  1
  Bi2+  Bi98  1  0.14214581  0.24730033  0.20863265  1
  Bi2+  Bi99  1  0.13017460  0.24644330  0.70644886  1
  Bi2+  Bi100  1  0.09442546  0.52282446  0.21322992  1
  Bi2+  Bi101  1  0.14402890  0.45073864  0.70786894  1
  Bi2+  Bi102  1  0.10551081  0.76495091  0.20341613  1
  Bi2+  Bi103  1  0.13292630  0.71757148  0.71720885  1
  Bi2+  Bi104  1  0.35325796  -0.03712157  0.20286176  1
  Bi2+  Bi105  1  0.37478396  -0.08639198  0.70047194  1
  Bi2+  Bi106  1  0.36417503  0.24335378  0.20613798  1
  Bi2+  Bi107  1  0.32580317  0.26342871  0.70541906  1
  Bi2+  Bi108  1  0.37548223  0.52843625  0.20950608  1
  Bi2+  Bi109  1  0.40244077  0.46288050  0.70582610  1
  Bi2+  Bi110  1  0.29552910  0.78175789  0.21875683  1
  Bi2+  Bi111  1  0.38899300  0.72456344  0.73129165  1
  Bi2+  Bi112  1  0.59514520  -0.00286547  0.22331845  1
  Bi2+  Bi113  1  0.62367680  0.03951578  0.71259836  1
  Bi2+  Bi114  1  0.62272012  0.24596292  0.20087993  1
  Bi2+  Bi115  1  0.59070945  0.27633568  0.69858144  1
  Bi2+  Bi116  1  0.62578181  0.55257492  0.20549467  1
  Bi2+  Bi117  1  0.68497042  0.46913452  0.69568403  1
  Bi2+  Bi118  1  0.56926963  0.77791693  0.27307165  1
  Bi2+  Bi119  1  0.60451060  0.74890308  0.70977041  1
  Bi2+  Bi120  1  0.86197681  -0.02317091  0.20589386  1
  Bi2+  Bi121  1  0.89479080  0.00262191  0.71619601  1
  Bi2+  Bi122  1  0.90859509  0.34077196  0.19361657  1
  Bi2+  Bi123  1  0.84237730  0.23229372  0.71260564  1
  Bi2+  Bi124  1  0.81301739  0.50827346  0.17842098  1
  Bi2+  Bi125  1  0.87754933  0.42600157  0.68985584  1
  Bi2+  Bi126  1  0.86766007  0.68967411  0.21746139  1
  Bi2+  Bi127  1  0.86905479  0.70647171  0.71016266  1
  S2-  S128  1  -0.08562947  0.10767924  0.13839781  1
  S2-  S129  1  0.00783823  0.05528959  0.65267316  1
  S2-  S130  1  0.12065002  0.38540999  0.14368338  1
  S2-  S131  1  0.02617552  0.35399929  0.64689945  1
  S2-  S132  1  0.01838405  0.63808160  0.14920811  1
  S2-  S133  1  0.01254120  0.62755705  0.66882416  1
  S2-  S134  1  -0.08911547  0.86680963  0.14299771  1
  S2-  S135  1  -0.06842960  0.85706793  0.67589129  1
  S2-  S136  1  0.24341748  0.18377431  0.13731632  1
  S2-  S137  1  0.27420390  0.03222832  0.64329782  1
  S2-  S138  1  0.37436450  0.38105337  0.14892233  1
  S2-  S139  1  0.26253159  0.49024401  0.63781155  1
  S2-  S140  1  0.25222052  0.57936773  0.15811816  1
  S2-  S141  1  0.26030473  0.71076626  0.65909280  1
  S2-  S142  1  0.13677191  0.89363632  0.13240183  1
  S2-  S143  1  0.13112525  0.86641903  0.66043926  1
  S2-  S144  1  0.48977686  0.16110796  0.15770294  1
  S2-  S145  1  0.51775746  0.13692541  0.64670839  1
  S2-  S146  1  0.59326053  0.39959296  0.15922439  1
  S2-  S147  1  0.50638754  0.38563998  0.63905587  1
  S2-  S148  1  0.48529770  0.62967769  0.16330156  1
  S2-  S149  1  0.49564676  0.65472479  0.65893361  1
  S2-  S150  1  0.49380621  0.89213419  0.16170614  1
  S2-  S151  1  0.58658632  0.89125569  0.65436792  1
  S2-  S152  1  0.69659246  0.09704768  0.17539564  1
  S2-  S153  1  0.75954518  0.03922695  0.65004916  1
  S2-  S154  1  0.76667103  0.27487216  0.14456482  1
  S2-  S155  1  0.72465097  0.25801473  0.63288750  1
  S2-  S156  1  0.74716688  0.71551524  0.14979741  1
  S2-  S157  1  0.73810781  0.62902899  0.66005983  1
  S2-  S158  1  0.70834420  0.90054984  0.18850980  1
  S2-  S159  1  0.75031148  0.82504238  0.69987031  1
  S2-  S160  1  0.06425437  -0.01916824  0.35707148  1
  S2-  S161  1  0.13145654  -0.09718318  0.85103278  1
  S2-  S162  1  0.07927261  0.25123732  0.34419438  1
  S2-  S163  1  0.11375175  0.12795158  0.85276838  1
  S2-  S164  1  0.21391172  0.50460714  0.35400849  1
  S2-  S165  1  0.11477343  0.50256368  0.84369116  1
  S2-  S166  1  0.10140656  0.70121347  0.35262776  1
  S2-  S167  1  0.13831207  0.71463942  0.82472616  1
  S2-  S168  1  0.47463488  -0.00446436  0.35038351  1
  S2-  S169  1  0.36458720  -0.02480503  0.84393734  1
  S2-  S170  1  0.32026114  0.25641858  0.33631649  1
  S2-  S171  1  0.45620652  0.20065276  0.84802731  1
  S2-  S172  1  0.41206833  0.47445032  0.31007687  1
  S2-  S173  1  0.42095844  0.50733411  0.84658689  1
  S2-  S174  1  0.35638440  0.67543659  0.35696702  1
  S2-  S175  1  0.40075374  0.74661041  0.84061402  1
  S2-  S176  1  0.66937846  0.04965789  0.31643082  1
  S2-  S177  1  0.70438892  0.01452062  0.86312974  1
  S2-  S178  1  0.54644890  0.22585109  0.32286692  1
  S2-  S179  1  0.66575068  0.28809428  0.84960689  1
  S2-  S180  1  0.63179567  0.41188106  0.34416674  1
  S2-  S181  1  0.63293242  0.61035846  0.85959436  1
  S2-  S182  1  0.64499129  0.84509512  0.35952994  1
  S2-  S183  1  0.63075927  0.81609004  0.83691381  1
  S2-  S184  1  0.87100178  0.06144844  0.33976476  1
  S2-  S185  1  0.91693836  -0.04616645  0.82706300  1
  S2-  S186  1  0.78773519  0.27438195  0.34832176  1
  S2-  S187  1  0.85916733  0.16229076  0.85777668  1
  S2-  S188  1  0.81222735  0.52905640  0.34676560  1
  S2-  S189  1  0.84900017  0.49986373  0.84754178  1
  S2-  S190  1  0.89090530  0.84098806  0.36619001  1
  S2-  S191  1  0.87121544  0.73667013  0.83752686  1
  S2-  S192  1  0.00457573  0.13334781  0.45609322  1
  S2-  S193  1  -0.00510724  0.13156947  0.95095706  1
  S2-  S194  1  0.00168862  0.38539282  0.44570959  1
  S2-  S195  1  0.00108915  0.37808631  0.95274848  1
  S2-  S196  1  -0.00146343  0.63788198  0.45971963  1
  S2-  S197  1  0.00308673  0.62828364  0.94312467  1
  S2-  S198  1  0.00598432  0.88433238  0.47413306  1
  S2-  S199  1  -0.00096186  0.88058172  0.94992590  1
  S2-  S200  1  0.25309970  0.13376088  0.45135168  1
  S2-  S201  1  0.25858625  0.12932439  0.94238459  1
  S2-  S202  1  0.25391762  0.38635624  0.45322137  1
  S2-  S203  1  0.24891412  0.37675391  0.95359258  1
  S2-  S204  1  0.24916815  0.63466527  0.46152752  1
  S2-  S205  1  0.24977854  0.62903748  0.94872409  1
  S2-  S206  1  0.25418369  0.88561153  0.47234458  1
  S2-  S207  1  0.25251649  0.88181131  0.95539481  1
  S2-  S208  1  0.50372977  0.13560711  0.44322674  1
  S2-  S209  1  0.50801233  0.12410527  0.95757375  1
  S2-  S210  1  0.49319520  0.39536997  0.43639123  1
  S2-  S211  1  0.50402149  0.38113191  0.95739308  1
  S2-  S212  1  0.50569854  0.63718069  0.45130318  1
  S2-  S213  1  0.49842623  0.62710665  0.95743262  1
  S2-  S214  1  0.50148224  0.88202431  0.45936932  1
  S2-  S215  1  0.50493704  0.87762953  0.95487532  1
  S2-  S216  1  0.75228337  0.12903968  0.44930861  1
  S2-  S217  1  0.75099240  0.13482159  0.96688228  1
  S2-  S218  1  0.75494410  0.38769036  0.45545422  1
  S2-  S219  1  0.75316002  0.38202622  0.96008812  1
  S2-  S220  1  0.75082408  0.63940700  0.45472105  1
  S2-  S221  1  0.75872392  0.62683520  0.95786155  1
  S2-  S222  1  0.74844527  0.88725762  0.46547631  1
  S2-  S223  1  0.75515313  0.87255164  0.95489325  1
  S2-  S224  1  0.12887184  0.01287673  0.03615964  1
  S2-  S225  1  0.13047408  0.01259258  0.55218577  1
  S2-  S226  1  0.12350670  0.24836613  0.03414374  1
  S2-  S227  1  0.13231645  0.25860628  0.54554769  1
  S2-  S228  1  0.12926686  0.50416749  0.04420326  1
  S2-  S229  1  0.12445523  0.50678620  0.54466420  1
  S2-  S230  1  0.13040612  0.75442634  0.03472242  1
  S2-  S231  1  0.12901657  0.75681735  0.55437101  1
  S2-  S232  1  0.37665582  0.00520682  0.04903198  1
  S2-  S233  1  0.38411996  0.01465268  0.54111177  1
  S2-  S234  1  0.38191907  0.24954787  0.03933845  1
  S2-  S235  1  0.37850839  0.26152745  0.54113859  1
  S2-  S236  1  0.37548673  0.50476047  0.04763651  1
  S2-  S237  1  0.38020981  0.50708578  0.53641317  1
  S2-  S238  1  0.37485375  0.75678868  0.05053223  1
  S2-  S239  1  0.37786868  0.75881295  0.55332170  1
  S2-  S240  1  0.63132543  0.00246767  0.05864067  1
  S2-  S241  1  0.62299442  0.01122766  0.54401867  1
  S2-  S242  1  0.62513215  0.25441283  0.05072442  1
  S2-  S243  1  0.62318086  0.26330541  0.52523160  1
  S2-  S244  1  0.62683172  0.50251693  0.04601697  1
  S2-  S245  1  0.62823121  0.50735297  0.53902758  1
  S2-  S246  1  0.62564376  0.75351306  0.04644729  1
  S2-  S247  1  0.62777934  0.75950258  0.55177482  1
  S2-  S248  1  0.87683038  0.00184293  0.03652392  1
  S2-  S249  1  0.87933224  0.00981928  0.54776951  1
  S2-  S250  1  0.88051871  0.25791271  0.04296174  1
  S2-  S251  1  0.87807179  0.25839122  0.54192100  1
  S2-  S252  1  0.88293183  0.49974354  0.04860273  1
  S2-  S253  1  0.87401285  0.50790460  0.54986055  1
  S2-  S254  1  0.88017053  0.74914784  0.04137726  1
  S2-  S255  1  0.87137448  0.76235769  0.56287006  1
