# generated using pymatgen
data_La6Ce6Pr19Nd20Sm13(BiS2)64
_symmetry_space_group_name_H-M   'P 1'
_cell_length_a   16.01604834
_cell_length_b   16.01117300
_cell_length_c   27.42621472
_cell_angle_alpha   90.25511475
_cell_angle_beta   89.45063103
_cell_angle_gamma   90.06758410
_symmetry_Int_Tables_number   1
_chemical_formula_structural   La6Ce6Pr19Nd20Sm13(BiS2)64
_chemical_formula_sum   'La6 Ce6 Pr19 Nd20 Sm13 Bi64 S128'
_cell_volume   7032.66358618
_cell_formula_units_Z   1
loop_
 _symmetry_equiv_pos_site_id
 _symmetry_equiv_pos_as_xyz
  1  'x, y, z'
loop_
 _atom_type_symbol
 _atom_type_oxidation_number
  La3+  3.0
  Ce3+  3.0
  Pr3+  3.0
  Nd3+  3.0
  Sm3+  3.0
  Bi2+  2.0
  S2-  -2.0
loop_
 _atom_site_type_symbol
 _atom_site_label
 _atom_site_symmetry_multiplicity
 _atom_site_fract_x
 _atom_site_fract_y
 _atom_site_fract_z
 _atom_site_occupancy
  La3+  La0  1  0.88457181  0.24780044  0.90266405  1
  La3+  La1  1  0.63563613  0.24178745  0.91661834  1
  La3+  La2  1  0.11517440  -0.01056439  0.38976015  1
  La3+  La3  1  0.49448525  0.38433332  0.61978157  1
  La3+  La4  1  0.60705962  -0.01905270  0.44156105  1
  La3+  La5  1  0.47731382  0.11242703  0.58556831  1
  Ce3+  Ce6  1  0.35766200  0.23241982  0.45054808  1
  Ce3+  Ce7  1  0.14071157  0.24586276  0.92898417  1
  Ce3+  Ce8  1  0.00622578  0.12547668  0.06271629  1
  Ce3+  Ce9  1  0.00886104  0.62582701  0.05968798  1
  Ce3+  Ce10  1  0.48316296  0.86205542  0.56952656  1
  Ce3+  Ce11  1  0.10654378  0.48028202  0.44680175  1
  Pr3+  Pr12  1  0.75727946  0.62052383  0.06917605  1
  Pr3+  Pr13  1  0.10656626  0.73447520  0.43233606  1
  Pr3+  Pr14  1  0.60843822  0.73528588  0.44358413  1
  Pr3+  Pr15  1  0.61504257  0.48011269  0.42799789  1
  Pr3+  Pr16  1  0.22461826  0.60943227  0.56435766  1
  Pr3+  Pr17  1  0.85316472  -0.01909639  0.42308281  1
  Pr3+  Pr18  1  0.75738487  0.11936776  0.08588745  1
  Pr3+  Pr19  1  0.25691748  0.13440477  0.07616322  1
  Pr3+  Pr20  1  0.51132776  0.13299920  0.06237215  1
  Pr3+  Pr21  1  0.89073079  0.74987719  0.92982678  1
  Pr3+  Pr22  1  0.60702073  0.23222638  0.44246020  1
  Pr3+  Pr23  1  0.88953521  0.49951923  0.93036478  1
  Pr3+  Pr24  1  0.85248418  0.73492066  0.42561250  1
  Pr3+  Pr25  1  0.35787603  0.48039971  0.44044180  1
  Pr3+  Pr26  1  0.14797102  0.50139941  0.93089821  1
  Pr3+  Pr27  1  0.26159251  0.62427707  0.06646219  1
  Pr3+  Pr28  1  0.26593828  0.88312488  0.08358766  1
  Pr3+  Pr29  1  0.76409908  0.37052483  0.05813744  1
  Pr3+  Pr30  1  0.38355542  0.23834522  0.92143778  1
  Nd3+  Nd31  1  0.23563339  0.36043078  0.57115439  1
  Nd3+  Nd32  1  0.13745380  -0.00011892  0.95140863  1
  Nd3+  Nd33  1  0.38640543  -0.00550134  0.93749614  1
  Nd3+  Nd34  1  0.10998715  0.24046829  0.43266037  1
  Nd3+  Nd35  1  0.00641939  0.86839132  0.07137377  1
  Nd3+  Nd36  1  0.64088570  -0.00138518  0.93366044  1
  Nd3+  Nd37  1  -0.01899153  0.10802818  0.54761475  1
  Nd3+  Nd38  1  -0.02297149  0.35310724  0.56598866  1
  Nd3+  Nd39  1  0.22961396  0.10916632  0.56309093  1
  Nd3+  Nd40  1  0.74122902  0.86536383  0.57433086  1
  Nd3+  Nd41  1  -0.03360490  0.60979262  0.56362645  1
  Nd3+  Nd42  1  0.51733005  0.88166607  0.06542304  1
  Nd3+  Nd43  1  0.85892813  0.47775309  0.43898526  1
  Nd3+  Nd44  1  0.51402988  0.62430806  0.05979629  1
  Nd3+  Nd45  1  0.85610449  0.22687445  0.42208834  1
  Nd3+  Nd46  1  0.89044005  0.00043332  0.93451329  1
  Nd3+  Nd47  1  -0.02098668  0.86051496  0.54952887  1
  Nd3+  Nd48  1  0.14085289  0.75348765  0.94883487  1
  Nd3+  Nd49  1  0.00849403  0.37095854  0.04953939  1
  Nd3+  Nd50  1  0.63916136  0.75150377  0.93425978  1
  Sm3+  Sm51  1  0.63905299  0.49787999  0.93998969  1
  Sm3+  Sm52  1  0.26014702  0.37235360  0.05781448  1
  Sm3+  Sm53  1  0.22864154  0.85938504  0.55808258  1
  Sm3+  Sm54  1  0.35485673  0.73392493  0.44836719  1
  Sm3+  Sm55  1  0.76319072  0.87392008  0.05717842  1
  Sm3+  Sm56  1  0.51306016  0.36705372  0.05317331  1
  Sm3+  Sm57  1  0.38958603  0.49843019  0.94655057  1
  Sm3+  Sm58  1  0.35299893  -0.01721030  0.44082497  1
  Sm3+  Sm59  1  0.72421808  0.60203712  0.56027474  1
  Sm3+  Sm60  1  0.38779496  0.75416875  0.95084971  1
  Sm3+  Sm61  1  0.73281141  0.11374108  0.56305046  1
  Sm3+  Sm62  1  0.72899700  0.35058037  0.56439106  1
  Sm3+  Sm63  1  0.48163350  0.60698042  0.55254764  1
  Bi2+  Bi64  1  -0.00589417  0.16457889  0.28677664  1
  Bi2+  Bi65  1  0.02215689  0.10747765  0.78494173  1
  Bi2+  Bi66  1  0.00164379  0.43515110  0.29781886  1
  Bi2+  Bi67  1  0.00889671  0.37347137  0.78197300  1
  Bi2+  Bi68  1  -0.01373534  0.63378436  0.30372711  1
  Bi2+  Bi69  1  -0.07059871  0.62515225  0.81901677  1
  Bi2+  Bi70  1  0.00507090  0.82714912  0.27583166  1
  Bi2+  Bi71  1  0.00600460  0.79967238  0.78431910  1
  Bi2+  Bi72  1  0.24460561  0.19471441  0.26912764  1
  Bi2+  Bi73  1  0.16759724  0.14128447  0.70856546  1
  Bi2+  Bi74  1  0.27064777  0.38473647  0.29671228  1
  Bi2+  Bi75  1  0.23516817  0.40525241  0.79759571  1
  Bi2+  Bi76  1  0.23372725  0.62033938  0.29918353  1
  Bi2+  Bi77  1  0.28311323  0.73362715  0.79324038  1
  Bi2+  Bi78  1  0.26678287  0.85748151  0.28435004  1
  Bi2+  Bi79  1  0.24286151  0.92798120  0.80601770  1
  Bi2+  Bi80  1  0.49542477  0.19448021  0.30295190  1
  Bi2+  Bi81  1  0.48765670  0.12923224  0.78700653  1
  Bi2+  Bi82  1  0.46659677  0.35070685  0.22240837  1
  Bi2+  Bi83  1  0.46165065  0.42644543  0.81592023  1
  Bi2+  Bi84  1  0.55783990  0.58588334  0.29296560  1
  Bi2+  Bi85  1  0.55181496  0.67501354  0.78843823  1
  Bi2+  Bi86  1  0.58964030  0.84769679  0.32023504  1
  Bi2+  Bi87  1  0.50341343  0.87056017  0.79344733  1
  Bi2+  Bi88  1  0.73581678  0.11244451  0.29034778  1
  Bi2+  Bi89  1  0.75242105  0.12137112  0.78360908  1
  Bi2+  Bi90  1  0.71010451  0.37903354  0.29140445  1
  Bi2+  Bi91  1  0.76565716  0.49898635  0.78639597  1
  Bi2+  Bi92  1  0.78542817  0.62571548  0.28776559  1
  Bi2+  Bi93  1  0.74620597  0.69040431  0.82352353  1
  Bi2+  Bi94  1  0.79537641  0.84551049  0.26313844  1
  Bi2+  Bi95  1  0.77540618  0.89975214  0.79269093  1
  Bi2+  Bi96  1  0.14037594  0.00005054  0.20138668  1
  Bi2+  Bi97  1  0.09682684  -0.06092187  0.72042365  1
  Bi2+  Bi98  1  0.12737142  0.28622262  0.19303726  1
  Bi2+  Bi99  1  0.14215822  0.33574580  0.69047071  1
  Bi2+  Bi100  1  0.15458799  0.48733333  0.22170191  1
  Bi2+  Bi101  1  0.13175995  0.53126171  0.71511061  1
  Bi2+  Bi102  1  0.14744631  0.68382623  0.20394164  1
  Bi2+  Bi103  1  0.16411909  0.74031278  0.70173776  1
  Bi2+  Bi104  1  0.46150525  -0.00238355  0.30567628  1
  Bi2+  Bi105  1  0.36405912  -0.03810159  0.71743257  1
  Bi2+  Bi106  1  0.39148486  0.10991031  0.21673257  1
  Bi2+  Bi107  1  0.34201941  0.23603968  0.71788905  1
  Bi2+  Bi108  1  0.43979674  0.54159803  0.20205840  1
  Bi2+  Bi109  1  0.39243119  0.60024481  0.73369564  1
  Bi2+  Bi110  1  0.42271024  0.71936025  0.25972603  1
  Bi2+  Bi111  1  0.43482575  0.77928240  0.69424434  1
  Bi2+  Bi112  1  0.59442415  -0.03929317  0.21302377  1
  Bi2+  Bi113  1  0.63580010  -0.03082399  0.72062266  1
  Bi2+  Bi114  1  0.62493143  0.21756517  0.21419812  1
  Bi2+  Bi115  1  0.64023563  0.29415655  0.71685333  1
  Bi2+  Bi116  1  0.63718171  0.48716806  0.20275032  1
  Bi2+  Bi117  1  0.64760770  0.57829188  0.69697264  1
  Bi2+  Bi118  1  0.61470103  0.76315803  0.20737313  1
  Bi2+  Bi119  1  0.63460668  0.77810584  0.68432490  1
  Bi2+  Bi120  1  0.86526609  0.00920619  0.21188159  1
  Bi2+  Bi121  1  0.89259428  -0.00953716  0.69182414  1
  Bi2+  Bi122  1  0.87154420  0.27512062  0.20532983  1
  Bi2+  Bi123  1  0.87848178  0.24659104  0.70682548  1
  Bi2+  Bi124  1  0.89939964  0.54602355  0.20618925  1
  Bi2+  Bi125  1  0.91699454  0.54134534  0.71143976  1
  Bi2+  Bi126  1  0.83314131  0.72664348  0.17778830  1
  Bi2+  Bi127  1  0.82652553  0.75592161  0.71730536  1
  S2-  S128  1  0.11293271  0.13385871  0.14433857  1
  S2-  S129  1  -0.04055278  0.13703348  0.64696014  1
  S2-  S130  1  -0.01963669  0.36178785  0.14978864  1
  S2-  S131  1  -0.08997153  0.38425185  0.65693124  1
  S2-  S132  1  0.00125060  0.72240051  0.14166961  1
  S2-  S133  1  0.03982200  0.63767076  0.65196566  1
  S2-  S134  1  0.00581458  0.93678677  0.16364391  1
  S2-  S135  1  -0.11115631  0.85195695  0.63643833  1
  S2-  S136  1  0.29803948  0.02026880  0.15191287  1
  S2-  S137  1  0.31917541  0.10899059  0.64930257  1
  S2-  S138  1  0.26782785  0.28440259  0.14187165  1
  S2-  S139  1  0.32719161  0.36386684  0.65701697  1
  S2-  S140  1  0.27917710  0.56393734  0.15874437  1
  S2-  S141  1  0.26445794  0.59761124  0.66149188  1
  S2-  S142  1  0.22599389  0.82697007  0.18065504  1
  S2-  S143  1  0.23865736  0.87644964  0.65596833  1
  S2-  S144  1  0.60539111  0.09007452  0.14573426  1
  S2-  S145  1  0.51780175  0.21823526  0.66694269  1
  S2-  S146  1  0.50131826  0.27465141  0.13563515  1
  S2-  S147  1  0.51069830  0.39124032  0.72864795  1
  S2-  S148  1  0.61865682  0.63794907  0.13824802  1
  S2-  S149  1  0.49359174  0.56025737  0.64605083  1
  S2-  S150  1  0.48528524  0.86249924  0.16293437  1
  S2-  S151  1  0.49281355  0.97032571  0.64845742  1
  S2-  S152  1  0.90208956  0.13792256  0.14633034  1
  S2-  S153  1  0.74684087  0.22847845  0.64143873  1
  S2-  S154  1  0.74462164  0.27257692  0.14446991  1
  S2-  S155  1  0.66792992  0.42311967  0.64799976  1
  S2-  S156  1  0.77886160  0.48927871  0.14021446  1
  S2-  S157  1  0.82143432  0.61989062  0.64016434  1
  S2-  S158  1  0.76366423  0.95707544  0.14419064  1
  S2-  S159  1  0.74361686  1.00456268  0.64268695  1
  S2-  S160  1  0.04919020  -0.00601933  0.29036808  1
  S2-  S161  1  0.12893435  0.02128968  0.85227093  1
  S2-  S162  1  0.12746576  0.15481884  0.34639638  1
  S2-  S163  1  0.03871917  0.24556520  0.84616683  1
  S2-  S164  1  0.12816769  0.38740032  0.36502142  1
  S2-  S165  1  0.10095555  0.50181522  0.83374564  1
  S2-  S166  1  0.13027175  0.82208385  0.34543736  1
  S2-  S167  1  0.13870070  0.75334156  0.84984171  1
  S2-  S168  1  0.28276706  -0.01617906  0.34935498  1
  S2-  S169  1  0.38103909  0.08844561  0.85235086  1
  S2-  S170  1  0.34362978  0.25017221  0.35352744  1
  S2-  S171  1  0.25430954  0.27101969  0.85177072  1
  S2-  S172  1  0.34623192  0.51568662  0.34122746  1
  S2-  S173  1  0.32031002  0.51833407  0.85840160  1
  S2-  S174  1  0.35117527  0.75332268  0.35095426  1
  S2-  S175  1  0.37173759  0.84886839  0.86841536  1
  S2-  S176  1  0.69433540  -0.01702275  0.35346547  1
  S2-  S177  1  0.61852610  0.09005414  0.84650936  1
  S2-  S178  1  0.71067750  0.24000463  0.35740719  1
  S2-  S179  1  0.50250711  0.27156763  0.84488735  1
  S2-  S180  1  0.56450422  0.42868780  0.33413273  1
  S2-  S181  1  0.61872859  0.47954050  0.84350285  1
  S2-  S182  1  0.71000272  0.72880217  0.36090180  1
  S2-  S183  1  0.63433444  0.87085519  0.85991459  1
  S2-  S184  1  0.87789555  0.09812926  0.34663878  1
  S2-  S185  1  0.88903181  0.09199727  0.84508269  1
  S2-  S186  1  0.92583329  0.30511262  0.33630199  1
  S2-  S187  1  0.74348258  0.25848497  0.83238299  1
  S2-  S188  1  0.76239599  0.48961505  0.35646424  1
  S2-  S189  1  0.88425350  0.40426610  0.84460643  1
  S2-  S190  1  0.88552239  0.85429068  0.34937147  1
  S2-  S191  1  0.90728628  0.87577115  0.85746142  1
  S2-  S192  1  -0.00744555  0.10477521  0.44522743  1
  S2-  S193  1  0.01291145  0.12493843  0.95544434  1
  S2-  S194  1  -0.01874869  0.35646426  0.45875703  1
  S2-  S195  1  0.01876177  0.37891704  0.94656600  1
  S2-  S196  1  -0.02054191  0.60870274  0.45253383  1
  S2-  S197  1  0.01805792  0.62464791  0.95329751  1
  S2-  S198  1  -0.00947769  0.86586202  0.44750912  1
  S2-  S199  1  0.01416868  0.87189241  0.96300491  1
  S2-  S200  1  0.22931849  0.10545774  0.45770821  1
  S2-  S201  1  0.26171222  0.12053815  0.96041741  1
  S2-  S202  1  0.23427084  0.35918157  0.46565245  1
  S2-  S203  1  0.26597708  0.37701271  0.95605850  1
  S2-  S204  1  0.23075290  0.60914336  0.45623600  1
  S2-  S205  1  0.26721882  0.62905263  0.96037565  1
  S2-  S206  1  0.23111997  0.85839213  0.45579370  1
  S2-  S207  1  0.26271504  0.87454761  0.97211521  1
  S2-  S208  1  0.47862136  0.10534631  0.45313370  1
  S2-  S209  1  0.51111454  0.11953600  0.95565490  1
  S2-  S210  1  0.48265474  0.35763223  0.44655071  1
  S2-  S211  1  0.51170487  0.37685631  0.95108764  1
  S2-  S212  1  0.48179731  0.60996649  0.44792905  1
  S2-  S213  1  0.51121735  0.62675111  0.95284420  1
  S2-  S214  1  0.47687408  0.85722141  0.45880481  1
  S2-  S215  1  0.51326602  0.87268748  0.96096073  1
  S2-  S216  1  0.73324325  0.10696991  0.45842576  1
  S2-  S217  1  0.76487285  0.12330497  0.94453080  1
  S2-  S218  1  0.73451043  0.35647943  0.45888289  1
  S2-  S219  1  0.76089624  0.37635294  0.94899547  1
  S2-  S220  1  0.73272973  0.60613403  0.45905064  1
  S2-  S221  1  0.76106335  0.62351273  0.95466815  1
  S2-  S222  1  0.73314329  0.85902523  0.46341576  1
  S2-  S223  1  0.76562830  0.87191282  0.95545804  1
  S2-  S224  1  0.13408194  -0.00603326  0.05471077  1
  S2-  S225  1  0.10528129  -0.01757489  0.55908144  1
  S2-  S226  1  0.13559643  0.25279857  0.03720746  1
  S2-  S227  1  0.10776775  0.23574490  0.54714771  1
  S2-  S228  1  0.13725515  0.49955910  0.04625289  1
  S2-  S229  1  0.09977088  0.48275062  0.55315708  1
  S2-  S230  1  0.14147907  0.75139380  0.05331295  1
  S2-  S231  1  0.10307706  0.73500927  0.54140931  1
  S2-  S232  1  0.39113030  0.00133607  0.04660082  1
  S2-  S233  1  0.35401940  -0.01875693  0.54530143  1
  S2-  S234  1  0.38299183  0.25188221  0.03403041  1
  S2-  S235  1  0.35728710  0.23552167  0.55250140  1
  S2-  S236  1  0.38973127  0.49543004  0.04995395  1
  S2-  S237  1  0.35656990  0.48702354  0.54767946  1
  S2-  S238  1  0.38929321  0.75078217  0.05578288  1
  S2-  S239  1  0.35543404  0.73388912  0.55254160  1
  S2-  S240  1  0.64201596  -0.00125213  0.03936921  1
  S2-  S241  1  0.60757632  -0.01467534  0.54740557  1
  S2-  S242  1  0.63856240  0.24859968  0.03385554  1
  S2-  S243  1  0.60214938  0.23196993  0.54728697  1
  S2-  S244  1  0.63190738  0.49465098  0.04263772  1
  S2-  S245  1  0.60196686  0.48120636  0.53903937  1
  S2-  S246  1  0.63762476  0.75304063  0.04020060  1
  S2-  S247  1  0.60719647  0.73348967  0.55023659  1
  S2-  S248  1  0.88658434  -0.00423650  0.04208504  1
  S2-  S249  1  0.85768838  -0.01295017  0.53455022  1
  S2-  S250  1  0.88562654  0.24742648  0.03857682  1
  S2-  S251  1  0.85813484  0.23283136  0.53500444  1
  S2-  S252  1  0.88911340  0.50201070  0.03735723  1
  S2-  S253  1  0.85132250  0.47866992  0.54369615  1
  S2-  S254  1  0.88176387  0.74601456  0.03870992  1
  S2-  S255  1  0.85155851  0.73295089  0.53481003  1
