# generated using pymatgen
data_La6Ce6Pr19Nd20Sm13(BiS2)64
_symmetry_space_group_name_H-M   'P 1'
_cell_length_a   16.11483457
_cell_length_b   16.15518120
_cell_length_c   27.17723491
_cell_angle_alpha   90.01940083
_cell_angle_beta   89.94112249
_cell_angle_gamma   89.94576661
_symmetry_Int_Tables_number   1
_chemical_formula_structural   La6Ce6Pr19Nd20Sm13(BiS2)64
_chemical_formula_sum   'La6 Ce6 Pr19 Nd20 Sm13 Bi64 S128'
_cell_volume   7075.26163936
_cell_formula_units_Z   1
loop_
 _symmetry_equiv_pos_site_id
 _symmetry_equiv_pos_as_xyz
  1  'x, y, z'
loop_
 _atom_type_symbol
 _atom_type_oxidation_number
  La3+  3.0
  Ce3+  3.0
  Pr3+  3.0
  Nd3+  3.0
  Sm3+  3.0
  Bi2+  2.0
  S2-  -2.0
loop_
 _atom_site_type_symbol
 _atom_site_label
 _atom_site_symmetry_multiplicity
 _atom_site_fract_x
 _atom_site_fract_y
 _atom_site_fract_z
 _atom_site_occupancy
  La3+  La0  1  0.50695235  0.61355752  0.09202358  1
  La3+  La1  1  0.61123863  0.00796039  0.42720848  1
  La3+  La2  1  0.37627873  -0.00656909  0.93938147  1
  La3+  La3  1  0.88221633  0.00591330  0.89714155  1
  La3+  La4  1  0.62062662  0.50192676  0.91790547  1
  La3+  La5  1  0.62081299  -0.00546735  0.92072900  1
  Ce3+  Ce6  1  0.48762205  0.87505607  0.56395574  1
  Ce3+  Ce7  1  0.11204869  0.50246513  0.43444176  1
  Ce3+  Ce8  1  0.73661624  0.62784287  0.56376232  1
  Ce3+  Ce9  1  0.73631678  0.37913733  0.56051950  1
  Ce3+  Ce10  1  0.86343987  0.00274061  0.44382727  1
  Ce3+  Ce11  1  -0.00079804  0.62243902  0.06091180  1
  Pr3+  Pr12  1  0.87960375  0.74837788  0.93319331  1
  Pr3+  Pr13  1  0.11320257  0.74624298  0.42016062  1
  Pr3+  Pr14  1  0.86078907  0.49890624  0.44319212  1
  Pr3+  Pr15  1  0.37798573  0.74407331  0.96072772  1
  Pr3+  Pr16  1  0.87996808  0.25000710  0.93341986  1
  Pr3+  Pr17  1  0.61214038  0.75279047  0.44141254  1
  Pr3+  Pr18  1  0.75059337  0.12178724  0.05538870  1
  Pr3+  Pr19  1  0.23860260  0.37813585  0.55010701  1
  Pr3+  Pr20  1  0.36416701  0.24889487  0.43848234  1
  Pr3+  Pr21  1  0.23472823  0.62665223  0.55887673  1
  Pr3+  Pr22  1  0.25354321  0.87649818  0.07699530  1
  Pr3+  Pr23  1  -0.00251292  0.37663605  0.06072785  1
  Pr3+  Pr24  1  0.23853070  0.87102816  0.55699803  1
  Pr3+  Pr25  1  0.61966679  0.74778965  0.93192095  1
  Pr3+  Pr26  1  0.11355886  0.00188613  0.43865629  1
  Pr3+  Pr27  1  0.47874318  0.61563671  0.59623609  1
  Pr3+  Pr28  1  0.37773720  0.24708976  0.94204050  1
  Pr3+  Pr29  1  0.37406548  0.50252863  0.93819576  1
  Pr3+  Pr30  1  0.36597280  0.50255459  0.43213765  1
  Nd3+  Nd31  1  -0.01041703  0.87670750  0.55823735  1
  Nd3+  Nd32  1  -0.01256319  0.12465417  0.56502234  1
  Nd3+  Nd33  1  0.87505505  0.50033197  0.92649265  1
  Nd3+  Nd34  1  0.74888084  0.62471927  0.05424065  1
  Nd3+  Nd35  1  0.72752836  0.12484810  0.57601689  1
  Nd3+  Nd36  1  0.86277430  0.75204430  0.44057366  1
  Nd3+  Nd37  1  0.12890490  -0.00466777  0.93417120  1
  Nd3+  Nd38  1  0.00089401  0.87623473  0.05955037  1
  Nd3+  Nd39  1  0.24325318  0.62201895  0.08123600  1
  Nd3+  Nd40  1  0.11292813  0.25011165  0.44635754  1
  Nd3+  Nd41  1  0.36755688  0.75268039  0.43522412  1
  Nd3+  Nd42  1  0.51456970  0.87869597  0.07761356  1
  Nd3+  Nd43  1  0.25012760  0.12106215  0.06435788  1
  Nd3+  Nd44  1  0.12800478  0.74733453  0.94524519  1
  Nd3+  Nd45  1  0.50184057  0.12245116  0.06426936  1
  Nd3+  Nd46  1  0.48198220  0.12601297  0.57072725  1
  Nd3+  Nd47  1  0.75008649  0.37602477  0.04945179  1
  Nd3+  Nd48  1  0.73383498  0.87644085  0.55966903  1
  Nd3+  Nd49  1  0.62776640  0.24390322  0.94027683  1
  Nd3+  Nd50  1  0.12583461  0.24706911  0.94076922  1
  Sm3+  Sm51  1  0.75108342  0.87559159  0.04407008  1
  Sm3+  Sm52  1  0.36269472  0.00110341  0.44576756  1
  Sm3+  Sm53  1  0.24086869  0.12599542  0.56567772  1
  Sm3+  Sm54  1  -0.01095686  0.37607126  0.55811596  1
  Sm3+  Sm55  1  -0.01164755  0.62785398  0.55357710  1
  Sm3+  Sm56  1  -0.00003947  0.12286746  0.05426794  1
  Sm3+  Sm57  1  0.86159788  0.24922728  0.45353881  1
  Sm3+  Sm58  1  0.61351020  0.24817627  0.44575832  1
  Sm3+  Sm59  1  0.61331502  0.50302761  0.44404943  1
  Sm3+  Sm60  1  0.24989936  0.37382998  0.05510442  1
  Sm3+  Sm61  1  0.48767852  0.37965217  0.55474743  1
  Sm3+  Sm62  1  0.49875845  0.37418507  0.05889161  1
  Sm3+  Sm63  1  0.12914871  0.50010518  0.93593077  1
  Bi2+  Bi64  1  0.00556061  0.15011165  0.24746074  1
  Bi2+  Bi65  1  0.02518255  0.13010425  0.78327199  1
  Bi2+  Bi66  1  0.00922937  0.33577590  0.30312835  1
  Bi2+  Bi67  1  -0.02052919  0.38885496  0.82889255  1
  Bi2+  Bi68  1  -0.05724949  0.65064209  0.27882824  1
  Bi2+  Bi69  1  0.00171771  0.58347919  0.81084882  1
  Bi2+  Bi70  1  -0.00513870  0.90244877  0.30940951  1
  Bi2+  Bi71  1  0.09703627  0.87767657  0.77582681  1
  Bi2+  Bi72  1  0.25285383  0.17721690  0.29522484  1
  Bi2+  Bi73  1  0.26834709  0.12424644  0.79271132  1
  Bi2+  Bi74  1  0.20568104  0.37195464  0.28394587  1
  Bi2+  Bi75  1  0.17227307  0.38501967  0.80050046  1
  Bi2+  Bi76  1  0.22783609  0.56995514  0.27819448  1
  Bi2+  Bi77  1  0.23336691  0.66133714  0.81012235  1
  Bi2+  Bi78  1  0.26001715  0.90479587  0.30787543  1
  Bi2+  Bi79  1  0.26181412  0.93681696  0.82865111  1
  Bi2+  Bi80  1  0.49592959  0.11437091  0.29507171  1
  Bi2+  Bi81  1  0.52645465  0.16020528  0.80271525  1
  Bi2+  Bi82  1  0.51312330  0.31958744  0.27204052  1
  Bi2+  Bi83  1  0.46782053  0.39029789  0.76585009  1
  Bi2+  Bi84  1  0.51068918  0.59750626  0.30303640  1
  Bi2+  Bi85  1  0.48204415  0.63244966  0.79721886  1
  Bi2+  Bi86  1  0.50906202  0.85877306  0.30686946  1
  Bi2+  Bi87  1  0.47417981  0.87947379  0.79683873  1
  Bi2+  Bi88  1  0.74397468  0.18682538  0.29037409  1
  Bi2+  Bi89  1  0.76886576  0.15949032  0.77168265  1
  Bi2+  Bi90  1  0.79006990  0.38294942  0.29530636  1
  Bi2+  Bi91  1  0.78537081  0.35448624  0.78509187  1
  Bi2+  Bi92  1  0.75212329  0.57728875  0.27237804  1
  Bi2+  Bi93  1  0.74529660  0.60421415  0.77856330  1
  Bi2+  Bi94  1  0.77202003  0.85094163  0.23271236  1
  Bi2+  Bi95  1  0.74429214  0.83256980  0.78129276  1
  Bi2+  Bi96  1  0.10292475  -0.02430485  0.19993091  1
  Bi2+  Bi97  1  0.16313910  0.02966777  0.70714366  1
  Bi2+  Bi98  1  0.17100502  0.23881296  0.19717486  1
  Bi2+  Bi99  1  0.14368435  0.27947518  0.70589316  1
  Bi2+  Bi100  1  0.05563501  0.49470176  0.23996753  1
  Bi2+  Bi101  1  0.14692515  0.54505022  0.73021275  1
  Bi2+  Bi102  1  0.08696586  0.74021209  0.21049635  1
  Bi2+  Bi103  1  0.15255832  0.73015024  0.68651759  1
  Bi2+  Bi104  1  0.35254216  0.06562583  0.22168696  1
  Bi2+  Bi105  1  0.36059496  0.00648946  0.71701570  1
  Bi2+  Bi106  1  0.44022675  0.22388693  0.17855703  1
  Bi2+  Bi107  1  0.34107138  0.26778141  0.71356989  1
  Bi2+  Bi108  1  0.37387974  0.43851988  0.20855247  1
  Bi2+  Bi109  1  0.33620674  0.50448510  0.71225507  1
  Bi2+  Bi110  1  0.35353353  0.73569060  0.22059525  1
  Bi2+  Bi111  1  0.31537074  0.79871519  0.74239657  1
  Bi2+  Bi112  1  0.63797119  -0.00113114  0.21144457  1
  Bi2+  Bi113  1  0.63845277  0.01034451  0.70148589  1
  Bi2+  Bi114  1  0.63384838  0.21381656  0.19513013  1
  Bi2+  Bi115  1  0.62076070  0.29445144  0.71460058  1
  Bi2+  Bi116  1  0.64122869  0.43528025  0.21836789  1
  Bi2+  Bi117  1  0.61508648  0.49143494  0.71013494  1
  Bi2+  Bi118  1  0.60378862  0.76001429  0.20107849  1
  Bi2+  Bi119  1  0.64114306  0.76568502  0.69351877  1
  Bi2+  Bi120  1  0.84386318  0.03408463  0.24172111  1
  Bi2+  Bi121  1  0.89340090  -0.02046809  0.70065552  1
  Bi2+  Bi122  1  0.88834285  0.29431364  0.20430993  1
  Bi2+  Bi123  1  0.94335399  0.27658252  0.71900432  1
  Bi2+  Bi124  1  0.90470386  0.49681024  0.16732497  1
  Bi2+  Bi125  1  0.90659330  0.47722219  0.72798601  1
  Bi2+  Bi126  1  0.83203814  0.67560844  0.18010101  1
  Bi2+  Bi127  1  0.97091014  0.73663108  0.73113320  1
  S2-  S128  1  0.01855294  0.08680930  0.15105593  1
  S2-  S129  1  0.01553115  0.08076300  0.65976682  1
  S2-  S130  1  0.03316129  0.32459163  0.15448172  1
  S2-  S131  1  0.01171304  0.39240669  0.65457240  1
  S2-  S132  1  0.09634950  0.61654635  0.14179798  1
  S2-  S133  1  0.01810451  0.63516142  0.64968803  1
  S2-  S134  1  -0.00467980  0.86348799  0.16082802  1
  S2-  S135  1  -0.02791837  0.85412457  0.65647120  1
  S2-  S136  1  0.24686695  0.01561248  0.14440687  1
  S2-  S137  1  0.35300734  0.13595372  0.64233863  1
  S2-  S138  1  0.25625250  0.37460563  0.15383253  1
  S2-  S139  1  0.25541801  0.38137745  0.64944139  1
  S2-  S140  1  0.30183103  0.58571478  0.17510578  1
  S2-  S141  1  0.32262925  0.62614480  0.64509594  1
  S2-  S142  1  0.21955405  0.80537119  0.17047384  1
  S2-  S143  1  0.29870008  0.88093657  0.65168925  1
  S2-  S144  1  0.52630986  0.01915879  0.14320040  1
  S2-  S145  1  0.59067192  0.13769732  0.64848145  1
  S2-  S146  1  0.51374189  0.45550637  0.14466262  1
  S2-  S147  1  0.48313570  0.45674136  0.64225305  1
  S2-  S148  1  0.48884979  0.64165080  0.20067097  1
  S2-  S149  1  0.51637779  0.66544588  0.69397253  1
  S2-  S150  1  0.45075253  0.83628021  0.17293824  1
  S2-  S151  1  0.53569945  0.90529634  0.65731467  1
  S2-  S152  1  0.76230393  0.11350268  0.15657492  1
  S2-  S153  1  0.79341404  0.11199007  0.66899718  1
  S2-  S154  1  0.76458083  0.39474774  0.14838941  1
  S2-  S155  1  0.72932023  0.39160994  0.65766658  1
  S2-  S156  1  0.66420094  0.63221914  0.14091758  1
  S2-  S157  1  0.75068993  0.64686441  0.66168766  1
  S2-  S158  1  0.69510535  0.87965964  0.13823869  1
  S2-  S159  1  0.75404990  0.89474499  0.65901688  1
  S2-  S160  1  0.13893742  -0.00128764  0.33827832  1
  S2-  S161  1  0.03941478  -0.00446866  0.84802901  1
  S2-  S162  1  0.10164057  0.21271963  0.35068763  1
  S2-  S163  1  0.13691497  0.21277860  0.84342104  1
  S2-  S164  1  0.12413632  0.59972713  0.35517671  1
  S2-  S165  1  0.24706348  0.51384628  0.86285405  1
  S2-  S166  1  0.14052189  0.79952689  0.32243051  1
  S2-  S167  1  0.08980729  0.73937108  0.84722048  1
  S2-  S168  1  0.40167412  -0.00800435  0.35021700  1
  S2-  S169  1  0.47329698  0.01256612  0.85482360  1
  S2-  S170  1  0.39682144  0.24758281  0.34061486  1
  S2-  S171  1  0.38246616  0.22998386  0.84247759  1
  S2-  S172  1  0.37401401  0.51271095  0.33166711  1
  S2-  S173  1  0.47628365  0.49107231  0.85408535  1
  S2-  S174  1  0.36247469  0.76287558  0.33382802  1
  S2-  S175  1  0.41302315  0.74376763  0.86031027  1
  S2-  S176  1  0.63622554  -0.06019884  0.33424423  1
  S2-  S177  1  0.67170857  0.07619450  0.82983860  1
  S2-  S178  1  0.61686193  0.15397615  0.36380953  1
  S2-  S179  1  0.60665726  0.28095995  0.84390695  1
  S2-  S180  1  0.61023542  0.49685834  0.34620871  1
  S2-  S181  1  0.62030643  0.64246841  0.84696233  1
  S2-  S182  1  0.60177579  0.73132672  0.34041350  1
  S2-  S183  1  0.61778940  0.85870288  0.85125043  1
  S2-  S184  1  0.89009084  0.00927475  0.34695164  1
  S2-  S185  1  0.84943019  -0.05065083  0.79948815  1
  S2-  S186  1  0.85915181  0.24845708  0.35578610  1
  S2-  S187  1  0.88681506  0.16054854  0.84626658  1
  S2-  S188  1  0.86753531  0.52461007  0.34386852  1
  S2-  S189  1  0.75836667  0.49174620  0.84867569  1
  S2-  S190  1  0.89592362  0.77685391  0.34358903  1
  S2-  S191  1  0.83963060  0.72343744  0.83506468  1
  S2-  S192  1  -0.01227077  0.12758154  0.45777969  1
  S2-  S193  1  0.00285905  0.12058616  0.95187254  1
  S2-  S194  1  -0.01299721  0.37385266  0.45291556  1
  S2-  S195  1  0.00470978  0.37656758  0.95278173  1
  S2-  S196  1  -0.01511908  0.62595888  0.44989015  1
  S2-  S197  1  0.00299586  0.62044925  0.95296325  1
  S2-  S198  1  -0.00877583  0.87448446  0.45184186  1
  S2-  S199  1  0.00152708  0.87451958  0.95145610  1
  S2-  S200  1  0.23957759  0.12545391  0.45879251  1
  S2-  S201  1  0.25051621  0.12221508  0.95606580  1
  S2-  S202  1  0.23808828  0.37622013  0.44263358  1
  S2-  S203  1  0.24989451  0.37009266  0.95173424  1
  S2-  S204  1  0.24303753  0.62853950  0.45189302  1
  S2-  S205  1  0.24665203  0.62390755  0.96863418  1
  S2-  S206  1  0.23934396  0.87446422  0.44922096  1
  S2-  S207  1  0.24986394  0.87043522  0.96480055  1
  S2-  S208  1  0.48477519  0.12648518  0.46198412  1
  S2-  S209  1  0.50189925  0.12464234  0.95838656  1
  S2-  S210  1  0.49222622  0.37516565  0.44922998  1
  S2-  S211  1  0.50165131  0.37044339  0.95566677  1
  S2-  S212  1  0.48998907  0.62492391  0.44669945  1
  S2-  S213  1  0.50098789  0.62030305  0.96324245  1
  S2-  S214  1  0.48804791  0.87855918  0.45575428  1
  S2-  S215  1  0.49939962  0.87181854  0.96518989  1
  S2-  S216  1  0.74015330  0.12796430  0.46555489  1
  S2-  S217  1  0.75604352  0.12245704  0.94849047  1
  S2-  S218  1  0.73475471  0.37331582  0.45334301  1
  S2-  S219  1  0.75192584  0.37015324  0.94547265  1
  S2-  S220  1  0.73784291  0.62635960  0.45409979  1
  S2-  S221  1  0.75347036  0.62571451  0.94988514  1
  S2-  S222  1  0.73832664  0.87727349  0.45213565  1
  S2-  S223  1  0.76322031  0.88103726  0.94139983  1
  S2-  S224  1  0.12372195  -0.00049656  0.04162446  1
  S2-  S225  1  0.11775780  0.00253762  0.54761175  1
  S2-  S226  1  0.12635282  0.24627110  0.04633102  1
  S2-  S227  1  0.11444484  0.24891489  0.55315664  1
  S2-  S228  1  0.12699011  0.49437077  0.04224577  1
  S2-  S229  1  0.11038101  0.50127661  0.54271169  1
  S2-  S230  1  0.12523760  0.75237750  0.05030328  1
  S2-  S231  1  0.11099212  0.75045674  0.53684491  1
  S2-  S232  1  0.37891877  -0.00197142  0.04800379  1
  S2-  S233  1  0.36100282  -0.00116588  0.54793612  1
  S2-  S234  1  0.37337565  0.24844877  0.04909136  1
  S2-  S235  1  0.36440590  0.25619885  0.54457226  1
  S2-  S236  1  0.37205437  0.49667594  0.04889085  1
  S2-  S237  1  0.36441319  0.50217361  0.53904401  1
  S2-  S238  1  0.37763611  0.74201796  0.06575602  1
  S2-  S239  1  0.36794405  0.74751381  0.54346923  1
  S2-  S240  1  0.62971255  -0.00048765  0.03418629  1
  S2-  S241  1  0.61105546  0.00099530  0.54292747  1
  S2-  S242  1  0.62479487  0.25091798  0.04822489  1
  S2-  S243  1  0.61012273  0.25650050  0.54924614  1
  S2-  S244  1  0.62656239  0.49583513  0.03812890  1
  S2-  S245  1  0.61068370  0.50616061  0.54839751  1
  S2-  S246  1  0.62728930  0.75214837  0.04021155  1
  S2-  S247  1  0.60846808  0.74656861  0.55073221  1
  S2-  S248  1  0.87623698  -0.00186227  0.05032800  1
  S2-  S249  1  0.86241859  0.00053999  0.55070353  1
  S2-  S250  1  0.87722474  0.24793631  0.04285390  1
  S2-  S251  1  0.86355884  0.25190875  0.55866482  1
  S2-  S252  1  0.87400516  0.50002069  0.03446683  1
  S2-  S253  1  0.86635013  0.50198925  0.55153021  1
  S2-  S254  1  0.87559363  0.75108753  0.04218713  1
  S2-  S255  1  0.86412813  0.75174931  0.54775567  1
