# generated using pymatgen
data_La6Ce6Pr19Nd20Sm13(BiS2)64
_symmetry_space_group_name_H-M   'P 1'
_cell_length_a   16.07597020
_cell_length_b   16.09304380
_cell_length_c   27.49591143
_cell_angle_alpha   89.67912868
_cell_angle_beta   90.02092289
_cell_angle_gamma   89.92583505
_symmetry_Int_Tables_number   1
_chemical_formula_structural   La6Ce6Pr19Nd20Sm13(BiS2)64
_chemical_formula_sum   'La6 Ce6 Pr19 Nd20 Sm13 Bi64 S128'
_cell_volume   7113.38478268
_cell_formula_units_Z   1
loop_
 _symmetry_equiv_pos_site_id
 _symmetry_equiv_pos_as_xyz
  1  'x, y, z'
loop_
 _atom_type_symbol
 _atom_type_oxidation_number
  La3+  3.0
  Ce3+  3.0
  Pr3+  3.0
  Nd3+  3.0
  Sm3+  3.0
  Bi2+  2.0
  S2-  -2.0
loop_
 _atom_site_type_symbol
 _atom_site_label
 _atom_site_symmetry_multiplicity
 _atom_site_fract_x
 _atom_site_fract_y
 _atom_site_fract_z
 _atom_site_occupancy
  La3+  La0  1  0.62782600  0.49222177  0.38322607  1
  La3+  La1  1  0.26021467  0.12530418  0.58909242  1
  La3+  La2  1  0.89546256  0.74746258  0.87916760  1
  La3+  La3  1  -0.00403291  0.62489557  0.57759882  1
  La3+  La4  1  0.63001514  0.75174214  0.42365981  1
  La3+  La5  1  0.74544211  0.11716612  0.09042709  1
  Ce3+  Ce6  1  0.88927587  0.25400806  0.42680071  1
  Ce3+  Ce7  1  0.75570999  0.87587012  0.54218035  1
  Ce3+  Ce8  1  0.12990296  0.25134548  0.44290182  1
  Ce3+  Ce9  1  0.51627117  0.87334557  0.56817543  1
  Ce3+  Ce10  1  0.13218399  -0.00251621  0.92827992  1
  Ce3+  Ce11  1  0.25210768  0.37514449  0.06079405  1
  Pr3+  Pr12  1  0.36950014  0.25700380  0.92754810  1
  Pr3+  Pr13  1  0.51002757  0.37278235  0.55609531  1
  Pr3+  Pr14  1  0.89584736  0.75073011  0.43012010  1
  Pr3+  Pr15  1  0.38213216  0.24908519  0.44102165  1
  Pr3+  Pr16  1  0.26618111  0.87335842  0.60034792  1
  Pr3+  Pr17  1  -0.00294560  0.37324332  0.05912652  1
  Pr3+  Pr18  1  0.25297993  0.12338159  0.06050330  1
  Pr3+  Pr19  1  0.51047324  0.13078091  0.57095224  1
  Pr3+  Pr20  1  0.12520633  0.25146663  0.94293496  1
  Pr3+  Pr21  1  0.87124639  0.24719391  0.93929607  1
  Pr3+  Pr22  1  -0.00308177  0.62826942  0.06108688  1
  Pr3+  Pr23  1  0.89853119  0.00121770  0.42743948  1
  Pr3+  Pr24  1  0.00540876  0.87807297  0.57267611  1
  Pr3+  Pr25  1  0.12920749  0.50095064  0.43810529  1
  Pr3+  Pr26  1  0.25013925  0.62440027  0.06421970  1
  Pr3+  Pr27  1  0.25481121  0.37475485  0.56758106  1
  Pr3+  Pr28  1  0.38137082  0.00819735  0.92194162  1
  Pr3+  Pr29  1  0.25773857  0.61893451  0.56977571  1
  Pr3+  Pr30  1  0.75529722  0.62423855  0.54839842  1
  Nd3+  Nd31  1  0.62448445  0.00546992  0.93924250  1
  Nd3+  Nd32  1  0.38223068  0.49843580  0.43435148  1
  Nd3+  Nd33  1  0.87422912  0.00118071  0.93411726  1
  Nd3+  Nd34  1  0.62562619  0.25092584  0.94854691  1
  Nd3+  Nd35  1  0.50035943  0.87579530  0.05506038  1
  Nd3+  Nd36  1  0.00140934  0.37074958  0.56805077  1
  Nd3+  Nd37  1  0.87463038  0.50469438  0.93472166  1
  Nd3+  Nd38  1  0.75158605  0.62766692  0.05962988  1
  Nd3+  Nd39  1  0.50221718  0.62679456  0.05638202  1
  Nd3+  Nd40  1  0.38027280  0.75128525  0.44901824  1
  Nd3+  Nd41  1  0.88180520  0.50690921  0.42387540  1
  Nd3+  Nd42  1  0.74968267  0.87763204  0.05804129  1
  Nd3+  Nd43  1  0.25068880  0.87683655  0.06073211  1
  Nd3+  Nd44  1  0.37528812  0.75092345  0.94186318  1
  Nd3+  Nd45  1  -0.00157508  0.12250863  0.05720804  1
  Nd3+  Nd46  1  0.49525921  0.12553163  0.06649672  1
  Nd3+  Nd47  1  0.12048782  0.50650398  0.94748999  1
  Nd3+  Nd48  1  0.37491246  0.50263809  0.93835165  1
  Nd3+  Nd49  1  0.75201296  0.37486117  0.06318618  1
  Nd3+  Nd50  1  0.63012144  0.00360129  0.43350546  1
  Sm3+  Sm51  1  0.00403636  0.12344700  0.56636750  1
  Sm3+  Sm52  1  0.75904921  0.12537609  0.54675319  1
  Sm3+  Sm53  1  0.63565172  0.24499891  0.42625104  1
  Sm3+  Sm54  1  0.75882971  0.37534541  0.54244628  1
  Sm3+  Sm55  1  0.49986579  0.37447165  0.06001825  1
  Sm3+  Sm56  1  0.63514495  0.75179743  0.93591011  1
  Sm3+  Sm57  1  0.13672051  0.00114853  0.45500185  1
  Sm3+  Sm58  1  0.13387546  0.75047309  0.45572472  1
  Sm3+  Sm59  1  0.62742279  0.50231631  0.94448171  1
  Sm3+  Sm60  1  0.50925191  0.62144154  0.55005642  1
  Sm3+  Sm61  1  -0.00149569  0.87710032  0.05239750  1
  Sm3+  Sm62  1  0.38118533  0.00083473  0.45235557  1
  Sm3+  Sm63  1  0.12639132  0.75195673  0.94229053  1
  Bi2+  Bi64  1  -0.00920188  0.11158633  0.30683253  1
  Bi2+  Bi65  1  -0.05664931  0.15054765  0.77896281  1
  Bi2+  Bi66  1  0.06171405  0.38290373  0.28749103  1
  Bi2+  Bi67  1  -0.09165831  0.33877854  0.82012258  1
  Bi2+  Bi68  1  0.00963000  0.63835652  0.29449402  1
  Bi2+  Bi69  1  0.02499285  0.61362806  0.79096711  1
  Bi2+  Bi70  1  0.02887091  0.86958956  0.29104815  1
  Bi2+  Bi71  1  0.00828138  0.89740511  0.78883436  1
  Bi2+  Bi72  1  0.24271494  0.23539683  0.31747063  1
  Bi2+  Bi73  1  0.22835023  0.10196361  0.80440368  1
  Bi2+  Bi74  1  0.24090686  0.44387191  0.32480447  1
  Bi2+  Bi75  1  0.28073943  0.37790174  0.77693605  1
  Bi2+  Bi76  1  0.21996967  0.64277998  0.30718598  1
  Bi2+  Bi77  1  0.27991068  0.56627687  0.81293575  1
  Bi2+  Bi78  1  0.30500128  0.87316095  0.30899364  1
  Bi2+  Bi79  1  0.24360967  0.82558740  0.78410552  1
  Bi2+  Bi80  1  0.48084375  0.08611734  0.29423385  1
  Bi2+  Bi81  1  0.51217282  0.12811979  0.79029607  1
  Bi2+  Bi82  1  0.47446711  0.37108593  0.28483736  1
  Bi2+  Bi83  1  0.47995288  0.38737128  0.77005841  1
  Bi2+  Bi84  1  0.49883241  0.73374228  0.28139866  1
  Bi2+  Bi85  1  0.49557039  0.58765289  0.80144694  1
  Bi2+  Bi86  1  0.57506048  0.89862495  0.32164551  1
  Bi2+  Bi87  1  0.50659213  0.86230324  0.78587969  1
  Bi2+  Bi88  1  0.74755947  0.11670270  0.28338435  1
  Bi2+  Bi89  1  0.71056391  0.12286077  0.80503466  1
  Bi2+  Bi90  1  0.73703109  0.35680662  0.27117065  1
  Bi2+  Bi91  1  0.72483435  0.34228601  0.78530579  1
  Bi2+  Bi92  1  0.75743246  0.61165518  0.27776405  1
  Bi2+  Bi93  1  0.68788756  0.62665396  0.77690491  1
  Bi2+  Bi94  1  0.74577461  0.83604787  0.27521469  1
  Bi2+  Bi95  1  0.70614282  0.90059617  0.79536253  1
  Bi2+  Bi96  1  0.16925513  0.07888682  0.26008993  1
  Bi2+  Bi97  1  0.08275106  0.09567507  0.69860946  1
  Bi2+  Bi98  1  0.15244294  0.25720358  0.21148164  1
  Bi2+  Bi99  1  0.11339061  0.26020726  0.76531969  1
  Bi2+  Bi100  1  0.13555871  0.52598463  0.21428598  1
  Bi2+  Bi101  1  0.02670080  0.43433015  0.74320457  1
  Bi2+  Bi102  1  0.17945448  0.79663142  0.23217091  1
  Bi2+  Bi103  1  0.22153091  0.62740854  0.71331759  1
  Bi2+  Bi104  1  0.34403086  0.02089476  0.22060074  1
  Bi2+  Bi105  1  0.37222820  -0.02229439  0.71879822  1
  Bi2+  Bi106  1  0.34982985  0.25541038  0.20672958  1
  Bi2+  Bi107  1  0.37721678  0.24887975  0.70743386  1
  Bi2+  Bi108  1  0.32684770  0.53389210  0.23412275  1
  Bi2+  Bi109  1  0.41171949  0.51765670  0.68576986  1
  Bi2+  Bi110  1  0.37257560  0.81684901  0.20478026  1
  Bi2+  Bi111  1  0.42389664  0.71304587  0.72002059  1
  Bi2+  Bi112  1  0.63513334  -0.03302011  0.21520527  1
  Bi2+  Bi113  1  0.59946325  0.00644619  0.71353368  1
  Bi2+  Bi114  1  0.54438454  0.22538243  0.21669827  1
  Bi2+  Bi115  1  0.64587237  0.22374966  0.70474821  1
  Bi2+  Bi116  1  0.62068783  0.50550143  0.17080227  1
  Bi2+  Bi117  1  0.60689495  0.49436241  0.70826662  1
  Bi2+  Bi118  1  0.62083023  0.76235946  0.19139955  1
  Bi2+  Bi119  1  0.61961324  0.76789246  0.70617116  1
  Bi2+  Bi120  1  0.91172939  -0.01987785  0.20027430  1
  Bi2+  Bi121  1  0.80111452  0.01060379  0.71961524  1
  Bi2+  Bi122  1  0.93891474  0.22329140  0.21598979  1
  Bi2+  Bi123  1  0.86406169  0.25956221  0.69488237  1
  Bi2+  Bi124  1  0.88649829  0.49388050  0.19072869  1
  Bi2+  Bi125  1  0.85771756  0.50293190  0.70049414  1
  Bi2+  Bi126  1  0.90725626  0.77826577  0.22057728  1
  Bi2+  Bi127  1  0.84760309  0.78694477  0.68447748  1
  S2-  S128  1  0.00714721  0.09802398  0.15508703  1
  S2-  S129  1  0.00442427  0.24114857  0.64023135  1
  S2-  S130  1  -0.02455829  0.37076450  0.15723678  1
  S2-  S131  1  0.00196230  0.48838364  0.64392503  1
  S2-  S132  1  0.00177437  0.60002618  0.16007428  1
  S2-  S133  1  -0.00942465  0.75823013  0.64629749  1
  S2-  S134  1  0.00229323  0.87014429  0.15077746  1
  S2-  S135  1  -0.01383895  1.00714937  0.64388975  1
  S2-  S136  1  0.36545561  0.12340292  0.13725025  1
  S2-  S137  1  0.22606142  0.00388022  0.66568020  1
  S2-  S138  1  0.25331346  0.37781573  0.15700150  1
  S2-  S139  1  0.24891596  0.26752135  0.65051623  1
  S2-  S140  1  0.25416128  0.63176359  0.16302517  1
  S2-  S141  1  0.25393410  0.49697987  0.64351694  1
  S2-  S142  1  0.23856998  0.91265152  0.15641737  1
  S2-  S143  1  0.21177443  0.78804509  0.68758494  1
  S2-  S144  1  0.59502127  0.11903592  0.14858609  1
  S2-  S145  1  0.40618371  0.10625698  0.65362809  1
  S2-  S146  1  0.50658687  0.37712164  0.15757746  1
  S2-  S147  1  0.53266905  0.27217893  0.63868321  1
  S2-  S148  1  0.51200535  0.64205982  0.15412305  1
  S2-  S149  1  0.54552726  0.63382473  0.64584541  1
  S2-  S150  1  0.51121203  0.88963135  0.15335145  1
  S2-  S151  1  0.42192116  0.86846815  0.65155899  1
  S2-  S152  1  0.79619878  0.17184758  0.18591753  1
  S2-  S153  1  0.76613329  0.12814010  0.64590112  1
  S2-  S154  1  0.74819323  0.38636873  0.16280770  1
  S2-  S155  1  0.78722003  0.38249907  0.64096912  1
  S2-  S156  1  0.76287307  0.61234354  0.15860321  1
  S2-  S157  1  0.82364696  0.63026738  0.64180861  1
  S2-  S158  1  0.76452367  0.96325407  0.14376300  1
  S2-  S159  1  0.69605380  0.85893701  0.63275860  1
  S2-  S160  1  0.06630188  -0.00616273  0.36555319  1
  S2-  S161  1  0.07427017  0.03604131  0.83699146  1
  S2-  S162  1  0.02834432  0.25792145  0.36219492  1
  S2-  S163  1  0.20535045  0.26178101  0.85515595  1
  S2-  S164  1  0.01852209  0.50302683  0.35820608  1
  S2-  S165  1  0.12602313  0.51023236  0.84952270  1
  S2-  S166  1  0.05213673  0.75791946  0.36820430  1
  S2-  S167  1  0.07543207  0.76545658  0.84862155  1
  S2-  S168  1  0.35805310  0.01514987  0.35474849  1
  S2-  S169  1  0.26125745  -0.03885460  0.85078947  1
  S2-  S170  1  0.41262549  0.23701003  0.34236275  1
  S2-  S171  1  0.37930794  0.14494892  0.85031789  1
  S2-  S172  1  0.45911463  0.49422450  0.34608258  1
  S2-  S173  1  0.38754542  0.39255161  0.86149502  1
  S2-  S174  1  0.36621127  0.71830966  0.35185903  1
  S2-  S175  1  0.31189965  0.73371724  0.84962380  1
  S2-  S176  1  0.62352480  0.11490276  0.35662634  1
  S2-  S177  1  0.52226292  -0.00681108  0.85731351  1
  S2-  S178  1  0.61615363  0.33154938  0.34023864  1
  S2-  S179  1  0.61606880  0.26031744  0.84938322  1
  S2-  S180  1  0.62764117  0.49546835  0.26464832  1
  S2-  S181  1  0.63861330  0.51207889  0.84832869  1
  S2-  S182  1  0.62840172  0.65678855  0.33984219  1
  S2-  S183  1  0.72053378  0.75184682  0.85116318  1
  S2-  S184  1  0.84619489  0.01309141  0.32961312  1
  S2-  S185  1  0.88059039  -0.08493260  0.84563108  1
  S2-  S186  1  0.81217052  0.24426358  0.33412058  1
  S2-  S187  1  0.85142019  0.13050501  0.86493447  1
  S2-  S188  1  0.78977161  0.47236060  0.33602633  1
  S2-  S189  1  0.89230012  0.57874683  0.84585581  1
  S2-  S190  1  0.86820717  0.65838975  0.34590823  1
  S2-  S191  1  0.91588039  0.75290157  0.76897680  1
  S2-  S192  1  0.01081869  0.12530490  0.46248054  1
  S2-  S193  1  0.00369174  0.12529932  0.95299494  1
  S2-  S194  1  0.00599610  0.37684979  0.46080740  1
  S2-  S195  1  -0.00205344  0.37687978  0.95296501  1
  S2-  S196  1  0.01091072  0.62701207  0.46501322  1
  S2-  S197  1  -0.00319734  0.63412218  0.95491161  1
  S2-  S198  1  0.01248718  0.87685603  0.46648595  1
  S2-  S199  1  0.00270326  0.87523311  0.95047844  1
  S2-  S200  1  0.25669920  0.12422794  0.45848403  1
  S2-  S201  1  0.25025815  0.12545388  0.95574870  1
  S2-  S202  1  0.25685256  0.37492211  0.45719444  1
  S2-  S203  1  0.24565969  0.38380888  0.95741633  1
  S2-  S204  1  0.25684405  0.62473787  0.46053954  1
  S2-  S205  1  0.24908874  0.62625656  0.95855366  1
  S2-  S206  1  0.25609171  0.87548730  0.45513030  1
  S2-  S207  1  0.25097154  0.87085489  0.95651725  1
  S2-  S208  1  0.50536770  0.12348671  0.46012938  1
  S2-  S209  1  0.49974145  0.13189801  0.95920045  1
  S2-  S210  1  0.51003622  0.37348459  0.45067609  1
  S2-  S211  1  0.50509071  0.38049235  0.95720364  1
  S2-  S212  1  0.50468414  0.62425643  0.44853600  1
  S2-  S213  1  0.50407682  0.62759185  0.95036066  1
  S2-  S214  1  0.50523069  0.87694495  0.45748838  1
  S2-  S215  1  0.50359569  0.86879372  0.95084393  1
  S2-  S216  1  0.76526899  0.12235632  0.44573805  1
  S2-  S217  1  0.74502623  0.12567752  0.96540670  1
  S2-  S218  1  0.75587941  0.37418956  0.44196547  1
  S2-  S219  1  0.75072967  0.37812268  0.95498437  1
  S2-  S220  1  0.75413057  0.62561378  0.44515947  1
  S2-  S221  1  0.75020607  0.62452395  0.95473598  1
  S2-  S222  1  0.76177926  0.87727469  0.43716269  1
  S2-  S223  1  0.74673439  0.88073547  0.95420425  1
  S2-  S224  1  0.12562659  -0.00025439  0.04334253  1
  S2-  S225  1  0.13863039  -0.00087891  0.55494937  1
  S2-  S226  1  0.12535387  0.24870475  0.05020258  1
  S2-  S227  1  0.13239572  0.24663834  0.54562599  1
  S2-  S228  1  0.12285747  0.50020209  0.05301993  1
  S2-  S229  1  0.12946773  0.49859554  0.54386942  1
  S2-  S230  1  0.12515231  0.75203390  0.04929017  1
  S2-  S231  1  0.14097488  0.75233957  0.55737907  1
  S2-  S232  1  0.37581501  -0.00350630  0.03710432  1
  S2-  S233  1  0.38263024  -0.00496938  0.55287952  1
  S2-  S234  1  0.37569368  0.25576526  0.03943539  1
  S2-  S235  1  0.38103775  0.24936793  0.54596007  1
  S2-  S236  1  0.37794262  0.50149671  0.04649761  1
  S2-  S237  1  0.38585099  0.49830880  0.54111206  1
  S2-  S238  1  0.37533862  0.74992334  0.04833661  1
  S2-  S239  1  0.38332151  0.74517910  0.55400367  1
  S2-  S240  1  0.62126919  0.00006417  0.04382427  1
  S2-  S241  1  0.63165955  0.00503463  0.54063346  1
  S2-  S242  1  0.62574804  0.25411398  0.05314362  1
  S2-  S243  1  0.63853581  0.24838073  0.53261447  1
  S2-  S244  1  0.62561457  0.49940093  0.04832616  1
  S2-  S245  1  0.63297441  0.49719265  0.54816668  1
  S2-  S246  1  0.62680413  0.75117807  0.04199310  1
  S2-  S247  1  0.62884568  0.74817747  0.53267040  1
  S2-  S248  1  0.87674195  -0.00001612  0.04155810  1
  S2-  S249  1  0.87890192  0.00038239  0.53658066  1
  S2-  S250  1  0.87119516  0.24610058  0.04929755  1
  S2-  S251  1  0.87911136  0.24845845  0.53586458  1
  S2-  S252  1  0.87424976  0.50107132  0.04267032  1
  S2-  S253  1  0.87925521  0.49856588  0.53471397  1
  S2-  S254  1  0.87367145  0.75425332  0.05680641  1
  S2-  S255  1  0.87865058  0.75403517  0.53635022  1
