# generated using pymatgen
data_La6Ce6Pr19Nd20Sm13(BiS2)64
_symmetry_space_group_name_H-M   'P 1'
_cell_length_a   16.12555969
_cell_length_b   16.13576134
_cell_length_c   27.21444543
_cell_angle_alpha   90.16939298
_cell_angle_beta   90.05493860
_cell_angle_gamma   90.05554728
_symmetry_Int_Tables_number   1
_chemical_formula_structural   La6Ce6Pr19Nd20Sm13(BiS2)64
_chemical_formula_sum   'La6 Ce6 Pr19 Nd20 Sm13 Bi64 S128'
_cell_volume   7081.11169351
_cell_formula_units_Z   1
loop_
 _symmetry_equiv_pos_site_id
 _symmetry_equiv_pos_as_xyz
  1  'x, y, z'
loop_
 _atom_type_symbol
 _atom_type_oxidation_number
  La3+  3.0
  Ce3+  3.0
  Pr3+  3.0
  Nd3+  3.0
  Sm3+  3.0
  Bi2+  2.0
  S2-  -2.0
loop_
 _atom_site_type_symbol
 _atom_site_label
 _atom_site_symmetry_multiplicity
 _atom_site_fract_x
 _atom_site_fract_y
 _atom_site_fract_z
 _atom_site_occupancy
  La3+  La0  1  0.01621582  0.35564027  0.59779504  1
  La3+  La1  1  0.37781937  0.22698498  0.41010346  1
  La3+  La2  1  0.50134868  0.36955240  0.10724502  1
  La3+  La3  1  0.26602737  0.11559481  0.56314675  1
  La3+  La4  1  0.12764345  0.72677929  0.41440422  1
  La3+  La5  1  0.01505600  0.62192878  0.57513529  1
  Ce3+  Ce6  1  0.76252525  0.86576191  0.55677150  1
  Ce3+  Ce7  1  0.75693550  0.61193831  0.05885585  1
  Ce3+  Ce8  1  0.88182610  0.74158335  0.94479800  1
  Ce3+  Ce9  1  0.88547413  0.73434056  0.44163243  1
  Ce3+  Ce10  1  0.25990013  0.12521193  0.06032606  1
  Ce3+  Ce11  1  0.88845062  0.24498926  0.93073647  1
  Pr3+  Pr12  1  0.88085021  -0.00571826  0.94128735  1
  Pr3+  Pr13  1  0.51251668  0.12400131  0.07377124  1
  Pr3+  Pr14  1  0.63736257  -0.01019084  0.43501090  1
  Pr3+  Pr15  1  0.00310393  0.61677597  0.05843363  1
  Pr3+  Pr16  1  0.39499684  0.73401973  0.42387783  1
  Pr3+  Pr17  1  0.38895061  -0.01816651  0.43637193  1
  Pr3+  Pr18  1  0.38744660  0.48705203  0.43418547  1
  Pr3+  Pr19  1  0.00446195  0.86991079  0.06320770  1
  Pr3+  Pr20  1  0.51488521  0.62100438  0.08158955  1
  Pr3+  Pr21  1  0.13650121  0.23524403  0.43490130  1
  Pr3+  Pr22  1  0.51907547  0.85877142  0.56687433  1
  Pr3+  Pr23  1  0.64898964  0.23217565  0.41411414  1
  Pr3+  Pr24  1  0.75909559  0.37179579  0.06426522  1
  Pr3+  Pr25  1  0.76292674  0.60262682  0.57394513  1
  Pr3+  Pr26  1  0.38124041  0.49576292  0.95578952  1
  Pr3+  Pr27  1  0.87875196  0.48610716  0.91963099  1
  Pr3+  Pr28  1  0.00751015  0.12359062  0.05643553  1
  Pr3+  Pr29  1  0.25172503  0.87046518  0.07828332  1
  Pr3+  Pr30  1  0.13680830  0.74741682  0.93618946  1
  Nd3+  Nd31  1  0.38221467  0.74433124  0.95433032  1
  Nd3+  Nd32  1  0.37915164  0.24525816  0.93944037  1
  Nd3+  Nd33  1  0.75641819  0.12530522  0.05963543  1
  Nd3+  Nd34  1  0.63006263  0.74114052  0.94213413  1
  Nd3+  Nd35  1  0.51320647  0.87159557  0.06657339  1
  Nd3+  Nd36  1  0.26271652  0.36408529  0.55819299  1
  Nd3+  Nd37  1  0.51317295  0.61249370  0.55971153  1
  Nd3+  Nd38  1  0.26401205  0.85767185  0.54990188  1
  Nd3+  Nd39  1  0.62622549  0.49133685  0.94483855  1
  Nd3+  Nd40  1  0.64208033  0.48316075  0.43811991  1
  Nd3+  Nd41  1  0.25101067  0.36733072  0.07287405  1
  Nd3+  Nd42  1  0.50988633  0.11464538  0.55990616  1
  Nd3+  Nd43  1  0.24683687  0.62193153  0.08021522  1
  Nd3+  Nd44  1  0.89186342  0.23586050  0.44035154  1
  Nd3+  Nd45  1  0.13562148  0.24625119  0.93116440  1
  Nd3+  Nd46  1  0.62949323  -0.00278318  0.93693438  1
  Nd3+  Nd47  1  0.26231180  0.61656896  0.55662985  1
  Nd3+  Nd48  1  0.89033382  0.48496598  0.45131986  1
  Nd3+  Nd49  1  0.01309157  0.86338249  0.55850919  1
  Nd3+  Nd50  1  0.64203853  0.73319238  0.43787119  1
  Sm3+  Sm51  1  0.76439246  0.11909182  0.56117314  1
  Sm3+  Sm52  1  0.62929936  0.24648300  0.94485059  1
  Sm3+  Sm53  1  0.38343209  -0.00640915  0.95354750  1
  Sm3+  Sm54  1  0.13482165  -0.00796569  0.94746628  1
  Sm3+  Sm55  1  0.75826491  0.35542449  0.56453690  1
  Sm3+  Sm56  1  0.51114076  0.35881349  0.54005633  1
  Sm3+  Sm57  1  0.02175613  0.11398327  0.56938834  1
  Sm3+  Sm58  1  0.88954865  -0.01295784  0.44808562  1
  Sm3+  Sm59  1  0.00755693  0.37091455  0.05857837  1
  Sm3+  Sm60  1  0.13720054  -0.01639672  0.44242129  1
  Sm3+  Sm61  1  0.75597647  0.87113923  0.05649403  1
  Sm3+  Sm62  1  0.13456547  0.49579457  0.94073380  1
  Sm3+  Sm63  1  0.13625134  0.48652284  0.44622780  1
  Bi2+  Bi64  1  -0.06646004  0.14542139  0.30189342  1
  Bi2+  Bi65  1  -0.00656055  0.10972369  0.78034933  1
  Bi2+  Bi66  1  -0.01281563  0.33505043  0.28266189  1
  Bi2+  Bi67  1  -0.03141142  0.37300596  0.80226393  1
  Bi2+  Bi68  1  -0.06112582  0.59913753  0.28301170  1
  Bi2+  Bi69  1  0.00862134  0.62617895  0.81027432  1
  Bi2+  Bi70  1  -0.06152109  0.86777199  0.29131597  1
  Bi2+  Bi71  1  0.03147416  0.86944024  0.79720845  1
  Bi2+  Bi72  1  0.15794472  0.12286188  0.28525851  1
  Bi2+  Bi73  1  0.23537915  0.07141830  0.79462726  1
  Bi2+  Bi74  1  0.17060796  0.39963835  0.29399807  1
  Bi2+  Bi75  1  0.27275800  0.37363415  0.79465222  1
  Bi2+  Bi76  1  0.25046278  0.62416807  0.30160162  1
  Bi2+  Bi77  1  0.29466515  0.56263299  0.75892166  1
  Bi2+  Bi78  1  0.25143391  0.90514951  0.30687960  1
  Bi2+  Bi79  1  0.22469636  0.94199935  0.70869158  1
  Bi2+  Bi80  1  0.49936930  0.09673630  0.29378251  1
  Bi2+  Bi81  1  0.46386163  0.20115587  0.78545802  1
  Bi2+  Bi82  1  0.51591885  0.41675092  0.30216046  1
  Bi2+  Bi83  1  0.49993310  0.39143823  0.80598907  1
  Bi2+  Bi84  1  0.58378363  0.64591056  0.28084247  1
  Bi2+  Bi85  1  0.49948620  0.61229189  0.81803082  1
  Bi2+  Bi86  1  0.54727929  0.90569240  0.30753951  1
  Bi2+  Bi87  1  0.46069810  0.88207376  0.81872132  1
  Bi2+  Bi88  1  0.79372838  0.13292386  0.21921252  1
  Bi2+  Bi89  1  0.70149581  0.12792841  0.79680669  1
  Bi2+  Bi90  1  0.78467299  0.37923572  0.29315001  1
  Bi2+  Bi91  1  0.63376327  0.41348224  0.71857096  1
  Bi2+  Bi92  1  0.76698321  0.71404843  0.31918155  1
  Bi2+  Bi93  1  0.69122101  0.68536053  0.75363783  1
  Bi2+  Bi94  1  0.73853906  0.90730085  0.30325903  1
  Bi2+  Bi95  1  0.75937030  0.93893430  0.80309676  1
  Bi2+  Bi96  1  0.03176851  0.01295399  0.22112683  1
  Bi2+  Bi97  1  0.03071717  -0.03207378  0.69475833  1
  Bi2+  Bi98  1  0.10725027  0.24872701  0.19999614  1
  Bi2+  Bi99  1  0.11439358  0.21013020  0.71319312  1
  Bi2+  Bi100  1  0.06851549  0.50079684  0.21569327  1
  Bi2+  Bi101  1  0.12805538  0.46891266  0.71347463  1
  Bi2+  Bi102  1  0.13489118  0.75321307  0.20706053  1
  Bi2+  Bi103  1  0.14405618  0.71342122  0.69364860  1
  Bi2+  Bi104  1  0.32540179  0.02706230  0.23403927  1
  Bi2+  Bi105  1  0.39074990  0.04501619  0.72092009  1
  Bi2+  Bi106  1  0.35325719  0.25034932  0.22516679  1
  Bi2+  Bi107  1  0.32665657  0.25664810  0.70557860  1
  Bi2+  Bi108  1  0.37616447  0.51839778  0.21807809  1
  Bi2+  Bi109  1  0.41799225  0.43878313  0.69924223  1
  Bi2+  Bi110  1  0.38969005  0.77187095  0.22112355  1
  Bi2+  Bi111  1  0.38716339  0.74061134  0.75888790  1
  Bi2+  Bi112  1  0.56350718  -0.00475888  0.20457956  1
  Bi2+  Bi113  1  0.63335451  0.02002370  0.70110619  1
  Bi2+  Bi114  1  0.62581619  0.23713219  0.21697450  1
  Bi2+  Bi115  1  0.59922007  0.21723760  0.69866116  1
  Bi2+  Bi116  1  0.73068933  0.49537837  0.20868606  1
  Bi2+  Bi117  1  0.55671462  0.58733101  0.69053375  1
  Bi2+  Bi118  1  0.68935968  0.75515945  0.21218106  1
  Bi2+  Bi119  1  0.57201607  0.82362487  0.71168288  1
  Bi2+  Bi120  1  0.84826950  -0.06313133  0.19306637  1
  Bi2+  Bi121  1  0.82957588  -0.02757797  0.69057041  1
  Bi2+  Bi122  1  0.87815464  0.29961606  0.18160168  1
  Bi2+  Bi123  1  0.83883746  0.17020438  0.71798507  1
  Bi2+  Bi124  1  0.89043532  0.48969111  0.14581336  1
  Bi2+  Bi125  1  0.86297300  0.53381536  0.70994279  1
  Bi2+  Bi126  1  0.88825584  0.73656095  0.20845561  1
  Bi2+  Bi127  1  0.85845894  0.78979719  0.75183765  1
  S2-  S128  1  -0.01499049  0.13936620  0.15550081  1
  S2-  S129  1  -0.02262071  0.20603012  0.64999495  1
  S2-  S130  1  0.11382325  0.38293354  0.13861363  1
  S2-  S131  1  -0.02959188  0.39707829  0.69696282  1
  S2-  S132  1  0.09295856  0.63069819  0.14436714  1
  S2-  S133  1  0.02202407  0.58516336  0.67646727  1
  S2-  S134  1  0.07908231  0.87640807  0.15409297  1
  S2-  S135  1  0.02487616  0.77409223  0.64234857  1
  S2-  S136  1  0.24286819  0.18494780  0.15016161  1
  S2-  S137  1  0.15308150  0.10709312  0.64227823  1
  S2-  S138  1  0.33969418  0.38255146  0.16026605  1
  S2-  S139  1  0.17878815  0.35199886  0.64731490  1
  S2-  S140  1  0.27548967  0.65330965  0.18024531  1
  S2-  S141  1  0.24295658  0.58384978  0.65443722  1
  S2-  S142  1  0.27951479  0.89194455  0.17864192  1
  S2-  S143  1  0.26193158  0.80694007  0.64557509  1
  S2-  S144  1  0.48021081  0.21825762  0.15973027  1
  S2-  S145  1  0.39036821  0.14597500  0.63441862  1
  S2-  S146  1  0.51829651  0.44930974  0.20268847  1
  S2-  S147  1  0.53015756  0.34458572  0.63782379  1
  S2-  S148  1  0.47368746  0.64757781  0.18141648  1
  S2-  S149  1  0.49284077  0.72513133  0.63632898  1
  S2-  S150  1  0.48657482  0.85946443  0.16462780  1
  S2-  S151  1  0.49507298  0.96047233  0.64962275  1
  S2-  S152  1  0.65893223  0.11434169  0.14353184  1
  S2-  S153  1  0.74615739  0.23150202  0.63544517  1
  S2-  S154  1  0.67058579  0.35220240  0.15290094  1
  S2-  S155  1  0.75437352  0.45966854  0.64599939  1
  S2-  S156  1  0.67009440  0.61412688  0.14397719  1
  S2-  S157  1  0.80138307  0.66839245  0.66677323  1
  S2-  S158  1  0.69350559  0.88942344  0.14667638  1
  S2-  S159  1  0.70049725  0.86502001  0.64669367  1
  S2-  S160  1  0.11577713  -0.01256381  0.34539048  1
  S2-  S161  1  0.14329510  -0.03712434  0.85070674  1
  S2-  S162  1  0.22263275  0.25401716  0.34796540  1
  S2-  S163  1  0.02328866  0.23707397  0.85323182  1
  S2-  S164  1  0.13290498  0.55028974  0.35435692  1
  S2-  S165  1  0.08965621  0.48608957  0.84456368  1
  S2-  S166  1  0.15273110  0.76781030  0.31254846  1
  S2-  S167  1  0.12202015  0.73677205  0.83492235  1
  S2-  S168  1  0.35602997  0.05685488  0.34752093  1
  S2-  S169  1  0.36937337  0.00681354  0.85568835  1
  S2-  S170  1  0.41755930  0.27928284  0.31363045  1
  S2-  S171  1  0.26546516  0.25036738  0.86176321  1
  S2-  S172  1  0.38813851  0.53376803  0.33622037  1
  S2-  S173  1  0.35168559  0.50746926  0.85564719  1
  S2-  S174  1  0.34632975  0.76418816  0.32618355  1
  S2-  S175  1  0.34407925  0.76613979  0.85835783  1
  S2-  S176  1  0.63834916  0.09004824  0.35230912  1
  S2-  S177  1  0.59544445  -0.01563156  0.84000560  1
  S2-  S178  1  0.62457084  0.30353621  0.31850865  1
  S2-  S179  1  0.60544011  0.24774013  0.84698520  1
  S2-  S180  1  0.63424997  0.53082400  0.34216652  1
  S2-  S181  1  0.61878158  0.50014819  0.84448405  1
  S2-  S182  1  0.53880078  0.74825941  0.35787670  1
  S2-  S183  1  0.60711704  0.73751898  0.84350066  1
  S2-  S184  1  0.87605956  0.00068277  0.35066025  1
  S2-  S185  1  0.91346979  -0.00965088  0.84262508  1
  S2-  S186  1  0.80628478  0.24056394  0.35393927  1
  S2-  S187  1  0.83912749  0.33813402  0.85455613  1
  S2-  S188  1  0.87282760  0.49244960  0.35063857  1
  S2-  S189  1  0.87059414  0.51948137  0.81744158  1
  S2-  S190  1  0.97106064  0.72492926  0.35791869  1
  S2-  S191  1  0.88422658  0.73119285  0.84745997  1
  S2-  S192  1  0.01445665  0.10822654  0.45690839  1
  S2-  S193  1  0.01149346  0.11353125  0.95110658  1
  S2-  S194  1  0.01506679  0.36326363  0.44220851  1
  S2-  S195  1  0.01062727  0.37374648  0.95425316  1
  S2-  S196  1  0.01150515  0.60904765  0.46266804  1
  S2-  S197  1  0.00961306  0.61925952  0.95090831  1
  S2-  S198  1  0.01162600  0.86274208  0.45248340  1
  S2-  S199  1  0.00769037  0.86956437  0.95577741  1
  S2-  S200  1  0.25827819  0.10716728  0.45438987  1
  S2-  S201  1  0.25751151  0.11403096  0.95682721  1
  S2-  S202  1  0.26185312  0.36589249  0.45089223  1
  S2-  S203  1  0.25487654  0.37371257  0.96304857  1
  S2-  S204  1  0.26358301  0.61306561  0.44898246  1
  S2-  S205  1  0.25476250  0.62174891  0.96435205  1
  S2-  S206  1  0.25933386  0.85720538  0.44267986  1
  S2-  S207  1  0.25909376  0.87225023  0.96673232  1
  S2-  S208  1  0.50725283  0.11351759  0.45107350  1
  S2-  S209  1  0.50497992  0.12077775  0.95726669  1
  S2-  S210  1  0.51258583  0.35874098  0.43597774  1
  S2-  S211  1  0.50301562  0.36710186  0.95076772  1
  S2-  S212  1  0.51625429  0.60824227  0.45449333  1
  S2-  S213  1  0.50685934  0.62116421  0.96676001  1
  S2-  S214  1  0.51681265  0.86309425  0.45736198  1
  S2-  S215  1  0.50799888  0.86999735  0.95939696  1
  S2-  S216  1  0.76842002  0.11055000  0.45783265  1
  S2-  S217  1  0.75502658  0.12178627  0.95140172  1
  S2-  S218  1  0.76388490  0.36057887  0.45782302  1
  S2-  S219  1  0.75021022  0.36886695  0.95708126  1
  S2-  S220  1  0.76281573  0.60783102  0.46070783  1
  S2-  S221  1  0.75489053  0.61506568  0.94969934  1
  S2-  S222  1  0.76303232  0.86450138  0.45057439  1
  S2-  S223  1  0.75371691  0.86892291  0.95103890  1
  S2-  S224  1  0.13304745  -0.00205733  0.05273027  1
  S2-  S225  1  0.13922659  -0.01764293  0.54590990  1
  S2-  S226  1  0.13051314  0.24552298  0.03891645  1
  S2-  S227  1  0.13435733  0.24289682  0.54116236  1
  S2-  S228  1  0.13276912  0.49811678  0.04380823  1
  S2-  S229  1  0.13573542  0.48792344  0.54930468  1
  S2-  S230  1  0.13167840  0.74799084  0.04484773  1
  S2-  S231  1  0.13859023  0.73650097  0.53453903  1
  S2-  S232  1  0.38420819  -0.00349201  0.05980138  1
  S2-  S233  1  0.38781774  -0.01674651  0.54199910  1
  S2-  S234  1  0.38415950  0.24966950  0.04633080  1
  S2-  S235  1  0.38580563  0.24334900  0.52837233  1
  S2-  S236  1  0.38020991  0.50293906  0.06205128  1
  S2-  S237  1  0.38814106  0.48800468  0.54360334  1
  S2-  S238  1  0.38105053  0.74596802  0.06067066  1
  S2-  S239  1  0.38773107  0.73650400  0.53288680  1
  S2-  S240  1  0.63302537  -0.00359416  0.04233401  1
  S2-  S241  1  0.64024324  -0.00404040  0.54339235  1
  S2-  S242  1  0.62939067  0.24866247  0.04690226  1
  S2-  S243  1  0.63245766  0.23591714  0.53117657  1
  S2-  S244  1  0.62401219  0.48749900  0.05061947  1
  S2-  S245  1  0.63337898  0.48422689  0.54416841  1
  S2-  S246  1  0.63440101  0.74673371  0.04805833  1
  S2-  S247  1  0.64383560  0.73308392  0.54410539  1
  S2-  S248  1  0.87848813  -0.00280092  0.04897126  1
  S2-  S249  1  0.89063751  -0.00513934  0.55309259  1
  S2-  S250  1  0.88267404  0.24690373  0.04028095  1
  S2-  S251  1  0.89176402  0.24049160  0.54374198  1
  S2-  S252  1  0.88282603  0.49157542  0.02990962  1
  S2-  S253  1  0.89598166  0.48026270  0.55655217  1
  S2-  S254  1  0.87735865  0.74521922  0.05266418  1
  S2-  S255  1  0.88236861  0.73849039  0.54787937  1
