# generated using pymatgen
data_La6Ce6Pr19Nd20Sm13(BiS2)64
_symmetry_space_group_name_H-M   'P 1'
_cell_length_a   16.15328221
_cell_length_b   16.16444170
_cell_length_c   27.16077423
_cell_angle_alpha   90.10204663
_cell_angle_beta   89.89607043
_cell_angle_gamma   90.01380345
_symmetry_Int_Tables_number   1
_chemical_formula_structural   La6Ce6Pr19Nd20Sm13(BiS2)64
_chemical_formula_sum   'La6 Ce6 Pr19 Nd20 Sm13 Bi64 S128'
_cell_volume   7091.89373853
_cell_formula_units_Z   1
loop_
 _symmetry_equiv_pos_site_id
 _symmetry_equiv_pos_as_xyz
  1  'x, y, z'
loop_
 _atom_type_symbol
 _atom_type_oxidation_number
  La3+  3.0
  Ce3+  3.0
  Pr3+  3.0
  Nd3+  3.0
  Sm3+  3.0
  Bi2+  2.0
  S2-  -2.0
loop_
 _atom_site_type_symbol
 _atom_site_label
 _atom_site_symmetry_multiplicity
 _atom_site_fract_x
 _atom_site_fract_y
 _atom_site_fract_z
 _atom_site_occupancy
  La3+  La0  1  0.88289024  0.24687049  0.38811982  1
  La3+  La1  1  0.73831031  0.12168554  0.08623418  1
  La3+  La2  1  0.37716633  0.74636110  0.39440475  1
  La3+  La3  1  0.12818532  0.01804560  0.90901248  1
  La3+  La4  1  0.12601168  -0.01370257  0.43490236  1
  La3+  La5  1  -0.00302049  0.61216388  0.61513986  1
  Ce3+  Ce6  1  0.12508774  0.24060521  0.43914669  1
  Ce3+  Ce7  1  0.86004400  0.25757595  0.94291427  1
  Ce3+  Ce8  1  -0.00617110  0.88694842  0.03411032  1
  Ce3+  Ce9  1  0.23641659  0.13116163  0.05867099  1
  Ce3+  Ce10  1  0.74302041  0.88440954  0.05178541  1
  Ce3+  Ce11  1  0.37599836  0.50252985  0.44214333  1
  Pr3+  Pr12  1  0.24954912  0.62294590  0.56181259  1
  Pr3+  Pr13  1  0.48718019  0.63873281  0.06611501  1
  Pr3+  Pr14  1  0.23682357  0.38480114  0.05904234  1
  Pr3+  Pr15  1  0.22945332  0.63776508  0.07012894  1
  Pr3+  Pr16  1  0.74510003  0.64105192  0.06826140  1
  Pr3+  Pr17  1  0.75454767  0.36933175  0.56058503  1
  Pr3+  Pr18  1  0.62524715  0.49834769  0.44267704  1
  Pr3+  Pr19  1  -0.00909681  0.63865070  0.04999996  1
  Pr3+  Pr20  1  0.11903552  0.50901885  0.93155980  1
  Pr3+  Pr21  1  0.62635070  0.24658707  0.43255687  1
  Pr3+  Pr22  1  0.86177508  0.50724952  0.93269322  1
  Pr3+  Pr23  1  0.87556311  0.50180275  0.43530583  1
  Pr3+  Pr24  1  0.86019189  0.01101282  0.92124874  1
  Pr3+  Pr25  1  0.85715476  0.75652809  0.92100866  1
  Pr3+  Pr26  1  0.25161442  0.12271736  0.56474418  1
  Pr3+  Pr27  1  0.37727431  0.24268251  0.42726226  1
  Pr3+  Pr28  1  0.48918106  0.38600924  0.06923741  1
  Pr3+  Pr29  1  0.12452852  0.49698631  0.44059488  1
  Pr3+  Pr30  1  0.74765117  0.62179771  0.56826729  1
  Nd3+  Nd31  1  0.49912622  0.36828213  0.55398448  1
  Nd3+  Nd32  1  0.61362476  0.75838866  0.93907434  1
  Nd3+  Nd33  1  0.62605401  -0.00183295  0.44204289  1
  Nd3+  Nd34  1  0.00778322  0.11731849  0.57170133  1
  Nd3+  Nd35  1  0.22316949  0.89525372  0.07130729  1
  Nd3+  Nd36  1  0.36693874  0.50832880  0.94763297  1
  Nd3+  Nd37  1  0.13108148  0.76218114  0.91989356  1
  Nd3+  Nd38  1  0.36832130  0.00879889  0.94474938  1
  Nd3+  Nd39  1  0.87715517  0.74372304  0.44575815  1
  Nd3+  Nd40  1  0.49184953  0.13288461  0.06290630  1
  Nd3+  Nd41  1  0.00047678  0.37384855  0.55626843  1
  Nd3+  Nd42  1  0.75216567  0.12375210  0.55827935  1
  Nd3+  Nd43  1  0.50256327  0.62058370  0.56910160  1
  Nd3+  Nd44  1  0.12410316  0.74641122  0.44382782  1
  Nd3+  Nd45  1  0.75054745  0.87370255  0.56253241  1
  Nd3+  Nd46  1  0.61470136  0.00980563  0.93294803  1
  Nd3+  Nd47  1  0.87665500  -0.00021977  0.44443674  1
  Nd3+  Nd48  1  0.25337449  0.86907540  0.56066300  1
  Nd3+  Nd49  1  0.74497592  0.39123690  0.07464913  1
  Nd3+  Nd50  1  0.00225126  0.87170564  0.57618419  1
  Sm3+  Sm51  1  0.36414568  0.76037591  0.94907945  1
  Sm3+  Sm52  1  0.62324834  0.74735363  0.44129860  1
  Sm3+  Sm53  1  0.36987160  0.26083359  0.95009989  1
  Sm3+  Sm54  1  0.49573623  0.12139251  0.56359867  1
  Sm3+  Sm55  1  0.61823969  0.25891605  0.95428562  1
  Sm3+  Sm56  1  -0.01211920  0.13064604  0.04918360  1
  Sm3+  Sm57  1  0.48955227  0.88456700  0.06312206  1
  Sm3+  Sm58  1  0.61602063  0.50966218  0.95293577  1
  Sm3+  Sm59  1  0.50044288  0.87187884  0.55651579  1
  Sm3+  Sm60  1  0.37640718  -0.00836030  0.43858590  1
  Sm3+  Sm61  1  0.11552663  0.25781790  0.94088507  1
  Sm3+  Sm62  1  -0.01116623  0.38195140  0.05076959  1
  Sm3+  Sm63  1  0.25217838  0.37191573  0.55033659  1
  Bi2+  Bi64  1  0.02337862  0.11130523  0.28448827  1
  Bi2+  Bi65  1  -0.00646288  0.13987205  0.79090470  1
  Bi2+  Bi66  1  0.01353531  0.43702355  0.27953749  1
  Bi2+  Bi67  1  0.00798168  0.36036379  0.78749499  1
  Bi2+  Bi68  1  0.02593037  0.63590700  0.29708300  1
  Bi2+  Bi69  1  -0.00292850  0.61806291  0.81797585  1
  Bi2+  Bi70  1  0.00306080  0.82330232  0.27553851  1
  Bi2+  Bi71  1  -0.00076981  0.87822753  0.77434336  1
  Bi2+  Bi72  1  0.28787792  0.16454303  0.31220008  1
  Bi2+  Bi73  1  0.33432277  0.12409549  0.78323040  1
  Bi2+  Bi74  1  0.29296957  0.36035992  0.29332951  1
  Bi2+  Bi75  1  0.30476449  0.37900511  0.78124854  1
  Bi2+  Bi76  1  0.26862980  0.58177739  0.27602836  1
  Bi2+  Bi77  1  0.27509402  0.62403630  0.79202849  1
  Bi2+  Bi78  1  0.23100174  0.90783245  0.29973561  1
  Bi2+  Bi79  1  0.32760003  0.87887205  0.79017051  1
  Bi2+  Bi80  1  0.49753755  0.10163770  0.28941414  1
  Bi2+  Bi81  1  0.51273460  0.06319966  0.81451190  1
  Bi2+  Bi82  1  0.48684276  0.35398452  0.27829393  1
  Bi2+  Bi83  1  0.50210015  0.34337224  0.79914400  1
  Bi2+  Bi84  1  0.52216773  0.59369319  0.29159526  1
  Bi2+  Bi85  1  0.47786501  0.63590463  0.79532648  1
  Bi2+  Bi86  1  0.55029127  0.83088024  0.26639552  1
  Bi2+  Bi87  1  0.50247365  0.87167109  0.84350198  1
  Bi2+  Bi88  1  0.76016173  0.10983410  0.29018155  1
  Bi2+  Bi89  1  0.71513571  0.14903600  0.78846189  1
  Bi2+  Bi90  1  0.74504320  0.39046534  0.28661892  1
  Bi2+  Bi91  1  0.69299186  0.37503492  0.78301581  1
  Bi2+  Bi92  1  0.76373887  0.67599754  0.29458798  1
  Bi2+  Bi93  1  0.70921504  0.60029996  0.79429945  1
  Bi2+  Bi94  1  0.73479742  0.86814716  0.29833812  1
  Bi2+  Bi95  1  0.67365367  0.87537382  0.79042521  1
  Bi2+  Bi96  1  0.07727780  0.00040016  0.19647402  1
  Bi2+  Bi97  1  0.14419364  0.01991515  0.70290007  1
  Bi2+  Bi98  1  0.13108952  0.27027334  0.25603251  1
  Bi2+  Bi99  1  0.15797002  0.24906153  0.75939069  1
  Bi2+  Bi100  1  0.12843638  0.48221898  0.19212545  1
  Bi2+  Bi101  1  0.15895925  0.45938945  0.70230916  1
  Bi2+  Bi102  1  0.14207110  0.75896945  0.19313833  1
  Bi2+  Bi103  1  0.14971686  0.75064938  0.71356134  1
  Bi2+  Bi104  1  0.34835192  0.02861141  0.23293919  1
  Bi2+  Bi105  1  0.41035055  -0.00818966  0.70645939  1
  Bi2+  Bi106  1  0.38991277  0.21342418  0.21203443  1
  Bi2+  Bi107  1  0.40046788  0.25830888  0.70264792  1
  Bi2+  Bi108  1  0.40806458  0.48069464  0.20152554  1
  Bi2+  Bi109  1  0.36218990  0.54607150  0.69508502  1
  Bi2+  Bi110  1  0.38649189  0.75422231  0.21036938  1
  Bi2+  Bi111  1  0.37996188  0.73928130  0.71155525  1
  Bi2+  Bi112  1  0.62089489  -0.02735723  0.20221286  1
  Bi2+  Bi113  1  0.60469643  0.02358360  0.71223993  1
  Bi2+  Bi114  1  0.62935007  0.24520568  0.20584905  1
  Bi2+  Bi115  1  0.59672189  0.24437138  0.71160683  1
  Bi2+  Bi116  1  0.66578071  0.55946012  0.21794549  1
  Bi2+  Bi117  1  0.55226610  0.51497917  0.71418753  1
  Bi2+  Bi118  1  0.68719528  0.74831272  0.18795291  1
  Bi2+  Bi119  1  0.58202165  0.74953127  0.71808466  1
  Bi2+  Bi120  1  0.86762864  -0.07387970  0.22132768  1
  Bi2+  Bi121  1  0.84899425  0.00402184  0.70793051  1
  Bi2+  Bi122  1  0.90091398  0.25508671  0.18539476  1
  Bi2+  Bi123  1  0.86290956  0.25307308  0.73844909  1
  Bi2+  Bi124  1  0.89163492  0.56463578  0.22183931  1
  Bi2+  Bi125  1  0.86632717  0.47331662  0.71089672  1
  Bi2+  Bi126  1  0.88081918  0.74353739  0.17574883  1
  Bi2+  Bi127  1  0.85294950  0.74478908  0.71748257  1
  S2-  S128  1  -0.02866038  0.11175110  0.14655741  1
  S2-  S129  1  -0.00747758  -0.00011622  0.65117522  1
  S2-  S130  1  0.00387314  0.39005443  0.14819000  1
  S2-  S131  1  0.00631071  0.43756385  0.64953326  1
  S2-  S132  1  0.08319720  0.62798630  0.13490974  1
  S2-  S133  1  -0.00659717  0.60300686  0.72506464  1
  S2-  S134  1  0.06587386  0.87541995  0.12420866  1
  S2-  S135  1  -0.00069617  0.77701153  0.66177216  1
  S2-  S136  1  0.20379648  0.05203711  0.14137892  1
  S2-  S137  1  0.13586358  0.14399915  0.64365129  1
  S2-  S138  1  0.26219174  0.40106420  0.15803092  1
  S2-  S139  1  0.24584874  0.36231681  0.64876545  1
  S2-  S140  1  0.27620778  0.64834366  0.17037640  1
  S2-  S141  1  0.16712016  0.62190253  0.65185591  1
  S2-  S142  1  0.27033671  0.85049788  0.16676483  1
  S2-  S143  1  0.21193244  0.88305291  0.65889164  1
  S2-  S144  1  0.57939388  0.11073307  0.14665872  1
  S2-  S145  1  0.37973384  0.12293670  0.63738037  1
  S2-  S146  1  0.53480678  0.38270834  0.16621232  1
  S2-  S147  1  0.51199556  0.37128732  0.65287849  1
  S2-  S148  1  0.48826298  0.62990953  0.16679279  1
  S2-  S149  1  0.61637128  0.62916155  0.64508512  1
  S2-  S150  1  0.49071550  0.87748192  0.16116479  1
  S2-  S151  1  0.52877764  0.88814153  0.65364920  1
  S2-  S152  1  0.76785376  0.14821472  0.18887510  1
  S2-  S153  1  0.74714430  0.09609515  0.65748353  1
  S2-  S154  1  0.75121852  0.33818526  0.17220001  1
  S2-  S155  1  0.75595814  0.39688564  0.66105055  1
  S2-  S156  1  0.77650045  0.52794549  0.14228464  1
  S2-  S157  1  0.83177179  0.61842713  0.65678017  1
  S2-  S158  1  0.75809526  0.96283405  0.13828417  1
  S2-  S159  1  0.78199876  0.86991525  0.66170488  1
  S2-  S160  1  0.15400446  0.05129433  0.34140056  1
  S2-  S161  1  0.11407259  -0.02674917  0.80607337  1
  S2-  S162  1  0.05254722  0.24975813  0.35132497  1
  S2-  S163  1  0.13142006  0.17890711  0.85465431  1
  S2-  S164  1  0.13784532  0.52046433  0.34057031  1
  S2-  S165  1  0.10608360  0.47940809  0.83219189  1
  S2-  S166  1  0.10413046  0.85056302  0.36295599  1
  S2-  S167  1  0.09838175  0.75576692  0.81802337  1
  S2-  S168  1  0.37180623  -0.08832445  0.35094474  1
  S2-  S169  1  0.28919920  0.00876122  0.85688701  1
  S2-  S170  1  0.50465811  0.23729763  0.35592636  1
  S2-  S171  1  0.37271004  0.25897977  0.85222384  1
  S2-  S172  1  0.38720787  0.57659486  0.35337003  1
  S2-  S173  1  0.35843205  0.50953100  0.84861044  1
  S2-  S174  1  0.28125048  0.73628700  0.30443592  1
  S2-  S175  1  0.28338028  0.75748024  0.86238524  1
  S2-  S176  1  0.62927265  0.02456202  0.34347618  1
  S2-  S177  1  0.72110795  0.01429378  0.85325774  1
  S2-  S178  1  0.71874076  0.25223052  0.34426353  1
  S2-  S179  1  0.63491440  0.26289848  0.85650841  1
  S2-  S180  1  0.63246770  0.48524142  0.34180877  1
  S2-  S181  1  0.63028955  0.50137698  0.85530017  1
  S2-  S182  1  0.54024060  0.73397890  0.35385265  1
  S2-  S183  1  0.70837112  0.73852121  0.85642168  1
  S2-  S184  1  0.88921236  0.06844603  0.35337575  1
  S2-  S185  1  0.91164699  0.00631604  0.82024046  1
  S2-  S186  1  0.88394296  0.22864457  0.27909951  1
  S2-  S187  1  0.88525644  0.26657022  0.84579393  1
  S2-  S188  1  0.87170427  0.41232382  0.34590894  1
  S2-  S189  1  0.84983314  0.52588892  0.83242384  1
  S2-  S190  1  0.88074984  0.63754578  0.36337301  1
  S2-  S191  1  0.89582618  0.76127669  0.82067785  1
  S2-  S192  1  0.00391984  0.11735986  0.46123194  1
  S2-  S193  1  -0.01229335  0.13522283  0.94420223  1
  S2-  S194  1  -0.00069151  0.37043336  0.45116555  1
  S2-  S195  1  -0.00883988  0.38194614  0.94583545  1
  S2-  S196  1  0.00519315  0.62302198  0.45723889  1
  S2-  S197  1  -0.00823111  0.63577054  0.94104460  1
  S2-  S198  1  -0.00647461  0.86990430  0.46567213  1
  S2-  S199  1  -0.00497438  0.88408478  0.92968729  1
  S2-  S200  1  0.25489194  0.11702479  0.45437094  1
  S2-  S201  1  0.24753730  0.14036414  0.95553314  1
  S2-  S202  1  0.25260559  0.37059036  0.44443173  1
  S2-  S203  1  0.24154389  0.38029938  0.95075113  1
  S2-  S204  1  0.25185434  0.62723346  0.45296294  1
  S2-  S205  1  0.24322221  0.63064168  0.95876863  1
  S2-  S206  1  0.26072937  0.86239940  0.45519944  1
  S2-  S207  1  0.24358143  0.88746171  0.95961189  1
  S2-  S208  1  0.49812508  0.11619745  0.45818605  1
  S2-  S209  1  0.49234445  0.13664746  0.95682649  1
  S2-  S210  1  0.49795191  0.37483957  0.44860557  1
  S2-  S211  1  0.49369961  0.38457756  0.96084792  1
  S2-  S212  1  0.50140930  0.62573390  0.46253065  1
  S2-  S213  1  0.48953669  0.63446596  0.95687357  1
  S2-  S214  1  0.50265041  0.87184368  0.45245045  1
  S2-  S215  1  0.48974188  0.88282373  0.95926511  1
  S2-  S216  1  0.75122607  0.12280469  0.45335140  1
  S2-  S217  1  0.73768427  0.13549900  0.95836831  1
  S2-  S218  1  0.75019357  0.37137813  0.45397177  1
  S2-  S219  1  0.73830015  0.38567731  0.96166440  1
  S2-  S220  1  0.74464156  0.62562023  0.45894449  1
  S2-  S221  1  0.73908035  0.63037540  0.96052417  1
  S2-  S222  1  0.75044767  0.87082575  0.45375121  1
  S2-  S223  1  0.73851938  0.88329885  0.94869489  1
  S2-  S224  1  0.11231118  0.01650317  0.02587391  1
  S2-  S225  1  0.13041309  -0.00859611  0.54400383  1
  S2-  S226  1  0.11194639  0.25661120  0.04636671  1
  S2-  S227  1  0.12676828  0.25278730  0.54317053  1
  S2-  S228  1  0.11220273  0.50447955  0.03779528  1
  S2-  S229  1  0.12973459  0.49395726  0.54600456  1
  S2-  S230  1  0.11691121  0.75905193  0.02805049  1
  S2-  S231  1  0.12638521  0.74902987  0.54885080  1
  S2-  S232  1  0.36765503  0.00813988  0.05307936  1
  S2-  S233  1  0.37755398  -0.00690865  0.54370272  1
  S2-  S234  1  0.36561307  0.25794744  0.05569282  1
  S2-  S235  1  0.37482923  0.24744835  0.53671849  1
  S2-  S236  1  0.36233224  0.51196048  0.05386968  1
  S2-  S237  1  0.37700916  0.49628167  0.54860678  1
  S2-  S238  1  0.36140803  0.76344179  0.05309096  1
  S2-  S239  1  0.38075081  0.74667805  0.56182783  1
  S2-  S240  1  0.61255039  0.00499808  0.04024909  1
  S2-  S241  1  0.62260745  -0.00027855  0.54903257  1
  S2-  S242  1  0.61962480  0.26131516  0.05749183  1
  S2-  S243  1  0.62224918  0.24325002  0.54665209  1
  S2-  S244  1  0.61450434  0.51326101  0.05708683  1
  S2-  S245  1  0.62524274  0.49160126  0.54894716  1
  S2-  S246  1  0.61393215  0.76111043  0.04742351  1
  S2-  S247  1  0.62537588  0.75231654  0.54555026  1
  S2-  S248  1  0.86703469  0.00926865  0.03209750  1
  S2-  S249  1  0.87353612  -0.00228426  0.54922112  1
  S2-  S250  1  0.86318186  0.25686171  0.05046478  1
  S2-  S251  1  0.88099367  0.24273912  0.56528707  1
  S2-  S252  1  0.87231515  0.50867395  0.03928771  1
  S2-  S253  1  0.87576994  0.49831721  0.54533516  1
  S2-  S254  1  0.86725573  0.76191653  0.03282257  1
  S2-  S255  1  0.87303600  0.74892199  0.55093951  1
