# generated using pymatgen
data_La6Ce6Pr19Nd20Sm13(BiS2)64
_symmetry_space_group_name_H-M   'P 1'
_cell_length_a   16.04691445
_cell_length_b   16.09170013
_cell_length_c   27.42899958
_cell_angle_alpha   89.90287535
_cell_angle_beta   89.89935889
_cell_angle_gamma   89.99784707
_symmetry_Int_Tables_number   1
_chemical_formula_structural   La6Ce6Pr19Nd20Sm13(BiS2)64
_chemical_formula_sum   'La6 Ce6 Pr19 Nd20 Sm13 Bi64 S128'
_cell_volume   7082.75373637
_cell_formula_units_Z   1
loop_
 _symmetry_equiv_pos_site_id
 _symmetry_equiv_pos_as_xyz
  1  'x, y, z'
loop_
 _atom_type_symbol
 _atom_type_oxidation_number
  La3+  3.0
  Ce3+  3.0
  Pr3+  3.0
  Nd3+  3.0
  Sm3+  3.0
  Bi2+  2.0
  S2-  -2.0
loop_
 _atom_site_type_symbol
 _atom_site_label
 _atom_site_symmetry_multiplicity
 _atom_site_fract_x
 _atom_site_fract_y
 _atom_site_fract_z
 _atom_site_occupancy
  La3+  La0  1  0.02285245  0.88186031  0.11026493  1
  La3+  La1  1  0.39150930  0.24277228  0.88871865  1
  La3+  La2  1  0.37703845  0.27018526  0.40861891  1
  La3+  La3  1  0.25999299  0.59121867  0.62948602  1
  La3+  La4  1  0.90152019  0.00137652  0.92528125  1
  La3+  La5  1  0.00369941  0.63017737  0.57504587  1
  Ce3+  Ce6  1  0.26991276  0.87344714  0.06626733  1
  Ce3+  Ce7  1  0.12552230  0.75621492  0.43906938  1
  Ce3+  Ce8  1  0.77064821  0.62401693  0.05913932  1
  Ce3+  Ce9  1  0.51461510  0.62514211  0.06913940  1
  Ce3+  Ce10  1  0.87798364  0.75470059  0.43991875  1
  Ce3+  Ce11  1  0.75017731  0.37923792  0.55067580  1
  Pr3+  Pr12  1  0.64232235  0.74802139  0.94072653  1
  Pr3+  Pr13  1  0.63807534  0.49718480  0.94715629  1
  Pr3+  Pr14  1  0.02138404  0.37407969  0.07593399  1
  Pr3+  Pr15  1  -0.00188458  0.37408367  0.56879582  1
  Pr3+  Pr16  1  0.89498010  0.49767069  0.94130124  1
  Pr3+  Pr17  1  0.87677160  0.00941866  0.43170980  1
  Pr3+  Pr18  1  0.25348605  0.86939678  0.56625668  1
  Pr3+  Pr19  1  0.25473877  0.12870635  0.55846161  1
  Pr3+  Pr20  1  0.62894486  0.75253759  0.43625348  1
  Pr3+  Pr21  1  0.12911362  0.00827468  0.43827438  1
  Pr3+  Pr22  1  0.24982605  0.36876800  0.56355192  1
  Pr3+  Pr23  1  0.88002131  0.50681784  0.43792887  1
  Pr3+  Pr24  1  0.37548304  0.51757891  0.43618393  1
  Pr3+  Pr25  1  0.64973510  -0.00352108  0.92793091  1
  Pr3+  Pr26  1  0.75179714  0.88188944  0.55662564  1
  Pr3+  Pr27  1  0.01914122  0.12150429  0.06132346  1
  Pr3+  Pr28  1  0.51697041  0.87538991  0.06179975  1
  Pr3+  Pr29  1  0.00115499  0.12794756  0.55749524  1
  Pr3+  Pr30  1  0.75246173  0.62948221  0.57008023  1
  Nd3+  Nd31  1  0.26869036  0.62573229  0.07124696  1
  Nd3+  Nd32  1  0.12360131  0.26128673  0.42953548  1
  Nd3+  Nd33  1  0.14540012  0.25442241  0.93832079  1
  Nd3+  Nd34  1  0.76601854  0.37351094  0.05575203  1
  Nd3+  Nd35  1  0.01175178  0.62406701  0.10830104  1
  Nd3+  Nd36  1  0.14542466  -0.00243866  0.94040237  1
  Nd3+  Nd37  1  0.49633111  0.63317456  0.56333960  1
  Nd3+  Nd38  1  0.76755836  0.12231425  0.05392165  1
  Nd3+  Nd39  1  0.37623565  0.00650856  0.43299589  1
  Nd3+  Nd40  1  0.00132495  0.88233548  0.55584411  1
  Nd3+  Nd41  1  0.13077062  0.51001761  0.45011728  1
  Nd3+  Nd42  1  0.39003664  0.50109066  0.93605948  1
  Nd3+  Nd43  1  0.37415448  0.76397107  0.43019158  1
  Nd3+  Nd44  1  0.39006836  0.74750999  0.93510935  1
  Nd3+  Nd45  1  0.13990361  0.74853612  0.95737061  1
  Nd3+  Nd46  1  0.49567685  0.38238356  0.55644946  1
  Nd3+  Nd47  1  0.77350106  0.87534371  0.06113802  1
  Nd3+  Nd48  1  0.50085853  0.13191301  0.55135955  1
  Nd3+  Nd49  1  0.26844032  0.37353729  0.06721351  1
  Nd3+  Nd50  1  0.75042727  0.13462908  0.55669680  1
  Sm3+  Sm51  1  0.39679466  -0.00361972  0.92822571  1
  Sm3+  Sm52  1  0.63109386  0.25660681  0.42523644  1
  Sm3+  Sm53  1  0.14251064  0.49934085  0.95306617  1
  Sm3+  Sm54  1  0.87782541  0.25859707  0.43005254  1
  Sm3+  Sm55  1  0.89570650  0.25092876  0.94408034  1
  Sm3+  Sm56  1  0.89800353  0.74873194  0.94858254  1
  Sm3+  Sm57  1  0.51541009  0.12102872  0.04921621  1
  Sm3+  Sm58  1  0.62741915  0.00794463  0.43821289  1
  Sm3+  Sm59  1  0.50949811  0.37148565  0.06286459  1
  Sm3+  Sm60  1  0.63596221  0.24945809  0.94070349  1
  Sm3+  Sm61  1  0.62560152  0.50821590  0.44650473  1
  Sm3+  Sm62  1  0.27005541  0.12238402  0.04911406  1
  Sm3+  Sm63  1  0.50326784  0.88110650  0.55166764  1
  Bi2+  Bi64  1  -0.10803776  0.14315855  0.30429275  1
  Bi2+  Bi65  1  -0.05807615  0.06295578  0.78123991  1
  Bi2+  Bi66  1  -0.13114731  0.35530719  0.30233364  1
  Bi2+  Bi67  1  -0.00426662  0.32627178  0.80989553  1
  Bi2+  Bi68  1  0.00941209  0.63580453  0.31614103  1
  Bi2+  Bi69  1  0.02300643  0.60298161  0.83311716  1
  Bi2+  Bi70  1  0.00984634  0.89445464  0.31435304  1
  Bi2+  Bi71  1  -0.05490252  0.85723697  0.77772471  1
  Bi2+  Bi72  1  0.33961973  0.14187884  0.29694501  1
  Bi2+  Bi73  1  0.18882567  -0.00934844  0.79129760  1
  Bi2+  Bi74  1  0.26543004  0.36448811  0.27226529  1
  Bi2+  Bi75  1  0.24815415  0.38111564  0.79357622  1
  Bi2+  Bi76  1  0.25248791  0.60265970  0.31124110  1
  Bi2+  Bi77  1  0.26191743  0.69055840  0.79706231  1
  Bi2+  Bi78  1  0.24661969  0.96775046  0.29371391  1
  Bi2+  Bi79  1  0.33538807  0.86586560  0.82585341  1
  Bi2+  Bi80  1  0.53983019  0.14581354  0.27655464  1
  Bi2+  Bi81  1  0.45813073  0.06245378  0.76646946  1
  Bi2+  Bi82  1  0.47962035  0.39443824  0.27648705  1
  Bi2+  Bi83  1  0.52994132  0.38813526  0.79026197  1
  Bi2+  Bi84  1  0.51696066  0.64782900  0.27480113  1
  Bi2+  Bi85  1  0.51052763  0.63191608  0.78743247  1
  Bi2+  Bi86  1  0.49444851  0.92228181  0.27946226  1
  Bi2+  Bi87  1  0.52911568  0.82530388  0.79777383  1
  Bi2+  Bi88  1  0.71251966  0.18494417  0.22764875  1
  Bi2+  Bi89  1  0.69214369  0.05162846  0.78407257  1
  Bi2+  Bi90  1  0.68204028  0.43230336  0.28410474  1
  Bi2+  Bi91  1  0.75955501  0.33604052  0.79140605  1
  Bi2+  Bi92  1  0.72522198  0.64498249  0.29717789  1
  Bi2+  Bi93  1  0.71830651  0.60764581  0.79165856  1
  Bi2+  Bi94  1  0.69815083  0.91570962  0.27462247  1
  Bi2+  Bi95  1  0.70155926  0.79936330  0.73806479  1
  Bi2+  Bi96  1  0.15903474  0.10952065  0.23245483  1
  Bi2+  Bi97  1  0.12048935  -0.06540283  0.67748996  1
  Bi2+  Bi98  1  0.09051588  0.28837377  0.22907992  1
  Bi2+  Bi99  1  0.09763590  0.11846600  0.71766613  1
  Bi2+  Bi100  1  0.10058342  0.49994201  0.22048019  1
  Bi2+  Bi101  1  0.08315924  0.52728034  0.73486066  1
  Bi2+  Bi102  1  0.15835823  0.76561427  0.22318220  1
  Bi2+  Bi103  1  0.10398209  0.76722140  0.73836599  1
  Bi2+  Bi104  1  0.36187932  0.02523511  0.19298674  1
  Bi2+  Bi105  1  0.29307505  0.03013494  0.69174582  1
  Bi2+  Bi106  1  0.40859229  0.25630546  0.20581569  1
  Bi2+  Bi107  1  0.37886148  0.26256302  0.68057237  1
  Bi2+  Bi108  1  0.33180251  0.51878050  0.20474991  1
  Bi2+  Bi109  1  0.44273374  0.48065871  0.70655850  1
  Bi2+  Bi110  1  0.40900028  0.77506369  0.21791455  1
  Bi2+  Bi111  1  0.37128499  0.84922401  0.71149910  1
  Bi2+  Bi112  1  0.59750077  -0.03992357  0.18032087  1
  Bi2+  Bi113  1  0.59687926  0.00157129  0.68364093  1
  Bi2+  Bi114  1  0.61495087  0.34584300  0.18546401  1
  Bi2+  Bi115  1  0.61667606  0.22164763  0.75478731  1
  Bi2+  Bi116  1  0.61186017  0.55511506  0.18869275  1
  Bi2+  Bi117  1  0.69525394  0.46221727  0.70772214  1
  Bi2+  Bi118  1  0.59372791  0.75594707  0.17035687  1
  Bi2+  Bi119  1  0.62561820  0.64169437  0.68349986  1
  Bi2+  Bi120  1  0.88380191  0.01485138  0.20702348  1
  Bi2+  Bi121  1  0.85584476  0.01385221  0.68411351  1
  Bi2+  Bi122  1  0.90103697  0.24152560  0.20406558  1
  Bi2+  Bi123  1  0.88845541  0.26287890  0.72035202  1
  Bi2+  Bi124  1  0.82670259  0.50147945  0.20881214  1
  Bi2+  Bi125  1  0.89170875  0.47244279  0.69126549  1
  Bi2+  Bi126  1  0.77489486  0.76329122  0.21287050  1
  Bi2+  Bi127  1  0.88389567  0.68221936  0.74361282  1
  S2-  S128  1  0.01253465  0.04656151  0.15139916  1
  S2-  S129  1  -0.01340380  0.19347680  0.64912565  1
  S2-  S130  1  -0.02202106  0.47258852  0.15735859  1
  S2-  S131  1  0.04341554  0.41115223  0.66442842  1
  S2-  S132  1  0.02465074  0.66064478  0.21155873  1
  S2-  S133  1  0.09602395  0.64666621  0.66253438  1
  S2-  S134  1  0.02324900  0.86874900  0.22234945  1
  S2-  S135  1  -0.03962427  0.88115056  0.65202883  1
  S2-  S136  1  0.25197921  0.12792057  0.14796314  1
  S2-  S137  1  0.23487669  0.22774105  0.63968588  1
  S2-  S138  1  0.15625417  0.35995438  0.14684579  1
  S2-  S139  1  0.30410765  0.41914992  0.65493430  1
  S2-  S140  1  0.19180790  0.60355498  0.16225249  1
  S2-  S141  1  0.25275401  0.55726547  0.73649784  1
  S2-  S142  1  0.18490728  0.87177354  0.15363863  1
  S2-  S143  1  0.27085669  0.76988649  0.64882830  1
  S2-  S144  1  0.50639717  0.09445565  0.14659474  1
  S2-  S145  1  0.48574598  0.12471547  0.65041659  1
  S2-  S146  1  0.39322526  0.38595018  0.14032209  1
  S2-  S147  1  0.52623406  0.35764076  0.65314272  1
  S2-  S148  1  0.39901237  0.63277929  0.14319035  1
  S2-  S149  1  0.43140227  0.62216201  0.65481642  1
  S2-  S150  1  0.39581165  0.88004285  0.13691517  1
  S2-  S151  1  0.51367814  0.87211559  0.64967690  1
  S2-  S152  1  0.74981235  0.08070258  0.15011784  1
  S2-  S153  1  0.73413808  0.11383444  0.65442435  1
  S2-  S154  1  0.78893603  0.35799146  0.15294102  1
  S2-  S155  1  0.78940489  0.34681059  0.64239063  1
  S2-  S156  1  0.84063753  0.63254894  0.14839216  1
  S2-  S157  1  0.86842113  0.63409837  0.64662100  1
  S2-  S158  1  0.85557556  0.87708001  0.14895868  1
  S2-  S159  1  0.74373561  0.88941224  0.65646639  1
  S2-  S160  1  0.09899506  0.03144982  0.34041430  1
  S2-  S161  1  0.04760747  -0.00191074  0.85693217  1
  S2-  S162  1  -0.00438934  0.27013113  0.35764240  1
  S2-  S163  1  0.14846922  0.25961736  0.83861135  1
  S2-  S164  1  0.12593813  0.50656370  0.34897785  1
  S2-  S165  1  0.14520316  0.49108236  0.85415110  1
  S2-  S166  1  0.15385904  0.74596956  0.33925036  1
  S2-  S167  1  0.13628433  0.73855353  0.85645383  1
  S2-  S168  1  0.37061698  -0.10841410  0.35669072  1
  S2-  S169  1  0.36656083  0.08445730  0.84445131  1
  S2-  S170  1  0.23188108  0.25382578  0.34955969  1
  S2-  S171  1  0.34410245  0.25761045  0.77842729  1
  S2-  S172  1  0.36782754  0.42525240  0.35036575  1
  S2-  S173  1  0.37759117  0.40733797  0.85158810  1
  S2-  S174  1  0.39071261  0.65014350  0.35386894  1
  S2-  S175  1  0.39230747  0.62719075  0.86179156  1
  S2-  S176  1  0.61200356  0.02346475  0.34185304  1
  S2-  S177  1  0.55454112  -0.00835264  0.84212005  1
  S2-  S178  1  0.52507425  0.26457047  0.34796812  1
  S2-  S179  1  0.55818715  0.24885669  0.85315063  1
  S2-  S180  1  0.60818109  0.55460369  0.35303769  1
  S2-  S181  1  0.60323766  0.51112179  0.84975950  1
  S2-  S182  1  0.65703470  0.78331588  0.33904475  1
  S2-  S183  1  0.67398307  0.76519305  0.84307251  1
  S2-  S184  1  0.85796834  -0.01892308  0.33340514  1
  S2-  S185  1  0.77831565  -0.01747591  0.85502565  1
  S2-  S186  1  0.75952738  0.24252037  0.35525728  1
  S2-  S187  1  0.91031502  0.19930187  0.85128081  1
  S2-  S188  1  0.89158217  0.52823103  0.33781332  1
  S2-  S189  1  0.90790920  0.47191209  0.84239707  1
  S2-  S190  1  0.90760125  0.75667045  0.34305971  1
  S2-  S191  1  0.90507973  0.74296495  0.84883167  1
  S2-  S192  1  0.00109953  0.13133646  0.45167609  1
  S2-  S193  1  0.02175859  0.12966887  0.95604729  1
  S2-  S194  1  0.00282894  0.38514515  0.46040377  1
  S2-  S195  1  0.01864742  0.37297633  0.96249446  1
  S2-  S196  1  0.00194021  0.63157163  0.46023302  1
  S2-  S197  1  0.01783030  0.62223468  0.95751296  1
  S2-  S198  1  0.00091309  0.88392215  0.44965145  1
  S2-  S199  1  0.01787600  0.87163594  0.95437724  1
  S2-  S200  1  0.25498672  0.13196208  0.45092154  1
  S2-  S201  1  0.26849255  0.12662218  0.94624166  1
  S2-  S202  1  0.25089762  0.38223323  0.45583355  1
  S2-  S203  1  0.26583884  0.37603443  0.95989071  1
  S2-  S204  1  0.25020042  0.63842595  0.45217659  1
  S2-  S205  1  0.26409182  0.62298473  0.96340485  1
  S2-  S206  1  0.24855055  0.88278920  0.45816129  1
  S2-  S207  1  0.26785784  0.87388651  0.95740414  1
  S2-  S208  1  0.50181406  0.13061355  0.44561609  1
  S2-  S209  1  0.51558971  0.12228315  0.94720266  1
  S2-  S210  1  0.50465349  0.38610563  0.45081274  1
  S2-  S211  1  0.51351602  0.37066995  0.95882768  1
  S2-  S212  1  0.50457439  0.63409701  0.45772898  1
  S2-  S213  1  0.51819234  0.62532151  0.96156050  1
  S2-  S214  1  0.50866081  0.88366000  0.44813742  1
  S2-  S215  1  0.51579648  0.87253390  0.95205895  1
  S2-  S216  1  0.74998311  0.12987634  0.45197621  1
  S2-  S217  1  0.76654261  0.13217582  0.94919749  1
  S2-  S218  1  0.74973047  0.38533102  0.44617676  1
  S2-  S219  1  0.76537959  0.36972577  0.94986599  1
  S2-  S220  1  0.75307804  0.62904748  0.45795142  1
  S2-  S221  1  0.76870673  0.62288573  0.95224566  1
  S2-  S222  1  0.75146313  0.88298612  0.44929124  1
  S2-  S223  1  0.77278496  0.86861363  0.95643967  1
  S2-  S224  1  0.14396499  -0.00269275  0.04531564  1
  S2-  S225  1  0.12956773  0.00460615  0.54564061  1
  S2-  S226  1  0.14479801  0.24563517  0.04462206  1
  S2-  S227  1  0.12150315  0.25216214  0.53667767  1
  S2-  S228  1  0.13664599  0.50565741  0.05508117  1
  S2-  S229  1  0.13189989  0.50435538  0.55693901  1
  S2-  S230  1  0.13225706  0.74463559  0.06164874  1
  S2-  S231  1  0.11982757  0.75850513  0.54499638  1
  S2-  S232  1  0.39269725  0.00067313  0.03393615  1
  S2-  S233  1  0.37773195  0.00177686  0.54089410  1
  S2-  S234  1  0.39324199  0.24315974  0.04740083  1
  S2-  S235  1  0.37962994  0.25406855  0.53721915  1
  S2-  S236  1  0.39318980  0.50067969  0.04214636  1
  S2-  S237  1  0.37304186  0.50883672  0.54612671  1
  S2-  S238  1  0.39317370  0.74907459  0.03970529  1
  S2-  S239  1  0.38561477  0.76169608  0.53747163  1
  S2-  S240  1  0.64352807  -0.00223227  0.03742225  1
  S2-  S241  1  0.62663994  0.00748337  0.54235129  1
  S2-  S242  1  0.63862963  0.24761041  0.04579598  1
  S2-  S243  1  0.62450496  0.25606284  0.53720807  1
  S2-  S244  1  0.63956655  0.49584071  0.05255752  1
  S2-  S245  1  0.62556884  0.50633096  0.55068897  1
  S2-  S246  1  0.64524741  0.74978319  0.04702398  1
  S2-  S247  1  0.62773372  0.75489887  0.54454484  1
  S2-  S248  1  0.89238942  0.00098140  0.03960282  1
  S2-  S249  1  0.87370513  0.00782863  0.53962696  1
  S2-  S250  1  0.89318276  0.24930862  0.04873432  1
  S2-  S251  1  0.87587015  0.25418386  0.53576918  1
  S2-  S252  1  0.89228955  0.49734231  0.04705795  1
  S2-  S253  1  0.87631058  0.50285283  0.54500811  1
  S2-  S254  1  0.89971472  0.74796226  0.05164391  1
  S2-  S255  1  0.87594675  0.75696456  0.54516964  1
