# generated using pymatgen
data_La6Ce6Pr19Nd20Sm13(BiS2)64
_symmetry_space_group_name_H-M   'P 1'
_cell_length_a   16.04126442
_cell_length_b   15.99819255
_cell_length_c   27.37492029
_cell_angle_alpha   89.81536695
_cell_angle_beta   90.13912550
_cell_angle_gamma   90.00205009
_symmetry_Int_Tables_number   1
_chemical_formula_structural   La6Ce6Pr19Nd20Sm13(BiS2)64
_chemical_formula_sum   'La6 Ce6 Pr19 Nd20 Sm13 Bi64 S128'
_cell_volume   7025.20246387
_cell_formula_units_Z   1
loop_
 _symmetry_equiv_pos_site_id
 _symmetry_equiv_pos_as_xyz
  1  'x, y, z'
loop_
 _atom_type_symbol
 _atom_type_oxidation_number
  La3+  3.0
  Ce3+  3.0
  Pr3+  3.0
  Nd3+  3.0
  Sm3+  3.0
  Bi2+  2.0
  S2-  -2.0
loop_
 _atom_site_type_symbol
 _atom_site_label
 _atom_site_symmetry_multiplicity
 _atom_site_fract_x
 _atom_site_fract_y
 _atom_site_fract_z
 _atom_site_occupancy
  La3+  La0  1  0.00341340  0.12988710  0.05564567  1
  La3+  La1  1  0.11855241  0.26931516  0.92543198  1
  La3+  La2  1  -0.00736208  0.64248586  0.10547371  1
  La3+  La3  1  0.25977158  0.63859695  0.09928826  1
  La3+  La4  1  0.62673222  0.26333490  0.93501029  1
  La3+  La5  1  0.27582738  0.87985401  0.60094801  1
  Ce3+  Ce6  1  0.41285473  0.50741487  0.42342785  1
  Ce3+  Ce7  1  0.41121926  0.01134313  0.44969985  1
  Ce3+  Ce8  1  0.87337375  0.00950550  0.93593980  1
  Ce3+  Ce9  1  0.53728586  0.13503644  0.57379065  1
  Ce3+  Ce10  1  0.16407103  0.00833129  0.44607539  1
  Ce3+  Ce11  1  0.87967344  0.27006327  0.93785230  1
  Pr3+  Pr12  1  0.65666948  0.76934033  0.42246038  1
  Pr3+  Pr13  1  0.28828019  0.38814557  0.56682725  1
  Pr3+  Pr14  1  0.25549434  0.88024820  0.06181533  1
  Pr3+  Pr15  1  0.12513262  0.75763788  0.93670619  1
  Pr3+  Pr16  1  0.28871773  0.63748020  0.55549496  1
  Pr3+  Pr17  1  0.04463971  0.13769843  0.57229403  1
  Pr3+  Pr18  1  0.53594937  0.88300857  0.56564519  1
  Pr3+  Pr19  1  0.90882122  0.76735728  0.43138936  1
  Pr3+  Pr20  1  0.53931323  0.38655616  0.56271992  1
  Pr3+  Pr21  1  0.12908145  0.00134422  0.89611417  1
  Pr3+  Pr22  1  0.78273016  0.88089937  0.57161744  1
  Pr3+  Pr23  1  0.78644587  0.38836215  0.56792970  1
  Pr3+  Pr24  1  0.16525391  0.26335718  0.43808148  1
  Pr3+  Pr25  1  0.00273767  0.87517230  0.05357301  1
  Pr3+  Pr26  1  0.49714121  0.38141884  0.07061842  1
  Pr3+  Pr27  1  0.36655623  0.26236448  0.92388260  1
  Pr3+  Pr28  1  0.41127512  0.76244973  0.43103734  1
  Pr3+  Pr29  1  0.38254110  0.01211194  0.91440218  1
  Pr3+  Pr30  1  0.16555480  0.76838091  0.41850538  1
  Nd3+  Nd31  1  0.74933470  0.12885186  0.06498464  1
  Nd3+  Nd32  1  0.75305703  0.37703347  0.07599939  1
  Nd3+  Nd33  1  0.62692315  0.75648857  0.93847105  1
  Nd3+  Nd34  1  0.87321615  0.75640861  0.94148037  1
  Nd3+  Nd35  1  0.00877909  0.37929186  0.08064669  1
  Nd3+  Nd36  1  0.63176580  0.01406382  0.92241104  1
  Nd3+  Nd37  1  0.12515926  0.51238074  0.96122965  1
  Nd3+  Nd38  1  0.49700772  0.88025231  0.05333564  1
  Nd3+  Nd39  1  0.66564906  0.50514248  0.42543703  1
  Nd3+  Nd40  1  0.25267665  0.37654555  0.06983109  1
  Nd3+  Nd41  1  0.41110616  0.25938254  0.43894547  1
  Nd3+  Nd42  1  0.91633697  0.50829983  0.43049739  1
  Nd3+  Nd43  1  0.74523927  0.63501137  0.07881108  1
  Nd3+  Nd44  1  0.37403587  0.75955243  0.93178329  1
  Nd3+  Nd45  1  0.16388730  0.51107281  0.43055613  1
  Nd3+  Nd46  1  0.91929204  0.26065238  0.44175150  1
  Nd3+  Nd47  1  0.53836825  0.63526540  0.54999308  1
  Nd3+  Nd48  1  0.03948066  0.63909838  0.55049303  1
  Nd3+  Nd49  1  0.03504026  0.39486821  0.57340843  1
  Nd3+  Nd50  1  0.49681510  0.12954277  0.05176428  1
  Sm3+  Sm51  1  0.62698709  0.50294413  0.94369578  1
  Sm3+  Sm52  1  0.37330610  0.50417056  0.94443015  1
  Sm3+  Sm53  1  0.74830579  0.88392674  0.06419301  1
  Sm3+  Sm54  1  0.25069351  0.12725560  0.04242460  1
  Sm3+  Sm55  1  0.78594281  0.13607223  0.56901914  1
  Sm3+  Sm56  1  0.78572808  0.63560067  0.54375846  1
  Sm3+  Sm57  1  0.91027391  0.01207416  0.45368076  1
  Sm3+  Sm58  1  0.03787401  0.88353587  0.55798306  1
  Sm3+  Sm59  1  0.49857381  0.62947287  0.05253400  1
  Sm3+  Sm60  1  0.29116781  0.13719321  0.57063195  1
  Sm3+  Sm61  1  0.87654049  0.50904085  0.96071822  1
  Sm3+  Sm62  1  0.66153545  0.01454396  0.44119913  1
  Sm3+  Sm63  1  0.66465148  0.25490638  0.43896229  1
  Bi2+  Bi64  1  -0.04242558  0.11414670  0.30420971  1
  Bi2+  Bi65  1  -0.08459853  0.02781172  0.80090140  1
  Bi2+  Bi66  1  -0.06166679  0.36695753  0.30828951  1
  Bi2+  Bi67  1  -0.00750663  0.39540996  0.80761797  1
  Bi2+  Bi68  1  -0.03362751  0.60470536  0.29740622  1
  Bi2+  Bi69  1  0.07942353  0.63649453  0.79113361  1
  Bi2+  Bi70  1  -0.03209027  0.87178126  0.29593472  1
  Bi2+  Bi71  1  -0.01640022  0.84239268  0.78320266  1
  Bi2+  Bi72  1  0.23401310  0.16019453  0.24590103  1
  Bi2+  Bi73  1  0.28279571  0.14678998  0.77988549  1
  Bi2+  Bi74  1  0.20799856  0.35004938  0.30286413  1
  Bi2+  Bi75  1  0.24925713  0.40501801  0.79836020  1
  Bi2+  Bi76  1  0.23872035  0.62303877  0.28707183  1
  Bi2+  Bi77  1  0.27839600  0.61158440  0.78743961  1
  Bi2+  Bi78  1  0.28768355  0.90025747  0.29309902  1
  Bi2+  Bi79  1  0.24607904  0.86628887  0.77570918  1
  Bi2+  Bi80  1  0.48562514  0.16077361  0.31892358  1
  Bi2+  Bi81  1  0.54182558  0.11823366  0.77930025  1
  Bi2+  Bi82  1  0.46562382  0.36314245  0.31287557  1
  Bi2+  Bi83  1  0.50855551  0.37084092  0.78473841  1
  Bi2+  Bi84  1  0.45698831  0.64990966  0.27935739  1
  Bi2+  Bi85  1  0.47454863  0.56418378  0.77149414  1
  Bi2+  Bi86  1  0.52665986  0.90924958  0.29841585  1
  Bi2+  Bi87  1  0.50577993  0.85477467  0.78080062  1
  Bi2+  Bi88  1  0.66265317  0.16099167  0.26732234  1
  Bi2+  Bi89  1  0.76670434  0.15584221  0.77313263  1
  Bi2+  Bi90  1  0.66295102  0.35615418  0.29555074  1
  Bi2+  Bi91  1  0.75956138  0.34496966  0.80501642  1
  Bi2+  Bi92  1  0.64898329  0.60773420  0.26846734  1
  Bi2+  Bi93  1  0.67012519  0.60395417  0.79519224  1
  Bi2+  Bi94  1  0.71976812  0.87678336  0.26528002  1
  Bi2+  Bi95  1  0.75269978  0.85430442  0.78925294  1
  Bi2+  Bi96  1  0.11988257  -0.00447778  0.26001682  1
  Bi2+  Bi97  1  0.09103544  0.02772700  0.70720475  1
  Bi2+  Bi98  1  0.05555767  0.21784006  0.20761305  1
  Bi2+  Bi99  1  0.08904855  0.25207668  0.70526395  1
  Bi2+  Bi100  1  0.09998813  0.45134394  0.21419111  1
  Bi2+  Bi101  1  0.11737995  0.48510090  0.71653770  1
  Bi2+  Bi102  1  0.09649582  0.78914996  0.22180966  1
  Bi2+  Bi103  1  0.07791247  0.71323353  0.68667044  1
  Bi2+  Bi104  1  0.37515060  0.03868029  0.19771436  1
  Bi2+  Bi105  1  0.43503954  0.00864726  0.70718203  1
  Bi2+  Bi106  1  0.42535117  0.25021090  0.21917336  1
  Bi2+  Bi107  1  0.37539159  0.29104555  0.71615303  1
  Bi2+  Bi108  1  0.39793778  0.47636639  0.22298351  1
  Bi2+  Bi109  1  0.32476755  0.51496765  0.69157781  1
  Bi2+  Bi110  1  0.36495713  0.78706101  0.20876565  1
  Bi2+  Bi111  1  0.40461824  0.71625664  0.70055300  1
  Bi2+  Bi112  1  0.60244781  0.00202073  0.20550667  1
  Bi2+  Bi113  1  0.67957118  -0.00927011  0.71129569  1
  Bi2+  Bi114  1  0.61014291  0.33453453  0.18457700  1
  Bi2+  Bi115  1  0.61029222  0.26577084  0.70630940  1
  Bi2+  Bi116  1  0.58021896  0.53273086  0.16501817  1
  Bi2+  Bi117  1  0.74905109  0.47799024  0.72006217  1
  Bi2+  Bi118  1  0.57560260  0.74067556  0.19529598  1
  Bi2+  Bi119  1  0.66147870  0.70703525  0.69518123  1
  Bi2+  Bi120  1  0.85544263  0.00683734  0.21996175  1
  Bi2+  Bi121  1  0.86498816  -0.07881031  0.69616145  1
  Bi2+  Bi122  1  0.85894046  0.20675815  0.21639083  1
  Bi2+  Bi123  1  0.89714181  0.27244360  0.71660403  1
  Bi2+  Bi124  1  0.75451205  0.47016071  0.21206312  1
  Bi2+  Bi125  1  0.87621332  0.59580790  0.78081473  1
  Bi2+  Bi126  1  0.84563956  0.75384772  0.21155240  1
  Bi2+  Bi127  1  0.87403142  0.72215867  0.69126436  1
  S2-  S128  1  -0.02244073  0.09657343  0.15434408  1
  S2-  S129  1  -0.03727945  0.12789457  0.66346823  1
  S2-  S130  1  -0.04591210  0.40393315  0.17783195  1
  S2-  S131  1  -0.09414267  0.38330752  0.64391837  1
  S2-  S132  1  0.04969310  0.62324626  0.20280854  1
  S2-  S133  1  0.03534088  0.55956335  0.63918641  1
  S2-  S134  1  -0.02092931  0.81383369  0.14805070  1
  S2-  S135  1  0.09656045  0.88020618  0.64971745  1
  S2-  S136  1  0.26564863  0.11863063  0.14279235  1
  S2-  S137  1  0.17622071  0.14469431  0.64769258  1
  S2-  S138  1  0.14572745  0.33885194  0.14673292  1
  S2-  S139  1  0.16269645  0.36731166  0.64317352  1
  S2-  S140  1  0.25176933  0.54881949  0.18984752  1
  S2-  S141  1  0.26075245  0.71838621  0.64531642  1
  S2-  S142  1  0.21673649  0.78809564  0.14997897  1
  S2-  S143  1  0.26744497  0.96724352  0.69493811  1
  S2-  S144  1  0.51230893  0.12294779  0.15190780  1
  S2-  S145  1  0.41377261  0.14859718  0.64625855  1
  S2-  S146  1  0.37525835  0.36396538  0.14410749  1
  S2-  S147  1  0.41861117  0.39870887  0.63928485  1
  S2-  S148  1  0.42773346  0.66755172  0.13971056  1
  S2-  S149  1  0.53450934  0.62717183  0.65027081  1
  S2-  S150  1  0.39298455  0.90438110  0.13281320  1
  S2-  S151  1  0.43557543  0.86515792  0.65031480  1
  S2-  S152  1  0.74692427  0.00406733  0.13882000  1
  S2-  S153  1  0.66997132  0.13162855  0.64351030  1
  S2-  S154  1  0.74880855  0.24294303  0.14309299  1
  S2-  S155  1  0.65823083  0.39027903  0.64173129  1
  S2-  S156  1  0.84363038  0.61159657  0.16372436  1
  S2-  S157  1  0.77544438  0.60098680  0.63998160  1
  S2-  S158  1  0.72300933  0.77608035  0.14218388  1
  S2-  S159  1  0.65584773  0.86191017  0.64266182  1
  S2-  S160  1  0.15374496  -0.07235847  0.35843086  1
  S2-  S161  1  0.08195133  0.07268050  0.80262989  1
  S2-  S162  1  0.06701463  0.27865698  0.35181432  1
  S2-  S163  1  0.22747018  0.25282819  0.84541275  1
  S2-  S164  1  0.04132925  0.49333072  0.35503971  1
  S2-  S165  1  0.11868798  0.43948687  0.86918932  1
  S2-  S166  1  0.10835271  0.68999887  0.32893240  1
  S2-  S167  1  0.12260438  0.84211904  0.84651701  1
  S2-  S168  1  0.40255189  0.01336388  0.34929658  1
  S2-  S169  1  0.27295334  -0.00685687  0.83354822  1
  S2-  S170  1  0.29015662  0.25346301  0.36233972  1
  S2-  S171  1  0.40643142  0.15979671  0.84264014  1
  S2-  S172  1  0.27980947  0.49971980  0.35138608  1
  S2-  S173  1  0.38477130  0.40811084  0.86244173  1
  S2-  S174  1  0.30051149  0.75580763  0.34766894  1
  S2-  S175  1  0.37345373  0.79300240  0.83303055  1
  S2-  S176  1  0.67018223  -0.08788370  0.36004099  1
  S2-  S177  1  0.51823190  -0.02341818  0.84468533  1
  S2-  S178  1  0.65006445  0.13453364  0.36665612  1
  S2-  S179  1  0.64813971  0.15558268  0.85411313  1
  S2-  S180  1  0.54405920  0.51021107  0.35274126  1
  S2-  S181  1  0.62626647  0.39815004  0.86510750  1
  S2-  S182  1  0.52321062  0.76313408  0.34990096  1
  S2-  S183  1  0.61895770  0.76335961  0.83928245  1
  S2-  S184  1  0.88722001  -0.01157688  0.35744554  1
  S2-  S185  1  0.76835929  -0.02345101  0.85901040  1
  S2-  S186  1  0.85192019  0.24770313  0.34906020  1
  S2-  S187  1  0.98198153  0.25616024  0.85723515  1
  S2-  S188  1  0.83622827  0.50090152  0.33992986  1
  S2-  S189  1  0.86355438  0.42586125  0.87423237  1
  S2-  S190  1  0.87321402  0.73937852  0.33318937  1
  S2-  S191  1  0.86555680  0.74772700  0.84166904  1
  S2-  S192  1  0.03799445  0.13139634  0.45970470  1
  S2-  S193  1  0.00570703  0.12355280  0.94857707  1
  S2-  S194  1  0.03808108  0.38686310  0.46372252  1
  S2-  S195  1  0.00111709  0.38867230  0.97406905  1
  S2-  S196  1  0.03581569  0.64266262  0.44701742  1
  S2-  S197  1  -0.00278462  0.63063320  0.94418850  1
  S2-  S198  1  0.03270342  0.88721959  0.45504425  1
  S2-  S199  1  -0.00149985  0.88379919  0.94744602  1
  S2-  S200  1  0.28625769  0.13288996  0.46397525  1
  S2-  S201  1  0.24201530  0.12468048  0.94126683  1
  S2-  S202  1  0.29067808  0.38847051  0.45906628  1
  S2-  S203  1  0.24948878  0.38625343  0.96448250  1
  S2-  S204  1  0.28767690  0.63510898  0.45003687  1
  S2-  S205  1  0.25164976  0.63021382  0.93811881  1
  S2-  S206  1  0.28891257  0.88722677  0.45380661  1
  S2-  S207  1  0.25003758  0.88328145  0.95025791  1
  S2-  S208  1  0.53448539  0.13640424  0.46613398  1
  S2-  S209  1  0.50214487  0.13556758  0.94896687  1
  S2-  S210  1  0.54149170  0.37808033  0.45328355  1
  S2-  S211  1  0.49895755  0.38624290  0.96499322  1
  S2-  S212  1  0.54086082  0.63460938  0.44717584  1
  S2-  S213  1  0.50076138  0.62774823  0.94542964  1
  S2-  S214  1  0.53701589  0.88967073  0.45854865  1
  S2-  S215  1  0.50240709  0.87924638  0.94928920  1
  S2-  S216  1  0.79016708  0.13538565  0.46455526  1
  S2-  S217  1  0.75883895  0.13891859  0.95881248  1
  S2-  S218  1  0.78595138  0.38077902  0.45360410  1
  S2-  S219  1  0.75039314  0.38533178  0.97192594  1
  S2-  S220  1  0.78230662  0.63874559  0.44058855  1
  S2-  S221  1  0.74886487  0.62834529  0.95552551  1
  S2-  S222  1  0.78661154  0.88785996  0.46284246  1
  S2-  S223  1  0.74824872  0.87863817  0.95995277  1
  S2-  S224  1  0.12783929  0.00078344  0.05374156  1
  S2-  S225  1  0.16542640  0.00559248  0.55053299  1
  S2-  S226  1  0.12877858  0.25281199  0.03852712  1
  S2-  S227  1  0.16509638  0.26022350  0.54305199  1
  S2-  S228  1  0.12569129  0.51875262  0.06663973  1
  S2-  S229  1  0.16330181  0.51365524  0.53894087  1
  S2-  S230  1  0.12435238  0.74488106  0.04336567  1
  S2-  S231  1  0.16145992  0.76495720  0.53667874  1
  S2-  S232  1  0.37534413  0.00706782  0.02808706  1
  S2-  S233  1  0.40462841  0.00533888  0.55383464  1
  S2-  S234  1  0.37284002  0.25213120  0.03728013  1
  S2-  S235  1  0.41225494  0.26058713  0.54304796  1
  S2-  S236  1  0.36964875  0.51217542  0.04837362  1
  S2-  S237  1  0.41428590  0.51276388  0.53419828  1
  S2-  S238  1  0.37299518  0.75061166  0.03546936  1
  S2-  S239  1  0.41288287  0.75974833  0.54021156  1
  S2-  S240  1  0.62176098  0.00412134  0.03764836  1
  S2-  S241  1  0.66439560  0.01019422  0.54536946  1
  S2-  S242  1  0.62130825  0.25648150  0.04518957  1
  S2-  S243  1  0.66525987  0.25861544  0.54210205  1
  S2-  S244  1  0.62823218  0.50670480  0.04794990  1
  S2-  S245  1  0.66374754  0.51162996  0.53230470  1
  S2-  S246  1  0.61986400  0.75341342  0.04233358  1
  S2-  S247  1  0.66305527  0.75778431  0.53438408  1
  S2-  S248  1  0.87654372  0.00114786  0.04164496  1
  S2-  S249  1  0.91037184  0.00796211  0.55705507  1
  S2-  S250  1  0.88117485  0.25950460  0.04891640  1
  S2-  S251  1  0.91153595  0.25479121  0.54835336  1
  S2-  S252  1  0.87741004  0.50786083  0.06184323  1
  S2-  S253  1  0.90911041  0.51495807  0.53612268  1
  S2-  S254  1  0.87224067  0.74950558  0.04606479  1
  S2-  S255  1  0.91052315  0.76152627  0.54316256  1
