# generated using pymatgen
data_La6Ce6Pr19Nd20Sm13(BiS2)64
_symmetry_space_group_name_H-M   'P 1'
_cell_length_a   16.08540493
_cell_length_b   16.00330002
_cell_length_c   27.54614120
_cell_angle_alpha   89.89112579
_cell_angle_beta   89.66340889
_cell_angle_gamma   90.03104578
_symmetry_Int_Tables_number   1
_chemical_formula_structural   La6Ce6Pr19Nd20Sm13(BiS2)64
_chemical_formula_sum   'La6 Ce6 Pr19 Nd20 Sm13 Bi64 S128'
_cell_volume   7090.77932875
_cell_formula_units_Z   1
loop_
 _symmetry_equiv_pos_site_id
 _symmetry_equiv_pos_as_xyz
  1  'x, y, z'
loop_
 _atom_type_symbol
 _atom_type_oxidation_number
  La3+  3.0
  Ce3+  3.0
  Pr3+  3.0
  Nd3+  3.0
  Sm3+  3.0
  Bi2+  2.0
  S2-  -2.0
loop_
 _atom_site_type_symbol
 _atom_site_label
 _atom_site_symmetry_multiplicity
 _atom_site_fract_x
 _atom_site_fract_y
 _atom_site_fract_z
 _atom_site_occupancy
  La3+  La0  1  0.37993552  -0.01004806  0.40939085  1
  La3+  La1  1  0.25330358  0.11030255  0.55918833  1
  La3+  La2  1  0.63599654  0.72955034  0.40409708  1
  La3+  La3  1  0.10417751  0.48499380  0.90953752  1
  La3+  La4  1  0.50779888  0.10688104  0.56756671  1
  La3+  La5  1  0.36441508  0.48317408  0.92630795  1
  Ce3+  Ce6  1  0.75244655  0.85832288  0.54265858  1
  Ce3+  Ce7  1  0.00025286  0.60916781  0.57351344  1
  Ce3+  Ce8  1  0.85676292  0.23987707  0.95119762  1
  Ce3+  Ce9  1  0.74935473  0.61372848  0.55709268  1
  Ce3+  Ce10  1  0.60483866  0.73622219  0.94365732  1
  Ce3+  Ce11  1  0.61132826  0.23842755  0.94759786  1
  Pr3+  Pr12  1  0.50348701  0.86371203  0.55115952  1
  Pr3+  Pr13  1  0.85891333  0.73536330  0.94560331  1
  Pr3+  Pr14  1  0.00015198  0.36100697  0.56469694  1
  Pr3+  Pr15  1  0.10823395  -0.00728100  0.94403002  1
  Pr3+  Pr16  1  0.24427452  0.61132942  0.57493977  1
  Pr3+  Pr17  1  0.63080181  0.48741081  0.43373390  1
  Pr3+  Pr18  1  -0.01880871  0.37056534  0.06351814  1
  Pr3+  Pr19  1  0.88190625  -0.01101511  0.42476788  1
  Pr3+  Pr20  1  0.12680277  0.24251654  0.43488907  1
  Pr3+  Pr21  1  0.11051732  0.73939572  0.93724419  1
  Pr3+  Pr22  1  0.73013207  0.11220639  0.07545283  1
  Pr3+  Pr23  1  0.12692133  -0.00519800  0.42237980  1
  Pr3+  Pr24  1  0.22337945  0.87208819  0.09524995  1
  Pr3+  Pr25  1  0.38016871  0.73817054  0.43571899  1
  Pr3+  Pr26  1  0.62605024  0.24157401  0.43508697  1
  Pr3+  Pr27  1  -0.01738533  0.86682379  0.06237816  1
  Pr3+  Pr28  1  0.00142582  0.11166181  0.56317564  1
  Pr3+  Pr29  1  0.49623412  0.60836706  0.57092199  1
  Pr3+  Pr30  1  0.72740081  0.60808854  0.08931756  1
  Nd3+  Nd31  1  0.88265599  0.73333331  0.43538823  1
  Nd3+  Nd32  1  0.00129130  0.86862549  0.55904878  1
  Nd3+  Nd33  1  -0.02350150  0.11544039  0.07036609  1
  Nd3+  Nd34  1  0.22499666  0.12601312  0.07754285  1
  Nd3+  Nd35  1  0.35811907  -0.00727130  0.93913975  1
  Nd3+  Nd36  1  0.25166166  0.36106118  0.56958524  1
  Nd3+  Nd37  1  0.85849480  0.48738248  0.94093237  1
  Nd3+  Nd38  1  0.35447816  0.73629559  0.94380348  1
  Nd3+  Nd39  1  0.85820383  -0.00898016  0.93938550  1
  Nd3+  Nd40  1  0.47852133  0.11365264  0.06284605  1
  Nd3+  Nd41  1  0.25659567  0.86784024  0.55468741  1
  Nd3+  Nd42  1  0.12745589  0.49135653  0.44104991  1
  Nd3+  Nd43  1  0.74856141  0.36326517  0.56464118  1
  Nd3+  Nd44  1  0.37430057  0.49386062  0.43464439  1
  Nd3+  Nd45  1  0.50030511  0.35817351  0.56398916  1
  Nd3+  Nd46  1  0.37728334  0.24084469  0.43617083  1
  Nd3+  Nd47  1  0.62727091  -0.00905754  0.42768017  1
  Nd3+  Nd48  1  0.47694936  0.61500380  0.07281259  1
  Nd3+  Nd49  1  0.23100148  0.61528423  0.06616506  1
  Nd3+  Nd50  1  -0.01107612  0.61805707  0.06752162  1
  Sm3+  Sm51  1  0.87576142  0.48927349  0.43854336  1
  Sm3+  Sm52  1  0.60921651  -0.00977033  0.94835012  1
  Sm3+  Sm53  1  0.60573318  0.49130132  0.94688276  1
  Sm3+  Sm54  1  0.73137667  0.85986100  0.05578214  1
  Sm3+  Sm55  1  0.12852086  0.73857048  0.44355243  1
  Sm3+  Sm56  1  0.48020504  0.86214965  0.05733809  1
  Sm3+  Sm57  1  0.47840385  0.36579015  0.06004168  1
  Sm3+  Sm58  1  0.72882774  0.36857985  0.06497914  1
  Sm3+  Sm59  1  0.87699255  0.23920608  0.44312266  1
  Sm3+  Sm60  1  0.75160542  0.10892964  0.55032841  1
  Sm3+  Sm61  1  0.35843245  0.23434432  0.93558503  1
  Sm3+  Sm62  1  0.23235730  0.36574202  0.05900403  1
  Sm3+  Sm63  1  0.10765876  0.24079105  0.94252318  1
  Bi2+  Bi64  1  -0.00464522  0.10615774  0.28530955  1
  Bi2+  Bi65  1  -0.01524031  0.12824485  0.81461134  1
  Bi2+  Bi66  1  0.08232379  0.41378332  0.31467614  1
  Bi2+  Bi67  1  -0.04885044  0.38422910  0.78830885  1
  Bi2+  Bi68  1  0.00190375  0.58648093  0.34624158  1
  Bi2+  Bi69  1  -0.08054423  0.63894024  0.78146711  1
  Bi2+  Bi70  1  -0.09357641  0.83929077  0.30155905  1
  Bi2+  Bi71  1  0.00742500  0.94245212  0.77855064  1
  Bi2+  Bi72  1  0.24838227  0.12660990  0.28670453  1
  Bi2+  Bi73  1  0.25493668  0.12173756  0.77559841  1
  Bi2+  Bi74  1  0.27069260  0.33597461  0.29512055  1
  Bi2+  Bi75  1  0.26011988  0.42655706  0.79203118  1
  Bi2+  Bi76  1  0.28448211  0.58537650  0.28677325  1
  Bi2+  Bi77  1  0.23700681  0.69356627  0.79679147  1
  Bi2+  Bi78  1  0.25847365  0.85235858  0.28576843  1
  Bi2+  Bi79  1  0.25228630  0.93230087  0.72841772  1
  Bi2+  Bi80  1  0.50883701  0.13254942  0.28493222  1
  Bi2+  Bi81  1  0.50494549  0.10527036  0.80144965  1
  Bi2+  Bi82  1  0.46677657  0.37058277  0.33192892  1
  Bi2+  Bi83  1  0.55340224  0.36909321  0.78844916  1
  Bi2+  Bi84  1  0.48152434  0.54970958  0.28023570  1
  Bi2+  Bi85  1  0.48266105  0.64590248  0.80991676  1
  Bi2+  Bi86  1  0.49859364  0.88068409  0.27385459  1
  Bi2+  Bi87  1  0.51493888  0.90856547  0.77512739  1
  Bi2+  Bi88  1  0.80208927  0.10800511  0.30583648  1
  Bi2+  Bi89  1  0.73958486  0.09712406  0.76051896  1
  Bi2+  Bi90  1  0.66051719  0.34382301  0.30051650  1
  Bi2+  Bi91  1  0.74774265  0.37760821  0.80183638  1
  Bi2+  Bi92  1  0.75666815  0.57337636  0.29507402  1
  Bi2+  Bi93  1  0.73450127  0.57307899  0.78571920  1
  Bi2+  Bi94  1  0.73755903  0.93174322  0.27751074  1
  Bi2+  Bi95  1  0.80513649  0.89365531  0.79481802  1
  Bi2+  Bi96  1  0.08583913  -0.01424172  0.21302445  1
  Bi2+  Bi97  1  0.11287868  0.13356873  0.68677206  1
  Bi2+  Bi98  1  0.11666855  0.27256410  0.20038465  1
  Bi2+  Bi99  1  0.11652938  0.28155001  0.75980574  1
  Bi2+  Bi100  1  0.11523331  0.48503196  0.20007624  1
  Bi2+  Bi101  1  0.11726493  0.53135027  0.70832377  1
  Bi2+  Bi102  1  0.11879631  0.67804881  0.26033222  1
  Bi2+  Bi103  1  0.10869989  0.79671300  0.73134428  1
  Bi2+  Bi104  1  0.40970920  -0.02032476  0.16819142  1
  Bi2+  Bi105  1  0.36732725  0.12349337  0.68330344  1
  Bi2+  Bi106  1  0.43171652  0.28856897  0.22818680  1
  Bi2+  Bi107  1  0.38342750  0.28083922  0.75850911  1
  Bi2+  Bi108  1  0.31573520  0.45189371  0.20023301  1
  Bi2+  Bi109  1  0.38608033  0.55970904  0.69711014  1
  Bi2+  Bi110  1  0.41532162  0.71402619  0.20464676  1
  Bi2+  Bi111  1  0.38999217  0.79351482  0.72551615  1
  Bi2+  Bi112  1  0.69435493  0.08754524  0.20553489  1
  Bi2+  Bi113  1  0.63040141  -0.03317902  0.68945961  1
  Bi2+  Bi114  1  0.70591003  0.28562763  0.19157184  1
  Bi2+  Bi115  1  0.61641324  0.22540337  0.70704953  1
  Bi2+  Bi116  1  0.62220097  0.47851453  0.21174094  1
  Bi2+  Bi117  1  0.63001097  0.51180505  0.68999913  1
  Bi2+  Bi118  1  0.68215818  0.74970723  0.20736857  1
  Bi2+  Bi119  1  0.67703634  0.76075135  0.75268163  1
  Bi2+  Bi120  1  0.89049461  -0.04988073  0.19669364  1
  Bi2+  Bi121  1  0.87973794  -0.01010875  0.69248252  1
  Bi2+  Bi122  1  0.86928622  0.28722510  0.25243924  1
  Bi2+  Bi123  1  0.89767585  0.18959568  0.72014345  1
  Bi2+  Bi124  1  0.92113555  0.48598110  0.25656743  1
  Bi2+  Bi125  1  0.84860569  0.46254166  0.70100653  1
  Bi2+  Bi126  1  0.94410002  0.70934114  0.22324085  1
  Bi2+  Bi127  1  0.85322750  0.75872946  0.70116056  1
  S2-  S128  1  0.07666413  0.13428726  0.15093754  1
  S2-  S129  1  -0.00083106  0.23500228  0.63993878  1
  S2-  S130  1  -0.01626834  0.37283551  0.16280086  1
  S2-  S131  1  -0.00556402  0.47418461  0.64373079  1
  S2-  S132  1  0.10747624  0.62391161  0.14133467  1
  S2-  S133  1  0.10545943  0.65858712  0.65113947  1
  S2-  S134  1  0.07072792  0.86316866  0.14878608  1
  S2-  S135  1  0.01853960  0.98277230  0.63475987  1
  S2-  S136  1  0.25121082  0.01688662  0.15370428  1
  S2-  S137  1  0.24392735  0.22688972  0.63990735  1
  S2-  S138  1  0.24684463  0.26705839  0.14151913  1
  S2-  S139  1  0.24743113  0.47642626  0.65079570  1
  S2-  S140  1  0.34802459  0.60350096  0.14295756  1
  S2-  S141  1  0.33196887  0.69593217  0.65028362  1
  S2-  S142  1  0.28939954  0.80836019  0.18426086  1
  S2-  S143  1  0.26340149  0.98007852  0.63288937  1
  S2-  S144  1  0.53875368  0.10151123  0.15551045  1
  S2-  S145  1  0.49191604  0.23492451  0.64048684  1
  S2-  S146  1  0.48402001  0.40048229  0.15586913  1
  S2-  S147  1  0.48529930  0.45865203  0.64512347  1
  S2-  S148  1  0.58756938  0.62969106  0.15207700  1
  S2-  S149  1  0.53909959  0.64368395  0.67116487  1
  S2-  S150  1  0.51257478  0.83944911  0.15390294  1
  S2-  S151  1  0.49606918  0.96636889  0.63484073  1
  S2-  S152  1  0.85510937  0.09555137  0.14700376  1
  S2-  S153  1  0.67039828  0.11084910  0.63628334  1
  S2-  S154  1  0.74737057  0.45743859  0.14723188  1
  S2-  S155  1  0.71655360  0.35515868  0.66209644  1
  S2-  S156  1  0.81838011  0.66400604  0.16943199  1
  S2-  S157  1  0.79563921  0.60911265  0.65060940  1
  S2-  S158  1  0.74237680  0.87064050  0.15292068  1
  S2-  S159  1  0.76391946  0.87642308  0.63979424  1
  S2-  S160  1  0.23703155  -0.01898851  0.34347986  1
  S2-  S161  1  0.11179569  0.03233705  0.84652469  1
  S2-  S162  1  0.12242449  0.15492887  0.34787644  1
  S2-  S163  1  0.11766611  0.32783330  0.85729181  1
  S2-  S164  1  0.23880190  0.47507591  0.36324671  1
  S2-  S165  1  0.13972798  0.54826696  0.81219422  1
  S2-  S166  1  0.15475272  0.76020771  0.34660316  1
  S2-  S167  1  0.11087097  0.77357197  0.83815959  1
  S2-  S168  1  0.38075892  0.02060280  0.25718554  1
  S2-  S169  1  0.35920494  0.10391141  0.86264815  1
  S2-  S170  1  0.37955757  0.14796756  0.35156470  1
  S2-  S171  1  0.35734781  0.34125861  0.85858005  1
  S2-  S172  1  0.39371089  0.61860053  0.36180604  1
  S2-  S173  1  0.33834611  0.56149419  0.83691887  1
  S2-  S174  1  0.38304095  0.83571653  0.34701832  1
  S2-  S175  1  0.37601762  0.77120041  0.84677316  1
  S2-  S176  1  0.53094176  -0.00540218  0.34640079  1
  S2-  S177  1  0.59296761  -0.01181309  0.85170521  1
  S2-  S178  1  0.64485800  0.18248762  0.34095275  1
  S2-  S179  1  0.59514123  0.22854835  0.85121061  1
  S2-  S180  1  0.61116989  0.58237031  0.34875417  1
  S2-  S181  1  0.53076521  0.49876634  0.85950540  1
  S2-  S182  1  0.61299472  0.78520255  0.30534565  1
  S2-  S183  1  0.61045584  0.73363891  0.84715273  1
  S2-  S184  1  0.99872117  -0.02911053  0.34985338  1
  S2-  S185  1  0.82902949  0.05277254  0.84932689  1
  S2-  S186  1  0.90672958  0.24126345  0.34647507  1
  S2-  S187  1  0.85880752  0.29088776  0.85882520  1
  S2-  S188  1  0.77181921  0.45169144  0.36053012  1
  S2-  S189  1  0.94865446  0.51412629  0.85745183  1
  S2-  S190  1  0.79884943  0.71626013  0.34900319  1
  S2-  S191  1  0.87037844  0.75801689  0.84658857  1
  S2-  S192  1  -0.00195809  0.11631298  0.45432868  1
  S2-  S193  1  -0.01829492  0.11744831  0.96149346  1
  S2-  S194  1  -0.00224642  0.36538661  0.45419154  1
  S2-  S195  1  -0.01581686  0.36565778  0.95856972  1
  S2-  S196  1  0.00277994  0.61219958  0.46563633  1
  S2-  S197  1  -0.01201641  0.61383147  0.96114199  1
  S2-  S198  1  0.00249743  0.85935007  0.45343593  1
  S2-  S199  1  -0.01782893  0.86594395  0.95437801  1
  S2-  S200  1  0.25247886  0.11688865  0.45092572  1
  S2-  S201  1  0.23085167  0.11984991  0.96201446  1
  S2-  S202  1  0.25259909  0.36140107  0.46075306  1
  S2-  S203  1  0.23140942  0.36348332  0.95761811  1
  S2-  S204  1  0.24740356  0.61667012  0.46212113  1
  S2-  S205  1  0.22976652  0.60938865  0.95162912  1
  S2-  S206  1  0.25003047  0.86222318  0.45137805  1
  S2-  S207  1  0.23462500  0.86905627  0.94306269  1
  S2-  S208  1  0.50698392  0.11554852  0.45344724  1
  S2-  S209  1  0.48689775  0.11380904  0.96006866  1
  S2-  S210  1  0.50205195  0.36662525  0.45657110  1
  S2-  S211  1  0.48706680  0.35954461  0.95810053  1
  S2-  S212  1  0.50952189  0.61330078  0.46125913  1
  S2-  S213  1  0.48053155  0.61517047  0.96453838  1
  S2-  S214  1  0.51905693  0.85277737  0.44657806  1
  S2-  S215  1  0.48234521  0.86753542  0.95331233  1
  S2-  S216  1  0.75484914  0.11411333  0.44752511  1
  S2-  S217  1  0.73244504  0.11262001  0.96546243  1
  S2-  S218  1  0.75465112  0.35952165  0.46012118  1
  S2-  S219  1  0.73028675  0.36860713  0.96092013  1
  S2-  S220  1  0.75366221  0.61396309  0.45462959  1
  S2-  S221  1  0.73178429  0.61156125  0.94822485  1
  S2-  S222  1  0.75513001  0.86288834  0.43848317  1
  S2-  S223  1  0.73278708  0.86493753  0.95134032  1
  S2-  S224  1  0.10830579  -0.00614075  0.04852423  1
  S2-  S225  1  0.12659029  -0.01304798  0.53070544  1
  S2-  S226  1  0.10222666  0.24486627  0.04458030  1
  S2-  S227  1  0.12409012  0.23872240  0.53871902  1
  S2-  S228  1  0.11093635  0.48735605  0.04805068  1
  S2-  S229  1  0.12637852  0.48421546  0.54434765  1
  S2-  S230  1  0.11417235  0.74760242  0.04273252  1
  S2-  S231  1  0.12690057  0.74546989  0.54636979  1
  S2-  S232  1  0.35522406  -0.01294936  0.04480316  1
  S2-  S233  1  0.38123612  -0.01250687  0.52683738  1
  S2-  S234  1  0.35986695  0.23948499  0.04198558  1
  S2-  S235  1  0.37752915  0.23755483  0.53927868  1
  S2-  S236  1  0.35589389  0.48562758  0.04142734  1
  S2-  S237  1  0.37182239  0.48691728  0.54205810  1
  S2-  S238  1  0.35051000  0.74971279  0.04888144  1
  S2-  S239  1  0.37736803  0.74022620  0.54115829  1
  S2-  S240  1  0.60749393  -0.01418427  0.05126935  1
  S2-  S241  1  0.63304208  -0.01447813  0.53131152  1
  S2-  S242  1  0.60601113  0.24201990  0.05404821  1
  S2-  S243  1  0.63052767  0.23824572  0.54021375  1
  S2-  S244  1  0.60305097  0.48984747  0.04907749  1
  S2-  S245  1  0.62693448  0.48671121  0.54510160  1
  S2-  S246  1  0.60840196  0.73886646  0.04714020  1
  S2-  S247  1  0.62587236  0.73675133  0.55433637  1
  S2-  S248  1  0.85449643  -0.01426528  0.04439180  1
  S2-  S249  1  0.87459961  -0.01243320  0.53309934  1
  S2-  S250  1  0.85291959  0.24556419  0.05553486  1
  S2-  S251  1  0.87005129  0.23601435  0.54639696  1
  S2-  S252  1  0.85827025  0.49880838  0.04695542  1
  S2-  S253  1  0.87257364  0.48588192  0.54201763  1
  S2-  S254  1  0.85782688  0.73758930  0.05119602  1
  S2-  S255  1  0.88124015  0.73774257  0.54308430  1
