# generated using pymatgen
data_La6Ce6Pr19Nd20Sm13(BiS2)64
_symmetry_space_group_name_H-M   'P 1'
_cell_length_a   16.06921858
_cell_length_b   16.14549941
_cell_length_c   27.11129697
_cell_angle_alpha   89.71389020
_cell_angle_beta   89.79912711
_cell_angle_gamma   90.12652264
_symmetry_Int_Tables_number   1
_chemical_formula_structural   La6Ce6Pr19Nd20Sm13(BiS2)64
_chemical_formula_sum   'La6 Ce6 Pr19 Nd20 Sm13 Bi64 S128'
_cell_volume   7033.75725526
_cell_formula_units_Z   1
loop_
 _symmetry_equiv_pos_site_id
 _symmetry_equiv_pos_as_xyz
  1  'x, y, z'
loop_
 _atom_type_symbol
 _atom_type_oxidation_number
  La3+  3.0
  Ce3+  3.0
  Pr3+  3.0
  Nd3+  3.0
  Sm3+  3.0
  Bi2+  2.0
  S2-  -2.0
loop_
 _atom_site_type_symbol
 _atom_site_label
 _atom_site_symmetry_multiplicity
 _atom_site_fract_x
 _atom_site_fract_y
 _atom_site_fract_z
 _atom_site_occupancy
  La3+  La0  1  0.25462340  0.36360094  0.58724401  1
  La3+  La1  1  0.62153386  -0.01321622  0.42017101  1
  La3+  La2  1  0.74947115  0.62851325  0.07480142  1
  La3+  La3  1  -0.00596822  0.37526017  0.05965866  1
  La3+  La4  1  0.75293887  0.36620607  0.11379175  1
  La3+  La5  1  -0.01130181  0.61447443  0.58590527  1
  Ce3+  Ce6  1  0.61364002  0.74654178  0.44093373  1
  Ce3+  Ce7  1  0.24527337  0.37740747  0.05724136  1
  Ce3+  Ce8  1  0.60461021  0.50167861  0.42496224  1
  Ce3+  Ce9  1  0.23097352  0.12004442  0.57131839  1
  Ce3+  Ce10  1  0.11910188  0.50584254  0.92921114  1
  Ce3+  Ce11  1  0.86841748  0.50602594  0.94240924  1
  Pr3+  Pr12  1  0.73917836  0.12307251  0.55350142  1
  Pr3+  Pr13  1  0.36254734  -0.00397697  0.44487219  1
  Pr3+  Pr14  1  0.60655212  0.24452940  0.41655707  1
  Pr3+  Pr15  1  0.37006700  0.75720226  0.93399526  1
  Pr3+  Pr16  1  -0.01788055  0.12286555  0.56429393  1
  Pr3+  Pr17  1  -0.00537809  0.62954067  0.06162032  1
  Pr3+  Pr18  1  0.11448740  -0.00172223  0.89086989  1
  Pr3+  Pr19  1  -0.00854657  0.12589175  0.05511593  1
  Pr3+  Pr20  1  0.49032765  0.88232968  0.06710001  1
  Pr3+  Pr21  1  0.35497071  0.75667362  0.42584708  1
  Pr3+  Pr22  1  0.24318715  0.88063956  0.06122565  1
  Pr3+  Pr23  1  0.49110491  0.87214496  0.56794382  1
  Pr3+  Pr24  1  0.73847183  0.61658597  0.56566120  1
  Pr3+  Pr25  1  0.74143412  0.11977499  0.06842035  1
  Pr3+  Pr26  1  0.73851706  0.37085282  0.54131115  1
  Pr3+  Pr27  1  -0.01169682  0.86720881  0.57423176  1
  Pr3+  Pr28  1  0.49007614  0.63184387  0.07262641  1
  Pr3+  Pr29  1  0.50140444  0.37849608  0.06087214  1
  Pr3+  Pr30  1  0.86708533  0.01287906  0.91878184  1
  Nd3+  Nd31  1  0.35932877  0.24609679  0.43750021  1
  Nd3+  Nd32  1  0.25284851  0.62023058  0.57736482  1
  Nd3+  Nd33  1  0.12162157  0.75175378  0.92773914  1
  Nd3+  Nd34  1  0.24427973  0.62909920  0.06268890  1
  Nd3+  Nd35  1  0.61933420  0.75429505  0.94546495  1
  Nd3+  Nd36  1  0.48850970  0.62132074  0.55751595  1
  Nd3+  Nd37  1  0.74183393  0.86966111  0.56752525  1
  Nd3+  Nd38  1  0.11358007  -0.00498035  0.44547289  1
  Nd3+  Nd39  1  0.12247300  0.25588419  0.92448348  1
  Nd3+  Nd40  1  0.24062145  0.87106814  0.57710610  1
  Nd3+  Nd41  1  0.36606707  0.00598953  0.93431630  1
  Nd3+  Nd42  1  0.36990461  0.50572237  0.93970928  1
  Nd3+  Nd43  1  0.86646128  -0.00492282  0.43549598  1
  Nd3+  Nd44  1  0.35711552  0.49841004  0.43372642  1
  Nd3+  Nd45  1  0.61963682  0.00473956  0.92782142  1
  Nd3+  Nd46  1  0.49699862  0.11935237  0.55545585  1
  Nd3+  Nd47  1  0.88123630  0.25430646  0.41753682  1
  Nd3+  Nd48  1  -0.01109554  0.36963082  0.55893303  1
  Nd3+  Nd49  1  0.62218991  0.25620422  0.93982226  1
  Nd3+  Nd50  1  0.86740129  0.25507245  0.94027606  1
  Sm3+  Sm51  1  0.11784223  0.74506588  0.45545785  1
  Sm3+  Sm52  1  0.74491639  0.88286526  0.05691150  1
  Sm3+  Sm53  1  -0.00346733  0.88236881  0.04952797  1
  Sm3+  Sm54  1  0.12431941  0.49952082  0.45702722  1
  Sm3+  Sm55  1  0.36970297  0.25644468  0.94376087  1
  Sm3+  Sm56  1  0.86927921  0.74020431  0.44548495  1
  Sm3+  Sm57  1  0.49760253  0.12816806  0.05281069  1
  Sm3+  Sm58  1  0.11812628  0.24963520  0.44497029  1
  Sm3+  Sm59  1  0.49127075  0.36994518  0.55294601  1
  Sm3+  Sm60  1  0.62226290  0.50682065  0.94582994  1
  Sm3+  Sm61  1  0.87078364  0.75637931  0.94046663  1
  Sm3+  Sm62  1  0.24426551  0.12900720  0.05490463  1
  Sm3+  Sm63  1  0.87145554  0.50550155  0.43302050  1
  Bi2+  Bi64  1  0.06975330  0.12138106  0.28524368  1
  Bi2+  Bi65  1  -0.03318617  0.13424671  0.77879031  1
  Bi2+  Bi66  1  0.05305296  0.38093910  0.29057979  1
  Bi2+  Bi67  1  0.00064405  0.35005089  0.78581343  1
  Bi2+  Bi68  1  0.02882494  0.67442530  0.30004273  1
  Bi2+  Bi69  1  0.00132611  0.62760775  0.78004087  1
  Bi2+  Bi70  1  -0.03424734  0.86950270  0.31099326  1
  Bi2+  Bi71  1  -0.02458542  0.84294503  0.78291669  1
  Bi2+  Bi72  1  0.26253755  0.13624598  0.31300279  1
  Bi2+  Bi73  1  0.25179218  0.13956520  0.78276444  1
  Bi2+  Bi74  1  0.23313661  0.33082103  0.33271841  1
  Bi2+  Bi75  1  0.26573312  0.37630810  0.78994201  1
  Bi2+  Bi76  1  0.24608839  0.62250429  0.29738849  1
  Bi2+  Bi77  1  0.26109493  0.61138018  0.78538267  1
  Bi2+  Bi78  1  0.18532958  0.86217611  0.28394846  1
  Bi2+  Bi79  1  0.27330037  0.87113516  0.78135873  1
  Bi2+  Bi80  1  0.44593333  0.12634249  0.27525439  1
  Bi2+  Bi81  1  0.51136168  0.06446796  0.81353275  1
  Bi2+  Bi82  1  0.40731030  0.37655038  0.28095518  1
  Bi2+  Bi83  1  0.53193228  0.35006234  0.78476689  1
  Bi2+  Bi84  1  0.51387956  0.61332198  0.28356463  1
  Bi2+  Bi85  1  0.54253737  0.63017102  0.78776506  1
  Bi2+  Bi86  1  0.48286984  0.87502367  0.30002589  1
  Bi2+  Bi87  1  0.48719066  0.87674764  0.79390458  1
  Bi2+  Bi88  1  0.71536487  0.11136970  0.28747876  1
  Bi2+  Bi89  1  0.69903253  0.11324916  0.78003675  1
  Bi2+  Bi90  1  0.76369336  0.37072528  0.32000496  1
  Bi2+  Bi91  1  0.80968221  0.32631414  0.80068503  1
  Bi2+  Bi92  1  0.76824716  0.66750208  0.29454134  1
  Bi2+  Bi93  1  0.76075976  0.62051611  0.80500484  1
  Bi2+  Bi94  1  0.77270717  0.86449806  0.27686602  1
  Bi2+  Bi95  1  0.70818224  0.86691771  0.77669183  1
  Bi2+  Bi96  1  0.12336415  -0.07312113  0.17969535  1
  Bi2+  Bi97  1  0.18047531  0.00623131  0.71040804  1
  Bi2+  Bi98  1  0.15563497  0.26346054  0.21944544  1
  Bi2+  Bi99  1  0.12224987  0.25149968  0.69719072  1
  Bi2+  Bi100  1  0.10102787  0.54178358  0.22071230  1
  Bi2+  Bi101  1  0.07829666  0.49632646  0.71389905  1
  Bi2+  Bi102  1  0.14834168  0.73109664  0.19605589  1
  Bi2+  Bi103  1  0.15600018  0.75535797  0.71485825  1
  Bi2+  Bi104  1  0.29912860  -0.01274649  0.22154344  1
  Bi2+  Bi105  1  0.38211314  0.00931392  0.70560495  1
  Bi2+  Bi106  1  0.35010237  0.24648494  0.20110336  1
  Bi2+  Bi107  1  0.43677780  0.19671347  0.73589635  1
  Bi2+  Bi108  1  0.30594904  0.50524164  0.21592355  1
  Bi2+  Bi109  1  0.44571422  0.48456034  0.71129673  1
  Bi2+  Bi110  1  0.40377570  0.76012975  0.20055253  1
  Bi2+  Bi111  1  0.44267819  0.74123520  0.71113793  1
  Bi2+  Bi112  1  0.62878358  -0.01404078  0.20490184  1
  Bi2+  Bi113  1  0.59922985  -0.00632415  0.70400463  1
  Bi2+  Bi114  1  0.59776758  0.22495122  0.20784859  1
  Bi2+  Bi115  1  0.61025308  0.26249022  0.69224538  1
  Bi2+  Bi116  1  0.61592446  0.48605996  0.22640385  1
  Bi2+  Bi117  1  0.64060236  0.46035864  0.69055258  1
  Bi2+  Bi118  1  0.65392040  0.73834003  0.21709634  1
  Bi2+  Bi119  1  0.61612418  0.65766049  0.67772661  1
  Bi2+  Bi120  1  0.94990574  0.00947316  0.22520812  1
  Bi2+  Bi121  1  0.81760889  -0.00322420  0.71401523  1
  Bi2+  Bi122  1  0.89286681  0.24307456  0.21610133  1
  Bi2+  Bi123  1  0.87107032  0.24990095  0.69845198  1
  Bi2+  Bi124  1  0.87857577  0.51304299  0.21373335  1
  Bi2+  Bi125  1  0.82570624  0.48661162  0.73141389  1
  Bi2+  Bi126  1  0.92137188  0.76078871  0.21587939  1
  Bi2+  Bi127  1  0.78756988  0.73415087  0.70580551  1
  S2-  S128  1  -0.02097462  0.15152755  0.15699960  1
  S2-  S129  1  0.08438667  0.11479775  0.64857923  1
  S2-  S130  1  -0.06967919  0.38133263  0.15375569  1
  S2-  S131  1  -0.00751994  0.36986797  0.65898030  1
  S2-  S132  1  -0.10450479  0.63859447  0.14519746  1
  S2-  S133  1  0.01118855  0.69530141  0.67971546  1
  S2-  S134  1  -0.04667230  0.89686675  0.14540152  1
  S2-  S135  1  0.11160608  0.88467069  0.64964660  1
  S2-  S136  1  0.26561216  0.11582275  0.15370517  1
  S2-  S137  1  0.26484734  0.21550670  0.64915018  1
  S2-  S138  1  0.21991411  0.38889414  0.15371098  1
  S2-  S139  1  0.21203395  0.40495645  0.68828567  1
  S2-  S140  1  0.34997183  0.63754784  0.14340104  1
  S2-  S141  1  0.20118771  0.61064252  0.67742051  1
  S2-  S142  1  0.35437913  0.88131635  0.14124719  1
  S2-  S143  1  0.37084682  0.86380911  0.64755742  1
  S2-  S144  1  0.52797879  0.09845305  0.14846408  1
  S2-  S145  1  0.61495272  0.12682969  0.63004377  1
  S2-  S146  1  0.57742551  0.36787946  0.15263384  1
  S2-  S147  1  0.41664394  0.37547079  0.64222017  1
  S2-  S148  1  0.55197530  0.61522080  0.17063261  1
  S2-  S149  1  0.39694100  0.61508434  0.64390582  1
  S2-  S150  1  0.54974306  0.84940219  0.16311383  1
  S2-  S151  1  0.61857585  0.86954436  0.64037491  1
  S2-  S152  1  0.74925987  0.20586830  0.15867482  1
  S2-  S153  1  0.84950932  0.11959947  0.63643260  1
  S2-  S154  1  0.77180046  0.37570453  0.22392619  1
  S2-  S155  1  0.75153480  0.34169867  0.64051212  1
  S2-  S156  1  0.73455334  0.52595877  0.15745256  1
  S2-  S157  1  0.84173710  0.58840093  0.64826879  1
  S2-  S158  1  0.74378391  0.98345199  0.13723073  1
  S2-  S159  1  0.85971064  0.87200559  0.64771929  1
  S2-  S160  1  0.15369547  0.00367670  0.34770881  1
  S2-  S161  1  0.11124115  0.15539397  0.84176355  1
  S2-  S162  1  0.03345817  0.24070462  0.35802181  1
  S2-  S163  1  0.12765560  0.38708780  0.85246238  1
  S2-  S164  1  0.21518066  0.50043245  0.37037370  1
  S2-  S165  1  0.12573137  0.62294391  0.85254697  1
  S2-  S166  1  0.19800240  0.74679475  0.36721855  1
  S2-  S167  1  0.12117302  0.84131451  0.83989597  1
  S2-  S168  1  0.36054518  -0.09580834  0.35970577  1
  S2-  S169  1  0.27662358  0.00444314  0.84860108  1
  S2-  S170  1  0.45289290  0.24840792  0.35243767  1
  S2-  S171  1  0.32981775  0.26320300  0.84820358  1
  S2-  S172  1  0.46889404  0.49417994  0.35300468  1
  S2-  S173  1  0.35159350  0.49885333  0.83937559  1
  S2-  S174  1  0.41427264  0.71649812  0.32699618  1
  S2-  S175  1  0.32939544  0.72595967  0.83688971  1
  S2-  S176  1  0.55167426  0.03233784  0.32741257  1
  S2-  S177  1  0.73169688  -0.00929946  0.85097778  1
  S2-  S178  1  0.63541622  0.25865330  0.31309871  1
  S2-  S179  1  0.64882567  0.26241717  0.83976624  1
  S2-  S180  1  0.67958380  0.52599648  0.33366423  1
  S2-  S181  1  0.63573856  0.52479005  0.84642452  1
  S2-  S182  1  0.60931602  0.83289687  0.35662108  1
  S2-  S183  1  0.60376930  0.77051335  0.84578566  1
  S2-  S184  1  0.76786166  -0.00807143  0.35311923  1
  S2-  S185  1  0.96649103  -0.01623764  0.83341115  1
  S2-  S186  1  0.83697697  0.20873405  0.31949560  1
  S2-  S187  1  0.86647595  0.16965757  0.85303194  1
  S2-  S188  1  0.91601551  0.42276492  0.34854180  1
  S2-  S189  1  0.90236619  0.53745578  0.84764216  1
  S2-  S190  1  0.89300497  0.63930461  0.36596381  1
  S2-  S191  1  0.86666805  0.77065846  0.84158782  1
  S2-  S192  1  -0.01022764  0.12014715  0.45428940  1
  S2-  S193  1  -0.00031022  0.12865505  0.94919381  1
  S2-  S194  1  0.00026202  0.37961334  0.45524023  1
  S2-  S195  1  -0.00723610  0.37813157  0.95116522  1
  S2-  S196  1  -0.00033453  0.61876961  0.46973596  1
  S2-  S197  1  -0.00703469  0.63288121  0.95555204  1
  S2-  S198  1  -0.00910204  0.86638366  0.45917912  1
  S2-  S199  1  -0.00334074  0.87858471  0.94599689  1
  S2-  S200  1  0.23574121  0.12182703  0.46026187  1
  S2-  S201  1  0.24609446  0.13377679  0.95113499  1
  S2-  S202  1  0.24056992  0.36743982  0.47008930  1
  S2-  S203  1  0.24698074  0.38011706  0.95385908  1
  S2-  S204  1  0.24330537  0.62610550  0.46911788  1
  S2-  S205  1  0.24701404  0.62953508  0.95680003  1
  S2-  S206  1  0.23496274  0.87435849  0.46934922  1
  S2-  S207  1  0.24238787  0.87978635  0.95249251  1
  S2-  S208  1  0.48970473  0.11726911  0.44972975  1
  S2-  S209  1  0.49295077  0.13228265  0.94757683  1
  S2-  S210  1  0.48620003  0.37157216  0.45035314  1
  S2-  S211  1  0.49608221  0.38113376  0.95130952  1
  S2-  S212  1  0.48389476  0.62818225  0.45118600  1
  S2-  S213  1  0.49451970  0.62918331  0.95471129  1
  S2-  S214  1  0.48870598  0.87072603  0.46094614  1
  S2-  S215  1  0.49438239  0.88202050  0.95212204  1
  S2-  S216  1  0.74458811  0.12942306  0.44450367  1
  S2-  S217  1  0.73951779  0.12894841  0.95571732  1
  S2-  S218  1  0.74037198  0.37510632  0.43551924  1
  S2-  S219  1  0.74333856  0.38206412  0.94639381  1
  S2-  S220  1  0.73905685  0.62012612  0.45627621  1
  S2-  S221  1  0.74557974  0.63277847  0.95957496  1
  S2-  S222  1  0.74982128  0.86209876  0.45677256  1
  S2-  S223  1  0.74447698  0.87624008  0.95287873  1
  S2-  S224  1  0.12062604  0.00624401  0.05010843  1
  S2-  S225  1  0.10892846  -0.00515969  0.54842474  1
  S2-  S226  1  0.12085286  0.25074394  0.04417745  1
  S2-  S227  1  0.11293000  0.24884699  0.54881936  1
  S2-  S228  1  0.11994236  0.50524067  0.04643097  1
  S2-  S229  1  0.12082304  0.49328538  0.56137943  1
  S2-  S230  1  0.11941550  0.75480398  0.04415725  1
  S2-  S231  1  0.11784586  0.73906790  0.55882966  1
  S2-  S232  1  0.36981903  0.00963178  0.04099577  1
  S2-  S233  1  0.36335096  0.00291335  0.55163665  1
  S2-  S234  1  0.37268025  0.25192160  0.04890207  1
  S2-  S235  1  0.37305873  0.23980394  0.54299936  1
  S2-  S236  1  0.37123386  0.50157941  0.04716913  1
  S2-  S237  1  0.36701249  0.49362772  0.54110417  1
  S2-  S238  1  0.36984962  0.75501729  0.03971006  1
  S2-  S239  1  0.36485717  0.74805500  0.54431158  1
  S2-  S240  1  0.61474239  0.00043973  0.03564084  1
  S2-  S241  1  0.62061570  -0.00704062  0.53233243  1
  S2-  S242  1  0.62164045  0.25109151  0.04564332  1
  S2-  S243  1  0.61232578  0.24961104  0.52746889  1
  S2-  S244  1  0.61633264  0.51015074  0.04878272  1
  S2-  S245  1  0.61142640  0.49586126  0.53847589  1
  S2-  S246  1  0.62076592  0.75557748  0.05187533  1
  S2-  S247  1  0.61655365  0.74258934  0.54452298  1
  S2-  S248  1  0.87055495  0.00081806  0.03333006  1
  S2-  S249  1  0.86508477  -0.00838113  0.53980954  1
  S2-  S250  1  0.86384263  0.25281888  0.04628173  1
  S2-  S251  1  0.86643865  0.25098071  0.53030749  1
  S2-  S252  1  0.86752441  0.50009131  0.04744704  1
  S2-  S253  1  0.86629492  0.49364531  0.53948809  1
  S2-  S254  1  0.87006007  0.76114058  0.04502758  1
  S2-  S255  1  0.86672279  0.73906037  0.54898288  1
