# generated using pymatgen
data_La6Ce6Pr19Nd20Sm13(BiS2)64
_symmetry_space_group_name_H-M   'P 1'
_cell_length_a   16.09935340
_cell_length_b   16.09799059
_cell_length_c   27.33030061
_cell_angle_alpha   89.97267785
_cell_angle_beta   89.86885044
_cell_angle_gamma   89.92970273
_symmetry_Int_Tables_number   1
_chemical_formula_structural   La6Ce6Pr19Nd20Sm13(BiS2)64
_chemical_formula_sum   'La6 Ce6 Pr19 Nd20 Sm13 Bi64 S128'
_cell_volume   7083.09388315
_cell_formula_units_Z   1
loop_
 _symmetry_equiv_pos_site_id
 _symmetry_equiv_pos_as_xyz
  1  'x, y, z'
loop_
 _atom_type_symbol
 _atom_type_oxidation_number
  La3+  3.0
  Ce3+  3.0
  Pr3+  3.0
  Nd3+  3.0
  Sm3+  3.0
  Bi2+  2.0
  S2-  -2.0
loop_
 _atom_site_type_symbol
 _atom_site_label
 _atom_site_symmetry_multiplicity
 _atom_site_fract_x
 _atom_site_fract_y
 _atom_site_fract_z
 _atom_site_occupancy
  La3+  La0  1  0.23865581  0.12997425  0.58489265  1
  La3+  La1  1  0.87303534  -0.01152880  0.39185305  1
  La3+  La2  1  0.25910147  0.86624369  0.58383443  1
  La3+  La3  1  0.12854122  0.74893754  0.89279308  1
  La3+  La4  1  0.74156385  0.61492823  0.59561925  1
  La3+  La5  1  0.62867559  0.24678942  0.42656528  1
  Ce3+  Ce6  1  -0.01339169  0.13230045  0.05494889  1
  Ce3+  Ce7  1  -0.00031563  0.12497742  0.55598897  1
  Ce3+  Ce8  1  -0.01218310  0.63158607  0.05907218  1
  Ce3+  Ce9  1  0.61191108  0.50400556  0.94169631  1
  Ce3+  Ce10  1  0.73757582  0.87685225  0.05959419  1
  Ce3+  Ce11  1  0.12434540  0.49972185  0.44917209  1
  Pr3+  Pr12  1  0.11461035  0.25668408  0.93080538  1
  Pr3+  Pr13  1  0.49940527  0.37522552  0.55039707  1
  Pr3+  Pr14  1  0.11153577  0.00694638  0.92913509  1
  Pr3+  Pr15  1  0.74836584  0.12509928  0.55380551  1
  Pr3+  Pr16  1  0.48105522  0.63218656  0.06534320  1
  Pr3+  Pr17  1  0.24881741  0.37676829  0.56592866  1
  Pr3+  Pr18  1  0.13074463  0.24413701  0.43431268  1
  Pr3+  Pr19  1  0.86683719  0.74994104  0.92823205  1
  Pr3+  Pr20  1  -0.00359835  0.87174955  0.56871720  1
  Pr3+  Pr21  1  0.36581931  -0.00924854  0.43534906  1
  Pr3+  Pr22  1  0.62462493  0.00122740  0.42310139  1
  Pr3+  Pr23  1  0.23726675  0.12932915  0.06327324  1
  Pr3+  Pr24  1  0.22294552  0.63366918  0.07275280  1
  Pr3+  Pr25  1  0.62759064  0.49461958  0.42876976  1
  Pr3+  Pr26  1  0.61670311  0.75387638  0.93162669  1
  Pr3+  Pr27  1  0.36088110  0.75377890  0.94241533  1
  Pr3+  Pr28  1  0.85981127  0.26020918  0.93400675  1
  Pr3+  Pr29  1  0.12203880  0.75250782  0.44199901  1
  Pr3+  Pr30  1  -0.01879033  0.37684276  0.06948924  1
  Nd3+  Nd31  1  0.74227701  0.36549594  0.56920300  1
  Nd3+  Nd32  1  0.87252400  0.49382783  0.43603095  1
  Nd3+  Nd33  1  0.61427086  0.00584071  0.94178406  1
  Nd3+  Nd34  1  0.12297256  -0.00486228  0.44527605  1
  Nd3+  Nd35  1  -0.00656874  0.62200506  0.56006971  1
  Nd3+  Nd36  1  0.23517730  0.37149253  0.07511518  1
  Nd3+  Nd37  1  0.73506293  0.38369738  0.06868755  1
  Nd3+  Nd38  1  0.74945880  0.87624771  0.55851366  1
  Nd3+  Nd39  1  -0.01175616  0.88050876  0.05527803  1
  Nd3+  Nd40  1  0.73670830  0.13013918  0.06623063  1
  Nd3+  Nd41  1  0.50147268  0.87460235  0.55985488  1
  Nd3+  Nd42  1  0.86523238  0.50488410  0.93719262  1
  Nd3+  Nd43  1  0.37015667  0.50204626  0.42844921  1
  Nd3+  Nd44  1  0.50102259  0.61944547  0.55741703  1
  Nd3+  Nd45  1  0.36111531  0.00486033  0.93474116  1
  Nd3+  Nd46  1  0.88465171  0.24820791  0.42264071  1
  Nd3+  Nd47  1  0.48766742  0.87967393  0.05645949  1
  Nd3+  Nd48  1  0.62693910  0.74843279  0.44475306  1
  Nd3+  Nd49  1  0.23351152  0.88359340  0.06253613  1
  Nd3+  Nd50  1  0.36886833  0.24508842  0.44417383  1
  Sm3+  Sm51  1  0.11420300  0.50536939  0.94612063  1
  Sm3+  Sm52  1  0.25141558  0.62316876  0.55972411  1
  Sm3+  Sm53  1  0.86261130  0.00530195  0.93841900  1
  Sm3+  Sm54  1  0.73620816  0.62927751  0.05819718  1
  Sm3+  Sm55  1  0.61405491  0.25680247  0.94321522  1
  Sm3+  Sm56  1  0.87185272  0.75021244  0.44697284  1
  Sm3+  Sm57  1  -0.00695067  0.37475151  0.55652798  1
  Sm3+  Sm58  1  0.49556413  0.12033777  0.55430444  1
  Sm3+  Sm59  1  0.36256071  0.25878724  0.94376458  1
  Sm3+  Sm60  1  0.36005558  0.50554431  0.95095916  1
  Sm3+  Sm61  1  0.49064178  0.38125076  0.06950129  1
  Sm3+  Sm62  1  0.37613685  0.74443645  0.43830934  1
  Sm3+  Sm63  1  0.48905962  0.13077361  0.05139501  1
  Bi2+  Bi64  1  0.00546920  0.11879592  0.29150526  1
  Bi2+  Bi65  1  0.00110998  0.21034445  0.80327475  1
  Bi2+  Bi66  1  0.00635320  0.43780279  0.29138248  1
  Bi2+  Bi67  1  0.05227293  0.39746733  0.81438358  1
  Bi2+  Bi68  1  -0.02422823  0.62894538  0.27333444  1
  Bi2+  Bi69  1  -0.00599348  0.62699126  0.79084245  1
  Bi2+  Bi70  1  0.00121835  0.84809218  0.29218985  1
  Bi2+  Bi71  1  0.01482707  0.89033779  0.78121063  1
  Bi2+  Bi72  1  0.26418797  0.11112443  0.28396209  1
  Bi2+  Bi73  1  0.26528040  0.13167638  0.78788290  1
  Bi2+  Bi74  1  0.28119410  0.38108980  0.30982606  1
  Bi2+  Bi75  1  0.24835485  0.37197295  0.80647321  1
  Bi2+  Bi76  1  0.26562800  0.57495079  0.29397524  1
  Bi2+  Bi77  1  0.33216649  0.60648836  0.76588364  1
  Bi2+  Bi78  1  0.24505766  0.87138728  0.29868810  1
  Bi2+  Bi79  1  0.26854370  0.86108375  0.78352782  1
  Bi2+  Bi80  1  0.45767736  0.06464912  0.30420787  1
  Bi2+  Bi81  1  0.49402055  0.17884744  0.74776396  1
  Bi2+  Bi82  1  0.47239221  0.36862520  0.28487587  1
  Bi2+  Bi83  1  0.46644794  0.46313687  0.77081797  1
  Bi2+  Bi84  1  0.56748303  0.60729664  0.30753404  1
  Bi2+  Bi85  1  0.54546981  0.72066585  0.80775003  1
  Bi2+  Bi86  1  0.50883574  0.87014356  0.29621007  1
  Bi2+  Bi87  1  0.50633855  0.91022601  0.80637357  1
  Bi2+  Bi88  1  0.72554816  0.10383685  0.28224009  1
  Bi2+  Bi89  1  0.79339603  0.18588546  0.81538103  1
  Bi2+  Bi90  1  0.74778724  0.36756566  0.28130353  1
  Bi2+  Bi91  1  0.74945159  0.38765303  0.79961882  1
  Bi2+  Bi92  1  0.75926481  0.56717312  0.30732739  1
  Bi2+  Bi93  1  0.73154889  0.64138431  0.79352809  1
  Bi2+  Bi94  1  0.70168439  0.84988555  0.25730210  1
  Bi2+  Bi95  1  0.76083222  0.91199385  0.79463520  1
  Bi2+  Bi96  1  0.11481515  -0.04539263  0.18782006  1
  Bi2+  Bi97  1  0.14858444  0.04298255  0.71965413  1
  Bi2+  Bi98  1  0.15635956  0.25000235  0.23004607  1
  Bi2+  Bi99  1  0.10616766  0.27579257  0.70708638  1
  Bi2+  Bi100  1  0.18232883  0.44273974  0.21156849  1
  Bi2+  Bi101  1  0.17211629  0.49871432  0.73132267  1
  Bi2+  Bi102  1  0.16183876  0.68662693  0.21487638  1
  Bi2+  Bi103  1  0.11207867  0.74934378  0.68017073  1
  Bi2+  Bi104  1  0.35904571  -0.05169024  0.21858603  1
  Bi2+  Bi105  1  0.44248211  -0.00047590  0.70825434  1
  Bi2+  Bi106  1  0.39510322  0.21655442  0.21080270  1
  Bi2+  Bi107  1  0.38258664  0.32488153  0.70810198  1
  Bi2+  Bi108  1  0.37291532  0.40631169  0.18665725  1
  Bi2+  Bi109  1  0.33503311  0.50129797  0.66536358  1
  Bi2+  Bi110  1  0.41492506  0.66446526  0.23604372  1
  Bi2+  Bi111  1  0.46843876  0.72426907  0.70344130  1
  Bi2+  Bi112  1  0.55255578  -0.00453159  0.20842902  1
  Bi2+  Bi113  1  0.67638754  0.07497947  0.74336836  1
  Bi2+  Bi114  1  0.58967071  0.25906272  0.21698006  1
  Bi2+  Bi115  1  0.65147899  0.27110520  0.71218419  1
  Bi2+  Bi116  1  0.62755889  0.48829983  0.22177550  1
  Bi2+  Bi117  1  0.62497003  0.48737051  0.70514101  1
  Bi2+  Bi118  1  0.58257620  0.73901254  0.19466187  1
  Bi2+  Bi119  1  0.62072415  0.84945385  0.71543057  1
  Bi2+  Bi120  1  0.87369344  -0.00264263  0.17551238  1
  Bi2+  Bi121  1  0.87575277  0.05241388  0.74007745  1
  Bi2+  Bi122  1  0.91726395  0.23957943  0.19322989  1
  Bi2+  Bi123  1  0.88648445  0.24425819  0.70732114  1
  Bi2+  Bi124  1  0.88545519  0.49732658  0.20861627  1
  Bi2+  Bi125  1  0.89322891  0.43802876  0.72495898  1
  Bi2+  Bi126  1  0.80873125  0.69641880  0.22027863  1
  Bi2+  Bi127  1  0.87506573  0.77670910  0.69650919  1
  S2-  S128  1  0.01405450  0.10234563  0.15205335  1
  S2-  S129  1  0.07555551  0.13229390  0.64489617  1
  S2-  S130  1  0.05572981  0.33783594  0.16004775  1
  S2-  S131  1  0.01039048  0.39542731  0.65441819  1
  S2-  S132  1  0.07378939  0.61967398  0.14233246  1
  S2-  S133  1  -0.02743589  0.64407227  0.65841717  1
  S2-  S134  1  -0.02561791  0.86520689  0.15682629  1
  S2-  S135  1  0.00204795  0.89265120  0.67000903  1
  S2-  S136  1  0.24341106  0.00922710  0.13851699  1
  S2-  S137  1  0.29999078  0.08527883  0.67882125  1
  S2-  S138  1  0.24645434  0.23865714  0.14311763  1
  S2-  S139  1  0.24192841  0.27893791  0.64901543  1
  S2-  S140  1  0.30539611  0.63225448  0.16253810  1
  S2-  S141  1  0.25603540  0.70835282  0.64377039  1
  S2-  S142  1  0.19360310  0.81381125  0.15422079  1
  S2-  S143  1  0.21013487  0.89692030  0.68340198  1
  S2-  S144  1  0.51995731  0.13552742  0.14801081  1
  S2-  S145  1  0.53213736  0.10760753  0.64993018  1
  S2-  S146  1  0.61008412  0.37224731  0.14232753  1
  S2-  S147  1  0.58293046  0.36638979  0.63760123  1
  S2-  S148  1  0.52218405  0.58984445  0.15972241  1
  S2-  S149  1  0.57635145  0.61315833  0.64695243  1
  S2-  S150  1  0.46129663  0.85360947  0.15299947  1
  S2-  S151  1  0.41575717  0.86376903  0.64600137  1
  S2-  S152  1  0.77707313  0.14898091  0.16374974  1
  S2-  S153  1  0.76054355  0.22917974  0.63571147  1
  S2-  S154  1  0.84884693  0.36093336  0.14406883  1
  S2-  S155  1  0.77448544  0.46856477  0.64934672  1
  S2-  S156  1  0.75376853  0.58021550  0.15174296  1
  S2-  S157  1  0.75745860  0.67094381  0.69444723  1
  S2-  S158  1  0.73135556  0.90298892  0.15592965  1
  S2-  S159  1  0.75637336  0.88771161  0.65813837  1
  S2-  S160  1  0.03659578  -0.01362008  0.35371860  1
  S2-  S161  1  0.13961657  -0.08451019  0.84402184  1
  S2-  S162  1  0.03662460  0.24133573  0.34851761  1
  S2-  S163  1  0.13275071  0.13581149  0.85532049  1
  S2-  S164  1  0.13264743  0.49467819  0.35211986  1
  S2-  S165  1  0.11200788  0.58081513  0.85667164  1
  S2-  S166  1  0.13763789  0.76415090  0.34133629  1
  S2-  S167  1  0.12863704  0.75309789  0.77704458  1
  S2-  S168  1  0.23698316  0.00519956  0.36573954  1
  S2-  S169  1  0.34764791  0.00142910  0.83479941  1
  S2-  S170  1  0.26974538  0.23275900  0.36268537  1
  S2-  S171  1  0.34979700  0.24796087  0.84624679  1
  S2-  S172  1  0.38688983  0.62736435  0.35917974  1
  S2-  S173  1  0.35575131  0.50061596  0.85293228  1
  S2-  S174  1  0.37458313  0.85132628  0.36144234  1
  S2-  S175  1  0.29454195  0.74569394  0.84980892  1
  S2-  S176  1  0.72040412  -0.03172042  0.33857831  1
  S2-  S177  1  0.63498294  0.01174984  0.84363020  1
  S2-  S178  1  0.60907858  0.13608811  0.34762743  1
  S2-  S179  1  0.64470039  0.26646085  0.84770102  1
  S2-  S180  1  0.63351031  0.37286730  0.35345057  1
  S2-  S181  1  0.64919359  0.51387023  0.84699459  1
  S2-  S182  1  0.62412246  0.75919316  0.34518746  1
  S2-  S183  1  0.73731942  0.77509294  0.85685955  1
  S2-  S184  1  0.89707288  -0.01690313  0.26845769  1
  S2-  S185  1  0.90446575  -0.01133781  0.84293827  1
  S2-  S186  1  0.84908247  0.14697812  0.34028957  1
  S2-  S187  1  0.88111104  0.38597861  0.86273391  1
  S2-  S188  1  0.87117680  0.38722589  0.35563412  1
  S2-  S189  1  0.86936240  0.60360255  0.85228090  1
  S2-  S190  1  0.88899200  0.81183446  0.35616594  1
  S2-  S191  1  0.97175688  0.77197991  0.84679131  1
  S2-  S192  1  -0.00141990  0.12012093  0.45353836  1
  S2-  S193  1  -0.01749748  0.13287404  0.94923841  1
  S2-  S194  1  0.00422018  0.37467581  0.45392439  1
  S2-  S195  1  -0.00640437  0.37958071  0.96126688  1
  S2-  S196  1  -0.00496843  0.62412001  0.45183256  1
  S2-  S197  1  -0.00789782  0.62855943  0.95668358  1
  S2-  S198  1  -0.00557087  0.87282150  0.46271645  1
  S2-  S199  1  -0.01538060  0.88402200  0.95107693  1
  S2-  S200  1  0.24717719  0.12229364  0.47036811  1
  S2-  S201  1  0.24450045  0.13336081  0.95651019  1
  S2-  S202  1  0.25112202  0.37791717  0.45838835  1
  S2-  S203  1  0.23930167  0.37972625  0.96059509  1
  S2-  S204  1  0.24714012  0.62616889  0.45550744  1
  S2-  S205  1  0.23811583  0.62709373  0.96110747  1
  S2-  S206  1  0.25040557  0.86541063  0.46692630  1
  S2-  S207  1  0.23848330  0.88181150  0.95386424  1
  S2-  S208  1  0.49246025  0.12005179  0.45046928  1
  S2-  S209  1  0.48807397  0.13281674  0.94590287  1
  S2-  S210  1  0.49120511  0.37431933  0.44510576  1
  S2-  S211  1  0.48660557  0.37990947  0.95816356  1
  S2-  S212  1  0.50490036  0.62110164  0.45384039  1
  S2-  S213  1  0.48662269  0.62913077  0.95596525  1
  S2-  S214  1  0.50384840  0.87471220  0.45525414  1
  S2-  S215  1  0.48978124  0.87994292  0.95001890  1
  S2-  S216  1  0.75485701  0.11753486  0.44912300  1
  S2-  S217  1  0.73679599  0.13068428  0.95675196  1
  S2-  S218  1  0.75134415  0.37028930  0.45903101  1
  S2-  S219  1  0.73361742  0.38039471  0.96101606  1
  S2-  S220  1  0.75168432  0.62367695  0.44441319  1
  S2-  S221  1  0.73673786  0.62807770  0.95570614  1
  S2-  S222  1  0.75020055  0.87537175  0.45326441  1
  S2-  S223  1  0.73926357  0.88365428  0.95521757  1
  S2-  S224  1  0.10869732  0.00759407  0.03720217  1
  S2-  S225  1  0.12546249  -0.00770284  0.55362032  1
  S2-  S226  1  0.11266629  0.25501012  0.04026690  1
  S2-  S227  1  0.11995126  0.25607766  0.54232215  1
  S2-  S228  1  0.11478738  0.49559168  0.04977235  1
  S2-  S229  1  0.12267899  0.50110868  0.55518780  1
  S2-  S230  1  0.10854878  0.75820163  0.04339850  1
  S2-  S231  1  0.12139969  0.74522966  0.54875388  1
  S2-  S232  1  0.36925992  0.00680201  0.04100996  1
  S2-  S233  1  0.37406959  -0.00092648  0.54834399  1
  S2-  S234  1  0.37157862  0.25764273  0.04718897  1
  S2-  S235  1  0.37629958  0.24741202  0.54950526  1
  S2-  S236  1  0.36026850  0.49918889  0.05481369  1
  S2-  S237  1  0.37350545  0.50075847  0.53613475  1
  S2-  S238  1  0.35823812  0.75758215  0.04893722  1
  S2-  S239  1  0.38043682  0.74276021  0.54219419  1
  S2-  S240  1  0.61228620  0.00545107  0.04750582  1
  S2-  S241  1  0.62350751  -0.00053983  0.54090330  1
  S2-  S242  1  0.61240934  0.25281081  0.04581465  1
  S2-  S243  1  0.61703238  0.24340427  0.53426830  1
  S2-  S244  1  0.60879832  0.50838502  0.04684367  1
  S2-  S245  1  0.62805191  0.49900149  0.53698168  1
  S2-  S246  1  0.61179310  0.75235078  0.04390965  1
  S2-  S247  1  0.62759453  0.74731990  0.55082863  1
  S2-  S248  1  0.85990117  0.00620968  0.04389792  1
  S2-  S249  1  0.87350823  0.00144023  0.56101376  1
  S2-  S250  1  0.85743108  0.25287900  0.04100495  1
  S2-  S251  1  0.87854322  0.25012476  0.53757865  1
  S2-  S252  1  0.86159062  0.50724487  0.04452788  1
  S2-  S253  1  0.87151946  0.49964120  0.54235625  1
  S2-  S254  1  0.86056247  0.75261373  0.04676289  1
  S2-  S255  1  0.86503945  0.74305214  0.55158154  1
