# generated using pymatgen
data_La6Ce6Pr19Nd20Sm13(BiS2)64
_symmetry_space_group_name_H-M   'P 1'
_cell_length_a   16.01173797
_cell_length_b   16.13215592
_cell_length_c   27.30826600
_cell_angle_alpha   90.08132277
_cell_angle_beta   89.23439781
_cell_angle_gamma   90.08789544
_symmetry_Int_Tables_number   1
_chemical_formula_structural   La6Ce6Pr19Nd20Sm13(BiS2)64
_chemical_formula_sum   'La6 Ce6 Pr19 Nd20 Sm13 Bi64 S128'
_cell_volume   7053.18541845
_cell_formula_units_Z   1
loop_
 _symmetry_equiv_pos_site_id
 _symmetry_equiv_pos_as_xyz
  1  'x, y, z'
loop_
 _atom_type_symbol
 _atom_type_oxidation_number
  La3+  3.0
  Ce3+  3.0
  Pr3+  3.0
  Nd3+  3.0
  Sm3+  3.0
  Bi2+  2.0
  S2-  -2.0
loop_
 _atom_site_type_symbol
 _atom_site_label
 _atom_site_symmetry_multiplicity
 _atom_site_fract_x
 _atom_site_fract_y
 _atom_site_fract_z
 _atom_site_occupancy
  La3+  La0  1  0.25109288  0.63440415  0.08555768  1
  La3+  La1  1  0.48889057  0.13666309  0.58937681  1
  La3+  La2  1  0.63248220  0.49397279  0.88882346  1
  La3+  La3  1  0.23874219  0.37465738  0.09921866  1
  La3+  La4  1  0.62619209  0.24694889  0.43438024  1
  La3+  La5  1  0.75163215  0.62552115  0.06699465  1
  Ce3+  Ce6  1  0.00320140  0.62584900  0.07015644  1
  Ce3+  Ce7  1  0.62212308  -0.00182567  0.45272506  1
  Ce3+  Ce8  1  0.50235001  0.13266230  0.06292174  1
  Ce3+  Ce9  1  0.00655811  0.87733524  0.56984344  1
  Ce3+  Ce10  1  0.87454599  -0.00338850  0.92436081  1
  Ce3+  Ce11  1  0.38376319  0.50065264  0.95309529  1
  Pr3+  Pr12  1  0.36085884  0.77453414  0.38946470  1
  Pr3+  Pr13  1  0.24183842  0.13319698  0.56203570  1
  Pr3+  Pr14  1  0.12408263  0.49856236  0.42462560  1
  Pr3+  Pr15  1  0.63126511  0.50226363  0.43670052  1
  Pr3+  Pr16  1  0.50050998  0.61855306  0.07728700  1
  Pr3+  Pr17  1  0.50163452  0.37257219  0.06992846  1
  Pr3+  Pr18  1  0.00174965  0.62657556  0.55447245  1
  Pr3+  Pr19  1  0.49917089  0.62727077  0.55869772  1
  Pr3+  Pr20  1  0.74466685  0.87446953  0.58093386  1
  Pr3+  Pr21  1  0.75228103  0.37781474  0.05205492  1
  Pr3+  Pr22  1  0.62520418  0.75269334  0.43668891  1
  Pr3+  Pr23  1  0.87887770  -0.00218974  0.45009407  1
  Pr3+  Pr24  1  0.88310788  0.25414153  0.92990668  1
  Pr3+  Pr25  1  0.14217173  0.00732899  0.92677564  1
  Pr3+  Pr26  1  0.87483327  0.25218059  0.43303382  1
  Pr3+  Pr27  1  0.00311313  0.12473260  0.05181309  1
  Pr3+  Pr28  1  0.49507197  0.87690490  0.56998587  1
  Pr3+  Pr29  1  0.38187906  0.25463739  0.93916612  1
  Pr3+  Pr30  1  0.37980179  0.74649803  0.94060573  1
  Nd3+  Nd31  1  0.25213810  0.87721285  0.57033935  1
  Nd3+  Nd32  1  0.25450581  0.62447777  0.54704118  1
  Nd3+  Nd33  1  0.50186870  0.37512352  0.55728161  1
  Nd3+  Nd34  1  0.75462203  0.37828202  0.58142137  1
  Nd3+  Nd35  1  0.62873678  -0.00117645  0.93492976  1
  Nd3+  Nd36  1  0.75265121  0.87691269  0.05592043  1
  Nd3+  Nd37  1  0.50315805  0.87588926  0.06282951  1
  Nd3+  Nd38  1  0.13508856  0.75119595  0.94038009  1
  Nd3+  Nd39  1  0.37639411  0.24994574  0.42907272  1
  Nd3+  Nd40  1  0.88753227  0.51066359  0.92783831  1
  Nd3+  Nd41  1  0.74985023  0.12916682  0.56274563  1
  Nd3+  Nd42  1  0.13063662  -0.00361569  0.43772685  1
  Nd3+  Nd43  1  0.25295081  0.88055768  0.06388544  1
  Nd3+  Nd44  1  0.74777931  0.62980850  0.57198360  1
  Nd3+  Nd45  1  0.63180657  0.25452639  0.93245721  1
  Nd3+  Nd46  1  0.00052489  0.13051894  0.55845696  1
  Nd3+  Nd47  1  0.13267536  0.50380476  0.94298353  1
  Nd3+  Nd48  1  0.25044514  0.37748114  0.54766307  1
  Nd3+  Nd49  1  0.62405847  0.74037542  0.93500558  1
  Nd3+  Nd50  1  0.12953175  0.25186766  0.42406270  1
  Sm3+  Sm51  1  0.38811820  0.00391077  0.93799137  1
  Sm3+  Sm52  1  0.88002230  0.74716644  0.94094371  1
  Sm3+  Sm53  1  0.37744091  -0.00009543  0.44804759  1
  Sm3+  Sm54  1  0.87035019  0.50023124  0.44374516  1
  Sm3+  Sm55  1  -0.00023226  0.37745746  0.55940825  1
  Sm3+  Sm56  1  0.00385322  0.87873860  0.04908002  1
  Sm3+  Sm57  1  0.00106413  0.37586142  0.05940397  1
  Sm3+  Sm58  1  0.12761498  0.74894511  0.44074351  1
  Sm3+  Sm59  1  0.13247317  0.25174373  0.94338090  1
  Sm3+  Sm60  1  0.75457260  0.12637026  0.05035367  1
  Sm3+  Sm61  1  0.25138922  0.12826191  0.06626256  1
  Sm3+  Sm62  1  0.87099375  0.75335666  0.44392194  1
  Sm3+  Sm63  1  0.38640286  0.50575124  0.42323957  1
  Bi2+  Bi64  1  -0.00358495  0.15924944  0.30082330  1
  Bi2+  Bi65  1  -0.06509078  0.08248563  0.78089508  1
  Bi2+  Bi66  1  -0.07063764  0.34787671  0.29664765  1
  Bi2+  Bi67  1  0.01150150  0.35647758  0.79493577  1
  Bi2+  Bi68  1  -0.02010638  0.64053516  0.29132167  1
  Bi2+  Bi69  1  0.05462794  0.64291802  0.81050315  1
  Bi2+  Bi70  1  -0.02521797  0.83838013  0.29075206  1
  Bi2+  Bi71  1  -0.05477646  0.89030867  0.81063509  1
  Bi2+  Bi72  1  0.23657962  0.13103094  0.28247849  1
  Bi2+  Bi73  1  0.17032410  0.10913436  0.78971991  1
  Bi2+  Bi74  1  0.21062325  0.39130440  0.28848985  1
  Bi2+  Bi75  1  0.21249822  0.40370782  0.77810622  1
  Bi2+  Bi76  1  0.19500324  0.67660909  0.27193673  1
  Bi2+  Bi77  1  0.24453403  0.58285361  0.81885905  1
  Bi2+  Bi78  1  0.23346096  0.92900936  0.29088808  1
  Bi2+  Bi79  1  0.26158175  0.86003677  0.79023620  1
  Bi2+  Bi80  1  0.49246335  0.10826616  0.29034279  1
  Bi2+  Bi81  1  0.42681601  0.09059610  0.79750354  1
  Bi2+  Bi82  1  0.50140993  0.37178998  0.28991811  1
  Bi2+  Bi83  1  0.46767471  0.37920558  0.79000712  1
  Bi2+  Bi84  1  0.58445097  0.63352248  0.29063886  1
  Bi2+  Bi85  1  0.43529089  0.63863165  0.78885581  1
  Bi2+  Bi86  1  0.57592463  0.90788090  0.29470046  1
  Bi2+  Bi87  1  0.46124014  0.85176006  0.78008770  1
  Bi2+  Bi88  1  0.81015293  0.08444094  0.27868265  1
  Bi2+  Bi89  1  0.73437020  0.12136157  0.78482219  1
  Bi2+  Bi90  1  0.69564756  0.37564865  0.30474869  1
  Bi2+  Bi91  1  0.74228200  0.35950976  0.77445510  1
  Bi2+  Bi92  1  0.78237203  0.62750674  0.29061649  1
  Bi2+  Bi93  1  0.78345555  0.60799456  0.78811167  1
  Bi2+  Bi94  1  0.77558280  0.86887487  0.29198535  1
  Bi2+  Bi95  1  0.75879548  0.85669505  0.78485395  1
  Bi2+  Bi96  1  0.18743702  0.01384608  0.18119550  1
  Bi2+  Bi97  1  0.08556349  0.01352107  0.70258773  1
  Bi2+  Bi98  1  0.09973500  0.22362847  0.20635221  1
  Bi2+  Bi99  1  0.09918845  0.28760948  0.69939877  1
  Bi2+  Bi100  1  0.02805133  0.50022989  0.21481601  1
  Bi2+  Bi101  1  0.13233508  0.55543257  0.70027211  1
  Bi2+  Bi102  1  0.08993954  0.77547250  0.19525674  1
  Bi2+  Bi103  1  0.13388104  0.75615800  0.72371073  1
  Bi2+  Bi104  1  0.37711233  0.02992398  0.20747462  1
  Bi2+  Bi105  1  0.31385828  0.00363038  0.71908665  1
  Bi2+  Bi106  1  0.38676583  0.22748336  0.21793292  1
  Bi2+  Bi107  1  0.33784160  0.26487447  0.70895281  1
  Bi2+  Bi108  1  0.38747290  0.52965391  0.23197909  1
  Bi2+  Bi109  1  0.35942566  0.49789479  0.71874244  1
  Bi2+  Bi110  1  0.38093536  0.77670584  0.21709626  1
  Bi2+  Bi111  1  0.35161834  0.74305953  0.70536193  1
  Bi2+  Bi112  1  0.63985073  0.04877518  0.21886527  1
  Bi2+  Bi113  1  0.70387107  -0.01002644  0.70394842  1
  Bi2+  Bi114  1  0.64510366  0.24626931  0.20958274  1
  Bi2+  Bi115  1  0.57312800  0.21911359  0.72033274  1
  Bi2+  Bi116  1  0.63129155  0.50419283  0.20726681  1
  Bi2+  Bi117  1  0.59673136  0.48449086  0.68131294  1
  Bi2+  Bi118  1  0.62938458  0.77640633  0.20932408  1
  Bi2+  Bi119  1  0.64006049  0.75053159  0.71359101  1
  Bi2+  Bi120  1  0.99811490  0.00346028  0.22203615  1
  Bi2+  Bi121  1  0.90010002  -0.06334400  0.68826859  1
  Bi2+  Bi122  1  0.85785759  0.23492152  0.20914383  1
  Bi2+  Bi123  1  0.91995690  0.20754872  0.69504180  1
  Bi2+  Bi124  1  0.83783126  0.45452007  0.21671767  1
  Bi2+  Bi125  1  0.95410003  0.47884894  0.71456737  1
  Bi2+  Bi126  1  0.87042330  0.75386639  0.19818894  1
  Bi2+  Bi127  1  0.93286406  0.75317077  0.72238238  1
  S2-  S128  1  -0.02075701  0.14018681  0.15130035  1
  S2-  S129  1  0.10856090  0.14295930  0.63586742  1
  S2-  S130  1  0.06873616  0.37230151  0.15039647  1
  S2-  S131  1  -0.09469974  0.36437339  0.64341383  1
  S2-  S132  1  0.10969257  0.61612736  0.14936737  1
  S2-  S133  1  -0.02095219  0.62388485  0.65443507  1
  S2-  S134  1  -0.02266488  0.88795482  0.14616624  1
  S2-  S135  1  0.12591669  0.87144356  0.64300888  1
  S2-  S136  1  0.25275594  0.22412497  0.15007500  1
  S2-  S137  1  0.33254873  0.13458161  0.64981172  1
  S2-  S138  1  0.26557248  0.44742188  0.19432393  1
  S2-  S139  1  0.23350226  0.34882158  0.64538790  1
  S2-  S140  1  0.38361824  0.63976110  0.15654914  1
  S2-  S141  1  0.27785649  0.60056694  0.64546551  1
  S2-  S142  1  0.24951307  0.79506360  0.15090341  1
  S2-  S143  1  0.37001732  0.88133060  0.64814495  1
  S2-  S144  1  0.50910377  0.23866524  0.14187864  1
  S2-  S145  1  0.53950820  0.07750109  0.68312543  1
  S2-  S146  1  0.49277379  0.46192496  0.16045204  1
  S2-  S147  1  0.47510101  0.29429303  0.64672164  1
  S2-  S148  1  0.63256175  0.64258945  0.14695106  1
  S2-  S149  1  0.54043378  0.63897081  0.65742334  1
  S2-  S150  1  0.48927405  0.85619801  0.16232207  1
  S2-  S151  1  0.60465218  0.87229056  0.65041777  1
  S2-  S152  1  0.74319416  0.12536409  0.14803355  1
  S2-  S153  1  0.77930249  0.13591395  0.66069098  1
  S2-  S154  1  0.72932644  0.36843607  0.15258097  1
  S2-  S155  1  0.68444255  0.32950563  0.67446444  1
  S2-  S156  1  0.87533808  0.62261496  0.14142638  1
  S2-  S157  1  0.74554550  0.51876396  0.64804288  1
  S2-  S158  1  0.74435510  0.86264118  0.15514984  1
  S2-  S159  1  0.76633219  0.74178571  0.64974722  1
  S2-  S160  1  0.11289590  0.03694752  0.34160301  1
  S2-  S161  1  0.10851353  -0.04701537  0.83260664  1
  S2-  S162  1  0.07941282  0.36644538  0.35246316  1
  S2-  S163  1  0.10236536  0.23016531  0.84748396  1
  S2-  S164  1  0.16472017  0.54769819  0.32895671  1
  S2-  S165  1  0.03134431  0.49125276  0.86068315  1
  S2-  S166  1  0.19022163  0.79127155  0.35230189  1
  S2-  S167  1  0.25406841  0.74222656  0.86586599  1
  S2-  S168  1  0.36196667  -0.05930547  0.35421232  1
  S2-  S169  1  0.29215299  0.05026227  0.86082127  1
  S2-  S170  1  0.25733520  0.24559390  0.35226509  1
  S2-  S171  1  0.39322122  0.25545161  0.83679601  1
  S2-  S172  1  0.34967404  0.43580302  0.32986685  1
  S2-  S173  1  0.45764387  0.50826313  0.86202302  1
  S2-  S174  1  0.35570579  0.67316367  0.30257212  1
  S2-  S175  1  0.49302547  0.75628349  0.85947994  1
  S2-  S176  1  0.61646856  0.03662728  0.35760889  1
  S2-  S177  1  0.51022561  -0.00017175  0.85857964  1
  S2-  S178  1  0.50473393  0.24686746  0.35730784  1
  S2-  S179  1  0.61140844  0.33006807  0.84335325  1
  S2-  S180  1  0.52579166  0.51399493  0.35457940  1
  S2-  S181  1  0.64345485  0.50272150  0.77284070  1
  S2-  S182  1  0.52696325  0.76667484  0.35204201  1
  S2-  S183  1  0.66937786  0.65485254  0.84979262  1
  S2-  S184  1  0.87059448  -0.01893692  0.35055621  1
  S2-  S185  1  0.74274068  -0.00823163  0.85563527  1
  S2-  S186  1  0.75299246  0.25012064  0.35855899  1
  S2-  S187  1  0.81801178  0.24259230  0.83638251  1
  S2-  S188  1  0.76557330  0.50568398  0.36511638  1
  S2-  S189  1  0.79855856  0.46679087  0.84345978  1
  S2-  S190  1  0.76221749  0.75145903  0.36717843  1
  S2-  S191  1  0.89865650  0.65534180  0.85794391  1
  S2-  S192  1  0.00271290  0.12735131  0.45196183  1
  S2-  S193  1  0.00431130  0.12294200  0.94477626  1
  S2-  S194  1  -0.00541158  0.37983820  0.45657561  1
  S2-  S195  1  0.00730765  0.37243541  0.95608126  1
  S2-  S196  1  -0.00299705  0.62729371  0.44627676  1
  S2-  S197  1  0.01066998  0.63164249  0.96321680  1
  S2-  S198  1  0.00411163  0.87042958  0.45556045  1
  S2-  S199  1  0.00654986  0.87490059  0.94574969  1
  S2-  S200  1  0.24987995  0.12292473  0.45308461  1
  S2-  S201  1  0.25577255  0.13207335  0.96309205  1
  S2-  S202  1  0.25598812  0.38441783  0.44467513  1
  S2-  S203  1  0.25276992  0.37622932  0.94079689  1
  S2-  S204  1  0.25818225  0.62937975  0.44113704  1
  S2-  S205  1  0.25474407  0.62333249  0.96913115  1
  S2-  S206  1  0.25189661  0.87331972  0.46098388  1
  S2-  S207  1  0.25964821  0.88333721  0.95712049  1
  S2-  S208  1  0.49748954  0.12316328  0.46157354  1
  S2-  S209  1  0.50700702  0.13011336  0.95631109  1
  S2-  S210  1  0.50045525  0.37826734  0.45357267  1
  S2-  S211  1  0.50915229  0.37512785  0.95950773  1
  S2-  S212  1  0.50024277  0.62736071  0.45403034  1
  S2-  S213  1  0.50388278  0.62298872  0.96725286  1
  S2-  S214  1  0.49506129  0.87518237  0.46042749  1
  S2-  S215  1  0.50393002  0.87750928  0.95918988  1
  S2-  S216  1  0.75384418  0.12078356  0.45819303  1
  S2-  S217  1  0.75554404  0.12856466  0.94767571  1
  S2-  S218  1  0.75334083  0.37440677  0.46532808  1
  S2-  S219  1  0.75542081  0.37802808  0.94771282  1
  S2-  S220  1  0.75406994  0.62819308  0.46592784  1
  S2-  S221  1  0.75787833  0.62473465  0.95868424  1
  S2-  S222  1  0.75163288  0.87863530  0.46798408  1
  S2-  S223  1  0.75248531  0.86715003  0.95046566  1
  S2-  S224  1  0.12956314  0.00257515  0.03937341  1
  S2-  S225  1  0.12383022  0.00106193  0.54199291  1
  S2-  S226  1  0.12743037  0.25164773  0.04629969  1
  S2-  S227  1  0.12119974  0.25891371  0.53184173  1
  S2-  S228  1  0.12909270  0.49337249  0.04772645  1
  S2-  S229  1  0.12442432  0.50044250  0.53787049  1
  S2-  S230  1  0.12719977  0.75824278  0.04516669  1
  S2-  S231  1  0.12952497  0.74786746  0.54378869  1
  S2-  S232  1  0.37864782  0.00611962  0.05004200  1
  S2-  S233  1  0.37186711  0.00757462  0.54996515  1
  S2-  S234  1  0.37005147  0.25336076  0.04580843  1
  S2-  S235  1  0.37205163  0.25345113  0.53703764  1
  S2-  S236  1  0.36509974  0.49172361  0.05765412  1
  S2-  S237  1  0.37765453  0.49852461  0.53808771  1
  S2-  S238  1  0.37865467  0.75541576  0.04811383  1
  S2-  S239  1  0.37263493  0.74903385  0.55136852  1
  S2-  S240  1  0.62824799  0.00438609  0.04529580  1
  S2-  S241  1  0.62122387  0.00913847  0.55665033  1
  S2-  S242  1  0.63301065  0.24810030  0.03939055  1
  S2-  S243  1  0.62654606  0.25089044  0.54845350  1
  S2-  S244  1  0.62688466  0.49693513  0.05411235  1
  S2-  S245  1  0.62589813  0.49881369  0.54536396  1
  S2-  S246  1  0.62670623  0.75572632  0.04324970  1
  S2-  S247  1  0.62381732  0.75294766  0.54501364  1
  S2-  S248  1  0.87688842  0.00085218  0.03582014  1
  S2-  S249  1  0.87789406  0.00241616  0.55609837  1
  S2-  S250  1  0.87882199  0.25051465  0.04019441  1
  S2-  S251  1  0.87671707  0.25173684  0.54141356  1
  S2-  S252  1  0.88275904  0.49731555  0.04082963  1
  S2-  S253  1  0.87796614  0.50214258  0.54578082  1
  S2-  S254  1  0.88026047  0.75676427  0.04349837  1
  S2-  S255  1  0.88156741  0.75622628  0.54703983  1
