# generated using pymatgen
data_La6Ce6Pr19Nd20Sm13(BiS2)64
_symmetry_space_group_name_H-M   'P 1'
_cell_length_a   16.21609346
_cell_length_b   16.21326424
_cell_length_c   27.25201005
_cell_angle_alpha   89.95901062
_cell_angle_beta   89.91107918
_cell_angle_gamma   90.00213242
_symmetry_Int_Tables_number   1
_chemical_formula_structural   La6Ce6Pr19Nd20Sm13(BiS2)64
_chemical_formula_sum   'La6 Ce6 Pr19 Nd20 Sm13 Bi64 S128'
_cell_volume   7164.97377764
_cell_formula_units_Z   1
loop_
 _symmetry_equiv_pos_site_id
 _symmetry_equiv_pos_as_xyz
  1  'x, y, z'
loop_
 _atom_type_symbol
 _atom_type_oxidation_number
  La3+  3.0
  Ce3+  3.0
  Pr3+  3.0
  Nd3+  3.0
  Sm3+  3.0
  Bi2+  2.0
  S2-  -2.0
loop_
 _atom_site_type_symbol
 _atom_site_label
 _atom_site_symmetry_multiplicity
 _atom_site_fract_x
 _atom_site_fract_y
 _atom_site_fract_z
 _atom_site_occupancy
  La3+  La0  1  0.87882991  0.74267804  0.39116830  1
  La3+  La1  1  0.12836948  0.75859469  0.42477372  1
  La3+  La2  1  0.87685662  -0.00162555  0.94080338  1
  La3+  La3  1  0.37592708  0.25006127  0.43056836  1
  La3+  La4  1  0.61469134  0.76196642  0.40445460  1
  La3+  La5  1  0.49883083  0.13307364  0.57129625  1
  Ce3+  Ce6  1  0.25304113  0.62711460  0.05801875  1
  Ce3+  Ce7  1  0.75234827  0.62575658  0.06020578  1
  Ce3+  Ce8  1  0.37907704  -0.00043170  0.94307284  1
  Ce3+  Ce9  1  0.24796568  0.63122463  0.55889660  1
  Ce3+  Ce10  1  0.38029949  0.49940082  0.94627480  1
  Ce3+  Ce11  1  0.62580530  0.00033211  0.44013465  1
  Pr3+  Pr12  1  0.24922200  0.87864669  0.56898951  1
  Pr3+  Pr13  1  0.62362005  0.25182146  0.44099260  1
  Pr3+  Pr14  1  0.75365657  0.87272198  0.06659849  1
  Pr3+  Pr15  1  0.62155945  0.50373452  0.43764436  1
  Pr3+  Pr16  1  0.75401115  0.12561562  0.05965087  1
  Pr3+  Pr17  1  0.87122415  0.49745552  0.42685482  1
  Pr3+  Pr18  1  0.38229274  0.74950949  0.93266939  1
  Pr3+  Pr19  1  0.75416619  0.37287271  0.06183445  1
  Pr3+  Pr20  1  0.12636380  0.25175298  0.44351080  1
  Pr3+  Pr21  1  0.87746304  0.50024702  0.94140173  1
  Pr3+  Pr22  1  0.87696795  0.75010333  0.93976775  1
  Pr3+  Pr23  1  0.49904365  0.37848231  0.55981371  1
  Pr3+  Pr24  1  0.50313175  0.63129284  0.56203564  1
  Pr3+  Pr25  1  0.50002603  0.87247433  0.06509313  1
  Pr3+  Pr26  1  0.50366089  0.37222867  0.06486716  1
  Pr3+  Pr27  1  0.88020005  0.25301522  0.93352663  1
  Pr3+  Pr28  1  0.87621128  0.25061485  0.42597189  1
  Pr3+  Pr29  1  0.12486355  0.00098059  0.44171558  1
  Pr3+  Pr30  1  0.75495925  0.37671329  0.56473607  1
  Nd3+  Nd31  1  0.50145996  0.62581818  0.06342198  1
  Nd3+  Nd32  1  0.37607575  0.50661988  0.44435058  1
  Nd3+  Nd33  1  0.12939085  -0.00269260  0.94303810  1
  Nd3+  Nd34  1  0.38024184  0.24959005  0.93875935  1
  Nd3+  Nd35  1  0.00357590  0.37554697  0.05972472  1
  Nd3+  Nd36  1  0.25243072  0.37476838  0.05708399  1
  Nd3+  Nd37  1  0.00220693  0.12397323  0.05717178  1
  Nd3+  Nd38  1  0.62805499  0.24624077  0.93645774  1
  Nd3+  Nd39  1  0.50408851  0.87898380  0.56341053  1
  Nd3+  Nd40  1  0.87535907  -0.00407855  0.43557232  1
  Nd3+  Nd41  1  0.37721568  0.00043658  0.44832446  1
  Nd3+  Nd42  1  0.75090011  0.87650880  0.55452241  1
  Nd3+  Nd43  1  0.12748337  0.25032487  0.94314596  1
  Nd3+  Nd44  1  0.25145875  0.12515721  0.05991024  1
  Nd3+  Nd45  1  0.12499251  0.50464981  0.44380967  1
  Nd3+  Nd46  1  0.37572547  0.75451163  0.44508519  1
  Nd3+  Nd47  1  0.49922430  0.12526602  0.06438510  1
  Nd3+  Nd48  1  -0.00387543  0.62962771  0.55398794  1
  Nd3+  Nd49  1  0.75002909  0.63290766  0.54559567  1
  Nd3+  Nd50  1  -0.00162959  0.37808829  0.55336122  1
  Sm3+  Sm51  1  0.62543632  -0.00040563  0.95148176  1
  Sm3+  Sm52  1  0.62741810  0.75037220  0.94542399  1
  Sm3+  Sm53  1  0.24860182  0.12941893  0.55726336  1
  Sm3+  Sm54  1  0.00168067  0.62573685  0.05667223  1
  Sm3+  Sm55  1  0.00312545  0.87326555  0.06152810  1
  Sm3+  Sm56  1  -0.00127994  0.12839004  0.55243615  1
  Sm3+  Sm57  1  0.12888561  0.74958807  0.94697669  1
  Sm3+  Sm58  1  0.62607125  0.49913154  0.94688599  1
  Sm3+  Sm59  1  0.75179923  0.12895735  0.54997375  1
  Sm3+  Sm60  1  -0.00329697  0.87693213  0.55624392  1
  Sm3+  Sm61  1  0.25005605  0.37779942  0.55717766  1
  Sm3+  Sm62  1  0.12916259  0.50118698  0.94558635  1
  Sm3+  Sm63  1  0.25265777  0.87327557  0.05514830  1
  Bi2+  Bi64  1  -0.01795648  0.09526173  0.31879446  1
  Bi2+  Bi65  1  -0.02758219  0.16175949  0.80872047  1
  Bi2+  Bi66  1  -0.01508129  0.28711132  0.29907863  1
  Bi2+  Bi67  1  0.02893481  0.39548899  0.80898246  1
  Bi2+  Bi68  1  0.05578318  0.60883172  0.27246860  1
  Bi2+  Bi69  1  0.01127559  0.59308741  0.78873478  1
  Bi2+  Bi70  1  0.02864688  0.88575699  0.28911733  1
  Bi2+  Bi71  1  -0.00595076  0.87410740  0.81084745  1
  Bi2+  Bi72  1  0.18226502  0.11572520  0.29907531  1
  Bi2+  Bi73  1  0.24863544  0.10981057  0.75632022  1
  Bi2+  Bi74  1  0.22616444  0.40061330  0.28289860  1
  Bi2+  Bi75  1  0.23161691  0.37006980  0.74869375  1
  Bi2+  Bi76  1  0.24678316  0.65681876  0.31153427  1
  Bi2+  Bi77  1  0.21824112  0.59620771  0.75481565  1
  Bi2+  Bi78  1  0.27022627  0.84841377  0.28947048  1
  Bi2+  Bi79  1  0.22645778  0.86959452  0.79629665  1
  Bi2+  Bi80  1  0.50225910  0.15284380  0.30269743  1
  Bi2+  Bi81  1  0.50426517  0.12270183  0.80983494  1
  Bi2+  Bi82  1  0.51176523  0.38391780  0.30261686  1
  Bi2+  Bi83  1  0.48187011  0.36489317  0.80935670  1
  Bi2+  Bi84  1  0.46269537  0.64812895  0.28572322  1
  Bi2+  Bi85  1  0.51868982  0.60559943  0.79597979  1
  Bi2+  Bi86  1  0.47705594  0.90505688  0.29150409  1
  Bi2+  Bi87  1  0.47418068  0.86320309  0.79843040  1
  Bi2+  Bi88  1  0.78999017  0.12094988  0.29540691  1
  Bi2+  Bi89  1  0.76075081  0.12434507  0.75408053  1
  Bi2+  Bi90  1  0.77410257  0.33803126  0.26396243  1
  Bi2+  Bi91  1  0.80184766  0.37848374  0.76857057  1
  Bi2+  Bi92  1  0.75147595  0.58574548  0.28422442  1
  Bi2+  Bi93  1  0.74394291  0.63809012  0.75254471  1
  Bi2+  Bi94  1  0.77285092  0.90273254  0.27434346  1
  Bi2+  Bi95  1  0.72661679  0.81487689  0.80138298  1
  Bi2+  Bi96  1  0.09484135  0.01997401  0.21426691  1
  Bi2+  Bi97  1  0.08236233  0.03042344  0.72335328  1
  Bi2+  Bi98  1  0.13966519  0.26565130  0.21814269  1
  Bi2+  Bi99  1  0.10932532  0.22661585  0.71134385  1
  Bi2+  Bi100  1  0.09746893  0.45507912  0.19891750  1
  Bi2+  Bi101  1  0.08525860  0.47482449  0.70200887  1
  Bi2+  Bi102  1  0.17089356  0.74119050  0.21180498  1
  Bi2+  Bi103  1  0.09787677  0.75174921  0.74237880  1
  Bi2+  Bi104  1  0.33363681  0.02208730  0.24803657  1
  Bi2+  Bi105  1  0.36473179  -0.02320822  0.71274587  1
  Bi2+  Bi106  1  0.37625427  0.23384176  0.19520241  1
  Bi2+  Bi107  1  0.39408936  0.23052551  0.69581251  1
  Bi2+  Bi108  1  0.33356892  0.53490632  0.23337801  1
  Bi2+  Bi109  1  0.38519321  0.49118740  0.74142736  1
  Bi2+  Bi110  1  0.37502035  0.76819450  0.18352129  1
  Bi2+  Bi111  1  0.36872617  0.73992513  0.69670583  1
  Bi2+  Bi112  1  0.62533427  0.02594476  0.26156132  1
  Bi2+  Bi113  1  0.63154411  -0.03048667  0.76298544  1
  Bi2+  Bi114  1  0.61561672  0.26002027  0.18870463  1
  Bi2+  Bi115  1  0.63559529  0.23903558  0.69555440  1
  Bi2+  Bi116  1  0.62376778  0.47520169  0.22977327  1
  Bi2+  Bi117  1  0.63543959  0.47345083  0.74244993  1
  Bi2+  Bi118  1  0.62603106  0.74281658  0.19663651  1
  Bi2+  Bi119  1  0.61491862  0.76368917  0.68579994  1
  Bi2+  Bi120  1  0.89748072  0.01598050  0.21431696  1
  Bi2+  Bi121  1  0.89355520  -0.01428293  0.73319326  1
  Bi2+  Bi122  1  0.87941523  0.23661599  0.19318967  1
  Bi2+  Bi123  1  0.91030166  0.25081113  0.70942752  1
  Bi2+  Bi124  1  0.91870667  0.47505175  0.24209918  1
  Bi2+  Bi125  1  0.89239390  0.52964695  0.70343308  1
  Bi2+  Bi126  1  0.88290963  0.74812431  0.19114082  1
  Bi2+  Bi127  1  0.85728845  0.77357028  0.68579585  1
  S2-  S128  1  0.01453538  0.13941541  0.15523561  1
  S2-  S129  1  -0.00031945  0.12888628  0.64909436  1
  S2-  S130  1  -0.05359767  0.38961063  0.15205317  1
  S2-  S131  1  -0.05424392  0.38504277  0.64661019  1
  S2-  S132  1  -0.00919611  0.65036258  0.15296170  1
  S2-  S133  1  -0.02733670  0.65815322  0.65143221  1
  S2-  S134  1  -0.02719223  0.88164011  0.15773248  1
  S2-  S135  1  -0.04168828  0.88624051  0.65228522  1
  S2-  S136  1  0.29621033  0.10923550  0.15517024  1
  S2-  S137  1  0.28941163  0.10751826  0.65099456  1
  S2-  S138  1  0.26361106  0.33384378  0.15296822  1
  S2-  S139  1  0.28218795  0.34508068  0.65083528  1
  S2-  S140  1  0.27098485  0.61824105  0.15411396  1
  S2-  S141  1  0.25660850  0.64374467  0.65543521  1
  S2-  S142  1  0.24568869  0.86650992  0.15259860  1
  S2-  S143  1  0.25624156  0.87140200  0.66930309  1
  S2-  S144  1  0.51533248  0.13814297  0.16305958  1
  S2-  S145  1  0.51973826  0.11645807  0.67079674  1
  S2-  S146  1  0.48250795  0.36309506  0.16474693  1
  S2-  S147  1  0.50137281  0.33053097  0.65576530  1
  S2-  S148  1  0.52309687  0.63292791  0.16192922  1
  S2-  S149  1  0.48790447  0.64262898  0.66249854  1
  S2-  S150  1  0.50680744  0.86366271  0.16589136  1
  S2-  S151  1  0.47852973  0.87564234  0.66220412  1
  S2-  S152  1  0.74571336  0.15543670  0.15722663  1
  S2-  S153  1  0.74803336  0.14349688  0.64665213  1
  S2-  S154  1  0.71594925  0.40084249  0.15886139  1
  S2-  S155  1  0.71440098  0.38331944  0.66236776  1
  S2-  S156  1  0.75354476  0.64758920  0.15745065  1
  S2-  S157  1  0.72481220  0.65117895  0.64454416  1
  S2-  S158  1  0.73901579  0.86430892  0.16629135  1
  S2-  S159  1  0.72292727  0.87696252  0.65371552  1
  S2-  S160  1  0.15446339  -0.09454474  0.35897222  1
  S2-  S161  1  0.13854755  -0.01400414  0.84440427  1
  S2-  S162  1  0.15541284  0.27477483  0.34657451  1
  S2-  S163  1  0.10739990  0.24866844  0.84515845  1
  S2-  S164  1  0.14045969  0.51336540  0.34573808  1
  S2-  S165  1  0.13859331  0.51168111  0.84852962  1
  S2-  S166  1  0.03268220  0.74375607  0.34017856  1
  S2-  S167  1  0.12519608  0.76138620  0.84980604  1
  S2-  S168  1  0.39852169  0.03071093  0.35125679  1
  S2-  S169  1  0.40085878  -0.00013518  0.84628731  1
  S2-  S170  1  0.38909745  0.27352822  0.33119234  1
  S2-  S171  1  0.38155509  0.24029499  0.83939733  1
  S2-  S172  1  0.43536991  0.50948819  0.35154771  1
  S2-  S173  1  0.39461741  0.51151182  0.84928553  1
  S2-  S174  1  0.45080670  0.77258401  0.35638898  1
  S2-  S175  1  0.35387923  0.76199870  0.83270447  1
  S2-  S176  1  0.62688595  -0.08098820  0.35253843  1
  S2-  S177  1  0.63332292  0.03789563  0.85679844  1
  S2-  S178  1  0.61623999  0.25528043  0.34108938  1
  S2-  S179  1  0.59699205  0.25695554  0.83839860  1
  S2-  S180  1  0.65278589  0.47274876  0.34058176  1
  S2-  S181  1  0.62267622  0.50561960  0.84893406  1
  S2-  S182  1  0.61844040  0.69242739  0.30898556  1
  S2-  S183  1  0.57938723  0.74983448  0.85135718  1
  S2-  S184  1  0.88765623  -0.09356582  0.35082583  1
  S2-  S185  1  0.88970837  -0.00322889  0.84143258  1
  S2-  S186  1  0.86261176  0.36917945  0.35400165  1
  S2-  S187  1  0.82351995  0.21970133  0.84141713  1
  S2-  S188  1  0.89174534  0.58254336  0.34060547  1
  S2-  S189  1  0.87359648  0.45999451  0.84421732  1
  S2-  S190  1  0.81736600  0.74451281  0.28969309  1
  S2-  S191  1  0.87637516  0.75725044  0.84029307  1
  S2-  S192  1  -0.00037010  0.12605700  0.44852394  1
  S2-  S193  1  0.00431192  0.12367669  0.95117174  1
  S2-  S194  1  0.00322919  0.37728560  0.44829157  1
  S2-  S195  1  0.00560659  0.37756679  0.95350779  1
  S2-  S196  1  0.00055725  0.62778009  0.44860479  1
  S2-  S197  1  0.00509878  0.62528410  0.95110177  1
  S2-  S198  1  0.00125061  0.87594718  0.45391382  1
  S2-  S199  1  0.00494820  0.87292391  0.95609856  1
  S2-  S200  1  0.25115845  0.12476268  0.45237048  1
  S2-  S201  1  0.25242162  0.12547668  0.95159269  1
  S2-  S202  1  0.25259190  0.38058610  0.45189972  1
  S2-  S203  1  0.25246188  0.37510093  0.94986234  1
  S2-  S204  1  0.25026259  0.63052482  0.45330668  1
  S2-  S205  1  0.25287515  0.62614125  0.95151982  1
  S2-  S206  1  0.25396452  0.87740087  0.46204864  1
  S2-  S207  1  0.25365776  0.87244979  0.95098196  1
  S2-  S208  1  0.50057102  0.12600383  0.45917919  1
  S2-  S209  1  0.50281732  0.12511660  0.95775113  1
  S2-  S210  1  0.49793364  0.37736273  0.45350426  1
  S2-  S211  1  0.50500736  0.37308566  0.95632544  1
  S2-  S212  1  0.50214223  0.63246801  0.45457729  1
  S2-  S213  1  0.50510019  0.62507103  0.95644811  1
  S2-  S214  1  0.50093067  0.87912729  0.45837157  1
  S2-  S215  1  0.50467395  0.87495381  0.95717891  1
  S2-  S216  1  0.75186577  0.12521355  0.44445667  1
  S2-  S217  1  0.75211793  0.12393104  0.95390649  1
  S2-  S218  1  0.74621141  0.37571366  0.45659657  1
  S2-  S219  1  0.75007529  0.37428233  0.95320655  1
  S2-  S220  1  0.74508082  0.63339974  0.43856511  1
  S2-  S221  1  0.74935611  0.62507775  0.95121418  1
  S2-  S222  1  0.75003534  0.87278325  0.44903101  1
  S2-  S223  1  0.74875112  0.87480122  0.95717439  1
  S2-  S224  1  0.12751647  -0.00290631  0.05003120  1
  S2-  S225  1  0.12342210  0.00440124  0.55056020  1
  S2-  S226  1  0.12685184  0.25001877  0.04951857  1
  S2-  S227  1  0.12512735  0.25325246  0.55071160  1
  S2-  S228  1  0.12662578  0.50162388  0.05064850  1
  S2-  S229  1  0.12450339  0.50215747  0.55057820  1
  S2-  S230  1  0.12581729  0.75076179  0.05143623  1
  S2-  S231  1  0.12162481  0.75553605  0.54703233  1
  S2-  S232  1  0.37537890  -0.00145156  0.05015694  1
  S2-  S233  1  0.37529223  0.00367336  0.55317295  1
  S2-  S234  1  0.37611047  0.24946769  0.04540594  1
  S2-  S235  1  0.37136475  0.25284721  0.54088176  1
  S2-  S236  1  0.37840450  0.49855306  0.05327006  1
  S2-  S237  1  0.37353134  0.50365598  0.55183256  1
  S2-  S238  1  0.37662891  0.74997262  0.04198686  1
  S2-  S239  1  0.37638805  0.75575683  0.55076297  1
  S2-  S240  1  0.62641097  -0.00007561  0.05665443  1
  S2-  S241  1  0.62703810  0.00638897  0.54828355  1
  S2-  S242  1  0.62708107  0.24834727  0.04515865  1
  S2-  S243  1  0.62762937  0.25333538  0.54727266  1
  S2-  S244  1  0.62629681  0.50053881  0.05166896  1
  S2-  S245  1  0.62633080  0.50291140  0.54710328  1
  S2-  S246  1  0.62635204  0.74969850  0.04973256  1
  S2-  S247  1  0.62426465  0.75605746  0.54186672  1
  S2-  S248  1  0.87925265  -0.00196839  0.04951507  1
  S2-  S249  1  0.87547006  0.00489013  0.54317160  1
  S2-  S250  1  0.88024547  0.25014214  0.04228421  1
  S2-  S251  1  0.87625926  0.25080832  0.53743474  1
  S2-  S252  1  0.87838348  0.50177751  0.04783114  1
  S2-  S253  1  0.87312182  0.50407190  0.53799098  1
  S2-  S254  1  0.87968242  0.75040158  0.04642296  1
  S2-  S255  1  0.87508919  0.75487788  0.54304441  1
