# generated using pymatgen
data_La6Ce6Pr19Nd20Sm13(BiS2)64
_symmetry_space_group_name_H-M   'P 1'
_cell_length_a   16.04357752
_cell_length_b   16.10393668
_cell_length_c   27.22162810
_cell_angle_alpha   90.09963163
_cell_angle_beta   90.19073895
_cell_angle_gamma   90.09369818
_symmetry_Int_Tables_number   1
_chemical_formula_structural   La6Ce6Pr19Nd20Sm13(BiS2)64
_chemical_formula_sum   'La6 Ce6 Pr19 Nd20 Sm13 Bi64 S128'
_cell_volume   7033.05023548
_cell_formula_units_Z   1
loop_
 _symmetry_equiv_pos_site_id
 _symmetry_equiv_pos_as_xyz
  1  'x, y, z'
loop_
 _atom_type_symbol
 _atom_type_oxidation_number
  La3+  3.0
  Ce3+  3.0
  Pr3+  3.0
  Nd3+  3.0
  Sm3+  3.0
  Bi2+  2.0
  S2-  -2.0
loop_
 _atom_site_type_symbol
 _atom_site_label
 _atom_site_symmetry_multiplicity
 _atom_site_fract_x
 _atom_site_fract_y
 _atom_site_fract_z
 _atom_site_occupancy
  La3+  La0  1  0.52156379  0.87504177  0.60230284  1
  La3+  La1  1  0.50724278  0.36957466  0.08203827  1
  La3+  La2  1  0.64306219  -0.00074511  0.43702303  1
  La3+  La3  1  0.25410758  0.10360153  0.09816497  1
  La3+  La4  1  0.03880910  0.87562875  0.61370394  1
  La3+  La5  1  0.50238824  0.63781446  0.10792822  1
  Ce3+  Ce6  1  0.38981105  0.50273957  0.43261167  1
  Ce3+  Ce7  1  0.76758625  0.87678079  0.56612517  1
  Ce3+  Ce8  1  0.26720798  0.87795212  0.55684474  1
  Ce3+  Ce9  1  0.51646540  0.62845425  0.56037895  1
  Ce3+  Ce10  1  0.12898842  -0.01608619  0.92277130  1
  Ce3+  Ce11  1  0.13255651  0.23880345  0.94277342  1
  Pr3+  Pr12  1  0.51643805  0.37414504  0.56614509  1
  Pr3+  Pr13  1  0.38265128  -0.00850860  0.92580085  1
  Pr3+  Pr14  1  0.76449390  0.38045831  0.56352146  1
  Pr3+  Pr15  1  0.01681853  0.37864700  0.56832504  1
  Pr3+  Pr16  1  0.62184993  0.48880101  0.93523017  1
  Pr3+  Pr17  1  0.13506320  0.24111082  0.42762793  1
  Pr3+  Pr18  1  0.38535072  0.24381988  0.42856623  1
  Pr3+  Pr19  1  0.25280367  0.61094307  0.07907588  1
  Pr3+  Pr20  1  0.01469510  0.12745738  0.56712253  1
  Pr3+  Pr21  1  0.26559398  0.37676603  0.55243959  1
  Pr3+  Pr22  1  0.26766052  0.12413177  0.56433189  1
  Pr3+  Pr23  1  0.00731843  0.86623470  0.05582302  1
  Pr3+  Pr24  1  0.38054251  0.48986187  0.95146646  1
  Pr3+  Pr25  1  0.13745748  -0.00256028  0.43901405  1
  Pr3+  Pr26  1  0.76979589  0.62892031  0.55660997  1
  Pr3+  Pr27  1  0.24619445  0.36271353  0.08217756  1
  Pr3+  Pr28  1  0.75368649  0.36728376  0.06161932  1
  Pr3+  Pr29  1  0.75173829  0.11438032  0.06873400  1
  Pr3+  Pr30  1  0.00410608  0.36445830  0.05714128  1
  Nd3+  Nd31  1  0.13868852  0.75219361  0.44173868  1
  Nd3+  Nd32  1  0.52063798  0.12891004  0.57064092  1
  Nd3+  Nd33  1  0.12955212  0.73446636  0.93030933  1
  Nd3+  Nd34  1  0.25364369  0.86618754  0.05100180  1
  Nd3+  Nd35  1  0.00693498  0.11306490  0.05697632  1
  Nd3+  Nd36  1  0.39280037  0.75212844  0.44314338  1
  Nd3+  Nd37  1  0.02183669  0.62717039  0.58298052  1
  Nd3+  Nd38  1  0.50611207  0.11478252  0.06621157  1
  Nd3+  Nd39  1  0.26523162  0.62902267  0.56151502  1
  Nd3+  Nd40  1  0.75076823  0.61503858  0.05578341  1
  Nd3+  Nd41  1  0.63510535  -0.00216131  0.92547456  1
  Nd3+  Nd42  1  0.50410212  0.87051476  0.05286016  1
  Nd3+  Nd43  1  0.62179100  0.24071414  0.93740861  1
  Nd3+  Nd44  1  0.00540628  0.61450067  0.06501087  1
  Nd3+  Nd45  1  0.13521068  0.49263972  0.93382616  1
  Nd3+  Nd46  1  0.63744278  0.25244714  0.43668834  1
  Nd3+  Nd47  1  0.64126726  0.75094576  0.44289885  1
  Nd3+  Nd48  1  0.63877739  0.50007397  0.43430279  1
  Nd3+  Nd49  1  0.75140593  0.86384259  0.05269273  1
  Nd3+  Nd50  1  0.13892316  0.49978632  0.43524553  1
  Sm3+  Sm51  1  0.87815849  0.73913184  0.93873053  1
  Sm3+  Sm52  1  0.39892423  0.00152967  0.43814166  1
  Sm3+  Sm53  1  0.76419845  0.12465919  0.56313886  1
  Sm3+  Sm54  1  0.87843473  0.49034522  0.93798793  1
  Sm3+  Sm55  1  0.38095124  0.73705416  0.94636326  1
  Sm3+  Sm56  1  0.88948613  0.25235129  0.44378642  1
  Sm3+  Sm57  1  0.89305141  0.50050919  0.43681761  1
  Sm3+  Sm58  1  0.89372033  0.75069932  0.44561137  1
  Sm3+  Sm59  1  0.62700882  0.73882052  0.93428577  1
  Sm3+  Sm60  1  0.37618364  0.23739512  0.95537722  1
  Sm3+  Sm61  1  0.88504097  0.00168323  0.44377061  1
  Sm3+  Sm62  1  0.87860884  0.24075650  0.94006777  1
  Sm3+  Sm63  1  0.87825652  -0.00837287  0.93839226  1
  Bi2+  Bi64  1  -0.02604392  0.13067585  0.28659491  1
  Bi2+  Bi65  1  0.00422977  0.16641251  0.78175058  1
  Bi2+  Bi66  1  0.00810832  0.35838931  0.30192188  1
  Bi2+  Bi67  1  -0.05564202  0.36169025  0.77347901  1
  Bi2+  Bi68  1  -0.00935112  0.66508647  0.28333692  1
  Bi2+  Bi69  1  -0.03157041  0.61177801  0.78852857  1
  Bi2+  Bi70  1  -0.05234563  0.94261599  0.25471975  1
  Bi2+  Bi71  1  -0.02813739  0.88610327  0.81419087  1
  Bi2+  Bi72  1  0.22861990  0.13568118  0.29210226  1
  Bi2+  Bi73  1  0.22393806  0.18358883  0.76412588  1
  Bi2+  Bi74  1  0.19396892  0.40492897  0.26734916  1
  Bi2+  Bi75  1  0.23731328  0.37068405  0.79374378  1
  Bi2+  Bi76  1  0.22657080  0.68147983  0.30099155  1
  Bi2+  Bi77  1  0.23023121  0.58735463  0.78702079  1
  Bi2+  Bi78  1  0.24814771  0.88715475  0.29321315  1
  Bi2+  Bi79  1  0.24981939  0.78743451  0.77879866  1
  Bi2+  Bi80  1  0.51033428  0.14229115  0.31294055  1
  Bi2+  Bi81  1  0.48462545  0.09685159  0.80394735  1
  Bi2+  Bi82  1  0.53304903  0.38642620  0.28707715  1
  Bi2+  Bi83  1  0.51810452  0.33849197  0.80140572  1
  Bi2+  Bi84  1  0.52603581  0.63256091  0.30704028  1
  Bi2+  Bi85  1  0.45729601  0.58595159  0.79064440  1
  Bi2+  Bi86  1  0.52887326  0.88279989  0.28273500  1
  Bi2+  Bi87  1  0.48401467  0.83440997  0.79881287  1
  Bi2+  Bi88  1  0.74186663  0.10823837  0.28699263  1
  Bi2+  Bi89  1  0.74757635  0.14889444  0.78393298  1
  Bi2+  Bi90  1  0.82210390  0.36902541  0.26494532  1
  Bi2+  Bi91  1  0.71179158  0.37355275  0.79048773  1
  Bi2+  Bi92  1  0.79263657  0.64986113  0.27522778  1
  Bi2+  Bi93  1  0.67933019  0.56198248  0.81019782  1
  Bi2+  Bi94  1  0.77942693  0.87344943  0.28826021  1
  Bi2+  Bi95  1  0.77055870  0.93416011  0.74487324  1
  Bi2+  Bi96  1  0.12510677  -0.03419075  0.20626056  1
  Bi2+  Bi97  1  0.13296428  0.01252244  0.72711805  1
  Bi2+  Bi98  1  0.07575540  0.24351690  0.20863342  1
  Bi2+  Bi99  1  0.05869986  0.26175047  0.68148705  1
  Bi2+  Bi100  1  0.04810217  0.50885470  0.21524409  1
  Bi2+  Bi101  1  0.10782875  0.44528132  0.71368351  1
  Bi2+  Bi102  1  0.12168591  0.75687772  0.21076591  1
  Bi2+  Bi103  1  0.10243362  0.71193253  0.72032371  1
  Bi2+  Bi104  1  0.36713941  -0.00092431  0.23010694  1
  Bi2+  Bi105  1  0.33754855  -0.02078382  0.70692024  1
  Bi2+  Bi106  1  0.38110338  0.22725465  0.22014693  1
  Bi2+  Bi107  1  0.37130281  0.29363188  0.71926124  1
  Bi2+  Bi108  1  0.35551882  0.53215067  0.22847221  1
  Bi2+  Bi109  1  0.37585062  0.49186922  0.69382245  1
  Bi2+  Bi110  1  0.38687657  0.79634667  0.22028839  1
  Bi2+  Bi111  1  0.37081851  0.68420183  0.70056025  1
  Bi2+  Bi112  1  0.64108819  -0.00799772  0.21411874  1
  Bi2+  Bi113  1  0.60648006  0.01162350  0.71200041  1
  Bi2+  Bi114  1  0.69382059  0.24615362  0.20586872  1
  Bi2+  Bi115  1  0.61361303  0.25697274  0.70671400  1
  Bi2+  Bi116  1  0.68666855  0.51551274  0.21142211  1
  Bi2+  Bi117  1  0.57760930  0.49281424  0.71344468  1
  Bi2+  Bi118  1  0.66022958  0.77737730  0.20750009  1
  Bi2+  Bi119  1  0.64576327  0.69559146  0.72836300  1
  Bi2+  Bi120  1  0.85516048  0.08801520  0.18990715  1
  Bi2+  Bi121  1  0.85612359  0.08875060  0.69486851  1
  Bi2+  Bi122  1  0.87863341  0.28517604  0.16485157  1
  Bi2+  Bi123  1  0.86160136  0.28355374  0.66761090  1
  Bi2+  Bi124  1  0.87097064  0.50025277  0.16125849  1
  Bi2+  Bi125  1  0.83562757  0.47003649  0.69889023  1
  Bi2+  Bi126  1  0.90188454  0.69517745  0.18272017  1
  Bi2+  Bi127  1  0.83863187  0.72185768  0.73147204  1
  S2-  S128  1  0.09001973  0.09915117  0.14496468  1
  S2-  S129  1  0.01630636  0.03787517  0.65360579  1
  S2-  S130  1  0.08644894  0.37791105  0.14571413  1
  S2-  S131  1  -0.01214782  0.49378765  0.64626735  1
  S2-  S132  1  0.11365181  0.62895011  0.14399250  1
  S2-  S133  1  -0.03638218  0.73075654  0.65678423  1
  S2-  S134  1  -0.00125523  0.85493616  0.15631623  1
  S2-  S135  1  0.03005772  0.88155796  0.72386282  1
  S2-  S136  1  0.25100614  0.24420316  0.16183404  1
  S2-  S137  1  0.24412850  0.11895304  0.66517513  1
  S2-  S138  1  0.26747757  0.48029813  0.15700944  1
  S2-  S139  1  0.24689711  0.39049890  0.65199610  1
  S2-  S140  1  0.34672832  0.66855568  0.16225811  1
  S2-  S141  1  0.16869893  0.62905104  0.64429370  1
  S2-  S142  1  0.25606148  0.93664509  0.14247698  1
  S2-  S143  1  0.21348438  0.88610863  0.65065533  1
  S2-  S144  1  0.41189381  0.09497116  0.15119704  1
  S2-  S145  1  0.46917822  0.03332673  0.65120149  1
  S2-  S146  1  0.45609181  0.35383555  0.18476254  1
  S2-  S147  1  0.47759756  0.25635573  0.64187719  1
  S2-  S148  1  0.51707002  0.56663747  0.20560708  1
  S2-  S149  1  0.52889617  0.69983795  0.64900665  1
  S2-  S150  1  0.51441711  0.80919667  0.14667099  1
  S2-  S151  1  0.44649855  0.85830745  0.70081321  1
  S2-  S152  1  0.62857408  0.11760452  0.14238314  1
  S2-  S153  1  0.66056485  0.12888557  0.64265425  1
  S2-  S154  1  0.65299790  0.37921192  0.14528022  1
  S2-  S155  1  0.64344422  0.38960518  0.63927815  1
  S2-  S156  1  0.67375457  0.64169609  0.14313319  1
  S2-  S157  1  0.76161738  0.61679147  0.65802795  1
  S2-  S158  1  0.74543427  0.88765682  0.15104824  1
  S2-  S159  1  0.68017801  0.88459300  0.65245726  1
  S2-  S160  1  0.11247665  0.09934676  0.35784612  1
  S2-  S161  1  0.06182522  0.03228833  0.83378115  1
  S2-  S162  1  0.21247591  0.28593624  0.33818522  1
  S2-  S163  1  0.12595460  0.25760019  0.84508193  1
  S2-  S164  1  0.17748407  0.52998840  0.33902247  1
  S2-  S165  1  0.10398846  0.61066865  0.85725471  1
  S2-  S166  1  0.12646926  0.80855137  0.34744762  1
  S2-  S167  1  0.12948783  0.84323823  0.85162170  1
  S2-  S168  1  0.35918634  0.10452651  0.35935954  1
  S2-  S169  1  0.35884273  -0.00045222  0.82259742  1
  S2-  S170  1  0.42984183  0.29124840  0.33182053  1
  S2-  S171  1  0.42649913  0.22974019  0.85986899  1
  S2-  S172  1  0.42003711  0.49765643  0.33446675  1
  S2-  S173  1  0.27175642  0.48145643  0.86792233  1
  S2-  S174  1  0.38741610  0.71325325  0.34553940  1
  S2-  S175  1  0.36255511  0.73154685  0.84795252  1
  S2-  S176  1  0.52440267  -0.00760067  0.36149482  1
  S2-  S177  1  0.57424817  -0.04929882  0.83324256  1
  S2-  S178  1  0.63152562  0.26172688  0.33621186  1
  S2-  S179  1  0.63706757  0.13822943  0.85708911  1
  S2-  S180  1  0.63793435  0.50533037  0.33467151  1
  S2-  S181  1  0.48861339  0.47532791  0.86547112  1
  S2-  S182  1  0.61411244  0.75708542  0.34395944  1
  S2-  S183  1  0.61783731  0.73562839  0.83494384  1
  S2-  S184  1  0.77483692  -0.00276315  0.36274743  1
  S2-  S185  1  0.82717356  -0.02133256  0.84486717  1
  S2-  S186  1  0.88101452  0.23060158  0.34679824  1
  S2-  S187  1  0.87071410  0.23456456  0.84239627  1
  S2-  S188  1  0.89648753  0.47614538  0.33943540  1
  S2-  S189  1  0.89738506  0.48885316  0.84074488  1
  S2-  S190  1  0.87006504  0.75293327  0.34692536  1
  S2-  S191  1  0.87703033  0.73853257  0.83955120  1
  S2-  S192  1  0.00633155  0.12502334  0.46014829  1
  S2-  S193  1  0.00030001  0.11539058  0.94988141  1
  S2-  S194  1  0.01591489  0.37384744  0.45314582  1
  S2-  S195  1  0.00312401  0.36720090  0.94834023  1
  S2-  S196  1  0.01536430  0.62591358  0.44403681  1
  S2-  S197  1  -0.00292361  0.61537657  0.95767182  1
  S2-  S198  1  0.00715270  0.87942499  0.44575715  1
  S2-  S199  1  -0.00179138  0.86363672  0.94974216  1
  S2-  S200  1  0.26058651  0.12247890  0.45932243  1
  S2-  S201  1  0.25497856  0.11422630  0.93700828  1
  S2-  S202  1  0.26455049  0.37584925  0.44665359  1
  S2-  S203  1  0.25525083  0.36036013  0.96779027  1
  S2-  S204  1  0.26356727  0.62714607  0.45514598  1
  S2-  S205  1  0.25580427  0.62019644  0.96309559  1
  S2-  S206  1  0.26849329  0.87813345  0.45006924  1
  S2-  S207  1  0.25960618  0.86393696  0.94678175  1
  S2-  S208  1  0.51727290  0.12943632  0.45990696  1
  S2-  S209  1  0.50389742  0.11277352  0.95829660  1
  S2-  S210  1  0.51375599  0.37719379  0.45334843  1
  S2-  S211  1  0.50247840  0.35938394  0.96834718  1
  S2-  S212  1  0.51638994  0.62545903  0.45343367  1
  S2-  S213  1  0.50605743  0.62127665  0.95175028  1
  S2-  S214  1  0.51543893  0.87213787  0.45823357  1
  S2-  S215  1  0.50646111  0.86410087  0.94689624  1
  S2-  S216  1  0.76574761  0.13185032  0.45873507  1
  S2-  S217  1  0.75860910  0.11716250  0.95845044  1
  S2-  S218  1  0.76741357  0.37800960  0.45030047  1
  S2-  S219  1  0.75387155  0.36523923  0.94935712  1
  S2-  S220  1  0.76851116  0.62427940  0.44799431  1
  S2-  S221  1  0.75340642  0.61517529  0.94810027  1
  S2-  S222  1  0.76921775  0.87037882  0.45992965  1
  S2-  S223  1  0.75338076  0.86309907  0.94650559  1
  S2-  S224  1  0.13057289  -0.00911198  0.03373532  1
  S2-  S225  1  0.13644591  -0.00104327  0.54649126  1
  S2-  S226  1  0.13076023  0.23503883  0.04644621  1
  S2-  S227  1  0.13941907  0.25064827  0.54253803  1
  S2-  S228  1  0.12756957  0.49231878  0.04045142  1
  S2-  S229  1  0.13913753  0.50301331  0.54144944  1
  S2-  S230  1  0.12931230  0.74191854  0.03959181  1
  S2-  S231  1  0.13501176  0.75675156  0.54704435  1
  S2-  S232  1  0.37778933  -0.00768899  0.03660071  1
  S2-  S233  1  0.39121171  -0.00141411  0.54363211  1
  S2-  S234  1  0.37918470  0.23958144  0.05749541  1
  S2-  S235  1  0.38700249  0.25053017  0.53806508  1
  S2-  S236  1  0.39241517  0.50208139  0.05916918  1
  S2-  S237  1  0.39029345  0.50423533  0.54432445  1
  S2-  S238  1  0.38120937  0.74394954  0.04909823  1
  S2-  S239  1  0.39100662  0.75522229  0.55115658  1
  S2-  S240  1  0.63099222  -0.01032660  0.03674258  1
  S2-  S241  1  0.64154295  -0.00211760  0.54574665  1
  S2-  S242  1  0.63022789  0.24129614  0.04278902  1
  S2-  S243  1  0.64538400  0.25377563  0.54144900  1
  S2-  S244  1  0.62967800  0.49337852  0.04206972  1
  S2-  S245  1  0.64134691  0.50658850  0.54078736  1
  S2-  S246  1  0.62591575  0.74190675  0.03915771  1
  S2-  S247  1  0.64230707  0.75318883  0.54865332  1
  S2-  S248  1  0.87795076  -0.01051661  0.04522505  1
  S2-  S249  1  0.88847672  0.00078287  0.54854074  1
  S2-  S250  1  0.87824481  0.23727429  0.04382978  1
  S2-  S251  1  0.88927887  0.25332258  0.54772148  1
  S2-  S252  1  0.87926536  0.49174964  0.04125133  1
  S2-  S253  1  0.89323971  0.50335105  0.54120394  1
  S2-  S254  1  0.87848015  0.74046565  0.04418644  1
  S2-  S255  1  0.89513903  0.75381956  0.54814174  1
