# generated using pymatgen
data_La6Ce6Pr19Nd20Sm13(BiS2)64
_symmetry_space_group_name_H-M   'P 1'
_cell_length_a   16.16031579
_cell_length_b   16.15511713
_cell_length_c   27.25848090
_cell_angle_alpha   89.92526164
_cell_angle_beta   90.10768455
_cell_angle_gamma   90.01127256
_symmetry_Int_Tables_number   1
_chemical_formula_structural   La6Ce6Pr19Nd20Sm13(BiS2)64
_chemical_formula_sum   'La6 Ce6 Pr19 Nd20 Sm13 Bi64 S128'
_cell_volume   7116.40176425
_cell_formula_units_Z   1
loop_
 _symmetry_equiv_pos_site_id
 _symmetry_equiv_pos_as_xyz
  1  'x, y, z'
loop_
 _atom_type_symbol
 _atom_type_oxidation_number
  La3+  3.0
  Ce3+  3.0
  Pr3+  3.0
  Nd3+  3.0
  Sm3+  3.0
  Bi2+  2.0
  S2-  -2.0
loop_
 _atom_site_type_symbol
 _atom_site_label
 _atom_site_symmetry_multiplicity
 _atom_site_fract_x
 _atom_site_fract_y
 _atom_site_fract_z
 _atom_site_occupancy
  La3+  La0  1  0.74309019  0.87186389  0.11472064  1
  La3+  La1  1  0.61810098  0.00709187  0.39260995  1
  La3+  La2  1  0.87905918  0.50285705  0.88734224  1
  La3+  La3  1  0.00996110  0.63786613  0.58216905  1
  La3+  La4  1  0.13636365  0.75497632  0.40132758  1
  La3+  La5  1  0.62220168  -0.00584323  0.93624340  1
  Ce3+  Ce6  1  0.87401673  0.74249287  0.94037710  1
  Ce3+  Ce7  1  0.12264897  0.25007296  0.43500851  1
  Ce3+  Ce8  1  0.11812422  0.49441564  0.93939511  1
  Ce3+  Ce9  1  0.00149115  0.12506071  0.56217758  1
  Ce3+  Ce10  1  0.24367851  0.86686243  0.07117095  1
  Ce3+  Ce11  1  0.87544279  0.00302874  0.43622799  1
  Pr3+  Pr12  1  0.75076275  0.62396361  0.06208806  1
  Pr3+  Pr13  1  0.74345836  0.37443373  0.57183150  1
  Pr3+  Pr14  1  0.49914991  0.11923061  0.06458444  1
  Pr3+  Pr15  1  0.37776707  0.00201843  0.43652108  1
  Pr3+  Pr16  1  0.12359897  -0.00709065  0.93951316  1
  Pr3+  Pr17  1  0.49990518  0.86985569  0.06240467  1
  Pr3+  Pr18  1  0.12329201  0.74477075  0.93518783  1
  Pr3+  Pr19  1  0.62734611  0.49604871  0.93647012  1
  Pr3+  Pr20  1  0.24617134  0.12074803  0.06018451  1
  Pr3+  Pr21  1  0.12568749  0.24611374  0.92889369  1
  Pr3+  Pr22  1  -0.00478502  0.36925536  0.05928379  1
  Pr3+  Pr23  1  0.37491561  0.49635259  0.94727434  1
  Pr3+  Pr24  1  0.50269406  0.62187540  0.06004281  1
  Pr3+  Pr25  1  0.24814861  0.36941375  0.05895363  1
  Pr3+  Pr26  1  -0.00401217  0.11956747  0.05783313  1
  Pr3+  Pr27  1  0.74830786  0.62941586  0.57036978  1
  Pr3+  Pr28  1  0.00101435  0.36604262  0.58002821  1
  Pr3+  Pr29  1  0.25540447  0.12763499  0.56209952  1
  Pr3+  Pr30  1  0.86955886  0.24025614  0.92318763  1
  Nd3+  Nd31  1  0.87869465  0.50245129  0.45480157  1
  Nd3+  Nd32  1  0.12441980  0.00812194  0.43303185  1
  Nd3+  Nd33  1  0.00314305  0.87596612  0.55007108  1
  Nd3+  Nd34  1  0.24914105  0.87644979  0.55725226  1
  Nd3+  Nd35  1  0.37427941  0.74992847  0.44209979  1
  Nd3+  Nd36  1  0.11432572  0.50315106  0.43719396  1
  Nd3+  Nd37  1  0.24890056  0.62500464  0.56094692  1
  Nd3+  Nd38  1  0.50305416  0.87476049  0.55461462  1
  Nd3+  Nd39  1  0.62947206  0.74737769  0.42994678  1
  Nd3+  Nd40  1  0.62915826  0.50223936  0.43345477  1
  Nd3+  Nd41  1  0.37281237  -0.00816697  0.95182201  1
  Nd3+  Nd42  1  -0.00162925  0.86779296  0.06650435  1
  Nd3+  Nd43  1  0.74854885  0.12182533  0.55389782  1
  Nd3+  Nd44  1  0.50293890  0.37751579  0.56150604  1
  Nd3+  Nd45  1  -0.00308958  0.61710563  0.06335007  1
  Nd3+  Nd46  1  0.62642192  0.25317309  0.43640171  1
  Nd3+  Nd47  1  0.24663471  0.62010392  0.06083303  1
  Nd3+  Nd48  1  0.87345103  0.25461588  0.44272015  1
  Nd3+  Nd49  1  0.74967654  0.11658615  0.06172843  1
  Nd3+  Nd50  1  0.75025786  0.36996911  0.05939229  1
  Sm3+  Sm51  1  0.50372781  0.12265837  0.55656893  1
  Sm3+  Sm52  1  0.74874108  0.87589902  0.54997574  1
  Sm3+  Sm53  1  0.50010320  0.36971678  0.05410926  1
  Sm3+  Sm54  1  0.62874193  0.74543368  0.94361366  1
  Sm3+  Sm55  1  0.62632902  0.24555227  0.94656773  1
  Sm3+  Sm56  1  0.37239589  0.24409341  0.93935510  1
  Sm3+  Sm57  1  0.37702628  0.25341053  0.44539945  1
  Sm3+  Sm58  1  0.88017788  0.74798751  0.44043255  1
  Sm3+  Sm59  1  0.50107658  0.62572729  0.55386396  1
  Sm3+  Sm60  1  0.87191079  -0.00411437  0.93965563  1
  Sm3+  Sm61  1  0.24717735  0.37708528  0.55026080  1
  Sm3+  Sm62  1  0.37390312  0.50194181  0.44507017  1
  Sm3+  Sm63  1  0.37223155  0.74459465  0.94636386  1
  Bi2+  Bi64  1  0.01057289  0.16275815  0.28254684  1
  Bi2+  Bi65  1  0.01435846  0.10028859  0.78891673  1
  Bi2+  Bi66  1  0.01614427  0.35786587  0.30071940  1
  Bi2+  Bi67  1  0.00017171  0.37254179  0.77730857  1
  Bi2+  Bi68  1  -0.01422123  0.60808102  0.30551850  1
  Bi2+  Bi69  1  0.00599498  0.63486993  0.78754388  1
  Bi2+  Bi70  1  0.02566219  0.91406883  0.27370113  1
  Bi2+  Bi71  1  0.01465367  0.88911170  0.78529492  1
  Bi2+  Bi72  1  0.26827699  0.15952162  0.29592538  1
  Bi2+  Bi73  1  0.30200263  0.16327050  0.77315706  1
  Bi2+  Bi74  1  0.21054132  0.35408205  0.29433197  1
  Bi2+  Bi75  1  0.27472555  0.36100983  0.78051315  1
  Bi2+  Bi76  1  0.26449464  0.63968492  0.28581070  1
  Bi2+  Bi77  1  0.24765902  0.58002215  0.78878520  1
  Bi2+  Bi78  1  0.27083061  0.92448795  0.28117567  1
  Bi2+  Bi79  1  0.27811990  0.89960073  0.79838140  1
  Bi2+  Bi80  1  0.47368236  0.14844220  0.28430212  1
  Bi2+  Bi81  1  0.48694363  0.11257716  0.80402898  1
  Bi2+  Bi82  1  0.56164106  0.40817657  0.30775322  1
  Bi2+  Bi83  1  0.47615580  0.38397265  0.79426123  1
  Bi2+  Bi84  1  0.50270333  0.61530236  0.29728660  1
  Bi2+  Bi85  1  0.51159437  0.59983742  0.79907015  1
  Bi2+  Bi86  1  0.46954450  0.85960010  0.28678075  1
  Bi2+  Bi87  1  0.54607828  0.92284081  0.78851831  1
  Bi2+  Bi88  1  0.74647098  0.21570651  0.28755349  1
  Bi2+  Bi89  1  0.75383601  0.11480972  0.78954875  1
  Bi2+  Bi90  1  0.75249186  0.40422913  0.33202935  1
  Bi2+  Bi91  1  0.72899783  0.35700124  0.78621867  1
  Bi2+  Bi92  1  0.71919151  0.57092958  0.26765602  1
  Bi2+  Bi93  1  0.72935653  0.63654759  0.78827296  1
  Bi2+  Bi94  1  0.78597017  0.86015775  0.31753439  1
  Bi2+  Bi95  1  0.77377244  0.91448477  0.74375953  1
  Bi2+  Bi96  1  0.14529465  0.00456858  0.20139006  1
  Bi2+  Bi97  1  0.13379057  -0.02244801  0.70556879  1
  Bi2+  Bi98  1  0.14124214  0.23633629  0.20208887  1
  Bi2+  Bi99  1  0.13910227  0.23636759  0.70605793  1
  Bi2+  Bi100  1  0.12784253  0.47615248  0.21386457  1
  Bi2+  Bi101  1  0.17621864  0.48720310  0.70089234  1
  Bi2+  Bi102  1  0.15254648  0.72518605  0.20393249  1
  Bi2+  Bi103  1  0.13506605  0.77488829  0.70616163  1
  Bi2+  Bi104  1  0.39176500  0.01368707  0.20451321  1
  Bi2+  Bi105  1  0.41242426  0.00415815  0.71426579  1
  Bi2+  Bi106  1  0.36328902  0.28779691  0.21686449  1
  Bi2+  Bi107  1  0.40636973  0.28168183  0.70120310  1
  Bi2+  Bi108  1  0.39128355  0.47058730  0.25254919  1
  Bi2+  Bi109  1  0.38392808  0.55213969  0.70070383  1
  Bi2+  Bi110  1  0.34782742  0.81889634  0.19378047  1
  Bi2+  Bi111  1  0.35599810  0.73313793  0.74867551  1
  Bi2+  Bi112  1  0.63462191  0.00259318  0.22398881  1
  Bi2+  Bi113  1  0.62546166  -0.00085276  0.68605049  1
  Bi2+  Bi114  1  0.62662187  0.29953634  0.21461692  1
  Bi2+  Bi115  1  0.58843106  0.24329368  0.74372795  1
  Bi2+  Bi116  1  0.58783154  0.49312740  0.19653346  1
  Bi2+  Bi117  1  0.57582705  0.49258354  0.70927013  1
  Bi2+  Bi118  1  0.55370864  0.74119165  0.21420949  1
  Bi2+  Bi119  1  0.54688500  0.76070029  0.72432874  1
  Bi2+  Bi120  1  0.88711657  0.01424430  0.21554056  1
  Bi2+  Bi121  1  0.93584373  0.00527710  0.69488046  1
  Bi2+  Bi122  1  0.94923908  0.28590640  0.19270715  1
  Bi2+  Bi123  1  0.85508199  0.19001821  0.70511007  1
  Bi2+  Bi124  1  0.84488842  0.44021443  0.22844714  1
  Bi2+  Bi125  1  0.84986769  0.49728378  0.68433393  1
  Bi2+  Bi126  1  0.88119004  0.73904061  0.20977939  1
  Bi2+  Bi127  1  0.86531207  0.76057150  0.69637911  1
  S2-  S128  1  -0.00278839  0.07251860  0.15526560  1
  S2-  S129  1  0.01194567  0.22102078  0.64394110  1
  S2-  S130  1  0.01017188  0.44504772  0.15139069  1
  S2-  S131  1  0.01503723  0.43037726  0.67524991  1
  S2-  S132  1  0.00038606  0.66984950  0.15983001  1
  S2-  S133  1  -0.03943631  0.62800825  0.68315700  1
  S2-  S134  1  -0.09109375  0.87267169  0.15317834  1
  S2-  S135  1  0.00167304  0.80558220  0.64100746  1
  S2-  S136  1  0.26119579  0.11372809  0.15945302  1
  S2-  S137  1  0.21141781  0.11221091  0.65851272  1
  S2-  S138  1  0.23695045  0.36645488  0.15851486  1
  S2-  S139  1  0.23250033  0.35209522  0.64634586  1
  S2-  S140  1  0.22750956  0.59885345  0.15928424  1
  S2-  S141  1  0.16030187  0.63806390  0.64557821  1
  S2-  S142  1  0.12510604  0.86431937  0.14165649  1
  S2-  S143  1  0.24709632  0.86746073  0.65700563  1
  S2-  S144  1  0.52082897  0.10315134  0.16420328  1
  S2-  S145  1  0.44849560  0.13199725  0.64945939  1
  S2-  S146  1  0.48907244  0.34759727  0.15003060  1
  S2-  S147  1  0.60729871  0.37747293  0.64045044  1
  S2-  S148  1  0.48191023  0.61884769  0.15928532  1
  S2-  S149  1  0.52652051  0.63760511  0.64977661  1
  S2-  S150  1  0.57790840  0.88089231  0.15210748  1
  S2-  S151  1  0.49460791  0.88123981  0.65398087  1
  S2-  S152  1  0.75404079  0.04630975  0.15273507  1
  S2-  S153  1  0.71179550  0.12541583  0.65182925  1
  S2-  S154  1  0.76883579  0.33046755  0.15679120  1
  S2-  S155  1  0.81984743  0.33561596  0.66036817  1
  S2-  S156  1  0.75282268  0.70177085  0.15158242  1
  S2-  S157  1  0.74584109  0.63484005  0.67273210  1
  S2-  S158  1  0.74598598  0.86732247  0.22547348  1
  S2-  S159  1  0.73436589  0.85862003  0.64766807  1
  S2-  S160  1  0.14458019  -0.08430641  0.34984195  1
  S2-  S161  1  0.13412964  -0.01081410  0.83914507  1
  S2-  S162  1  0.12575909  0.13695038  0.35935056  1
  S2-  S163  1  0.05442196  0.24443233  0.83394814  1
  S2-  S164  1  0.14038090  0.59575567  0.35261489  1
  S2-  S165  1  0.05152101  0.49448056  0.84843886  1
  S2-  S166  1  0.04315537  0.75592660  0.30973185  1
  S2-  S167  1  0.08826909  0.74693638  0.83561606  1
  S2-  S168  1  0.45869854  0.00610808  0.34675096  1
  S2-  S169  1  0.37365836  0.00089877  0.85385123  1
  S2-  S170  1  0.38437135  0.25249080  0.34808725  1
  S2-  S171  1  0.26742218  0.24535769  0.86142707  1
  S2-  S172  1  0.36605967  0.52854065  0.34857258  1
  S2-  S173  1  0.37444768  0.52394984  0.84896533  1
  S2-  S174  1  0.29873569  0.75218272  0.35211072  1
  S2-  S175  1  0.32508188  0.77199324  0.85365958  1
  S2-  S176  1  0.71694883  0.02173276  0.30638390  1
  S2-  S177  1  0.68139294  -0.01388627  0.84180716  1
  S2-  S178  1  0.60677195  0.17574457  0.34813676  1
  S2-  S179  1  0.68626170  0.24055288  0.85510448  1
  S2-  S180  1  0.63963672  0.62001462  0.35912030  1
  S2-  S181  1  0.70918602  0.49564660  0.84742336  1
  S2-  S182  1  0.62087333  0.84467058  0.34661479  1
  S2-  S183  1  0.62849734  0.71773721  0.84511843  1
  S2-  S184  1  0.91421585  -0.02760401  0.34228798  1
  S2-  S185  1  0.88088053  0.09572366  0.85825101  1
  S2-  S186  1  0.87627881  0.19960000  0.34741200  1
  S2-  S187  1  0.87202995  0.34196374  0.84144447  1
  S2-  S188  1  0.97170035  0.47601977  0.37146568  1
  S2-  S189  1  0.88281015  0.50555372  0.77831575  1
  S2-  S190  1  0.85470127  0.69964332  0.34652157  1
  S2-  S191  1  0.86641556  0.67535843  0.84785688  1
  S2-  S192  1  -0.00362881  0.12791686  0.45697409  1
  S2-  S193  1  0.00186263  0.12046105  0.95292239  1
  S2-  S194  1  -0.00014135  0.36911103  0.46942201  1
  S2-  S195  1  -0.00300564  0.36752588  0.95225198  1
  S2-  S196  1  -0.00077840  0.63004673  0.46306644  1
  S2-  S197  1  -0.00338159  0.61797314  0.95439684  1
  S2-  S198  1  0.00278897  0.87246376  0.44610017  1
  S2-  S199  1  -0.00407976  0.87164131  0.95056934  1
  S2-  S200  1  0.25676355  0.12915044  0.45495137  1
  S2-  S201  1  0.24989417  0.11754431  0.95495270  1
  S2-  S202  1  0.24975511  0.37805363  0.44563539  1
  S2-  S203  1  0.24917907  0.37388108  0.95340600  1
  S2-  S204  1  0.25142080  0.62345910  0.45710371  1
  S2-  S205  1  0.24784868  0.62018814  0.95355072  1
  S2-  S206  1  0.25314979  0.87922232  0.45267196  1
  S2-  S207  1  0.24803408  0.86814428  0.96181384  1
  S2-  S208  1  0.50032659  0.12933396  0.45369868  1
  S2-  S209  1  0.49745326  0.12311609  0.95564590  1
  S2-  S210  1  0.50070433  0.37900590  0.45414234  1
  S2-  S211  1  0.49946245  0.36694422  0.94885695  1
  S2-  S212  1  0.49753760  0.62446825  0.45132925  1
  S2-  S213  1  0.50083944  0.62406051  0.95309154  1
  S2-  S214  1  0.50035467  0.87333988  0.44993253  1
  S2-  S215  1  0.49823948  0.86512814  0.95289230  1
  S2-  S216  1  0.74581481  0.12337573  0.44764730  1
  S2-  S217  1  0.74655242  0.11877584  0.95721677  1
  S2-  S218  1  0.74964565  0.37763490  0.46237983  1
  S2-  S219  1  0.74765985  0.36908514  0.95487529  1
  S2-  S220  1  0.75553855  0.62528786  0.46237299  1
  S2-  S221  1  0.74803161  0.62026428  0.95570156  1
  S2-  S222  1  0.75362207  0.87483269  0.44646860  1
  S2-  S223  1  0.75101120  0.86911526  0.94300038  1
  S2-  S224  1  0.12264008  -0.00380887  0.04532508  1
  S2-  S225  1  0.12692561  0.00221438  0.54314335  1
  S2-  S226  1  0.12237431  0.24546127  0.04431814  1
  S2-  S227  1  0.13063768  0.24927827  0.54144265  1
  S2-  S228  1  0.12424049  0.49513370  0.04535502  1
  S2-  S229  1  0.12457486  0.49865903  0.54612940  1
  S2-  S230  1  0.12179937  0.74035054  0.04248085  1
  S2-  S231  1  0.13054649  0.75460019  0.54090022  1
  S2-  S232  1  0.37206457  -0.00637534  0.05680315  1
  S2-  S233  1  0.37826689  0.00014249  0.54478047  1
  S2-  S234  1  0.37529346  0.24558435  0.04458454  1
  S2-  S235  1  0.37718125  0.25549642  0.54848016  1
  S2-  S236  1  0.37599434  0.49474317  0.05385223  1
  S2-  S237  1  0.37579361  0.50001341  0.55009107  1
  S2-  S238  1  0.37282877  0.74367072  0.05121591  1
  S2-  S239  1  0.37594531  0.74894418  0.54986482  1
  S2-  S240  1  0.62382897  -0.00484710  0.04460714  1
  S2-  S241  1  0.62424018  -0.00145811  0.54487373  1
  S2-  S242  1  0.62372104  0.24454411  0.05122783  1
  S2-  S243  1  0.62298335  0.24595750  0.54287536  1
  S2-  S244  1  0.62410245  0.49344365  0.04523514  1
  S2-  S245  1  0.62483279  0.50674781  0.54142955  1
  S2-  S246  1  0.62581890  0.74918803  0.04732049  1
  S2-  S247  1  0.62520743  0.74978914  0.54089089  1
  S2-  S248  1  0.87247546  -0.00662764  0.04282769  1
  S2-  S249  1  0.87400673  -0.00215143  0.54483398  1
  S2-  S250  1  0.87093953  0.24302360  0.04300041  1
  S2-  S251  1  0.87077235  0.24695527  0.54759055  1
  S2-  S252  1  0.87015895  0.49563679  0.05656183  1
  S2-  S253  1  0.87756393  0.50345201  0.56014474  1
  S2-  S254  1  0.87699042  0.74467504  0.04484693  1
  S2-  S255  1  0.87227519  0.75266764  0.54575457  1
