# generated using pymatgen
data_La6Ce6Pr19Nd20Sm13(BiS2)64
_symmetry_space_group_name_H-M   'P 1'
_cell_length_a   16.09590014
_cell_length_b   16.08310536
_cell_length_c   27.33506856
_cell_angle_alpha   90.18222393
_cell_angle_beta   89.78880631
_cell_angle_gamma   90.11571207
_symmetry_Int_Tables_number   1
_chemical_formula_structural   La6Ce6Pr19Nd20Sm13(BiS2)64
_chemical_formula_sum   'La6 Ce6 Pr19 Nd20 Sm13 Bi64 S128'
_cell_volume   7076.18732487
_cell_formula_units_Z   1
loop_
 _symmetry_equiv_pos_site_id
 _symmetry_equiv_pos_as_xyz
  1  'x, y, z'
loop_
 _atom_type_symbol
 _atom_type_oxidation_number
  La3+  3.0
  Ce3+  3.0
  Pr3+  3.0
  Nd3+  3.0
  Sm3+  3.0
  Bi2+  2.0
  S2-  -2.0
loop_
 _atom_site_type_symbol
 _atom_site_label
 _atom_site_symmetry_multiplicity
 _atom_site_fract_x
 _atom_site_fract_y
 _atom_site_fract_z
 _atom_site_occupancy
  La3+  La0  1  0.88141135  0.24186872  0.89655856  1
  La3+  La1  1  0.51688020  0.35137176  0.11073482  1
  La3+  La2  1  -0.00786127  0.39301581  0.58554623  1
  La3+  La3  1  0.13615986  0.48594009  0.92030735  1
  La3+  La4  1  0.12656314  0.74079398  0.92746145  1
  La3+  La5  1  0.12061562  0.49858250  0.38012374  1
  Ce3+  Ce6  1  0.49654309  0.13223222  0.57025268  1
  Ce3+  Ce7  1  0.49694337  0.38192579  0.57005842  1
  Ce3+  Ce8  1  0.87511403  -0.00606360  0.93905564  1
  Ce3+  Ce9  1  0.61819718  0.75563315  0.44514860  1
  Ce3+  Ce10  1  0.87835621  0.50419788  0.44115181  1
  Ce3+  Ce11  1  0.88044152  0.74262698  0.93166669  1
  Pr3+  Pr12  1  0.00225815  0.61633515  0.05619921  1
  Pr3+  Pr13  1  0.62768914  0.24070456  0.93135113  1
  Pr3+  Pr14  1  0.24346010  0.13136853  0.55859542  1
  Pr3+  Pr15  1  0.49255437  0.63146371  0.57067688  1
  Pr3+  Pr16  1  0.87221261  0.00754316  0.44769063  1
  Pr3+  Pr17  1  0.75109978  0.61935013  0.06696287  1
  Pr3+  Pr18  1  0.87336775  0.75374539  0.44068607  1
  Pr3+  Pr19  1  -0.00201028  0.87874183  0.56412876  1
  Pr3+  Pr20  1  0.37692833  0.73395477  0.91839197  1
  Pr3+  Pr21  1  0.49051996  0.88227397  0.57816162  1
  Pr3+  Pr22  1  0.24918108  0.62665869  0.07108292  1
  Pr3+  Pr23  1  0.13613973  0.24008181  0.92715683  1
  Pr3+  Pr24  1  0.24739664  0.38603951  0.55934880  1
  Pr3+  Pr25  1  0.24350304  0.87922801  0.56778307  1
  Pr3+  Pr26  1  0.37345091  0.00830839  0.43863348  1
  Pr3+  Pr27  1  0.49980990  0.61577265  0.06889072  1
  Pr3+  Pr28  1  0.25691909  0.11394547  0.05702830  1
  Pr3+  Pr29  1  0.12878486  -0.00206392  0.92633228  1
  Pr3+  Pr30  1  0.12192965  0.00491967  0.43168927  1
  Nd3+  Nd31  1  0.00540217  0.36362099  0.05477815  1
  Nd3+  Nd32  1  0.74750460  0.11971013  0.05722324  1
  Nd3+  Nd33  1  0.25512858  0.86885645  0.04883684  1
  Nd3+  Nd34  1  0.74644041  0.87923696  0.56089620  1
  Nd3+  Nd35  1  0.49810884  0.85940380  0.06009070  1
  Nd3+  Nd36  1  0.37623645  0.48958562  0.95571290  1
  Nd3+  Nd37  1  0.00328416  0.86787801  0.05767737  1
  Nd3+  Nd38  1  0.25245155  0.35782659  0.07302970  1
  Nd3+  Nd39  1  0.62722461  0.73668688  0.93286865  1
  Nd3+  Nd40  1  0.37942309  0.24190049  0.94151153  1
  Nd3+  Nd41  1  0.39139042  -0.01527633  0.91493661  1
  Nd3+  Nd42  1  0.75550334  0.86482937  0.06409785  1
  Nd3+  Nd43  1  0.74378735  0.63087015  0.55887031  1
  Nd3+  Nd44  1  0.62949546  0.48855800  0.94564646  1
  Nd3+  Nd45  1  0.00108961  0.11896876  0.05580489  1
  Nd3+  Nd46  1  0.37224809  0.76187681  0.43180602  1
  Nd3+  Nd47  1  0.87377728  0.25777110  0.44631741  1
  Nd3+  Nd48  1  0.61596925  0.50754186  0.43692872  1
  Nd3+  Nd49  1  -0.00210746  0.13296664  0.56563618  1
  Nd3+  Nd50  1  0.12216332  0.26436156  0.44366385  1
  Sm3+  Sm51  1  0.74828520  0.13193737  0.56255940  1
  Sm3+  Sm52  1  0.24698871  0.63000434  0.54544159  1
  Sm3+  Sm53  1  0.74676009  0.38451036  0.56192343  1
  Sm3+  Sm54  1  0.37345273  0.25955070  0.44538042  1
  Sm3+  Sm55  1  0.62190970  0.00750599  0.44607351  1
  Sm3+  Sm56  1  0.12275789  0.75655856  0.43263093  1
  Sm3+  Sm57  1  0.50032084  0.11173588  0.05621842  1
  Sm3+  Sm58  1  0.87893306  0.48817274  0.94248444  1
  Sm3+  Sm59  1  0.37226758  0.50921652  0.42499668  1
  Sm3+  Sm60  1  0.75160379  0.36554348  0.05695464  1
  Sm3+  Sm61  1  0.00054966  0.62992962  0.55697684  1
  Sm3+  Sm62  1  0.62131728  0.25824067  0.44905683  1
  Sm3+  Sm63  1  0.62912758  -0.01316479  0.94254218  1
  Bi2+  Bi64  1  0.04123849  0.08147435  0.31229376  1
  Bi2+  Bi65  1  -0.00422703  0.09417392  0.77848312  1
  Bi2+  Bi66  1  -0.01229730  0.26441366  0.28681426  1
  Bi2+  Bi67  1  0.00692547  0.42050445  0.78339097  1
  Bi2+  Bi68  1  -0.02740304  0.64820213  0.29100385  1
  Bi2+  Bi69  1  0.03044099  0.67574561  0.76555139  1
  Bi2+  Bi70  1  -0.02729362  0.89663037  0.29324101  1
  Bi2+  Bi71  1  0.03570912  0.90092005  0.80377507  1
  Bi2+  Bi72  1  0.24115466  0.07906882  0.31479141  1
  Bi2+  Bi73  1  0.22814471  0.16830591  0.78179739  1
  Bi2+  Bi74  1  0.25458024  0.27124746  0.28906914  1
  Bi2+  Bi75  1  0.24894893  0.41332004  0.80007245  1
  Bi2+  Bi76  1  0.23985164  0.62687127  0.27904889  1
  Bi2+  Bi77  1  0.30732702  0.69132052  0.75963151  1
  Bi2+  Bi78  1  0.21899775  0.88205238  0.27539777  1
  Bi2+  Bi79  1  0.22718416  0.87496193  0.80901251  1
  Bi2+  Bi80  1  0.44860407  0.08004709  0.30654242  1
  Bi2+  Bi81  1  0.49478713  0.21821433  0.82368962  1
  Bi2+  Bi82  1  0.53030442  0.35210624  0.30241126  1
  Bi2+  Bi83  1  0.49587946  0.41109101  0.79913741  1
  Bi2+  Bi84  1  0.50391703  0.63519406  0.29149665  1
  Bi2+  Bi85  1  0.58581610  0.62941706  0.77716951  1
  Bi2+  Bi86  1  0.48202556  0.88976706  0.28524339  1
  Bi2+  Bi87  1  0.63663800  0.86324662  0.81161501  1
  Bi2+  Bi88  1  0.75118121  0.12825574  0.31572419  1
  Bi2+  Bi89  1  0.66446533  0.11448900  0.79781552  1
  Bi2+  Bi90  1  0.74366963  0.33522857  0.24175914  1
  Bi2+  Bi91  1  0.72417527  0.39279455  0.77961053  1
  Bi2+  Bi92  1  0.72760431  0.61441877  0.29155920  1
  Bi2+  Bi93  1  0.76034748  0.70469064  0.82586052  1
  Bi2+  Bi94  1  0.68536772  0.89217924  0.26614452  1
  Bi2+  Bi95  1  0.83269392  0.90047437  0.81904777  1
  Bi2+  Bi96  1  0.11257482  0.00053466  0.20916258  1
  Bi2+  Bi97  1  0.18193546  -0.03115524  0.70205783  1
  Bi2+  Bi98  1  0.10527851  0.25068756  0.19585098  1
  Bi2+  Bi99  1  0.15421767  0.24438225  0.68885175  1
  Bi2+  Bi100  1  0.12035416  0.50390372  0.17773664  1
  Bi2+  Bi101  1  0.15135321  0.51751003  0.68061494  1
  Bi2+  Bi102  1  0.08446584  0.80723021  0.19496176  1
  Bi2+  Bi103  1  0.15350736  0.77147544  0.69255795  1
  Bi2+  Bi104  1  0.36899139  -0.01424772  0.14199106  1
  Bi2+  Bi105  1  0.40495070  0.08539670  0.75724315  1
  Bi2+  Bi106  1  0.34281895  0.13790884  0.21689646  1
  Bi2+  Bi107  1  0.39817463  0.27667140  0.72571215  1
  Bi2+  Bi108  1  0.37606389  0.47604436  0.21959310  1
  Bi2+  Bi109  1  0.42114506  0.54627088  0.73286095  1
  Bi2+  Bi110  1  0.35505504  0.81832888  0.20104885  1
  Bi2+  Bi111  1  0.42962135  0.83135932  0.73235801  1
  Bi2+  Bi112  1  0.55910274  -0.05285474  0.18026787  1
  Bi2+  Bi113  1  0.60067479  -0.01969160  0.71880366  1
  Bi2+  Bi114  1  0.58596822  0.12254883  0.22730389  1
  Bi2+  Bi115  1  0.62115275  0.25831116  0.71843864  1
  Bi2+  Bi116  1  0.65218494  0.50283485  0.20891070  1
  Bi2+  Bi117  1  0.64109992  0.44288282  0.68317641  1
  Bi2+  Bi118  1  0.60856565  0.73326443  0.21198672  1
  Bi2+  Bi119  1  0.66456527  0.74276320  0.69332987  1
  Bi2+  Bi120  1  0.84020289  -0.03243835  0.21326186  1
  Bi2+  Bi121  1  0.79626545  0.01529620  0.72591873  1
  Bi2+  Bi122  1  0.85369690  0.17141155  0.21774656  1
  Bi2+  Bi123  1  0.88307874  0.25313200  0.69862544  1
  Bi2+  Bi124  1  0.86574936  0.48848652  0.25439016  1
  Bi2+  Bi125  1  0.85431601  0.56923545  0.76367859  1
  Bi2+  Bi126  1  0.86058205  0.70156573  0.19527260  1
  Bi2+  Bi127  1  0.85828097  0.75330425  0.72226649  1
  S2-  S128  1  0.01762615  0.11409771  0.15534572  1
  S2-  S129  1  0.00920123  0.14416507  0.66481249  1
  S2-  S130  1  0.00894156  0.36972107  0.15517535  1
  S2-  S131  1  0.04606199  0.36523794  0.68344197  1
  S2-  S132  1  0.02188338  0.64956216  0.15493941  1
  S2-  S133  1  0.00572332  0.56055598  0.64685985  1
  S2-  S134  1  -0.07669358  0.86709754  0.14689986  1
  S2-  S135  1  0.03789575  0.88773065  0.66104461  1
  S2-  S136  1  0.24496586  0.20970594  0.14120782  1
  S2-  S137  1  0.25618365  0.10418352  0.65729762  1
  S2-  S138  1  0.25682050  0.39936457  0.17264896  1
  S2-  S139  1  0.25937821  0.37730799  0.66071964  1
  S2-  S140  1  0.27057048  0.59837788  0.17350261  1
  S2-  S141  1  0.25098468  0.63399654  0.64551313  1
  S2-  S142  1  0.22339890  0.78463396  0.13462544  1
  S2-  S143  1  0.31862868  0.87736879  0.65960709  1
  S2-  S144  1  0.52661308  0.18072419  0.14465380  1
  S2-  S145  1  0.49385682  0.25559011  0.64399636  1
  S2-  S146  1  0.46091878  0.33941853  0.21349995  1
  S2-  S147  1  0.48723250  0.50283657  0.64218385  1
  S2-  S148  1  0.50919580  0.51675147  0.15542929  1
  S2-  S149  1  0.50038200  0.75263779  0.65064144  1
  S2-  S150  1  0.48297024  0.74540938  0.13922985  1
  S2-  S151  1  0.49782958  1.01743920  0.64511804  1
  S2-  S152  1  0.74714076  0.08790466  0.15565034  1
  S2-  S153  1  0.76674881  0.14536104  0.65964563  1
  S2-  S154  1  0.68487210  0.34894675  0.14773574  1
  S2-  S155  1  0.83972653  0.37904262  0.64574766  1
  S2-  S156  1  0.80510757  0.55280124  0.15734103  1
  S2-  S157  1  0.72211426  0.59409360  0.65496703  1
  S2-  S158  1  0.73603709  0.75074994  0.13960409  1
  S2-  S159  1  0.77863479  0.87481713  0.65798592  1
  S2-  S160  1  0.11776189  -0.12044004  0.35895159  1
  S2-  S161  1  0.10357064  0.11743725  0.85086888  1
  S2-  S162  1  0.12163565  0.32521727  0.35081311  1
  S2-  S163  1  0.10791419  0.35363964  0.84972680  1
  S2-  S164  1  0.11446889  0.50502727  0.27076906  1
  S2-  S165  1  0.10260918  0.54334094  0.82183291  1
  S2-  S166  1  0.11331053  0.66870217  0.34560998  1
  S2-  S167  1  0.23976994  0.71361768  0.85109020  1
  S2-  S168  1  0.37845367  -0.10714791  0.36349449  1
  S2-  S169  1  0.29680556  0.03901174  0.83467308  1
  S2-  S170  1  0.38684830  0.29240418  0.34876231  1
  S2-  S171  1  0.28818807  0.27337821  0.85795742  1
  S2-  S172  1  0.28313337  0.50211580  0.33856266  1
  S2-  S173  1  0.33232848  0.50528405  0.85833104  1
  S2-  S174  1  0.37215092  0.69044388  0.33599566  1
  S2-  S175  1  0.38797906  0.85796354  0.84195384  1
  S2-  S176  1  0.65051248  0.00170010  0.34912748  1
  S2-  S177  1  0.55343801  -0.00435017  0.85488760  1
  S2-  S178  1  0.62609518  0.24550233  0.35138142  1
  S2-  S179  1  0.72852384  0.25559417  0.84804689  1
  S2-  S180  1  0.50896579  0.49797554  0.35858486  1
  S2-  S181  1  0.62815062  0.49009291  0.84495113  1
  S2-  S182  1  0.62632806  0.71887435  0.35015915  1
  S2-  S183  1  0.52020649  0.70193295  0.85549414  1
  S2-  S184  1  0.87937626  0.02303059  0.34838603  1
  S2-  S185  1  0.87610080  0.07472624  0.85295765  1
  S2-  S186  1  0.85367713  0.26500253  0.34825838  1
  S2-  S187  1  0.93865096  0.25373913  0.79754381  1
  S2-  S188  1  0.94474340  0.50209143  0.35102962  1
  S2-  S189  1  0.87301580  0.45527716  0.84636562  1
  S2-  S190  1  0.88497304  0.76908462  0.34055425  1
  S2-  S191  1  0.99638498  0.74555965  0.85568954  1
  S2-  S192  1  -0.00027439  0.13285118  0.45768646  1
  S2-  S193  1  -0.00379704  0.12279100  0.95237246  1
  S2-  S194  1  -0.00413282  0.38114189  0.45963924  1
  S2-  S195  1  -0.00275999  0.36166561  0.95011029  1
  S2-  S196  1  -0.00013326  0.63271385  0.45359203  1
  S2-  S197  1  0.00407673  0.60711463  0.94975080  1
  S2-  S198  1  -0.00502820  0.88097160  0.45786847  1
  S2-  S199  1  0.00246463  0.87593766  0.95267850  1
  S2-  S200  1  0.24616776  0.13536652  0.45154188  1
  S2-  S201  1  0.25871113  0.11306223  0.95172194  1
  S2-  S202  1  0.25177616  0.38369762  0.45239252  1
  S2-  S203  1  0.25150239  0.36647115  0.96507046  1
  S2-  S204  1  0.24884703  0.63512279  0.44446534  1
  S2-  S205  1  0.24848691  0.61229500  0.96132868  1
  S2-  S206  1  0.24373278  0.88282209  0.46049447  1
  S2-  S207  1  0.25140475  0.87202243  0.94505114  1
  S2-  S208  1  0.49910246  0.13313225  0.46010772  1
  S2-  S209  1  0.50422191  0.11451783  0.95240025  1
  S2-  S210  1  0.49749140  0.37879777  0.46199493  1
  S2-  S211  1  0.50254877  0.36731938  0.94605414  1
  S2-  S212  1  0.49307346  0.63362323  0.45765461  1
  S2-  S213  1  0.50450647  0.60896256  0.96152508  1
  S2-  S214  1  0.50221292  0.88486838  0.46349311  1
  S2-  S215  1  0.50724564  0.86058506  0.95399241  1
  S2-  S216  1  0.74542278  0.13276072  0.45812902  1
  S2-  S217  1  0.74954297  0.11569537  0.95234013  1
  S2-  S218  1  0.74528556  0.38293829  0.45541579  1
  S2-  S219  1  0.75792114  0.36295216  0.95371369  1
  S2-  S220  1  0.74650359  0.62775850  0.45178270  1
  S2-  S221  1  0.75625270  0.61314462  0.95582392  1
  S2-  S222  1  0.74601581  0.88112117  0.45419620  1
  S2-  S223  1  0.75191079  0.86433087  0.95564943  1
  S2-  S224  1  0.12675810  -0.00650541  0.04162353  1
  S2-  S225  1  0.11940592  0.00581414  0.54453202  1
  S2-  S226  1  0.12715357  0.23850192  0.03864390  1
  S2-  S227  1  0.11794270  0.26101221  0.55104073  1
  S2-  S228  1  0.12930059  0.49062680  0.04982722  1
  S2-  S229  1  0.12280996  0.50806354  0.54794517  1
  S2-  S230  1  0.12163490  0.74470669  0.03523321  1
  S2-  S231  1  0.12130635  0.75366857  0.54258583  1
  S2-  S232  1  0.38240857  -0.01096416  0.02716817  1
  S2-  S233  1  0.36783866  0.00584250  0.54481158  1
  S2-  S234  1  0.38653996  0.24340107  0.04761819  1
  S2-  S235  1  0.36814807  0.25604083  0.54808838  1
  S2-  S236  1  0.37255209  0.48932530  0.05915954  1
  S2-  S237  1  0.37081789  0.50920739  0.53739607  1
  S2-  S238  1  0.37362417  0.74150420  0.03344502  1
  S2-  S239  1  0.36902895  0.75673734  0.54294327  1
  S2-  S240  1  0.62649332  -0.01175937  0.04650782  1
  S2-  S241  1  0.62765158  0.00694188  0.55033776  1
  S2-  S242  1  0.62531846  0.24347924  0.03976414  1
  S2-  S243  1  0.62951059  0.25695057  0.55248895  1
  S2-  S244  1  0.62869086  0.48852470  0.04992588  1
  S2-  S245  1  0.62234889  0.50577936  0.54183611  1
  S2-  S246  1  0.62649812  0.74151281  0.03884699  1
  S2-  S247  1  0.62075711  0.75686935  0.54918012  1
  S2-  S248  1  0.87391714  -0.00590945  0.04586316  1
  S2-  S249  1  0.87215988  0.00640595  0.55465881  1
  S2-  S250  1  0.87414501  0.24234837  0.05762304  1
  S2-  S251  1  0.87272438  0.25580662  0.55059207  1
  S2-  S252  1  0.87743611  0.48761984  0.04663565  1
  S2-  S253  1  0.86992409  0.51065352  0.54599556  1
  S2-  S254  1  0.87897258  0.74243338  0.03859509  1
  S2-  S255  1  0.87274804  0.75275128  0.54966039  1
