# generated using pymatgen
data_La6Ce6Pr19Nd20Sm13(BiS2)64
_symmetry_space_group_name_H-M   'P 1'
_cell_length_a   16.13568195
_cell_length_b   16.09092866
_cell_length_c   27.37927553
_cell_angle_alpha   89.60075844
_cell_angle_beta   89.87515983
_cell_angle_gamma   90.00927518
_symmetry_Int_Tables_number   1
_chemical_formula_structural   La6Ce6Pr19Nd20Sm13(BiS2)64
_chemical_formula_sum   'La6 Ce6 Pr19 Nd20 Sm13 Bi64 S128'
_cell_volume   7108.51370802
_cell_formula_units_Z   1
loop_
 _symmetry_equiv_pos_site_id
 _symmetry_equiv_pos_as_xyz
  1  'x, y, z'
loop_
 _atom_type_symbol
 _atom_type_oxidation_number
  La3+  3.0
  Ce3+  3.0
  Pr3+  3.0
  Nd3+  3.0
  Sm3+  3.0
  Bi2+  2.0
  S2-  -2.0
loop_
 _atom_site_type_symbol
 _atom_site_label
 _atom_site_symmetry_multiplicity
 _atom_site_fract_x
 _atom_site_fract_y
 _atom_site_fract_z
 _atom_site_occupancy
  La3+  La0  1  0.38422615  0.47944123  0.92328088  1
  La3+  La1  1  -0.00373559  0.37647886  0.60273144  1
  La3+  La2  1  0.75347511  0.86861712  0.09190529  1
  La3+  La3  1  0.62607541  -0.02846678  0.93459548  1
  La3+  La4  1  0.13982253  0.22848581  0.90976920  1
  La3+  La5  1  0.12399127  0.26347096  0.43100618  1
  Ce3+  Ce6  1  0.12913144  0.00622427  0.44437279  1
  Ce3+  Ce7  1  0.50924430  0.09849448  0.05896457  1
  Ce3+  Ce8  1  0.62649399  0.50655155  0.43552971  1
  Ce3+  Ce9  1  0.12841531  0.72800267  0.94028086  1
  Ce3+  Ce10  1  0.00302246  0.13401470  0.55953820  1
  Ce3+  Ce11  1  0.25307564  0.10191782  0.05742157  1
  Pr3+  Pr12  1  0.25355522  0.34991577  0.06161672  1
  Pr3+  Pr13  1  0.62917122  0.25419761  0.43806723  1
  Pr3+  Pr14  1  0.00034125  0.59987735  0.06182947  1
  Pr3+  Pr15  1  0.87636315  -0.02581743  0.93575868  1
  Pr3+  Pr16  1  0.12680765  0.76703716  0.42456810  1
  Pr3+  Pr17  1  0.63394937  0.47805457  0.93572114  1
  Pr3+  Pr18  1  0.88191116  0.22103249  0.92186032  1
  Pr3+  Pr19  1  0.50511309  0.88134000  0.56715916  1
  Pr3+  Pr20  1  0.38254793  0.49529786  0.41732245  1
  Pr3+  Pr21  1  0.25423630  0.37958738  0.56413045  1
  Pr3+  Pr22  1  0.74936421  0.37799675  0.56220297  1
  Pr3+  Pr23  1  0.38070832  0.76007872  0.43422553  1
  Pr3+  Pr24  1  0.12861824  0.47963888  0.93806522  1
  Pr3+  Pr25  1  0.63321765  0.21856386  0.92570467  1
  Pr3+  Pr26  1  0.37966120  0.22755560  0.94324003  1
  Pr3+  Pr27  1  0.76417533  0.87179260  0.57858458  1
  Pr3+  Pr28  1  0.50329615  0.62863896  0.55361408  1
  Pr3+  Pr29  1  0.50305882  0.12150008  0.56855356  1
  Pr3+  Pr30  1  0.00193981  0.85141612  0.06373426  1
  Nd3+  Nd31  1  0.24925605  0.13317336  0.56164747  1
  Nd3+  Nd32  1  0.87769606  0.00677409  0.44107298  1
  Nd3+  Nd33  1  0.37941143  0.00698440  0.44166410  1
  Nd3+  Nd34  1  0.49813293  0.84140935  0.07696927  1
  Nd3+  Nd35  1  0.12997525  -0.02270166  0.93516981  1
  Nd3+  Nd36  1  0.87870726  0.75443274  0.43809692  1
  Nd3+  Nd37  1  0.50023004  0.59288107  0.06824278  1
  Nd3+  Nd38  1  0.75214258  0.60375231  0.06864787  1
  Nd3+  Nd39  1  0.62951709  0.73047719  0.94504197  1
  Nd3+  Nd40  1  0.50713652  0.35239369  0.05710109  1
  Nd3+  Nd41  1  0.63276825  0.01174088  0.43603826  1
  Nd3+  Nd42  1  0.00805127  0.62324008  0.55239609  1
  Nd3+  Nd43  1  0.50062732  0.37726961  0.56476591  1
  Nd3+  Nd44  1  0.37819981  -0.02767207  0.94123950  1
  Nd3+  Nd45  1  0.25080372  0.87648108  0.56013886  1
  Nd3+  Nd46  1  0.88016239  0.26221282  0.44214047  1
  Nd3+  Nd47  1  0.75317017  0.12621987  0.56707116  1
  Nd3+  Nd48  1  0.00393407  0.34772584  0.05005876  1
  Nd3+  Nd49  1  0.25409699  0.84928152  0.06487469  1
  Nd3+  Nd50  1  0.25530771  0.62661394  0.55181082  1
  Sm3+  Sm51  1  0.00370689  0.87569169  0.56178109  1
  Sm3+  Sm52  1  0.25200479  0.59725648  0.05619187  1
  Sm3+  Sm53  1  0.75504642  0.11091039  0.06115538  1
  Sm3+  Sm54  1  0.87485529  0.73101197  0.94206574  1
  Sm3+  Sm55  1  0.75480285  0.34638357  0.05180857  1
  Sm3+  Sm56  1  0.88112071  0.50600035  0.44435693  1
  Sm3+  Sm57  1  0.13698130  0.50694648  0.43005980  1
  Sm3+  Sm58  1  0.62924778  0.76127991  0.44380673  1
  Sm3+  Sm59  1  0.00442300  0.10282710  0.05350296  1
  Sm3+  Sm60  1  0.38029063  0.72658664  0.94811529  1
  Sm3+  Sm61  1  0.37725528  0.25554508  0.44315736  1
  Sm3+  Sm62  1  0.75380914  0.62711169  0.55422637  1
  Sm3+  Sm63  1  0.87983267  0.47711210  0.94294098  1
  Bi2+  Bi64  1  0.01058679  0.13391395  0.24991671  1
  Bi2+  Bi65  1  -0.01828070  0.06139278  0.77124363  1
  Bi2+  Bi66  1  -0.03083369  0.36223583  0.29166269  1
  Bi2+  Bi67  1  -0.02010080  0.42230926  0.80576245  1
  Bi2+  Bi68  1  -0.06783879  0.60931047  0.31407669  1
  Bi2+  Bi69  1  0.00747507  0.67118569  0.74810393  1
  Bi2+  Bi70  1  0.03796394  0.80343859  0.26813192  1
  Bi2+  Bi71  1  0.06624746  0.89033091  0.80246710  1
  Bi2+  Bi72  1  0.27208246  0.09088657  0.29609300  1
  Bi2+  Bi73  1  0.25496750  0.12146705  0.79245245  1
  Bi2+  Bi74  1  0.23447773  0.36124544  0.30385382  1
  Bi2+  Bi75  1  0.23923278  0.39637312  0.80194031  1
  Bi2+  Bi76  1  0.21566241  0.59747032  0.26132811  1
  Bi2+  Bi77  1  0.23836581  0.74365121  0.78610992  1
  Bi2+  Bi78  1  0.24643608  0.83362805  0.30373852  1
  Bi2+  Bi79  1  0.25882661  0.92943155  0.81971255  1
  Bi2+  Bi80  1  0.50635007  0.15651448  0.28886654  1
  Bi2+  Bi81  1  0.45059709  0.11571149  0.77931043  1
  Bi2+  Bi82  1  0.50791105  0.35496537  0.28511387  1
  Bi2+  Bi83  1  0.49583371  0.39949597  0.76447020  1
  Bi2+  Bi84  1  0.50879585  0.55366439  0.26144498  1
  Bi2+  Bi85  1  0.47247271  0.61882950  0.80228909  1
  Bi2+  Bi86  1  0.50254667  0.84239452  0.30660940  1
  Bi2+  Bi87  1  0.50004305  0.87243930  0.79343734  1
  Bi2+  Bi88  1  0.78266249  0.15895752  0.30245833  1
  Bi2+  Bi89  1  0.75185617  0.17174446  0.79756671  1
  Bi2+  Bi90  1  0.70719401  0.33685808  0.28382693  1
  Bi2+  Bi91  1  0.69846559  0.43127843  0.77569569  1
  Bi2+  Bi92  1  0.75516752  0.60500789  0.27047013  1
  Bi2+  Bi93  1  0.74879188  0.65052165  0.81492285  1
  Bi2+  Bi94  1  0.75493936  0.85464337  0.32911983  1
  Bi2+  Bi95  1  0.74195364  0.93229468  0.80884356  1
  Bi2+  Bi96  1  0.13610087  -0.01596956  0.23632057  1
  Bi2+  Bi97  1  0.13113988  -0.00010327  0.70717974  1
  Bi2+  Bi98  1  0.13337810  0.25748390  0.19499436  1
  Bi2+  Bi99  1  0.12667198  0.26922426  0.71086460  1
  Bi2+  Bi100  1  0.04296203  0.51939592  0.23184420  1
  Bi2+  Bi101  1  0.13314286  0.53908678  0.70626965  1
  Bi2+  Bi102  1  0.18168036  0.81662408  0.18775851  1
  Bi2+  Bi103  1  0.12382968  0.80738812  0.69461396  1
  Bi2+  Bi104  1  0.41774889  0.00366437  0.23844889  1
  Bi2+  Bi105  1  0.33992523  -0.00511902  0.71352610  1
  Bi2+  Bi106  1  0.36376636  0.19333086  0.21344308  1
  Bi2+  Bi107  1  0.38897253  0.25958590  0.70904239  1
  Bi2+  Bi108  1  0.36544301  0.47089197  0.20771303  1
  Bi2+  Bi109  1  0.37668660  0.51889453  0.70347067  1
  Bi2+  Bi110  1  0.37046380  0.72530320  0.20554799  1
  Bi2+  Bi111  1  0.40007974  0.75875622  0.71824991  1
  Bi2+  Bi112  1  0.63593154  0.01722934  0.21414664  1
  Bi2+  Bi113  1  0.60988389  0.05777893  0.69821066  1
  Bi2+  Bi114  1  0.61723253  0.28782152  0.18664166  1
  Bi2+  Bi115  1  0.61925990  0.37927792  0.67556856  1
  Bi2+  Bi116  1  0.65953335  0.48679905  0.19263236  1
  Bi2+  Bi117  1  0.62888769  0.57286165  0.67576181  1
  Bi2+  Bi118  1  0.63011434  0.75312933  0.21352675  1
  Bi2+  Bi119  1  0.61034098  0.72918246  0.74972973  1
  Bi2+  Bi120  1  0.88619402  -0.01087618  0.21326339  1
  Bi2+  Bi121  1  0.84332924  -0.01312786  0.70292610  1
  Bi2+  Bi122  1  0.87176735  0.27115934  0.20768271  1
  Bi2+  Bi123  1  0.87438125  0.26136759  0.71343570  1
  Bi2+  Bi124  1  0.85202339  0.51057426  0.18417438  1
  Bi2+  Bi125  1  0.81126473  0.56360893  0.71884031  1
  Bi2+  Bi126  1  0.89786971  0.70529532  0.20123462  1
  Bi2+  Bi127  1  0.86428795  0.80184843  0.76452225  1
  S2-  S128  1  -0.02115316  0.09616044  0.15139102  1
  S2-  S129  1  0.00245962  0.20669700  0.64848134  1
  S2-  S130  1  0.00692979  0.33971994  0.14898896  1
  S2-  S131  1  -0.00556434  0.38791668  0.71158847  1
  S2-  S132  1  0.03747741  0.63832802  0.15692957  1
  S2-  S133  1  0.00567056  0.59647855  0.65038074  1
  S2-  S134  1  -0.08808582  0.86409258  0.14878094  1
  S2-  S135  1  -0.09361943  0.86981251  0.64212603  1
  S2-  S136  1  0.23604446  0.13012324  0.15284034  1
  S2-  S137  1  0.25308840  0.19268120  0.65489332  1
  S2-  S138  1  0.23842940  0.37001377  0.16131769  1
  S2-  S139  1  0.15572804  0.39328382  0.64787041  1
  S2-  S140  1  0.27459905  0.59858070  0.15435859  1
  S2-  S141  1  0.24921067  0.60679790  0.65203480  1
  S2-  S142  1  0.35888227  0.85646709  0.14541485  1
  S2-  S143  1  0.29132656  0.85325210  0.65562124  1
  S2-  S144  1  0.55697707  0.13240669  0.15072426  1
  S2-  S145  1  0.52531754  0.20306330  0.65718419  1
  S2-  S146  1  0.48021189  0.45707046  0.13498327  1
  S2-  S147  1  0.38040836  0.40021492  0.63747357  1
  S2-  S148  1  0.50353108  0.69631986  0.15048596  1
  S2-  S149  1  0.46543526  0.64746431  0.65063884  1
  S2-  S150  1  0.59855729  0.88830708  0.15310961  1
  S2-  S151  1  0.48508201  0.99241807  0.64366664  1
  S2-  S152  1  0.76118848  0.02444584  0.14804173  1
  S2-  S153  1  0.75910855  0.14545556  0.66693996  1
  S2-  S154  1  0.76450002  0.24511938  0.13169952  1
  S2-  S155  1  0.83446997  0.37243521  0.64923794  1
  S2-  S156  1  0.74303258  0.71436167  0.14616933  1
  S2-  S157  1  0.76434990  0.67890495  0.64681964  1
  S2-  S158  1  0.74692218  0.88262397  0.23709359  1
  S2-  S159  1  0.68719887  0.92683503  0.66425417  1
  S2-  S160  1  0.12471063  -0.07089835  0.35930880  1
  S2-  S161  1  0.12278713  0.08286577  0.85381040  1
  S2-  S162  1  0.18214048  0.20694896  0.33953718  1
  S2-  S163  1  0.09676818  0.29349650  0.81595632  1
  S2-  S164  1  0.10052557  0.39533121  0.35636485  1
  S2-  S165  1  0.11616046  0.50096287  0.83830036  1
  S2-  S166  1  0.13830752  0.69964519  0.33141996  1
  S2-  S167  1  0.09370114  0.72389339  0.84470829  1
  S2-  S168  1  0.38379138  -0.03144216  0.34492418  1
  S2-  S169  1  0.46712370  -0.00714743  0.85631474  1
  S2-  S170  1  0.37539237  0.33980351  0.35679206  1
  S2-  S171  1  0.30344806  0.25886437  0.85475733  1
  S2-  S172  1  0.25479328  0.51901787  0.34811107  1
  S2-  S173  1  0.32007651  0.52677389  0.83067136  1
  S2-  S174  1  0.37350378  0.73174721  0.33476673  1
  S2-  S175  1  0.39688298  0.75698069  0.85239692  1
  S2-  S176  1  0.61171363  -0.05872839  0.34562190  1
  S2-  S177  1  0.65879030  0.07979123  0.85333085  1
  S2-  S178  1  0.63514851  0.14490314  0.36031307  1
  S2-  S179  1  0.64905129  0.29382118  0.83402733  1
  S2-  S180  1  0.52923929  0.50508711  0.35562617  1
  S2-  S181  1  0.52543516  0.48993149  0.85801461  1
  S2-  S182  1  0.62320981  0.73811727  0.34619335  1
  S2-  S183  1  0.63011848  0.83917213  0.86405157  1
  S2-  S184  1  0.83405609  0.01154454  0.34519889  1
  S2-  S185  1  0.88202680  0.08292620  0.85261430  1
  S2-  S186  1  0.92878791  0.22888414  0.34871772  1
  S2-  S187  1  0.87378636  0.28914283  0.82608338  1
  S2-  S188  1  0.86281940  0.46458275  0.34953209  1
  S2-  S189  1  0.86108068  0.52998934  0.85129986  1
  S2-  S190  1  0.92093730  0.79009146  0.34341351  1
  S2-  S191  1  0.86469009  0.84335291  0.86506480  1
  S2-  S192  1  0.00345408  0.12936204  0.45342128  1
  S2-  S193  1  0.00946869  0.10314534  0.95180729  1
  S2-  S194  1  -0.00066093  0.38731720  0.45694539  1
  S2-  S195  1  0.00469929  0.35165100  0.94380017  1
  S2-  S196  1  0.00746057  0.63040815  0.44671379  1
  S2-  S197  1  -0.00070709  0.60444824  0.95427231  1
  S2-  S198  1  0.00024781  0.88131017  0.45862021  1
  S2-  S199  1  0.00706936  0.85171308  0.95750787  1
  S2-  S200  1  0.25446788  0.13098239  0.45462845  1
  S2-  S201  1  0.25669403  0.09989277  0.95279695  1
  S2-  S202  1  0.25529920  0.37974529  0.45643568  1
  S2-  S203  1  0.25312975  0.35651224  0.95452235  1
  S2-  S204  1  0.25225859  0.63908081  0.44806272  1
  S2-  S205  1  0.25467937  0.60427505  0.95095533  1
  S2-  S206  1  0.25494900  0.88213473  0.45500364  1
  S2-  S207  1  0.25343021  0.84977811  0.95782042  1
  S2-  S208  1  0.50027162  0.13094277  0.45785098  1
  S2-  S209  1  0.50197647  0.10398462  0.95461943  1
  S2-  S210  1  0.50538407  0.37529310  0.45862647  1
  S2-  S211  1  0.50863642  0.34903531  0.95157776  1
  S2-  S212  1  0.50644864  0.63657547  0.44947432  1
  S2-  S213  1  0.50560319  0.60480479  0.96006543  1
  S2-  S214  1  0.50579418  0.88359780  0.45949429  1
  S2-  S215  1  0.49904909  0.84836451  0.96742212  1
  S2-  S216  1  0.75876582  0.13310090  0.46050117  1
  S2-  S217  1  0.75715437  0.10187530  0.95759964  1
  S2-  S218  1  0.75202886  0.38214769  0.45382589  1
  S2-  S219  1  0.75830631  0.35167889  0.94778592  1
  S2-  S220  1  0.75215977  0.63111865  0.44839130  1
  S2-  S221  1  0.75542102  0.60387664  0.96044568  1
  S2-  S222  1  0.75555875  0.87957101  0.46025907  1
  S2-  S223  1  0.75383098  0.84856493  0.96864993  1
  S2-  S224  1  0.12854544  -0.02351717  0.04705658  1
  S2-  S225  1  0.12612394  0.00253840  0.55238985  1
  S2-  S226  1  0.12900506  0.22615034  0.04027534  1
  S2-  S227  1  0.12591248  0.25649817  0.54260540  1
  S2-  S228  1  0.12715752  0.47582862  0.04628556  1
  S2-  S229  1  0.13250046  0.50534150  0.53727315  1
  S2-  S230  1  0.12985756  0.72452486  0.04704464  1
  S2-  S231  1  0.12703804  0.75395427  0.54139090  1
  S2-  S232  1  0.37815362  -0.02056851  0.04704201  1
  S2-  S233  1  0.37041748  0.00385020  0.54632731  1
  S2-  S234  1  0.38214105  0.22788747  0.05042004  1
  S2-  S235  1  0.38045608  0.24965926  0.54567827  1
  S2-  S236  1  0.37398831  0.47527837  0.03450533  1
  S2-  S237  1  0.38055122  0.50690860  0.53222474  1
  S2-  S238  1  0.37233279  0.71829862  0.04926980  1
  S2-  S239  1  0.37902504  0.75762526  0.54301244  1
  S2-  S240  1  0.63137939  -0.01875266  0.04391258  1
  S2-  S241  1  0.63394237  0.00164335  0.54424566  1
  S2-  S242  1  0.62808477  0.22848548  0.03455275  1
  S2-  S243  1  0.62783316  0.25028361  0.54492742  1
  S2-  S244  1  0.63574780  0.47368576  0.04240994  1
  S2-  S245  1  0.62769275  0.50424689  0.54159105  1
  S2-  S246  1  0.62327223  0.71969209  0.04766594  1
  S2-  S247  1  0.63088027  0.75606841  0.54946001  1
  S2-  S248  1  0.88224261  -0.01788951  0.04242681  1
  S2-  S249  1  0.88061616  0.00562370  0.54812413  1
  S2-  S250  1  0.88318436  0.22602409  0.03295917  1
  S2-  S251  1  0.87645745  0.25427500  0.54718928  1
  S2-  S252  1  0.87611695  0.47249068  0.04702680  1
  S2-  S253  1  0.87762772  0.50461807  0.54882880  1
  S2-  S254  1  0.87935259  0.72434396  0.04568212  1
  S2-  S255  1  0.88219223  0.74705838  0.54217086  1
