# generated using pymatgen
data_La6Ce6Pr19Nd20Sm13(BiS2)64
_symmetry_space_group_name_H-M   'P 1'
_cell_length_a   16.16858382
_cell_length_b   16.17010563
_cell_length_c   27.11844988
_cell_angle_alpha   90.02318860
_cell_angle_beta   89.96255533
_cell_angle_gamma   90.04400919
_symmetry_Int_Tables_number   1
_chemical_formula_structural   La6Ce6Pr19Nd20Sm13(BiS2)64
_chemical_formula_sum   'La6 Ce6 Pr19 Nd20 Sm13 Bi64 S128'
_cell_volume   7090.05238787
_cell_formula_units_Z   1
loop_
 _symmetry_equiv_pos_site_id
 _symmetry_equiv_pos_as_xyz
  1  'x, y, z'
loop_
 _atom_type_symbol
 _atom_type_oxidation_number
  La3+  3.0
  Ce3+  3.0
  Pr3+  3.0
  Nd3+  3.0
  Sm3+  3.0
  Bi2+  2.0
  S2-  -2.0
loop_
 _atom_site_type_symbol
 _atom_site_label
 _atom_site_symmetry_multiplicity
 _atom_site_fract_x
 _atom_site_fract_y
 _atom_site_fract_z
 _atom_site_occupancy
  La3+  La0  1  0.11408887  0.73692471  0.91848004  1
  La3+  La1  1  0.37890875  0.73652914  0.91422410  1
  La3+  La2  1  0.11112832  -0.00947998  0.90727512  1
  La3+  La3  1  0.00002031  0.62570914  0.10694849  1
  La3+  La4  1  0.88755294  0.23827754  0.40877338  1
  La3+  La5  1  0.62998670  -0.01432971  0.42576061  1
  Ce3+  Ce6  1  0.62125255  0.24145875  0.93753891  1
  Ce3+  Ce7  1  0.48948226  0.86526259  0.06068577  1
  Ce3+  Ce8  1  0.24259275  0.36871620  0.06217202  1
  Ce3+  Ce9  1  0.76145214  0.62189014  0.55742186  1
  Ce3+  Ce10  1  0.74598965  0.61673391  0.06579332  1
  Ce3+  Ce11  1  0.76149524  0.11945332  0.55655512  1
  Pr3+  Pr12  1  0.13484949  0.49627953  0.43151961  1
  Pr3+  Pr13  1  0.13921721  -0.00271084  0.44724257  1
  Pr3+  Pr14  1  0.38210524  0.24438081  0.42643020  1
  Pr3+  Pr15  1  0.14288431  0.74918274  0.43288917  1
  Pr3+  Pr16  1  0.36938530  -0.00340627  0.93571859  1
  Pr3+  Pr17  1  0.74636341  0.86616852  0.05984921  1
  Pr3+  Pr18  1  0.86474001  0.24451647  0.92984558  1
  Pr3+  Pr19  1  0.24154189  0.86635426  0.04669491  1
  Pr3+  Pr20  1  0.13802141  0.24375927  0.43734750  1
  Pr3+  Pr21  1  0.49635145  0.11862810  0.07005439  1
  Pr3+  Pr22  1  0.11755310  0.49471010  0.93830101  1
  Pr3+  Pr23  1  0.01383279  0.12056377  0.56839482  1
  Pr3+  Pr24  1  0.01402576  0.37118614  0.56558177  1
  Pr3+  Pr25  1  -0.01172024  0.12082384  0.07022745  1
  Pr3+  Pr26  1  0.88888994  -0.00572091  0.43989551  1
  Pr3+  Pr27  1  0.88707095  0.74631470  0.43981077  1
  Pr3+  Pr28  1  0.49357219  0.36665443  0.05348995  1
  Pr3+  Pr29  1  0.38656164  0.49762331  0.43956644  1
  Pr3+  Pr30  1  -0.00804637  0.36767557  0.06680893  1
  Nd3+  Nd31  1  0.24078887  0.11625089  0.05047980  1
  Nd3+  Nd32  1  0.51122766  0.87068097  0.56974069  1
  Nd3+  Nd33  1  0.27179629  0.12405385  0.57350533  1
  Nd3+  Nd34  1  0.74196205  0.11677315  0.06565887  1
  Nd3+  Nd35  1  0.26229977  0.37087192  0.56042220  1
  Nd3+  Nd36  1  0.01471397  0.87014629  0.56451026  1
  Nd3+  Nd37  1  0.86833052  0.49417214  0.94437776  1
  Nd3+  Nd38  1  0.25719085  0.61782400  0.56617215  1
  Nd3+  Nd39  1  -0.00202895  0.86484573  0.05641917  1
  Nd3+  Nd40  1  0.36712606  0.24340615  0.93531299  1
  Nd3+  Nd41  1  0.24561010  0.62112748  0.06102347  1
  Nd3+  Nd42  1  0.63542792  0.74479062  0.44648632  1
  Nd3+  Nd43  1  0.76287047  0.36920036  0.55830559  1
  Nd3+  Nd44  1  0.88729625  0.49315565  0.44379878  1
  Nd3+  Nd45  1  0.63495749  0.24238964  0.44208254  1
  Nd3+  Nd46  1  0.38503477  0.74692290  0.44118492  1
  Nd3+  Nd47  1  0.63674971  0.49370911  0.44162328  1
  Nd3+  Nd48  1  0.86918570  0.74163323  0.93965682  1
  Nd3+  Nd49  1  0.48997228  0.61752719  0.06868242  1
  Nd3+  Nd50  1  0.50884463  0.36982500  0.55184762  1
  Sm3+  Sm51  1  0.11286860  0.24203971  0.94080445  1
  Sm3+  Sm52  1  0.26773003  0.86535087  0.57744304  1
  Sm3+  Sm53  1  0.51003297  0.62034873  0.55986358  1
  Sm3+  Sm54  1  0.61841648  0.49553814  0.94716640  1
  Sm3+  Sm55  1  0.76017463  0.87255731  0.55608347  1
  Sm3+  Sm56  1  0.50960553  0.12028052  0.55465776  1
  Sm3+  Sm57  1  0.38340249  -0.00648738  0.44916430  1
  Sm3+  Sm58  1  0.36704650  0.49170762  0.94044725  1
  Sm3+  Sm59  1  0.01113014  0.62412384  0.55574350  1
  Sm3+  Sm60  1  0.87016736  -0.00659498  0.93902312  1
  Sm3+  Sm61  1  0.61732248  0.74308894  0.94864141  1
  Sm3+  Sm62  1  0.74463898  0.36685981  0.06012511  1
  Sm3+  Sm63  1  0.61876616  -0.00679066  0.94486186  1
  Bi2+  Bi64  1  0.01615479  0.08706000  0.28998518  1
  Bi2+  Bi65  1  0.03757996  0.13756129  0.79400956  1
  Bi2+  Bi66  1  -0.00424616  0.38060599  0.30399321  1
  Bi2+  Bi67  1  0.02316525  0.37586234  0.80142594  1
  Bi2+  Bi68  1  -0.05200718  0.64701200  0.31497726  1
  Bi2+  Bi69  1  -0.03876245  0.63041972  0.75900269  1
  Bi2+  Bi70  1  0.00910035  0.88612808  0.23585996  1
  Bi2+  Bi71  1  -0.03366916  0.86810287  0.79192642  1
  Bi2+  Bi72  1  0.21759441  0.07794081  0.30708825  1
  Bi2+  Bi73  1  0.28996217  0.13767763  0.75647490  1
  Bi2+  Bi74  1  0.28827227  0.31324381  0.26385141  1
  Bi2+  Bi75  1  0.30932883  0.40337523  0.81480478  1
  Bi2+  Bi76  1  0.22739612  0.63695102  0.30230979  1
  Bi2+  Bi77  1  0.24918833  0.58946462  0.79213634  1
  Bi2+  Bi78  1  0.28828704  0.89243728  0.28859211  1
  Bi2+  Bi79  1  0.25624380  0.89379835  0.78106767  1
  Bi2+  Bi80  1  0.47120048  0.21803335  0.30326154  1
  Bi2+  Bi81  1  0.53308416  0.14061041  0.79202199  1
  Bi2+  Bi82  1  0.45312815  0.41230435  0.30167647  1
  Bi2+  Bi83  1  0.49024894  0.33487921  0.79748327  1
  Bi2+  Bi84  1  0.49525996  0.61658068  0.28979722  1
  Bi2+  Bi85  1  0.52491752  0.61367694  0.79521856  1
  Bi2+  Bi86  1  0.47659251  0.82260315  0.30286377  1
  Bi2+  Bi87  1  0.51946835  0.88528773  0.79504161  1
  Bi2+  Bi88  1  0.74200293  0.15383222  0.29713729  1
  Bi2+  Bi89  1  0.73095160  0.13759990  0.78251507  1
  Bi2+  Bi90  1  0.68820712  0.41126662  0.22876920  1
  Bi2+  Bi91  1  0.75653115  0.39880211  0.79716039  1
  Bi2+  Bi92  1  0.71147715  0.60093704  0.28054578  1
  Bi2+  Bi93  1  0.74319104  0.61899606  0.78833359  1
  Bi2+  Bi94  1  0.74700283  0.89666009  0.29951897  1
  Bi2+  Bi95  1  0.75834007  0.87249347  0.79904277  1
  Bi2+  Bi96  1  0.12032811  0.02878656  0.19414709  1
  Bi2+  Bi97  1  0.09173016  0.00543483  0.69781939  1
  Bi2+  Bi98  1  0.13689223  0.21962723  0.21741266  1
  Bi2+  Bi99  1  0.18216314  0.31661465  0.72730270  1
  Bi2+  Bi100  1  0.13532759  0.49398583  0.21448080  1
  Bi2+  Bi101  1  0.10653188  0.50017782  0.72902204  1
  Bi2+  Bi102  1  0.16085584  0.77550811  0.20489638  1
  Bi2+  Bi103  1  0.11815127  0.74934963  0.69636949  1
  Bi2+  Bi104  1  0.39899166  0.03791340  0.24563819  1
  Bi2+  Bi105  1  0.44821493  0.02098376  0.71048312  1
  Bi2+  Bi106  1  0.39915283  0.20673138  0.18923853  1
  Bi2+  Bi107  1  0.36581568  0.28748712  0.69340764  1
  Bi2+  Bi108  1  0.43761743  0.50006578  0.19819803  1
  Bi2+  Bi109  1  0.38931389  0.48262993  0.71780352  1
  Bi2+  Bi110  1  0.39144554  0.76497765  0.20178682  1
  Bi2+  Bi111  1  0.39236840  0.73386041  0.70913231  1
  Bi2+  Bi112  1  0.58749057  0.00344868  0.22388482  1
  Bi2+  Bi113  1  0.63415721  -0.02231898  0.70490911  1
  Bi2+  Bi114  1  0.60057354  0.23782060  0.21262058  1
  Bi2+  Bi115  1  0.62923455  0.26911194  0.71999164  1
  Bi2+  Bi116  1  0.61714306  0.56666124  0.17367958  1
  Bi2+  Bi117  1  0.58697899  0.47107933  0.72434426  1
  Bi2+  Bi118  1  0.59089416  0.75447690  0.20933393  1
  Bi2+  Bi119  1  0.63381390  0.75989917  0.73187477  1
  Bi2+  Bi120  1  0.84999686  -0.00164175  0.22323314  1
  Bi2+  Bi121  1  0.83146700  0.00494456  0.72385906  1
  Bi2+  Bi122  1  0.88949782  0.23671843  0.20961758  1
  Bi2+  Bi123  1  0.87820025  0.25382011  0.69777165  1
  Bi2+  Bi124  1  0.87165213  0.49782492  0.21395524  1
  Bi2+  Bi125  1  0.84096528  0.49140058  0.71019866  1
  Bi2+  Bi126  1  0.78880732  0.75302941  0.22234389  1
  Bi2+  Bi127  1  0.82540943  0.73785104  0.70374094  1
  S2-  S128  1  0.01048602  0.24746725  0.14456769  1
  S2-  S129  1  -0.00648881  0.13731111  0.66970343  1
  S2-  S130  1  0.00665447  0.46147407  0.15350035  1
  S2-  S131  1  -0.03172233  0.37112822  0.66392160  1
  S2-  S132  1  -0.00097153  0.60822813  0.22781679  1
  S2-  S133  1  0.02232306  0.62686026  0.65366846  1
  S2-  S134  1  0.00910159  0.79102432  0.14741372  1
  S2-  S135  1  -0.00155681  0.86693961  0.66383040  1
  S2-  S136  1  0.24560402  0.12837675  0.15051212  1
  S2-  S137  1  0.19886645  0.11339846  0.66465351  1
  S2-  S138  1  0.23835637  0.39220021  0.16094553  1
  S2-  S139  1  0.20113631  0.42786596  0.64696758  1
  S2-  S140  1  0.15948459  0.62489948  0.14956670  1
  S2-  S141  1  0.25067845  0.67539675  0.66038734  1
  S2-  S142  1  0.26828430  0.85743191  0.14786993  1
  S2-  S143  1  0.21210286  0.88987792  0.67169813  1
  S2-  S144  1  0.62143361  0.10871952  0.14513113  1
  S2-  S145  1  0.42068725  0.14250801  0.63735797  1
  S2-  S146  1  0.49490815  0.34560303  0.15320504  1
  S2-  S147  1  0.49794509  0.38623205  0.65001917  1
  S2-  S148  1  0.36831448  0.62878639  0.14010171  1
  S2-  S149  1  0.48968698  0.64238403  0.65647549  1
  S2-  S150  1  0.51284553  0.89616650  0.15679203  1
  S2-  S151  1  0.41169341  0.86332338  0.65080098  1
  S2-  S152  1  0.85616512  0.11379239  0.14204632  1
  S2-  S153  1  0.77501171  0.12801815  0.65342225  1
  S2-  S154  1  0.79519184  0.35296932  0.15451355  1
  S2-  S155  1  0.75223020  0.35631735  0.65772621  1
  S2-  S156  1  0.83655687  0.62677795  0.14992093  1
  S2-  S157  1  0.74826133  0.60301255  0.65380541  1
  S2-  S158  1  0.76783124  0.88580474  0.15946892  1
  S2-  S159  1  0.75919128  0.88492410  0.65332772  1
  S2-  S160  1  0.10356818  -0.03221750  0.35020169  1
  S2-  S161  1  0.18523420  0.04646838  0.81760964  1
  S2-  S162  1  0.03753505  0.24886447  0.35274879  1
  S2-  S163  1  0.13412565  0.25664777  0.84264648  1
  S2-  S164  1  0.13061896  0.48819230  0.32892262  1
  S2-  S165  1  0.12434256  0.59690589  0.85458203  1
  S2-  S166  1  0.08804155  0.72172031  0.33590151  1
  S2-  S167  1  0.11557195  0.84950065  0.83693333  1
  S2-  S168  1  0.41087845  -0.02917692  0.35327045  1
  S2-  S169  1  0.38687818  -0.05215107  0.83909808  1
  S2-  S170  1  0.25468389  0.23706342  0.35675757  1
  S2-  S171  1  0.38305387  0.17502399  0.84454790  1
  S2-  S172  1  0.34798626  0.53926391  0.34443675  1
  S2-  S173  1  0.39584323  0.57897958  0.85776117  1
  S2-  S174  1  0.27965410  0.75860334  0.36146795  1
  S2-  S175  1  0.30714075  0.75655148  0.81679974  1
  S2-  S176  1  0.63715981  0.03046706  0.32774917  1
  S2-  S177  1  0.64565999  -0.02257689  0.84786315  1
  S2-  S178  1  0.63834869  0.25648411  0.34328506  1
  S2-  S179  1  0.72631658  0.25308035  0.85931812  1
  S2-  S180  1  0.61153773  0.50979717  0.34406245  1
  S2-  S181  1  0.64340378  0.50660902  0.84982058  1
  S2-  S182  1  0.62272256  0.82316413  0.35887913  1
  S2-  S183  1  0.53600266  0.74509674  0.86195033  1
  S2-  S184  1  0.87648301  0.08459442  0.35471027  1
  S2-  S185  1  0.95704886  0.01250176  0.85315074  1
  S2-  S186  1  0.84810019  0.28971780  0.30988187  1
  S2-  S187  1  0.93251240  0.23803278  0.83212861  1
  S2-  S188  1  0.88156346  0.49170750  0.34473730  1
  S2-  S189  1  0.89364491  0.46198207  0.84626537  1
  S2-  S190  1  0.87266714  0.80177004  0.34468130  1
  S2-  S191  1  0.93620100  0.73675468  0.84647427  1
  S2-  S192  1  0.01171528  0.12066913  0.45966697  1
  S2-  S193  1  -0.00736538  0.11990381  0.95664567  1
  S2-  S194  1  0.01071803  0.37051751  0.45610390  1
  S2-  S195  1  -0.00676141  0.36727331  0.95512730  1
  S2-  S196  1  0.01156466  0.62145811  0.45071174  1
  S2-  S197  1  -0.01120081  0.61621726  0.95229874  1
  S2-  S198  1  0.01329026  0.86945218  0.45652195  1
  S2-  S199  1  -0.00912365  0.86896673  0.95103827  1
  S2-  S200  1  0.26516640  0.11827012  0.46265993  1
  S2-  S201  1  0.23886026  0.11884100  0.94486006  1
  S2-  S202  1  0.26087337  0.37481480  0.45341970  1
  S2-  S203  1  0.24319355  0.36616614  0.95291855  1
  S2-  S204  1  0.25959822  0.61921235  0.45846894  1
  S2-  S205  1  0.24938812  0.61640724  0.95323389  1
  S2-  S206  1  0.26332778  0.87275228  0.46689742  1
  S2-  S207  1  0.24401348  0.86974163  0.94051476  1
  S2-  S208  1  0.50754733  0.11828792  0.44969834  1
  S2-  S209  1  0.49716836  0.11850352  0.95739629  1
  S2-  S210  1  0.51022656  0.36947365  0.44622819  1
  S2-  S211  1  0.49518904  0.36958017  0.94597978  1
  S2-  S212  1  0.51149001  0.62227006  0.45368505  1
  S2-  S213  1  0.49819285  0.61502812  0.96311044  1
  S2-  S214  1  0.50650089  0.86885885  0.46312680  1
  S2-  S215  1  0.49599280  0.87155630  0.95501388  1
  S2-  S216  1  0.75563382  0.11688835  0.45135246  1
  S2-  S217  1  0.74507378  0.11260262  0.95547098  1
  S2-  S218  1  0.76230028  0.36686708  0.44988790  1
  S2-  S219  1  0.74133087  0.37269461  0.95672395  1
  S2-  S220  1  0.76027931  0.62009561  0.44940565  1
  S2-  S221  1  0.74131842  0.61968379  0.95574545  1
  S2-  S222  1  0.76079197  0.87143018  0.45342418  1
  S2-  S223  1  0.74330688  0.86782345  0.95245046  1
  S2-  S224  1  0.11517147  -0.00497435  0.04667178  1
  S2-  S225  1  0.14116438  -0.00585566  0.55468350  1
  S2-  S226  1  0.12214969  0.24294864  0.04419967  1
  S2-  S227  1  0.13950303  0.24581489  0.55064802  1
  S2-  S228  1  0.12087618  0.49202922  0.04485716  1
  S2-  S229  1  0.13177690  0.49993313  0.54037166  1
  S2-  S230  1  0.11863303  0.74174544  0.03607829  1
  S2-  S231  1  0.13772216  0.74614978  0.54643972  1
  S2-  S232  1  0.37037770  -0.00391458  0.04537721  1
  S2-  S233  1  0.38618920  -0.00699462  0.55215632  1
  S2-  S234  1  0.36878222  0.24064324  0.04325797  1
  S2-  S235  1  0.38559076  0.24885400  0.53523723  1
  S2-  S236  1  0.36895433  0.48969069  0.04444572  1
  S2-  S237  1  0.38581189  0.49790437  0.54842982  1
  S2-  S238  1  0.37094064  0.74515754  0.03466617  1
  S2-  S239  1  0.38492075  0.74135418  0.54698491  1
  S2-  S240  1  0.61889465  -0.01087786  0.04757417  1
  S2-  S241  1  0.63223443  -0.00500961  0.54489258  1
  S2-  S242  1  0.62126187  0.24399783  0.04459948  1
  S2-  S243  1  0.63240462  0.24465661  0.54963978  1
  S2-  S244  1  0.61987195  0.49054577  0.05148088  1
  S2-  S245  1  0.63404768  0.49516859  0.54869599  1
  S2-  S246  1  0.61781074  0.74218543  0.05348739  1
  S2-  S247  1  0.63457440  0.74687935  0.55362842  1
  S2-  S248  1  0.87080280  -0.01077391  0.04344468  1
  S2-  S249  1  0.88697006  -0.00652413  0.54903934  1
  S2-  S250  1  0.86382932  0.24489026  0.03884932  1
  S2-  S251  1  0.88673546  0.24580003  0.54944307  1
  S2-  S252  1  0.86574583  0.49099979  0.04952082  1
  S2-  S253  1  0.88774910  0.49741034  0.55060281  1
  S2-  S254  1  0.87025616  0.74284870  0.04558269  1
  S2-  S255  1  0.88563875  0.74844388  0.54844044  1
