# generated using pymatgen
data_La6Ce6Pr19Nd20Sm13(BiS2)64
_symmetry_space_group_name_H-M   'P 1'
_cell_length_a   16.10542075
_cell_length_b   16.10266102
_cell_length_c   27.29407117
_cell_angle_alpha   89.89989640
_cell_angle_beta   89.89950615
_cell_angle_gamma   90.04346228
_symmetry_Int_Tables_number   1
_chemical_formula_structural   La6Ce6Pr19Nd20Sm13(BiS2)64
_chemical_formula_sum   'La6 Ce6 Pr19 Nd20 Sm13 Bi64 S128'
_cell_volume   7078.42424394
_cell_formula_units_Z   1
loop_
 _symmetry_equiv_pos_site_id
 _symmetry_equiv_pos_as_xyz
  1  'x, y, z'
loop_
 _atom_type_symbol
 _atom_type_oxidation_number
  La3+  3.0
  Ce3+  3.0
  Pr3+  3.0
  Nd3+  3.0
  Sm3+  3.0
  Bi2+  2.0
  S2-  -2.0
loop_
 _atom_site_type_symbol
 _atom_site_label
 _atom_site_symmetry_multiplicity
 _atom_site_fract_x
 _atom_site_fract_y
 _atom_site_fract_z
 _atom_site_occupancy
  La3+  La0  1  0.11360023  0.26762593  0.43454471  1
  La3+  La1  1  0.73283858  0.39197291  0.57889967  1
  La3+  La2  1  -0.01599859  0.39023695  0.57615856  1
  La3+  La3  1  0.48743864  0.88015898  0.08084533  1
  La3+  La4  1  0.23725662  0.38326684  0.57389103  1
  La3+  La5  1  0.88603388  0.74545477  0.37925472  1
  Ce3+  Ce6  1  0.24195017  0.13736947  0.57242855  1
  Ce3+  Ce7  1  0.36369265  0.00019314  0.95017838  1
  Ce3+  Ce8  1  0.48936154  0.37729042  0.06193399  1
  Ce3+  Ce9  1  0.23286773  0.37727645  0.06887028  1
  Ce3+  Ce10  1  0.10927157  0.25383359  0.93539775  1
  Ce3+  Ce11  1  -0.01433976  0.62425949  0.05706793  1
  Pr3+  Pr12  1  0.11226623  0.00277706  0.93718675  1
  Pr3+  Pr13  1  0.86018144  0.75339285  0.93964256  1
  Pr3+  Pr14  1  0.85962781  -0.00300869  0.90835292  1
  Pr3+  Pr15  1  0.61990330  0.77372613  0.41204303  1
  Pr3+  Pr16  1  0.86444915  0.50711772  0.43482649  1
  Pr3+  Pr17  1  0.61340620  0.75681140  0.94140780  1
  Pr3+  Pr18  1  0.49167177  0.88647902  0.55849327  1
  Pr3+  Pr19  1  0.86401441  0.00781625  0.43807151  1
  Pr3+  Pr20  1  0.24256915  0.88718680  0.56986782  1
  Pr3+  Pr21  1  0.73669679  0.37157236  0.09513518  1
  Pr3+  Pr22  1  0.11533956  0.01322833  0.44859290  1
  Pr3+  Pr23  1  -0.01513001  0.13821431  0.56975244  1
  Pr3+  Pr24  1  0.73685728  0.87153573  0.07989835  1
  Pr3+  Pr25  1  0.61915589  0.26407345  0.44179516  1
  Pr3+  Pr26  1  0.73721803  0.88529939  0.56088189  1
  Pr3+  Pr27  1  0.49059620  0.12702578  0.06332955  1
  Pr3+  Pr28  1  0.61548559  0.25112485  0.93513446  1
  Pr3+  Pr29  1  -0.01772348  0.12935211  0.04896522  1
  Pr3+  Pr30  1  0.36347567  0.76476931  0.93315843  1
  Nd3+  Nd31  1  0.62145720  0.51425970  0.43272255  1
  Nd3+  Nd32  1  0.11000187  0.49873082  0.94068639  1
  Nd3+  Nd33  1  0.74061309  0.12925619  0.05711123  1
  Nd3+  Nd34  1  -0.01168799  0.63583052  0.56221359  1
  Nd3+  Nd35  1  0.36286453  0.51377322  0.43385431  1
  Nd3+  Nd36  1  0.85775167  0.26281953  0.92121735  1
  Nd3+  Nd37  1  0.36398624  0.01577544  0.44330023  1
  Nd3+  Nd38  1  0.61227096  0.50190375  0.93989146  1
  Nd3+  Nd39  1  0.23061497  0.87599929  0.07456680  1
  Nd3+  Nd40  1  0.36828228  0.76408339  0.42951930  1
  Nd3+  Nd41  1  0.36030358  0.50125105  0.94060767  1
  Nd3+  Nd42  1  0.36108848  0.26875900  0.43095930  1
  Nd3+  Nd43  1  0.73828036  0.63618129  0.55324366  1
  Nd3+  Nd44  1  0.24569118  0.63769954  0.57175774  1
  Nd3+  Nd45  1  0.11404841  0.51571690  0.44428849  1
  Nd3+  Nd46  1  0.48626004  0.62944783  0.05479536  1
  Nd3+  Nd47  1  0.11255741  0.75274059  0.94407045  1
  Nd3+  Nd48  1  0.73134162  0.12793466  0.59475416  1
  Nd3+  Nd49  1  0.61672731  -0.00198209  0.93546900  1
  Nd3+  Nd50  1  -0.01429080  0.88695251  0.56080947  1
  Sm3+  Sm51  1  0.23742434  0.62696390  0.05503988  1
  Sm3+  Sm52  1  -0.01569386  0.88051768  0.05865264  1
  Sm3+  Sm53  1  0.86691658  0.26504143  0.44364630  1
  Sm3+  Sm54  1  0.36335952  0.25317620  0.94857158  1
  Sm3+  Sm55  1  0.48785398  0.63720400  0.54844936  1
  Sm3+  Sm56  1  0.73696969  0.62201706  0.06838156  1
  Sm3+  Sm57  1  -0.01299690  0.37463409  0.06575389  1
  Sm3+  Sm58  1  0.23416807  0.12954055  0.05380440  1
  Sm3+  Sm59  1  0.49267680  0.14011702  0.55737664  1
  Sm3+  Sm60  1  0.61579757  0.01454490  0.43791587  1
  Sm3+  Sm61  1  0.85301089  0.50138048  0.94037896  1
  Sm3+  Sm62  1  0.49190755  0.38811716  0.55715815  1
  Sm3+  Sm63  1  0.11550730  0.76258190  0.44859108  1
  Bi2+  Bi64  1  -0.01879897  0.10838172  0.30639584  1
  Bi2+  Bi65  1  0.04469571  0.11414565  0.78683449  1
  Bi2+  Bi66  1  -0.03194673  0.38423414  0.30292651  1
  Bi2+  Bi67  1  0.02284941  0.37957764  0.80383232  1
  Bi2+  Bi68  1  0.11859523  0.62573817  0.28808137  1
  Bi2+  Bi69  1  -0.00335316  0.60510209  0.78063707  1
  Bi2+  Bi70  1  0.08210717  0.89603182  0.29321590  1
  Bi2+  Bi71  1  -0.01448507  0.80144104  0.78039741  1
  Bi2+  Bi72  1  0.26459057  0.11527493  0.29721901  1
  Bi2+  Bi73  1  0.25376453  0.07786250  0.76985124  1
  Bi2+  Bi74  1  0.22125351  0.37103978  0.28956938  1
  Bi2+  Bi75  1  0.26900412  0.38361160  0.81716211  1
  Bi2+  Bi76  1  0.29780589  0.63718195  0.32754750  1
  Bi2+  Bi77  1  0.29918159  0.61352655  0.75633306  1
  Bi2+  Bi78  1  0.27888165  0.83580838  0.29921870  1
  Bi2+  Bi79  1  0.24368149  0.84593271  0.80397551  1
  Bi2+  Bi80  1  0.51021455  0.14232185  0.29335168  1
  Bi2+  Bi81  1  0.52996768  0.10642427  0.79716669  1
  Bi2+  Bi82  1  0.46356284  0.33976763  0.28383216  1
  Bi2+  Bi83  1  0.51319327  0.39662265  0.78511736  1
  Bi2+  Bi84  1  0.42391098  0.54040447  0.25982606  1
  Bi2+  Bi85  1  0.56391997  0.65591259  0.79058466  1
  Bi2+  Bi86  1  0.49371092  0.89122320  0.29394029  1
  Bi2+  Bi87  1  0.47159848  0.82676947  0.80062398  1
  Bi2+  Bi88  1  0.78332265  0.11553219  0.28754094  1
  Bi2+  Bi89  1  0.77982862  0.13841865  0.79155642  1
  Bi2+  Bi90  1  0.73878567  0.31308336  0.28131645  1
  Bi2+  Bi91  1  0.75695887  0.39929024  0.79048670  1
  Bi2+  Bi92  1  0.76755812  0.57678741  0.28764143  1
  Bi2+  Bi93  1  0.76464069  0.65441478  0.80202134  1
  Bi2+  Bi94  1  0.76271797  0.87752568  0.28338146  1
  Bi2+  Bi95  1  0.72829311  0.85074402  0.78741626  1
  Bi2+  Bi96  1  0.18121563  -0.00076635  0.21436919  1
  Bi2+  Bi97  1  0.16630433  -0.10410019  0.70526884  1
  Bi2+  Bi98  1  0.11483128  0.24017145  0.20792455  1
  Bi2+  Bi99  1  0.17975422  0.23812728  0.71661415  1
  Bi2+  Bi100  1  0.17064438  0.49822527  0.20674802  1
  Bi2+  Bi101  1  0.11727401  0.48574671  0.71015840  1
  Bi2+  Bi102  1  0.15386455  0.77103365  0.21197033  1
  Bi2+  Bi103  1  0.13798821  0.69743599  0.71079112  1
  Bi2+  Bi104  1  0.37312806  -0.03366432  0.21700260  1
  Bi2+  Bi105  1  0.41389682  0.00275959  0.72239020  1
  Bi2+  Bi106  1  0.34388507  0.23227887  0.21211618  1
  Bi2+  Bi107  1  0.39469555  0.22130671  0.74543886  1
  Bi2+  Bi108  1  0.34929075  0.42010316  0.18062210  1
  Bi2+  Bi109  1  0.39173211  0.46863448  0.70350167  1
  Bi2+  Bi110  1  0.36983194  0.70729961  0.21183821  1
  Bi2+  Bi111  1  0.42209683  0.73642426  0.70227530  1
  Bi2+  Bi112  1  0.63141532  0.04995889  0.22269119  1
  Bi2+  Bi113  1  0.61237508  -0.00148113  0.71461106  1
  Bi2+  Bi114  1  0.55612718  0.21401078  0.18560975  1
  Bi2+  Bi115  1  0.58753630  0.25215333  0.72087176  1
  Bi2+  Bi116  1  0.64568806  0.46304906  0.22803490  1
  Bi2+  Bi117  1  0.59975405  0.51382993  0.70454745  1
  Bi2+  Bi118  1  0.62532592  0.72479844  0.20406094  1
  Bi2+  Bi119  1  0.66759197  0.73581355  0.70202846  1
  Bi2+  Bi120  1  0.94279474  0.01519745  0.21464295  1
  Bi2+  Bi121  1  0.89332868  0.00295912  0.70041322  1
  Bi2+  Bi122  1  0.87036607  0.23518065  0.20755689  1
  Bi2+  Bi123  1  0.93516023  0.26233194  0.70661498  1
  Bi2+  Bi124  1  0.91192157  0.49917856  0.22086058  1
  Bi2+  Bi125  1  0.85788389  0.51845743  0.71370830  1
  Bi2+  Bi126  1  0.92197944  0.77573149  0.18057373  1
  Bi2+  Bi127  1  0.86220871  0.72696595  0.70453575  1
  S2-  S128  1  -0.00010640  0.14946504  0.14924156  1
  S2-  S129  1  0.01986273  0.12065506  0.67058596  1
  S2-  S130  1  -0.10964488  0.37708465  0.14841963  1
  S2-  S131  1  0.09513251  0.35038828  0.65455226  1
  S2-  S132  1  -0.02030505  0.61096443  0.15579022  1
  S2-  S133  1  -0.00741455  0.53978085  0.64569971  1
  S2-  S134  1  0.08309530  0.87469829  0.14042083  1
  S2-  S135  1  -0.00341412  0.90012737  0.66140291  1
  S2-  S136  1  0.22442789  0.13794703  0.15188152  1
  S2-  S137  1  0.24462911  0.00973285  0.64543094  1
  S2-  S138  1  0.11105401  0.36170374  0.14220563  1
  S2-  S139  1  0.28436480  0.25455482  0.64284878  1
  S2-  S140  1  0.23617546  0.63865139  0.15360876  1
  S2-  S141  1  0.25649356  0.51073617  0.64394964  1
  S2-  S142  1  0.35285115  0.84743133  0.14550911  1
  S2-  S143  1  0.26307560  0.76502403  0.64475406  1
  S2-  S144  1  0.49564272  0.03891555  0.15096439  1
  S2-  S145  1  0.57537911  0.13103056  0.64483251  1
  S2-  S146  1  0.57494196  0.37413089  0.14685748  1
  S2-  S147  1  0.58528097  0.37308087  0.64158308  1
  S2-  S148  1  0.50607443  0.64256573  0.15377835  1
  S2-  S149  1  0.47329952  0.60292991  0.64515922  1
  S2-  S150  1  0.60779931  0.85750756  0.15519010  1
  S2-  S151  1  0.49594306  0.88902381  0.65937657  1
  S2-  S152  1  0.73604042  0.21181147  0.14541038  1
  S2-  S153  1  0.80628492  0.16734137  0.68630138  1
  S2-  S154  1  0.73213199  0.52067064  0.15152231  1
  S2-  S155  1  0.85761321  0.36921164  0.65103744  1
  S2-  S156  1  0.76114260  0.72628315  0.14904609  1
  S2-  S157  1  0.73130733  0.54784806  0.64119325  1
  S2-  S158  1  0.83859385  0.92540499  0.16244450  1
  S2-  S159  1  0.74538089  0.97377327  0.64892242  1
  S2-  S160  1  0.12947383  0.03794640  0.34954643  1
  S2-  S161  1  0.14196658  -0.00164803  0.83806874  1
  S2-  S162  1  -0.01659866  0.24502390  0.36377550  1
  S2-  S163  1  0.14426481  0.26443038  0.83913891  1
  S2-  S164  1  0.10520479  0.42404338  0.35815988  1
  S2-  S165  1  0.14059415  0.49805655  0.84304058  1
  S2-  S166  1  0.06130292  0.75179642  0.35525416  1
  S2-  S167  1  0.10574976  0.76808623  0.84585046  1
  S2-  S168  1  0.39912415  0.02784420  0.34576612  1
  S2-  S169  1  0.36670471  -0.08435065  0.86645615  1
  S2-  S170  1  0.23395977  0.23914610  0.35899215  1
  S2-  S171  1  0.36543908  0.26308679  0.85092793  1
  S2-  S172  1  0.36658778  0.39856494  0.35857414  1
  S2-  S173  1  0.39715546  0.48784453  0.84401336  1
  S2-  S174  1  0.47897004  0.75971997  0.34911835  1
  S2-  S175  1  0.32184396  0.70658140  0.84005566  1
  S2-  S176  1  0.62686026  -0.07032238  0.35136736  1
  S2-  S177  1  0.71680688  0.03392202  0.85214069  1
  S2-  S178  1  0.60080031  0.26902014  0.34133139  1
  S2-  S179  1  0.71672642  0.26729402  0.85154363  1
  S2-  S180  1  0.62595852  0.51440900  0.33257625  1
  S2-  S181  1  0.70934429  0.50820600  0.85668025  1
  S2-  S182  1  0.72193398  0.73489344  0.33296704  1
  S2-  S183  1  0.60219900  0.86542266  0.86225045  1
  S2-  S184  1  0.86698626  -0.08165879  0.35092871  1
  S2-  S185  1  0.91483701  0.02313435  0.80610021  1
  S2-  S186  1  0.83031862  0.37435565  0.36349204  1
  S2-  S187  1  0.92703233  0.22125480  0.82647638  1
  S2-  S188  1  0.90389168  0.57919789  0.34425385  1
  S2-  S189  1  0.89132623  0.41717308  0.85681164  1
  S2-  S190  1  0.89109356  0.76522907  0.27044428  1
  S2-  S191  1  0.85896313  0.84288718  0.85380303  1
  S2-  S192  1  -0.01333830  0.13336041  0.46248305  1
  S2-  S193  1  -0.01782259  0.12509252  0.94210620  1
  S2-  S194  1  -0.01133543  0.38916535  0.46667971  1
  S2-  S195  1  -0.01341141  0.37661433  0.95875477  1
  S2-  S196  1  -0.01001397  0.64133473  0.45734121  1
  S2-  S197  1  -0.01464259  0.62488562  0.94752571  1
  S2-  S198  1  -0.00792367  0.88385190  0.45581310  1
  S2-  S199  1  -0.01264608  0.87960321  0.95398466  1
  S2-  S200  1  0.24254466  0.13645639  0.46343390  1
  S2-  S201  1  0.23981149  0.12884657  0.94877248  1
  S2-  S202  1  0.23932523  0.39294046  0.46253343  1
  S2-  S203  1  0.23814928  0.37580707  0.95847532  1
  S2-  S204  1  0.24063200  0.64031964  0.45996534  1
  S2-  S205  1  0.23598981  0.62619868  0.95075803  1
  S2-  S206  1  0.24208697  0.88570836  0.45530838  1
  S2-  S207  1  0.23275698  0.87835388  0.96430666  1
  S2-  S208  1  0.49022474  0.13949634  0.45206489  1
  S2-  S209  1  0.48834909  0.12671048  0.95412194  1
  S2-  S210  1  0.49546797  0.39113734  0.45350569  1
  S2-  S211  1  0.48842226  0.37634808  0.95334836  1
  S2-  S212  1  0.49383128  0.63625264  0.44524777  1
  S2-  S213  1  0.48576915  0.62941740  0.94789985  1
  S2-  S214  1  0.49054205  0.89063417  0.45310383  1
  S2-  S215  1  0.48945949  0.88023761  0.96940520  1
  S2-  S216  1  0.74217105  0.13706649  0.43815188  1
  S2-  S217  1  0.74414772  0.12853924  0.95349277  1
  S2-  S218  1  0.73695734  0.38802361  0.46606415  1
  S2-  S219  1  0.73478980  0.37909836  0.95745921  1
  S2-  S220  1  0.74165801  0.64127552  0.44780346  1
  S2-  S221  1  0.73613206  0.62895660  0.95989333  1
  S2-  S222  1  0.73455767  0.89001491  0.45708714  1
  S2-  S223  1  0.74072385  0.87943230  0.96183270  1
  S2-  S224  1  0.11178463  0.00610723  0.04415781  1
  S2-  S225  1  0.11072496  0.01037830  0.55277866  1
  S2-  S226  1  0.11212121  0.25073836  0.03993024  1
  S2-  S227  1  0.11271706  0.25591781  0.54643424  1
  S2-  S228  1  0.11272852  0.50378640  0.04659881  1
  S2-  S229  1  0.11799287  0.51669539  0.54740899  1
  S2-  S230  1  0.11134571  0.74852041  0.04763382  1
  S2-  S231  1  0.11396773  0.76218096  0.55268078  1
  S2-  S232  1  0.35561632  0.00580891  0.05332210  1
  S2-  S233  1  0.37188655  0.01497870  0.54851653  1
  S2-  S234  1  0.36157646  0.25157379  0.05353757  1
  S2-  S235  1  0.37428830  0.26304870  0.53803970  1
  S2-  S236  1  0.36124830  0.50316038  0.04690656  1
  S2-  S237  1  0.36957489  0.50987070  0.53929225  1
  S2-  S238  1  0.35843199  0.74897895  0.04128093  1
  S2-  S239  1  0.36757658  0.76188644  0.53787046  1
  S2-  S240  1  0.61819662  0.00421074  0.04577642  1
  S2-  S241  1  0.61504864  0.01538393  0.54167253  1
  S2-  S242  1  0.61265951  0.25220370  0.04109580  1
  S2-  S243  1  0.61826652  0.25633947  0.54575271  1
  S2-  S244  1  0.61062066  0.50407777  0.04420877  1
  S2-  S245  1  0.60857550  0.51528034  0.53921260  1
  S2-  S246  1  0.61468719  0.74755862  0.04643676  1
  S2-  S247  1  0.61235289  0.75893944  0.54956736  1
  S2-  S248  1  0.86286166  0.00146278  0.04860198  1
  S2-  S249  1  0.86081316  0.01323765  0.54641700  1
  S2-  S250  1  0.86232675  0.25651299  0.03970068  1
  S2-  S251  1  0.85166109  0.24955759  0.54985855  1
  S2-  S252  1  0.86224204  0.50111034  0.04422166  1
  S2-  S253  1  0.86304576  0.51534588  0.54226466  1
  S2-  S254  1  0.86616461  0.75246838  0.04520674  1
  S2-  S255  1  0.86257375  0.76074614  0.56010713  1
