# generated using pymatgen
data_La6Ce6Pr19Nd20Sm13(BiS2)64
_symmetry_space_group_name_H-M   'P 1'
_cell_length_a   15.99345550
_cell_length_b   16.06486133
_cell_length_c   27.33882597
_cell_angle_alpha   90.41175641
_cell_angle_beta   89.87954143
_cell_angle_gamma   89.95507418
_symmetry_Int_Tables_number   1
_chemical_formula_structural   La6Ce6Pr19Nd20Sm13(BiS2)64
_chemical_formula_sum   'La6 Ce6 Pr19 Nd20 Sm13 Bi64 S128'
_cell_volume   7024.03771031
_cell_formula_units_Z   1
loop_
 _symmetry_equiv_pos_site_id
 _symmetry_equiv_pos_as_xyz
  1  'x, y, z'
loop_
 _atom_type_symbol
 _atom_type_oxidation_number
  La3+  3.0
  Ce3+  3.0
  Pr3+  3.0
  Nd3+  3.0
  Sm3+  3.0
  Bi2+  2.0
  S2-  -2.0
loop_
 _atom_site_type_symbol
 _atom_site_label
 _atom_site_symmetry_multiplicity
 _atom_site_fract_x
 _atom_site_fract_y
 _atom_site_fract_z
 _atom_site_occupancy
  La3+  La0  1  0.75986716  0.62636402  0.10087438  1
  La3+  La1  1  0.88205674  0.27843993  0.88591714  1
  La3+  La2  1  0.00185853  0.37233884  0.07021681  1
  La3+  La3  1  0.65377207  0.23365723  0.41900831  1
  La3+  La4  1  0.38739853  0.73829784  0.89857211  1
  La3+  La5  1  0.12110355  0.73820997  0.90136982  1
  Ce3+  Ce6  1  0.26386525  0.36468375  0.56942587  1
  Ce3+  Ce7  1  0.64095102  0.73274351  0.43822318  1
  Ce3+  Ce8  1  0.76335646  0.86220883  0.55520467  1
  Ce3+  Ce9  1  0.14030177  0.23653459  0.44412621  1
  Ce3+  Ce10  1  0.39009253  0.73684334  0.44714651  1
  Ce3+  Ce11  1  0.01977388  0.85597067  0.56691122  1
  Pr3+  Pr12  1  0.89984249  0.73992736  0.42769041  1
  Pr3+  Pr13  1  0.02111327  0.36575948  0.57022238  1
  Pr3+  Pr14  1  0.87793983  0.00457805  0.93752580  1
  Pr3+  Pr15  1  0.88010345  0.50123136  0.94500893  1
  Pr3+  Pr16  1  0.25468494  0.11789277  0.07532693  1
  Pr3+  Pr17  1  0.52461678  0.86011336  0.57439600  1
  Pr3+  Pr18  1  0.63730543  -0.01701407  0.42293010  1
  Pr3+  Pr19  1  0.76170066  0.11993601  0.56476469  1
  Pr3+  Pr20  1  0.13307221  0.24792982  0.93959749  1
  Pr3+  Pr21  1  0.50566758  0.37545733  0.07325098  1
  Pr3+  Pr22  1  0.50219480  0.12309956  0.06424022  1
  Pr3+  Pr23  1  0.25359396  0.86705095  0.04860315  1
  Pr3+  Pr24  1  0.75532677  0.37109225  0.07112434  1
  Pr3+  Pr25  1  0.52383246  0.36272781  0.56221578  1
  Pr3+  Pr26  1  0.62892384  0.24294335  0.93344951  1
  Pr3+  Pr27  1  0.00194615  0.87276017  0.05643175  1
  Pr3+  Pr28  1  0.01686139  0.10641564  0.57424327  1
  Pr3+  Pr29  1  0.62855281  -0.00420623  0.93466773  1
  Pr3+  Pr30  1  0.13061645  0.49645546  0.93634348  1
  Nd3+  Nd31  1  0.90212356  0.23292042  0.43508571  1
  Nd3+  Nd32  1  0.50558803  0.86765556  0.05580001  1
  Nd3+  Nd33  1  0.25324790  0.37434945  0.07607843  1
  Nd3+  Nd34  1  0.74735400  0.12626136  0.06758600  1
  Nd3+  Nd35  1  0.27217877  0.11208372  0.55918935  1
  Nd3+  Nd36  1  0.37717683  0.25003632  0.94309945  1
  Nd3+  Nd37  1  0.87623919  0.75072475  0.93718206  1
  Nd3+  Nd38  1  0.13192586  -0.00370920  0.93705382  1
  Nd3+  Nd39  1  0.00232641  0.12458607  0.05757079  1
  Nd3+  Nd40  1  0.37645438  -0.00620850  0.93959770  1
  Nd3+  Nd41  1  0.75373901  0.87275979  0.06797952  1
  Nd3+  Nd42  1  0.51996380  0.60591031  0.56678762  1
  Nd3+  Nd43  1  0.14957602  0.74041900  0.43608044  1
  Nd3+  Nd44  1  0.39329363  -0.01612862  0.43654169  1
  Nd3+  Nd45  1  0.63227478  0.49529993  0.94749541  1
  Nd3+  Nd46  1  0.89778168  0.48476477  0.42643104  1
  Nd3+  Nd47  1  0.25286870  0.62347808  0.05517168  1
  Nd3+  Nd48  1  0.64426528  0.48137152  0.41743735  1
  Nd3+  Nd49  1  0.26333712  0.62201709  0.57693479  1
  Nd3+  Nd50  1  0.77031639  0.60872274  0.54947210  1
  Sm3+  Sm51  1  0.01896461  0.61362318  0.55045204  1
  Sm3+  Sm52  1  0.39466632  0.24107305  0.44206317  1
  Sm3+  Sm53  1  0.62984849  0.74542722  0.94025360  1
  Sm3+  Sm54  1  0.38078762  0.49785578  0.94242295  1
  Sm3+  Sm55  1  0.50600216  0.62357368  0.05927939  1
  Sm3+  Sm56  1  0.27800163  0.87160216  0.57707044  1
  Sm3+  Sm57  1  0.00177976  0.62495695  0.06127518  1
  Sm3+  Sm58  1  0.14492414  -0.01460355  0.44912978  1
  Sm3+  Sm59  1  0.77479525  0.36311831  0.55696783  1
  Sm3+  Sm60  1  0.14766485  0.48754210  0.43604143  1
  Sm3+  Sm61  1  0.38969910  0.48810996  0.44514319  1
  Sm3+  Sm62  1  0.52268408  0.11380764  0.54813783  1
  Sm3+  Sm63  1  0.89397068  -0.01314327  0.44972112  1
  Bi2+  Bi64  1  0.05026242  0.15042552  0.27561454  1
  Bi2+  Bi65  1  -0.00513052  0.12706176  0.78757999  1
  Bi2+  Bi66  1  0.04047985  0.37197960  0.28236436  1
  Bi2+  Bi67  1  0.02528232  0.39126409  0.78884358  1
  Bi2+  Bi68  1  -0.02643264  0.63121305  0.29891579  1
  Bi2+  Bi69  1  -0.08952026  0.61816616  0.77056958  1
  Bi2+  Bi70  1  -0.00138662  0.91001971  0.30644576  1
  Bi2+  Bi71  1  -0.01827330  0.87861091  0.80534383  1
  Bi2+  Bi72  1  0.24949229  0.15169966  0.29324396  1
  Bi2+  Bi73  1  0.26192448  0.14130380  0.78543615  1
  Bi2+  Bi74  1  0.24115702  0.35013791  0.29545440  1
  Bi2+  Bi75  1  0.21826376  0.40188695  0.81816589  1
  Bi2+  Bi76  1  0.22729682  0.61311886  0.30046373  1
  Bi2+  Bi77  1  0.22343472  0.57329967  0.76100023  1
  Bi2+  Bi78  1  0.27190939  0.88006373  0.30131556  1
  Bi2+  Bi79  1  0.26514792  0.91306150  0.77807199  1
  Bi2+  Bi80  1  0.51027134  0.08832084  0.28523905  1
  Bi2+  Bi81  1  0.45893384  0.19171747  0.76677446  1
  Bi2+  Bi82  1  0.46652505  0.39359471  0.30845245  1
  Bi2+  Bi83  1  0.47236365  0.34678915  0.83672524  1
  Bi2+  Bi84  1  0.41810675  0.63116344  0.26236211  1
  Bi2+  Bi85  1  0.51487661  0.60689810  0.79578775  1
  Bi2+  Bi86  1  0.46533674  0.81585924  0.29704704  1
  Bi2+  Bi87  1  0.59602750  0.95173881  0.79776664  1
  Bi2+  Bi88  1  0.79096954  0.10655215  0.28871304  1
  Bi2+  Bi89  1  0.72583558  0.14554888  0.79146899  1
  Bi2+  Bi90  1  0.75421729  0.35995090  0.28133122  1
  Bi2+  Bi91  1  0.64644050  0.39629712  0.77538732  1
  Bi2+  Bi92  1  0.70138809  0.61966366  0.29682252  1
  Bi2+  Bi93  1  0.73847752  0.70930620  0.79925783  1
  Bi2+  Bi94  1  0.73290981  0.89450859  0.28508668  1
  Bi2+  Bi95  1  0.77402398  0.89279586  0.84031908  1
  Bi2+  Bi96  1  0.14845865  0.02128321  0.20015737  1
  Bi2+  Bi97  1  0.12795370  0.03656831  0.71052200  1
  Bi2+  Bi98  1  0.19770857  0.23970561  0.19101479  1
  Bi2+  Bi99  1  0.19163789  0.28538448  0.72118713  1
  Bi2+  Bi100  1  0.10030865  0.54243520  0.22212888  1
  Bi2+  Bi101  1  0.06108309  0.51706840  0.70616946  1
  Bi2+  Bi102  1  0.10656074  0.82795137  0.22520740  1
  Bi2+  Bi103  1  0.09508477  0.77123378  0.70747894  1
  Bi2+  Bi104  1  0.34790635  0.01501603  0.22475076  1
  Bi2+  Bi105  1  0.40691811  0.02155156  0.70969191  1
  Bi2+  Bi106  1  0.39664896  0.24020086  0.21843460  1
  Bi2+  Bi107  1  0.37778283  0.29641874  0.67630092  1
  Bi2+  Bi108  1  0.30534285  0.48469631  0.21518255  1
  Bi2+  Bi109  1  0.38344475  0.44592737  0.75257731  1
  Bi2+  Bi110  1  0.28714592  0.75597838  0.20632308  1
  Bi2+  Bi111  1  0.37807653  0.73254110  0.69939428  1
  Bi2+  Bi112  1  0.62171574  -0.01755368  0.21059609  1
  Bi2+  Bi113  1  0.66325594  0.03529564  0.70159587  1
  Bi2+  Bi114  1  0.66438042  0.23112328  0.21307499  1
  Bi2+  Bi115  1  0.57592826  0.28817828  0.68948168  1
  Bi2+  Bi116  1  0.57357633  0.48334222  0.21491646  1
  Bi2+  Bi117  1  0.63402886  0.57097352  0.70024765  1
  Bi2+  Bi118  1  0.57388004  0.75976498  0.20548856  1
  Bi2+  Bi119  1  0.61935905  0.80292983  0.72206873  1
  Bi2+  Bi120  1  0.85472888  -0.02462085  0.21004069  1
  Bi2+  Bi121  1  0.84983964  -0.04743462  0.73495337  1
  Bi2+  Bi122  1  0.93455525  0.26263262  0.20792214  1
  Bi2+  Bi123  1  0.87269898  0.23882100  0.67892989  1
  Bi2+  Bi124  1  0.89654784  0.51424408  0.21931812  1
  Bi2+  Bi125  1  0.80433603  0.48041280  0.71637655  1
  Bi2+  Bi126  1  0.85812883  0.77801338  0.21850948  1
  Bi2+  Bi127  1  0.83748512  0.76350154  0.70272641  1
  S2-  S128  1  0.03374401  0.13514274  0.15634971  1
  S2-  S129  1  0.03781335  0.17155710  0.66746037  1
  S2-  S130  1  -0.12038515  0.39121552  0.14849829  1
  S2-  S131  1  -0.11222539  0.39487796  0.63747260  1
  S2-  S132  1  -0.08013782  0.63731500  0.14940123  1
  S2-  S133  1  0.02811297  0.65367025  0.64655689  1
  S2-  S134  1  -0.02642613  0.87139213  0.15587163  1
  S2-  S135  1  0.03686515  0.91617121  0.65883849  1
  S2-  S136  1  0.38687288  0.12360423  0.14446558  1
  S2-  S137  1  0.26505845  0.03886176  0.64949849  1
  S2-  S138  1  0.12500744  0.37197128  0.14662229  1
  S2-  S139  1  0.14857427  0.38796404  0.64487138  1
  S2-  S140  1  0.22548690  0.61254616  0.15426589  1
  S2-  S141  1  0.32417519  0.58089139  0.66954879  1
  S2-  S142  1  0.25962577  0.91519714  0.14584507  1
  S2-  S143  1  0.22848845  0.76496213  0.65018714  1
  S2-  S144  1  0.61580716  0.11692474  0.14289511  1
  S2-  S145  1  0.52922638  0.08887686  0.64601730  1
  S2-  S146  1  0.38146926  0.37250974  0.14824638  1
  S2-  S147  1  0.54142357  0.47949702  0.63917002  1
  S2-  S148  1  0.50645843  0.61295413  0.15836304  1
  S2-  S149  1  0.52823594  0.71085020  0.64938451  1
  S2-  S150  1  0.50489618  0.88174782  0.15558088  1
  S2-  S151  1  0.40536772  0.88378958  0.64971517  1
  S2-  S152  1  0.80208638  0.18550482  0.16184416  1
  S2-  S153  1  0.82789724  0.07460137  0.65712103  1
  S2-  S154  1  0.62856540  0.36642332  0.14793474  1
  S2-  S155  1  0.71697535  0.26144431  0.63267824  1
  S2-  S156  1  0.71494946  0.55863928  0.19644010  1
  S2-  S157  1  0.78665555  0.62117545  0.64881610  1
  S2-  S158  1  0.73236371  0.77833316  0.15171108  1
  S2-  S159  1  0.66799850  0.88396049  0.63719495  1
  S2-  S160  1  0.14780250  -0.02939129  0.35127145  1
  S2-  S161  1  0.08466794  0.00695649  0.84106194  1
  S2-  S162  1  0.03612297  0.22888860  0.36488002  1
  S2-  S163  1  0.04669861  0.24309282  0.84953048  1
  S2-  S164  1  0.03059058  0.48626119  0.35797206  1
  S2-  S165  1  0.13853552  0.58373225  0.84768474  1
  S2-  S166  1  0.03658310  0.75538828  0.35743923  1
  S2-  S167  1  0.14310394  0.80394577  0.80754473  1
  S2-  S168  1  0.49324232  -0.03554611  0.35455996  1
  S2-  S169  1  0.34804546  0.01479394  0.84273511  1
  S2-  S170  1  0.42799113  0.23900832  0.34566986  1
  S2-  S171  1  0.26359529  0.24700857  0.86638477  1
  S2-  S172  1  0.27958137  0.48462053  0.36690336  1
  S2-  S173  1  0.38529876  0.57722522  0.85443343  1
  S2-  S174  1  0.28273135  0.73837514  0.36803891  1
  S2-  S175  1  0.35680858  0.78474863  0.79846985  1
  S2-  S176  1  0.65224687  0.10229456  0.34701643  1
  S2-  S177  1  0.60755691  0.10523349  0.85574621  1
  S2-  S178  1  0.61804845  0.34807372  0.34448186  1
  S2-  S179  1  0.71537899  0.28619544  0.84856779  1
  S2-  S180  1  0.54909992  0.54045621  0.33569311  1
  S2-  S181  1  0.63579144  0.51893498  0.84782564  1
  S2-  S182  1  0.61612871  0.75579968  0.34204969  1
  S2-  S183  1  0.54883168  0.74219252  0.85282524  1
  S2-  S184  1  0.90536432  0.01789958  0.35353707  1
  S2-  S185  1  0.86440085  0.10533817  0.85369532  1
  S2-  S186  1  0.80981295  0.24490762  0.34908955  1
  S2-  S187  1  0.88485464  0.26293625  0.77254523  1
  S2-  S188  1  0.78228253  0.48751725  0.34658541  1
  S2-  S189  1  0.90274942  0.44610522  0.84963900  1
  S2-  S190  1  0.82749474  0.70638095  0.33448551  1
  S2-  S191  1  0.95950188  0.72087994  0.85040569  1
  S2-  S192  1  0.02186691  0.10509595  0.46584023  1
  S2-  S193  1  0.00936099  0.11949140  0.95460810  1
  S2-  S194  1  0.02366761  0.36462791  0.46233899  1
  S2-  S195  1  0.00493393  0.37270907  0.95791411  1
  S2-  S196  1  0.02396185  0.61381898  0.45057712  1
  S2-  S197  1  0.00757236  0.62655636  0.95800049  1
  S2-  S198  1  0.02042928  0.86652653  0.46088286  1
  S2-  S199  1  0.00597015  0.87192837  0.94995542  1
  S2-  S200  1  0.27087296  0.11197899  0.45176133  1
  S2-  S201  1  0.25550648  0.11697520  0.96378547  1
  S2-  S202  1  0.26767176  0.35778796  0.46232709  1
  S2-  S203  1  0.25698871  0.37986644  0.96579149  1
  S2-  S204  1  0.26759846  0.61206761  0.46757037  1
  S2-  S205  1  0.25651267  0.62838685  0.95068342  1
  S2-  S206  1  0.27017592  0.86713450  0.46703053  1
  S2-  S207  1  0.25351024  0.86094122  0.94063833  1
  S2-  S208  1  0.51447364  0.11416090  0.44702691  1
  S2-  S209  1  0.49677131  0.12099296  0.95705921  1
  S2-  S210  1  0.51338486  0.36678611  0.45441438  1
  S2-  S211  1  0.50385428  0.37460545  0.96337942  1
  S2-  S212  1  0.51385486  0.60980916  0.45726885  1
  S2-  S213  1  0.50510293  0.62227095  0.95636237  1
  S2-  S214  1  0.51737577  0.85775236  0.46046758  1
  S2-  S215  1  0.50010934  0.86774432  0.94951719  1
  S2-  S216  1  0.77389272  0.10881766  0.45601587  1
  S2-  S217  1  0.74826901  0.11887088  0.96076566  1
  S2-  S218  1  0.77644272  0.36173821  0.45290201  1
  S2-  S219  1  0.75788081  0.37260631  0.95899404  1
  S2-  S220  1  0.77019191  0.61238171  0.44591987  1
  S2-  S221  1  0.75368254  0.62560740  0.94518130  1
  S2-  S222  1  0.76822011  0.86268199  0.44686641  1
  S2-  S223  1  0.75216723  0.87163739  0.96160916  1
  S2-  S224  1  0.12925165  -0.00352820  0.04491065  1
  S2-  S225  1  0.14570568  -0.01577818  0.55203179  1
  S2-  S226  1  0.13334936  0.24363306  0.04706276  1
  S2-  S227  1  0.14428788  0.23248443  0.55033995  1
  S2-  S228  1  0.12550712  0.50233655  0.04497275  1
  S2-  S229  1  0.14462026  0.49490502  0.54285777  1
  S2-  S230  1  0.12502367  0.74643169  0.05607537  1
  S2-  S231  1  0.14298622  0.73961294  0.54221995  1
  S2-  S232  1  0.38023823  -0.00770875  0.04447932  1
  S2-  S233  1  0.39923259  -0.00893843  0.54139079  1
  S2-  S234  1  0.37531428  0.24901544  0.04675599  1
  S2-  S235  1  0.39552329  0.23745944  0.54680127  1
  S2-  S236  1  0.38073864  0.50214964  0.04726235  1
  S2-  S237  1  0.38740193  0.48602546  0.54857179  1
  S2-  S238  1  0.38080760  0.74449207  0.05295331  1
  S2-  S239  1  0.39294974  0.73657035  0.55088093  1
  S2-  S240  1  0.62837347  -0.00797394  0.04280936  1
  S2-  S241  1  0.64437303  -0.00830658  0.53323573  1
  S2-  S242  1  0.62629142  0.25032789  0.04176236  1
  S2-  S243  1  0.64026391  0.23924948  0.52783504  1
  S2-  S244  1  0.63627963  0.50729874  0.05316183  1
  S2-  S245  1  0.65117132  0.48363340  0.53397066  1
  S2-  S246  1  0.63221592  0.74237580  0.04507245  1
  S2-  S247  1  0.64443028  0.73150772  0.54299610  1
  S2-  S248  1  0.87523181  -0.00084105  0.04867897  1
  S2-  S249  1  0.89131706  -0.01670369  0.55248164  1
  S2-  S250  1  0.87894697  0.24524715  0.05074047  1
  S2-  S251  1  0.89868599  0.23455784  0.54397133  1
  S2-  S252  1  0.87362088  0.50710784  0.04933120  1
  S2-  S253  1  0.89832428  0.49122076  0.53417758  1
  S2-  S254  1  0.87533419  0.74708864  0.04398484  1
  S2-  S255  1  0.89272511  0.73756064  0.53943193  1
