# generated using pymatgen
data_La6Ce6Pr19Nd20Sm13(BiS2)64
_symmetry_space_group_name_H-M   'P 1'
_cell_length_a   16.08695413
_cell_length_b   16.06923209
_cell_length_c   27.32923308
_cell_angle_alpha   89.80213097
_cell_angle_beta   90.01400366
_cell_angle_gamma   89.88200245
_symmetry_Int_Tables_number   1
_chemical_formula_structural   La6Ce6Pr19Nd20Sm13(BiS2)64
_chemical_formula_sum   'La6 Ce6 Pr19 Nd20 Sm13 Bi64 S128'
_cell_volume   7064.68605397
_cell_formula_units_Z   1
loop_
 _symmetry_equiv_pos_site_id
 _symmetry_equiv_pos_as_xyz
  1  'x, y, z'
loop_
 _atom_type_symbol
 _atom_type_oxidation_number
  La3+  3.0
  Ce3+  3.0
  Pr3+  3.0
  Nd3+  3.0
  Sm3+  3.0
  Bi2+  2.0
  S2-  -2.0
loop_
 _atom_site_type_symbol
 _atom_site_label
 _atom_site_symmetry_multiplicity
 _atom_site_fract_x
 _atom_site_fract_y
 _atom_site_fract_z
 _atom_site_occupancy
  La3+  La0  1  0.50736355  0.39946208  0.60550478  1
  La3+  La1  1  0.88070260  0.51243695  0.41535989  1
  La3+  La2  1  0.35667326  -0.01922467  0.87798324  1
  La3+  La3  1  0.04749549  0.89815806  0.62016661  1
  La3+  La4  1  0.37614246  0.51804674  0.41599576  1
  La3+  La5  1  0.75802614  0.39197520  0.56482427  1
  Ce3+  Ce6  1  0.75499070  0.13995913  0.55302834  1
  Ce3+  Ce7  1  0.76713795  0.88777310  0.55597707  1
  Ce3+  Ce8  1  0.50589719  0.35809603  0.07166494  1
  Ce3+  Ce9  1  0.62898302  0.76190698  0.43957052  1
  Ce3+  Ce10  1  0.00224830  0.13058262  0.54982395  1
  Ce3+  Ce11  1  0.62195010  -0.01465748  0.93797003  1
  Pr3+  Pr12  1  0.13074024  0.26480250  0.44263070  1
  Pr3+  Pr13  1  0.50335491  0.13800565  0.57453354  1
  Pr3+  Pr14  1  0.38354256  0.48102107  0.94172481  1
  Pr3+  Pr15  1  0.50686679  0.11189633  0.06542474  1
  Pr3+  Pr16  1  0.87823182  -0.01964522  0.93127646  1
  Pr3+  Pr17  1  0.63927009  0.24471073  0.93290236  1
  Pr3+  Pr18  1  0.88184534  0.00889801  0.42047935  1
  Pr3+  Pr19  1  0.62766224  0.52228202  0.40270418  1
  Pr3+  Pr20  1  0.38333788  0.27029792  0.44921491  1
  Pr3+  Pr21  1  0.87526540  0.26631562  0.42953043  1
  Pr3+  Pr22  1  0.87993235  0.76281126  0.42849009  1
  Pr3+  Pr23  1  0.00931042  0.86069210  0.06321489  1
  Pr3+  Pr24  1  0.39287659  0.23317926  0.92596437  1
  Pr3+  Pr25  1  0.75757746  0.85997673  0.06320770  1
  Pr3+  Pr26  1  0.13180225  0.01315374  0.42751762  1
  Pr3+  Pr27  1  0.25771756  0.63856208  0.56017928  1
  Pr3+  Pr28  1  0.50556556  0.86437791  0.07151259  1
  Pr3+  Pr29  1  0.38138699  0.73672745  0.94435306  1
  Pr3+  Pr30  1  0.38415231  0.02239599  0.42108328  1
  Nd3+  Nd31  1  0.25174393  0.13313736  0.56143723  1
  Nd3+  Nd32  1  0.25878244  0.86616755  0.06448133  1
  Nd3+  Nd33  1  -0.00168901  0.64378846  0.56345868  1
  Nd3+  Nd34  1  0.87755432  0.73269487  0.94267938  1
  Nd3+  Nd35  1  0.38117408  0.76377468  0.42672404  1
  Nd3+  Nd36  1  0.76059352  0.36036653  0.07392745  1
  Nd3+  Nd37  1  0.50429936  0.63396155  0.55521827  1
  Nd3+  Nd38  1  0.00530865  0.10903796  0.05752983  1
  Nd3+  Nd39  1  0.00388679  0.35995062  0.05976938  1
  Nd3+  Nd40  1  0.25771017  0.11036494  0.05564006  1
  Nd3+  Nd41  1  0.12435177  -0.01651540  0.92808442  1
  Nd3+  Nd42  1  0.13276705  0.23303544  0.93447355  1
  Nd3+  Nd43  1  0.25652953  0.39102670  0.56104595  1
  Nd3+  Nd44  1  0.50607628  0.88739283  0.55503430  1
  Nd3+  Nd45  1  0.75713323  0.11222046  0.05047351  1
  Nd3+  Nd46  1  0.75468763  0.60995532  0.07014910  1
  Nd3+  Nd47  1  0.62541274  0.27386308  0.44796094  1
  Nd3+  Nd48  1  0.13490855  0.73604258  0.94936203  1
  Nd3+  Nd49  1  0.12782080  0.76737833  0.44566487  1
  Nd3+  Nd50  1  0.25604124  0.35635484  0.06522722  1
  Sm3+  Sm51  1  0.49662199  0.60700390  0.09357461  1
  Sm3+  Sm52  1  0.87997394  0.48647840  0.94294729  1
  Sm3+  Sm53  1  0.62498013  0.01720589  0.44314900  1
  Sm3+  Sm54  1  0.13346243  0.48585111  0.94441608  1
  Sm3+  Sm55  1  0.25758124  0.59960234  0.07474364  1
  Sm3+  Sm56  1  0.88760162  0.23714806  0.93002587  1
  Sm3+  Sm57  1  0.62715527  0.73330623  0.95223629  1
  Sm3+  Sm58  1  0.63059721  0.48775036  0.95299789  1
  Sm3+  Sm59  1  0.00240897  0.39028690  0.55986935  1
  Sm3+  Sm60  1  0.75217735  0.63168967  0.54753000  1
  Sm3+  Sm61  1  0.12914698  0.51673323  0.44391500  1
  Sm3+  Sm62  1  0.26051785  0.88926504  0.55023127  1
  Sm3+  Sm63  1  0.00632415  0.61052425  0.05508207  1
  Bi2+  Bi64  1  -0.00164347  0.13985504  0.28632649  1
  Bi2+  Bi65  1  -0.06219613  0.12192288  0.79669515  1
  Bi2+  Bi66  1  -0.02061293  0.34600946  0.25875847  1
  Bi2+  Bi67  1  -0.06711866  0.40947234  0.79194857  1
  Bi2+  Bi68  1  -0.01801115  0.62157522  0.25737497  1
  Bi2+  Bi69  1  0.04635266  0.57701232  0.77776881  1
  Bi2+  Bi70  1  0.00002054  0.86532899  0.29091171  1
  Bi2+  Bi71  1  0.01054688  0.83607748  0.80291319  1
  Bi2+  Bi72  1  0.19311763  0.09958421  0.26881268  1
  Bi2+  Bi73  1  0.17936212  0.14953068  0.80844567  1
  Bi2+  Bi74  1  0.23580196  0.32156713  0.29268664  1
  Bi2+  Bi75  1  0.24366716  0.40134463  0.79020540  1
  Bi2+  Bi76  1  0.20147531  0.63955409  0.29254977  1
  Bi2+  Bi77  1  0.33043634  0.57610608  0.82643224  1
  Bi2+  Bi78  1  0.24752110  0.87044108  0.29059592  1
  Bi2+  Bi79  1  0.27357496  0.74831884  0.78579808  1
  Bi2+  Bi80  1  0.42279600  0.11015016  0.28514544  1
  Bi2+  Bi81  1  0.48330706  0.11101066  0.77855079  1
  Bi2+  Bi82  1  0.48353110  0.35311708  0.30514800  1
  Bi2+  Bi83  1  0.50557813  0.35862121  0.79039409  1
  Bi2+  Bi84  1  0.48942164  0.67318996  0.28055301  1
  Bi2+  Bi85  1  0.52309785  0.58486986  0.79990324  1
  Bi2+  Bi86  1  0.44280150  0.85875406  0.29862041  1
  Bi2+  Bi87  1  0.57823081  0.84350180  0.80909499  1
  Bi2+  Bi88  1  0.80910710  0.14377103  0.32279114  1
  Bi2+  Bi89  1  0.73815996  0.12070789  0.79817255  1
  Bi2+  Bi90  1  0.76403935  0.34319875  0.29718556  1
  Bi2+  Bi91  1  0.73931371  0.39802347  0.79173116  1
  Bi2+  Bi92  1  0.76587805  0.65650188  0.29042275  1
  Bi2+  Bi93  1  0.77123388  0.65425207  0.78910380  1
  Bi2+  Bi94  1  0.72742269  0.86912106  0.28232883  1
  Bi2+  Bi95  1  0.75946108  0.92552472  0.81650209  1
  Bi2+  Bi96  1  0.09959689  -0.03009275  0.19612848  1
  Bi2+  Bi97  1  0.14343898  0.05755150  0.71262017  1
  Bi2+  Bi98  1  0.10843773  0.24204505  0.19741011  1
  Bi2+  Bi99  1  0.12477339  0.28170005  0.72088434  1
  Bi2+  Bi100  1  0.12414107  0.48029898  0.23843414  1
  Bi2+  Bi101  1  0.11957986  0.46472410  0.67931065  1
  Bi2+  Bi102  1  0.14369205  0.76623370  0.20794256  1
  Bi2+  Bi103  1  0.16985450  0.65117118  0.70022987  1
  Bi2+  Bi104  1  0.38092738  -0.00159507  0.19497846  1
  Bi2+  Bi105  1  0.37810857  -0.01584032  0.67427711  1
  Bi2+  Bi106  1  0.36109820  0.25090662  0.21037440  1
  Bi2+  Bi107  1  0.33455286  0.28423970  0.71346934  1
  Bi2+  Bi108  1  0.35117574  0.49829967  0.21315709  1
  Bi2+  Bi109  1  0.38656745  0.54113477  0.71410663  1
  Bi2+  Bi110  1  0.33495192  0.80914866  0.19031230  1
  Bi2+  Bi111  1  0.45171032  0.73641248  0.72479572  1
  Bi2+  Bi112  1  0.64551786  0.05188963  0.28078082  1
  Bi2+  Bi113  1  0.64048985  -0.03521460  0.71854911  1
  Bi2+  Bi114  1  0.57137395  0.21725020  0.23320547  1
  Bi2+  Bi115  1  0.72207241  0.25442188  0.71409421  1
  Bi2+  Bi116  1  0.62064211  0.51048301  0.21094387  1
  Bi2+  Bi117  1  0.66134353  0.53502845  0.70971254  1
  Bi2+  Bi118  1  0.56717434  0.84633019  0.20614218  1
  Bi2+  Bi119  1  0.66735766  0.76652279  0.71254019  1
  Bi2+  Bi120  1  0.82900964  0.02813093  0.23018721  1
  Bi2+  Bi121  1  0.83782139  0.00083109  0.71804663  1
  Bi2+  Bi122  1  0.80529827  0.23818368  0.20509216  1
  Bi2+  Bi123  1  0.92428711  0.25896898  0.71379957  1
  Bi2+  Bi124  1  0.86734492  0.49385958  0.19610776  1
  Bi2+  Bi125  1  0.92803935  0.51630232  0.69232280  1
  Bi2+  Bi126  1  0.86162355  0.77526345  0.21055666  1
  Bi2+  Bi127  1  0.86374822  0.74465227  0.69584128  1
  S2-  S128  1  0.01765309  0.11581692  0.15661189  1
  S2-  S129  1  0.03399303  0.07575299  0.64097710  1
  S2-  S130  1  -0.09985109  0.34571130  0.13844923  1
  S2-  S131  1  -0.10700410  0.37476036  0.63587881  1
  S2-  S132  1  -0.01610991  0.58922920  0.15086592  1
  S2-  S133  1  0.01430274  0.72629201  0.65203070  1
  S2-  S134  1  -0.04492502  0.88638499  0.15694914  1
  S2-  S135  1  0.05464863  0.91223184  0.72551074  1
  S2-  S136  1  0.25193022  0.22689919  0.13475036  1
  S2-  S137  1  0.28525280  0.13723645  0.65905664  1
  S2-  S138  1  0.23548751  0.46769022  0.14653187  1
  S2-  S139  1  0.33920325  0.41710856  0.64674638  1
  S2-  S140  1  0.35313323  0.63203352  0.15679816  1
  S2-  S141  1  0.32336894  0.67231917  0.65124687  1
  S2-  S142  1  0.23551305  0.99592502  0.13518341  1
  S2-  S143  1  0.22191653  0.91152552  0.64420719  1
  S2-  S144  1  0.49902005  0.23120727  0.14275116  1
  S2-  S145  1  0.52422890  0.07567133  0.66899746  1
  S2-  S146  1  0.48772128  0.46319563  0.15399927  1
  S2-  S147  1  0.49246551  0.29266106  0.69105631  1
  S2-  S148  1  0.55591479  0.67181717  0.18052165  1
  S2-  S149  1  0.52345629  0.56197183  0.64732245  1
  S2-  S150  1  0.52715817  0.98956232  0.14498666  1
  S2-  S151  1  0.47675168  0.84880510  0.65072865  1
  S2-  S152  1  0.75933213  0.10491355  0.15041390  1
  S2-  S153  1  0.77046721  0.12874849  0.65031672  1
  S2-  S154  1  0.69068661  0.38632865  0.16757855  1
  S2-  S155  1  0.66988633  0.39689523  0.65462375  1
  S2-  S156  1  0.75538164  0.60810247  0.17048938  1
  S2-  S157  1  0.78891250  0.60457199  0.64363664  1
  S2-  S158  1  0.72900085  0.85225950  0.16175989  1
  S2-  S159  1  0.86740194  0.89048811  0.63746400  1
  S2-  S160  1  0.01887710  0.00170146  0.34700367  1
  S2-  S161  1  0.19604262  -0.01227295  0.83639563  1
  S2-  S162  1  0.12742935  0.22684951  0.34495645  1
  S2-  S163  1  0.01931689  0.23023400  0.85822128  1
  S2-  S164  1  0.12524140  0.51626875  0.34527686  1
  S2-  S165  1  0.11851119  0.46581695  0.84756996  1
  S2-  S166  1  0.12191258  0.77145646  0.34579266  1
  S2-  S167  1  0.12812835  0.74293982  0.85049599  1
  S2-  S168  1  0.25326180  0.01722758  0.35094736  1
  S2-  S169  1  0.38509002  -0.01764062  0.76927469  1
  S2-  S170  1  0.37096692  0.23518373  0.35134524  1
  S2-  S171  1  0.35006373  0.14890401  0.83805083  1
  S2-  S172  1  0.34364148  0.45055107  0.32082436  1
  S2-  S173  1  0.38061816  0.37369356  0.85920166  1
  S2-  S174  1  0.36474202  0.65875714  0.34706289  1
  S2-  S175  1  0.38436988  0.80866860  0.85187942  1
  S2-  S176  1  0.52933999  0.03962372  0.36202833  1
  S2-  S177  1  0.53309281  0.00127850  0.85395287  1
  S2-  S178  1  0.62691193  0.28114498  0.34824014  1
  S2-  S179  1  0.53921107  0.23423640  0.84842525  1
  S2-  S180  1  0.54661078  0.50520161  0.30941034  1
  S2-  S181  1  0.60856563  0.45435483  0.85673069  1
  S2-  S182  1  0.62369081  0.69307457  0.34896232  1
  S2-  S183  1  0.63255605  0.69285560  0.85583513  1
  S2-  S184  1  0.85835153  -0.12320406  0.34840699  1
  S2-  S185  1  0.99086800  -0.02466764  0.85414130  1
  S2-  S186  1  0.91576532  0.37195534  0.35078405  1
  S2-  S187  1  0.76893874  0.26551076  0.85975149  1
  S2-  S188  1  0.75732364  0.50480782  0.33516963  1
  S2-  S189  1  0.84238060  0.52822975  0.85054949  1
  S2-  S190  1  0.90706578  0.64991041  0.34898802  1
  S2-  S191  1  0.86362996  0.76641181  0.84625618  1
  S2-  S192  1  0.00280195  0.14157256  0.44602409  1
  S2-  S193  1  0.00216485  0.10880812  0.95335058  1
  S2-  S194  1  0.00876495  0.39108680  0.45658284  1
  S2-  S195  1  0.00472820  0.36544144  0.95465931  1
  S2-  S196  1  0.00930291  0.63853336  0.45610975  1
  S2-  S197  1  0.00702127  0.60958365  0.95024079  1
  S2-  S198  1  0.00428899  0.88637595  0.44900815  1
  S2-  S199  1  0.00405466  0.85392098  0.95704835  1
  S2-  S200  1  0.25806913  0.14074705  0.45505368  1
  S2-  S201  1  0.25569888  0.10785330  0.94903133  1
  S2-  S202  1  0.25356026  0.39291112  0.45354596  1
  S2-  S203  1  0.25013328  0.35950321  0.95738698  1
  S2-  S204  1  0.25260272  0.63964486  0.45318999  1
  S2-  S205  1  0.25555235  0.60733369  0.96455641  1
  S2-  S206  1  0.26089958  0.88792782  0.44647553  1
  S2-  S207  1  0.25553804  0.86417139  0.95525876  1
  S2-  S208  1  0.50547420  0.14315357  0.46578487  1
  S2-  S209  1  0.51862715  0.11989948  0.96016996  1
  S2-  S210  1  0.50441862  0.39893286  0.43770106  1
  S2-  S211  1  0.51269201  0.36302309  0.96406980  1
  S2-  S212  1  0.50477896  0.63714865  0.44902486  1
  S2-  S213  1  0.50582404  0.60890238  0.95906649  1
  S2-  S214  1  0.50401340  0.88777854  0.44957546  1
  S2-  S215  1  0.50861806  0.85568343  0.96355639  1
  S2-  S216  1  0.74710436  0.14019208  0.44790528  1
  S2-  S217  1  0.75896469  0.10808092  0.94628137  1
  S2-  S218  1  0.75308694  0.39249039  0.45227126  1
  S2-  S219  1  0.76022202  0.36951401  0.96449011  1
  S2-  S220  1  0.75127084  0.63497749  0.44576451  1
  S2-  S221  1  0.75483671  0.61022858  0.96294485  1
  S2-  S222  1  0.74635169  0.89184893  0.45053614  1
  S2-  S223  1  0.75224292  0.85736810  0.95592686  1
  S2-  S224  1  0.12699494  -0.01519623  0.03636582  1
  S2-  S225  1  0.13269392  0.00897833  0.53636298  1
  S2-  S226  1  0.12465769  0.23534771  0.03925337  1
  S2-  S227  1  0.12839507  0.26434066  0.55082442  1
  S2-  S228  1  0.12593052  0.48536435  0.04754373  1
  S2-  S229  1  0.12709016  0.51575013  0.54884376  1
  S2-  S230  1  0.13566583  0.73164822  0.05590491  1
  S2-  S231  1  0.13256329  0.76790150  0.55045954  1
  S2-  S232  1  0.38309566  -0.01413249  0.04737111  1
  S2-  S233  1  0.38191835  0.01403276  0.54077053  1
  S2-  S234  1  0.38034811  0.23719646  0.03640206  1
  S2-  S235  1  0.38049839  0.26489144  0.55492740  1
  S2-  S236  1  0.38200367  0.48626703  0.04759568  1
  S2-  S237  1  0.38099641  0.51297634  0.53783445  1
  S2-  S238  1  0.38097580  0.73432858  0.05177623  1
  S2-  S239  1  0.38185361  0.76402059  0.53475968  1
  S2-  S240  1  0.63634902  -0.01490101  0.04368053  1
  S2-  S241  1  0.63077937  0.01218031  0.54805174  1
  S2-  S242  1  0.63978971  0.24087828  0.04651604  1
  S2-  S243  1  0.62383892  0.26569493  0.55427235  1
  S2-  S244  1  0.62940208  0.49062154  0.05667979  1
  S2-  S245  1  0.62710172  0.51067284  0.54272993  1
  S2-  S246  1  0.62714091  0.73147542  0.05717351  1
  S2-  S247  1  0.63205347  0.76177473  0.54736598  1
  S2-  S248  1  0.88133666  -0.01545804  0.04222945  1
  S2-  S249  1  0.87422958  0.01902822  0.53006244  1
  S2-  S250  1  0.88302989  0.23374765  0.03627639  1
  S2-  S251  1  0.88200726  0.26053753  0.53629609  1
  S2-  S252  1  0.88231571  0.49048353  0.04590380  1
  S2-  S253  1  0.88427948  0.51580479  0.53489470  1
  S2-  S254  1  0.88259513  0.73296045  0.04992574  1
  S2-  S255  1  0.87242913  0.75388690  0.53488299  1
