# generated using pymatgen
data_La6Ce6Pr19Nd20Sm13(BiS2)64
_symmetry_space_group_name_H-M   'P 1'
_cell_length_a   16.12533535
_cell_length_b   16.13238505
_cell_length_c   27.35140096
_cell_angle_alpha   90.00107710
_cell_angle_beta   89.93499353
_cell_angle_gamma   89.89983455
_symmetry_Int_Tables_number   1
_chemical_formula_structural   La6Ce6Pr19Nd20Sm13(BiS2)64
_chemical_formula_sum   'La6 Ce6 Pr19 Nd20 Sm13 Bi64 S128'
_cell_volume   7115.18124482
_cell_formula_units_Z   1
loop_
 _symmetry_equiv_pos_site_id
 _symmetry_equiv_pos_as_xyz
  1  'x, y, z'
loop_
 _atom_type_symbol
 _atom_type_oxidation_number
  La3+  3.0
  Ce3+  3.0
  Pr3+  3.0
  Nd3+  3.0
  Sm3+  3.0
  Bi2+  2.0
  S2-  -2.0
loop_
 _atom_site_type_symbol
 _atom_site_label
 _atom_site_symmetry_multiplicity
 _atom_site_fract_x
 _atom_site_fract_y
 _atom_site_fract_z
 _atom_site_occupancy
  La3+  La0  1  0.75618769  0.60724983  0.59367567  1
  La3+  La1  1  0.87722267  -0.01364066  0.43572211  1
  La3+  La2  1  0.48596783  0.37153719  0.10186113  1
  La3+  La3  1  0.87758844  0.48996296  0.43347781  1
  La3+  La4  1  0.63078783  0.22690281  0.40721653  1
  La3+  La5  1  0.36434952  0.22499376  0.41002971  1
  Ce3+  Ce6  1  0.75142119  0.11258611  0.55719481  1
  Ce3+  Ce7  1  0.35916440  -0.01120881  0.93499512  1
  Ce3+  Ce8  1  0.74963369  0.36397552  0.55643195  1
  Ce3+  Ce9  1  0.47998059  0.61206625  0.05560729  1
  Ce3+  Ce10  1  0.10832870  -0.01257410  0.93766809  1
  Ce3+  Ce11  1  0.50343553  0.85863586  0.55874084  1
  Pr3+  Pr12  1  0.36331057  0.73795758  0.93014247  1
  Pr3+  Pr13  1  -0.01619900  0.35886640  0.05551930  1
  Pr3+  Pr14  1  0.48041959  0.86548492  0.06769122  1
  Pr3+  Pr15  1  -0.00095692  0.11032353  0.56583160  1
  Pr3+  Pr16  1  -0.02026055  0.61089076  0.05886835  1
  Pr3+  Pr17  1  -0.00131534  0.36343282  0.56868978  1
  Pr3+  Pr18  1  0.24361412  0.10673979  0.58345919  1
  Pr3+  Pr19  1  0.62584187  0.48331252  0.43437991  1
  Pr3+  Pr20  1  0.49959255  0.35688880  0.55265884  1
  Pr3+  Pr21  1  0.84780997  0.73739309  0.92788614  1
  Pr3+  Pr22  1  0.88040267  0.24193176  0.42964476  1
  Pr3+  Pr23  1  0.10848978  0.22926460  0.92070670  1
  Pr3+  Pr24  1  0.36105693  0.23249359  0.93320277  1
  Pr3+  Pr25  1  0.23845037  0.35849335  0.05710819  1
  Pr3+  Pr26  1  0.87516371  0.73275668  0.42912382  1
  Pr3+  Pr27  1  0.37546708  -0.01220716  0.44427101  1
  Pr3+  Pr28  1  0.37614766  0.48061192  0.43870157  1
  Pr3+  Pr29  1  0.22802975  0.10767369  0.06722842  1
  Pr3+  Pr30  1  0.85792790  0.22672276  0.93124945  1
  Nd3+  Nd31  1  0.50028427  0.11297335  0.56289450  1
  Nd3+  Nd32  1  0.73186372  0.36118061  0.05678915  1
  Nd3+  Nd33  1  0.85731924  0.48490074  0.93808296  1
  Nd3+  Nd34  1  0.35890235  0.48038273  0.93207955  1
  Nd3+  Nd35  1  0.62659078  0.73458105  0.44571600  1
  Nd3+  Nd36  1  0.62312899  -0.01235573  0.44060249  1
  Nd3+  Nd37  1  0.73144612  0.86164196  0.06135625  1
  Nd3+  Nd38  1  0.25170078  0.86113998  0.56669045  1
  Nd3+  Nd39  1  0.72750405  0.60866899  0.05802445  1
  Nd3+  Nd40  1  0.37430513  0.73674092  0.44053232  1
  Nd3+  Nd41  1  0.47351381  0.11316611  0.07326185  1
  Nd3+  Nd42  1  0.12647271  -0.01244082  0.44427437  1
  Nd3+  Nd43  1  0.75218909  0.85891248  0.55702238  1
  Nd3+  Nd44  1  0.25215605  0.61079159  0.55713876  1
  Nd3+  Nd45  1  -0.01611743  0.11156492  0.06433022  1
  Nd3+  Nd46  1  0.23178586  0.86063471  0.05526432  1
  Nd3+  Nd47  1  0.10684514  0.48460292  0.94298980  1
  Nd3+  Nd48  1  0.60716515  0.48335577  0.93381359  1
  Nd3+  Nd49  1  0.10679892  0.73503581  0.93546101  1
  Nd3+  Nd50  1  -0.02081926  0.85917341  0.05108950  1
  Sm3+  Sm51  1  -0.00345601  0.85706218  0.55555360  1
  Sm3+  Sm52  1  0.12894946  0.23473354  0.44855410  1
  Sm3+  Sm53  1  -0.00039555  0.61118549  0.56248703  1
  Sm3+  Sm54  1  0.23613726  0.61157341  0.04805107  1
  Sm3+  Sm55  1  0.60524688  0.73855743  0.93855388  1
  Sm3+  Sm56  1  0.72931322  0.11535594  0.06182587  1
  Sm3+  Sm57  1  0.12713473  0.73561847  0.45016891  1
  Sm3+  Sm58  1  0.50139294  0.60816736  0.55346517  1
  Sm3+  Sm59  1  0.60488813  0.23591568  0.94586327  1
  Sm3+  Sm60  1  0.85569166  -0.01094161  0.94655127  1
  Sm3+  Sm61  1  0.12876404  0.48372248  0.45011456  1
  Sm3+  Sm62  1  0.25345073  0.35826379  0.56476505  1
  Sm3+  Sm63  1  0.60441935  -0.01153207  0.94594276  1
  Bi2+  Bi64  1  0.00265574  0.14376009  0.29825313  1
  Bi2+  Bi65  1  -0.01734983  0.13654802  0.79817285  1
  Bi2+  Bi66  1  0.02399421  0.35050138  0.28432420  1
  Bi2+  Bi67  1  0.01326552  0.38194564  0.79976143  1
  Bi2+  Bi68  1  -0.00085648  0.66889296  0.28798168  1
  Bi2+  Bi69  1  0.02617236  0.62340760  0.79681377  1
  Bi2+  Bi70  1  0.02951708  0.86336114  0.30476469  1
  Bi2+  Bi71  1  -0.04478393  0.93755780  0.76678923  1
  Bi2+  Bi72  1  0.19143839  0.12163874  0.27909248  1
  Bi2+  Bi73  1  0.24820216  0.09324873  0.78099925  1
  Bi2+  Bi74  1  0.23880718  0.38362247  0.30183906  1
  Bi2+  Bi75  1  0.26516333  0.51543885  0.78123729  1
  Bi2+  Bi76  1  0.24327388  0.65292536  0.28793370  1
  Bi2+  Bi77  1  0.27734730  0.70625861  0.80898897  1
  Bi2+  Bi78  1  0.35990137  0.87269429  0.29253669  1
  Bi2+  Bi79  1  0.27678057  0.90766292  0.80856336  1
  Bi2+  Bi80  1  0.48873164  0.09239290  0.29245348  1
  Bi2+  Bi81  1  0.49161133  0.17703108  0.81077479  1
  Bi2+  Bi82  1  0.50851508  0.41280713  0.30359551  1
  Bi2+  Bi83  1  0.50975811  0.40046341  0.80886107  1
  Bi2+  Bi84  1  0.47270804  0.64341971  0.26146022  1
  Bi2+  Bi85  1  0.46544650  0.72985348  0.76132406  1
  Bi2+  Bi86  1  0.55166747  0.89685760  0.30979331  1
  Bi2+  Bi87  1  0.47714357  0.91132666  0.81368880  1
  Bi2+  Bi88  1  0.78788445  0.04099991  0.25058374  1
  Bi2+  Bi89  1  0.73279676  0.07675613  0.78907344  1
  Bi2+  Bi90  1  0.76701715  0.36622439  0.29954071  1
  Bi2+  Bi91  1  0.75927764  0.42878471  0.77952806  1
  Bi2+  Bi92  1  0.76283745  0.69991044  0.29137335  1
  Bi2+  Bi93  1  0.75126640  0.64594549  0.79325440  1
  Bi2+  Bi94  1  0.83461841  0.87569082  0.31862372  1
  Bi2+  Bi95  1  0.76617738  0.88678184  0.78732365  1
  Bi2+  Bi96  1  0.13099337  -0.05830148  0.21929900  1
  Bi2+  Bi97  1  0.12458170  -0.01571687  0.71430551  1
  Bi2+  Bi98  1  0.13531922  0.25947140  0.20445227  1
  Bi2+  Bi99  1  0.14281357  0.25367309  0.70858697  1
  Bi2+  Bi100  1  0.11621909  0.52052958  0.24784535  1
  Bi2+  Bi101  1  0.12559880  0.56015243  0.69825808  1
  Bi2+  Bi102  1  0.22957820  0.76890420  0.19889678  1
  Bi2+  Bi103  1  0.11106231  0.74996290  0.72164455  1
  Bi2+  Bi104  1  0.36147770  -0.00200074  0.20708534  1
  Bi2+  Bi105  1  0.38806388  -0.01883071  0.71892158  1
  Bi2+  Bi106  1  0.37386975  0.25233254  0.21190411  1
  Bi2+  Bi107  1  0.38902943  0.28725714  0.70259762  1
  Bi2+  Bi108  1  0.35288685  0.52728534  0.20267774  1
  Bi2+  Bi109  1  0.40164357  0.52571835  0.70248900  1
  Bi2+  Bi110  1  0.42277261  0.78018282  0.18454093  1
  Bi2+  Bi111  1  0.30114312  0.77895611  0.70046883  1
  Bi2+  Bi112  1  0.62969549  -0.04730903  0.21073758  1
  Bi2+  Bi113  1  0.58594466  0.06240218  0.71274696  1
  Bi2+  Bi114  1  0.64091916  0.24337941  0.20878193  1
  Bi2+  Bi115  1  0.65098846  0.26953638  0.74513345  1
  Bi2+  Bi116  1  0.64972481  0.50707995  0.19949128  1
  Bi2+  Bi117  1  0.61618668  0.51200507  0.69840664  1
  Bi2+  Bi118  1  0.61534421  0.75342717  0.21317413  1
  Bi2+  Bi119  1  0.61645898  0.84482197  0.72028339  1
  Bi2+  Bi120  1  0.95678104  0.03272054  0.19410152  1
  Bi2+  Bi121  1  0.88038361  0.09149524  0.69916554  1
  Bi2+  Bi122  1  0.93424787  0.23331323  0.20211443  1
  Bi2+  Bi123  1  0.84207326  0.28034193  0.72016228  1
  Bi2+  Bi124  1  0.90629401  0.52624076  0.20470271  1
  Bi2+  Bi125  1  0.94402703  0.48839894  0.70601963  1
  Bi2+  Bi126  1  0.88926333  0.79032738  0.21534303  1
  Bi2+  Bi127  1  0.88936411  0.78329140  0.70180588  1
  S2-  S128  1  0.09696242  0.13811529  0.13778069  1
  S2-  S129  1  0.09309497  0.11961648  0.65039921  1
  S2-  S130  1  -0.04325171  0.38941927  0.15286649  1
  S2-  S131  1  0.00328789  0.33311531  0.66802438  1
  S2-  S132  1  0.00421553  0.62514256  0.15735685  1
  S2-  S133  1  -0.08991882  0.62861244  0.64549369  1
  S2-  S134  1  -0.00658126  0.87013212  0.14931359  1
  S2-  S135  1  0.00102454  0.87934113  0.65211582  1
  S2-  S136  1  0.33245472  0.14104566  0.14715106  1
  S2-  S137  1  0.28506086  0.17418025  0.67734662  1
  S2-  S138  1  0.32306611  0.37552036  0.14643682  1
  S2-  S139  1  0.24657864  0.36779986  0.66348616  1
  S2-  S140  1  0.25686783  0.61371295  0.14548970  1
  S2-  S141  1  0.27980832  0.61634537  0.65398951  1
  S2-  S142  1  0.23324646  0.95658259  0.13773507  1
  S2-  S143  1  0.25149346  0.96250833  0.64684523  1
  S2-  S144  1  0.51377979  0.21467979  0.15250710  1
  S2-  S145  1  0.49432474  0.16943415  0.65802852  1
  S2-  S146  1  0.52728721  0.37981857  0.20812441  1
  S2-  S147  1  0.49542518  0.39717201  0.65141178  1
  S2-  S148  1  0.50357096  0.54272080  0.14310691  1
  S2-  S149  1  0.50714560  0.62421449  0.65049050  1
  S2-  S150  1  0.49428746  0.98217991  0.14416837  1
  S2-  S151  1  0.49075323  0.88109551  0.65407012  1
  S2-  S152  1  0.73502496  0.12376436  0.15929416  1
  S2-  S153  1  0.72551882  0.09674787  0.65259460  1
  S2-  S154  1  0.71659740  0.37398055  0.15602444  1
  S2-  S155  1  0.74351768  0.44858395  0.64131972  1
  S2-  S156  1  0.76539284  0.59922025  0.15469214  1
  S2-  S157  1  0.70677812  0.64566652  0.69197578  1
  S2-  S158  1  0.74510650  0.84714636  0.15933133  1
  S2-  S159  1  0.75959511  0.85827562  0.65560864  1
  S2-  S160  1  0.12105424  0.00374398  0.34621716  1
  S2-  S161  1  0.11207882  0.08171778  0.85657451  1
  S2-  S162  1  0.20648272  0.23650129  0.36049241  1
  S2-  S163  1  0.13237231  0.27949222  0.81984144  1
  S2-  S164  1  0.11978205  0.47586169  0.35310397  1
  S2-  S165  1  0.12597408  0.49278568  0.84491570  1
  S2-  S166  1  0.13015402  0.73856717  0.35269304  1
  S2-  S167  1  0.10923696  0.75989816  0.83729722  1
  S2-  S168  1  0.36720175  0.06833653  0.35603812  1
  S2-  S169  1  0.36035134  0.10390815  0.85999793  1
  S2-  S170  1  0.41281600  0.26485528  0.31377579  1
  S2-  S171  1  0.38316668  0.30880732  0.83683073  1
  S2-  S172  1  0.35394118  0.47918826  0.33952118  1
  S2-  S173  1  0.41496582  0.52306648  0.84089597  1
  S2-  S174  1  0.38160825  0.71637163  0.34265588  1
  S2-  S175  1  0.49376972  0.74896776  0.86118968  1
  S2-  S176  1  0.61783834  0.06796388  0.35229399  1
  S2-  S177  1  0.59327169  0.03281118  0.85090910  1
  S2-  S178  1  0.61190193  0.28629531  0.30975736  1
  S2-  S179  1  0.62702426  0.27184735  0.84978158  1
  S2-  S180  1  0.65569943  0.49053437  0.33478318  1
  S2-  S181  1  0.64012716  0.52401236  0.83729744  1
  S2-  S182  1  0.62586316  0.74733839  0.34681820  1
  S2-  S183  1  0.70965556  0.75836185  0.85856736  1
  S2-  S184  1  0.87957669  0.05192438  0.34257127  1
  S2-  S185  1  0.85777899  0.07704552  0.86338890  1
  S2-  S186  1  0.77866066  0.23055097  0.34834076  1
  S2-  S187  1  0.89566332  0.27082770  0.83566393  1
  S2-  S188  1  0.90480291  0.37866516  0.35788285  1
  S2-  S189  1  0.87999856  0.48795830  0.84053673  1
  S2-  S190  1  0.88101137  0.61166623  0.35520141  1
  S2-  S191  1  0.89722153  0.70508763  0.83144846  1
  S2-  S192  1  0.00273612  0.11463828  0.45749985  1
  S2-  S193  1  -0.01612308  0.10974079  0.95990529  1
  S2-  S194  1  0.00905127  0.35994755  0.46192279  1
  S2-  S195  1  -0.01683031  0.35825110  0.94881616  1
  S2-  S196  1  0.00862719  0.61140687  0.45826556  1
  S2-  S197  1  -0.01857856  0.61216755  0.95109467  1
  S2-  S198  1  0.00235702  0.85802173  0.45106551  1
  S2-  S199  1  -0.02275475  0.86203424  0.94443185  1
  S2-  S200  1  0.24784683  0.10919301  0.46589511  1
  S2-  S201  1  0.23121278  0.11015930  0.95799067  1
  S2-  S202  1  0.25209443  0.35879630  0.45968702  1
  S2-  S203  1  0.23122771  0.35952637  0.94744748  1
  S2-  S204  1  0.25085534  0.61025747  0.45186833  1
  S2-  S205  1  0.23410823  0.61074137  0.94465352  1
  S2-  S206  1  0.24998039  0.86091785  0.45761681  1
  S2-  S207  1  0.23239152  0.85976691  0.94884031  1
  S2-  S208  1  0.49990571  0.11577974  0.45649582  1
  S2-  S209  1  0.48681339  0.11186292  0.96249744  1
  S2-  S210  1  0.50000345  0.35068839  0.44399898  1
  S2-  S211  1  0.48559257  0.36097861  0.94751393  1
  S2-  S212  1  0.49902948  0.61106673  0.44808641  1
  S2-  S213  1  0.48572855  0.60881986  0.95247688  1
  S2-  S214  1  0.49994426  0.86068211  0.45232172  1
  S2-  S215  1  0.48466687  0.86563716  0.96107684  1
  S2-  S216  1  0.75198317  0.11137215  0.45377127  1
  S2-  S217  1  0.72793626  0.11136811  0.95770164  1
  S2-  S218  1  0.74783629  0.35838717  0.45250368  1
  S2-  S219  1  0.73576551  0.35811059  0.95053346  1
  S2-  S220  1  0.74654374  0.61148823  0.45215277  1
  S2-  S221  1  0.73036069  0.60929224  0.95214305  1
  S2-  S222  1  0.74889552  0.86128979  0.45108458  1
  S2-  S223  1  0.73089106  0.86914959  0.95655407  1
  S2-  S224  1  0.10187253  -0.01715360  0.04136798  1
  S2-  S225  1  0.12009219  -0.01999787  0.54828913  1
  S2-  S226  1  0.10984019  0.24009827  0.03444278  1
  S2-  S227  1  0.12681979  0.23972078  0.55206528  1
  S2-  S228  1  0.11097402  0.48765940  0.04939786  1
  S2-  S229  1  0.12689554  0.48666125  0.55493920  1
  S2-  S230  1  0.10779687  0.73468680  0.04248707  1
  S2-  S231  1  0.12479167  0.73618405  0.55562767  1
  S2-  S232  1  0.35678545  -0.01510201  0.03987183  1
  S2-  S233  1  0.37855729  -0.01441785  0.54958711  1
  S2-  S234  1  0.36275872  0.24173290  0.04026834  1
  S2-  S235  1  0.37133373  0.23425247  0.55217930  1
  S2-  S236  1  0.35845150  0.48756284  0.03863636  1
  S2-  S237  1  0.37451794  0.48572855  0.54558763  1
  S2-  S238  1  0.35675923  0.73770818  0.03903164  1
  S2-  S239  1  0.37656201  0.73533352  0.54685881  1
  S2-  S240  1  0.61205317  -0.01041054  0.04903527  1
  S2-  S241  1  0.62589360  -0.01438507  0.54704582  1
  S2-  S242  1  0.60790453  0.23993795  0.04846989  1
  S2-  S243  1  0.62758541  0.23724667  0.55109174  1
  S2-  S244  1  0.60569863  0.48160749  0.04149188  1
  S2-  S245  1  0.62306071  0.48826259  0.54128186  1
  S2-  S246  1  0.60671000  0.73794681  0.04718416  1
  S2-  S247  1  0.62915608  0.73051082  0.55232603  1
  S2-  S248  1  0.85477489  -0.01108519  0.05087081  1
  S2-  S249  1  0.87703067  -0.01629594  0.54538855  1
  S2-  S250  1  0.85696222  0.23403370  0.04509472  1
  S2-  S251  1  0.87664763  0.23806915  0.54811852  1
  S2-  S252  1  0.85593266  0.48634362  0.04425040  1
  S2-  S253  1  0.87819862  0.48860311  0.54318499  1
  S2-  S254  1  0.85287746  0.73490017  0.04150015  1
  S2-  S255  1  0.87467037  0.73405577  0.53950794  1
