# generated using pymatgen
data_La6Ce6Pr19Nd20Sm13(BiS2)64
_symmetry_space_group_name_H-M   'P 1'
_cell_length_a   16.14835932
_cell_length_b   16.13027114
_cell_length_c   27.08870814
_cell_angle_alpha   90.19486030
_cell_angle_beta   89.96122278
_cell_angle_gamma   90.12837546
_symmetry_Int_Tables_number   1
_chemical_formula_structural   La6Ce6Pr19Nd20Sm13(BiS2)64
_chemical_formula_sum   'La6 Ce6 Pr19 Nd20 Sm13 Bi64 S128'
_cell_volume   7055.93655834
_cell_formula_units_Z   1
loop_
 _symmetry_equiv_pos_site_id
 _symmetry_equiv_pos_as_xyz
  1  'x, y, z'
loop_
 _atom_type_symbol
 _atom_type_oxidation_number
  La3+  3.0
  Ce3+  3.0
  Pr3+  3.0
  Nd3+  3.0
  Sm3+  3.0
  Bi2+  2.0
  S2-  -2.0
loop_
 _atom_site_type_symbol
 _atom_site_label
 _atom_site_symmetry_multiplicity
 _atom_site_fract_x
 _atom_site_fract_y
 _atom_site_fract_z
 _atom_site_occupancy
  La3+  La0  1  0.61782807  0.25982945  0.90233975  1
  La3+  La1  1  0.75417292  0.12564041  0.60562946  1
  La3+  La2  1  0.38340473  0.50451223  0.38597073  1
  La3+  La3  1  0.25332282  0.86812187  0.57760018  1
  La3+  La4  1  0.87699538  0.00054857  0.92381605  1
  La3+  La5  1  0.62148159  -0.00987949  0.91385202  1
  Ce3+  Ce6  1  0.87656900  0.74739429  0.44607237  1
  Ce3+  Ce7  1  0.24675563  0.12462643  0.05229046  1
  Ce3+  Ce8  1  0.74728912  0.62821023  0.06921744  1
  Ce3+  Ce9  1  0.13201690  0.49765886  0.43735346  1
  Ce3+  Ce10  1  -0.00172543  0.37411508  0.05588378  1
  Ce3+  Ce11  1  0.12560313  0.25373580  0.93234247  1
  Pr3+  Pr12  1  0.62332644  0.00267221  0.43566797  1
  Pr3+  Pr13  1  0.61974703  0.74392747  0.93634372  1
  Pr3+  Pr14  1  0.74872335  0.62102452  0.55981001  1
  Pr3+  Pr15  1  0.37888256  0.24844994  0.43089311  1
  Pr3+  Pr16  1  0.00006294  0.87713803  0.56307902  1
  Pr3+  Pr17  1  0.50060966  0.61837930  0.55575271  1
  Pr3+  Pr18  1  -0.00087935  0.61993828  0.56165530  1
  Pr3+  Pr19  1  0.87017599  0.74378680  0.92816536  1
  Pr3+  Pr20  1  0.12749856  0.24338657  0.43051345  1
  Pr3+  Pr21  1  0.37081396  0.25125520  0.93599738  1
  Pr3+  Pr22  1  0.37582571  0.74628588  0.44072141  1
  Pr3+  Pr23  1  0.25082422  0.61862265  0.56929927  1
  Pr3+  Pr24  1  0.23368737  0.63626672  0.08830873  1
  Pr3+  Pr25  1  0.49868301  0.13304285  0.57471078  1
  Pr3+  Pr26  1  0.88248863  0.25425904  0.92544313  1
  Pr3+  Pr27  1  0.37249474  -0.00329738  0.93898843  1
  Pr3+  Pr28  1  0.24365915  0.36405929  0.07799855  1
  Pr3+  Pr29  1  0.61928880  0.50212516  0.93923911  1
  Pr3+  Pr30  1  0.63659866  0.48686903  0.41801940  1
  Nd3+  Nd31  1  0.62898879  0.24279183  0.43710422  1
  Nd3+  Nd32  1  0.00008852  0.36992569  0.55369754  1
  Nd3+  Nd33  1  0.74724361  0.37208091  0.05713274  1
  Nd3+  Nd34  1  0.75090959  0.37060417  0.56656542  1
  Nd3+  Nd35  1  0.50178924  0.12296482  0.05027467  1
  Nd3+  Nd36  1  -0.00419114  0.87410613  0.05406528  1
  Nd3+  Nd37  1  0.50008508  0.87587733  0.06246353  1
  Nd3+  Nd38  1  -0.00336704  0.12363387  0.05519804  1
  Nd3+  Nd39  1  0.12969569  -0.00223046  0.45043482  1
  Nd3+  Nd40  1  0.74663169  0.12469788  0.04677984  1
  Nd3+  Nd41  1  0.37124382  0.50040663  0.95847718  1
  Nd3+  Nd42  1  0.37073187  0.74580801  0.95190088  1
  Nd3+  Nd43  1  0.86968928  0.49972527  0.94772188  1
  Nd3+  Nd44  1  0.50466683  0.87968448  0.56460043  1
  Nd3+  Nd45  1  0.00268735  0.12530993  0.56211646  1
  Nd3+  Nd46  1  0.25180712  0.13519188  0.57843700  1
  Nd3+  Nd47  1  0.49976832  0.37091826  0.06581823  1
  Nd3+  Nd48  1  0.62388736  0.74473232  0.43938965  1
  Nd3+  Nd49  1  0.12224756  0.74709681  0.92462397  1
  Nd3+  Nd50  1  0.74911286  0.87904191  0.55633568  1
  Sm3+  Sm51  1  0.87612688  -0.00086744  0.44196626  1
  Sm3+  Sm52  1  0.74817468  0.87459689  0.04856488  1
  Sm3+  Sm53  1  0.24550731  0.87558843  0.06490824  1
  Sm3+  Sm54  1  0.12156811  -0.00803659  0.93227719  1
  Sm3+  Sm55  1  0.87617280  0.49648017  0.43869442  1
  Sm3+  Sm56  1  0.50191314  0.37182343  0.55000332  1
  Sm3+  Sm57  1  0.50292143  0.62636788  0.07832868  1
  Sm3+  Sm58  1  0.12793562  0.50596891  0.94467138  1
  Sm3+  Sm59  1  -0.00205510  0.62687157  0.05585591  1
  Sm3+  Sm60  1  0.25232865  0.37357751  0.55273014  1
  Sm3+  Sm61  1  0.87557665  0.24535469  0.44223203  1
  Sm3+  Sm62  1  0.37615139  -0.00130840  0.45085966  1
  Sm3+  Sm63  1  0.12849378  0.74734269  0.44673651  1
  Bi2+  Bi64  1  0.00286307  0.09694246  0.28946912  1
  Bi2+  Bi65  1  0.00486844  0.14322005  0.78368284  1
  Bi2+  Bi66  1  -0.00782749  0.39096511  0.28787016  1
  Bi2+  Bi67  1  0.11025102  0.38322712  0.77263594  1
  Bi2+  Bi68  1  -0.00538436  0.66168161  0.28388281  1
  Bi2+  Bi69  1  0.01999821  0.55481250  0.79150823  1
  Bi2+  Bi70  1  -0.08366125  0.84470142  0.27745688  1
  Bi2+  Bi71  1  0.02228805  0.87574363  0.79080217  1
  Bi2+  Bi72  1  0.25675660  0.10907818  0.29257812  1
  Bi2+  Bi73  1  0.22609012  0.12826380  0.78131913  1
  Bi2+  Bi74  1  0.24552382  0.36729614  0.28666054  1
  Bi2+  Bi75  1  0.26436992  0.30601800  0.82277166  1
  Bi2+  Bi76  1  0.24403112  0.64006626  0.28694231  1
  Bi2+  Bi77  1  0.26482597  0.57074858  0.79314840  1
  Bi2+  Bi78  1  0.22094596  0.89421537  0.29645553  1
  Bi2+  Bi79  1  0.24560063  0.82217643  0.77506380  1
  Bi2+  Bi80  1  0.50166161  0.11455562  0.29080565  1
  Bi2+  Bi81  1  0.48649879  0.13794131  0.79384025  1
  Bi2+  Bi82  1  0.52785763  0.37575566  0.27987697  1
  Bi2+  Bi83  1  0.50841297  0.45517653  0.78245633  1
  Bi2+  Bi84  1  0.49815728  0.64476823  0.27467322  1
  Bi2+  Bi85  1  0.53491563  0.62731674  0.83349128  1
  Bi2+  Bi86  1  0.51067817  0.89240470  0.29849989  1
  Bi2+  Bi87  1  0.45924084  0.84934733  0.79485015  1
  Bi2+  Bi88  1  0.74173782  0.08718788  0.27768092  1
  Bi2+  Bi89  1  0.76913731  0.12363851  0.80886635  1
  Bi2+  Bi90  1  0.77461457  0.36214819  0.29016392  1
  Bi2+  Bi91  1  0.77215441  0.43208804  0.78558482  1
  Bi2+  Bi92  1  0.75167179  0.62750665  0.28537795  1
  Bi2+  Bi93  1  0.73509832  0.63529844  0.83425186  1
  Bi2+  Bi94  1  0.71054444  0.89810883  0.29224464  1
  Bi2+  Bi95  1  0.74366038  0.81494744  0.79070402  1
  Bi2+  Bi96  1  0.12438194  -0.01404694  0.20646418  1
  Bi2+  Bi97  1  0.10960544  0.01251132  0.71068999  1
  Bi2+  Bi98  1  0.12826889  0.18289949  0.21282860  1
  Bi2+  Bi99  1  0.10776206  0.20658212  0.68917565  1
  Bi2+  Bi100  1  0.09893287  0.49467981  0.20111470  1
  Bi2+  Bi101  1  0.17766940  0.49922232  0.68511460  1
  Bi2+  Bi102  1  0.10086356  0.77264877  0.21043643  1
  Bi2+  Bi103  1  0.14127598  0.68677996  0.71833972  1
  Bi2+  Bi104  1  0.31994036  0.00507492  0.19472256  1
  Bi2+  Bi105  1  0.38344288  0.00065283  0.71700372  1
  Bi2+  Bi106  1  0.37508516  0.19470761  0.21536487  1
  Bi2+  Bi107  1  0.34009884  0.25587463  0.71946429  1
  Bi2+  Bi108  1  0.38144223  0.48946518  0.18186303  1
  Bi2+  Bi109  1  0.36620751  0.48721830  0.70586691  1
  Bi2+  Bi110  1  0.36403166  0.82768023  0.22555075  1
  Bi2+  Bi111  1  0.38512567  0.68493494  0.72011112  1
  Bi2+  Bi112  1  0.58920932  0.00466572  0.20916203  1
  Bi2+  Bi113  1  0.62411433  -0.02390706  0.71184320  1
  Bi2+  Bi114  1  0.63708563  0.24291392  0.18557000  1
  Bi2+  Bi115  1  0.60318221  0.28061099  0.70027541  1
  Bi2+  Bi116  1  0.67564418  0.49629788  0.21196560  1
  Bi2+  Bi117  1  0.65002395  0.49051539  0.70170337  1
  Bi2+  Bi118  1  0.67006800  0.78028587  0.19973824  1
  Bi2+  Bi119  1  0.61801875  0.68299528  0.73313869  1
  Bi2+  Bi120  1  0.86356355  -0.00977612  0.20468511  1
  Bi2+  Bi121  1  0.87443415  -0.03647843  0.70127547  1
  Bi2+  Bi122  1  0.93738791  0.24165951  0.21930133  1
  Bi2+  Bi123  1  0.90952649  0.26702922  0.70802238  1
  Bi2+  Bi124  1  0.88468916  0.51814068  0.22075497  1
  Bi2+  Bi125  1  0.88759362  0.52425160  0.70331358  1
  Bi2+  Bi126  1  0.85462706  0.70900559  0.19405880  1
  Bi2+  Bi127  1  0.89385072  0.70605738  0.75130651  1
  S2-  S128  1  -0.04459743  0.11418943  0.15222591  1
  S2-  S129  1  -0.07922511  0.11171662  0.64973908  1
  S2-  S130  1  0.01388095  0.36005574  0.15190141  1
  S2-  S131  1  -0.03104239  0.38680578  0.65206913  1
  S2-  S132  1  0.06738036  0.63789905  0.14446672  1
  S2-  S133  1  -0.01139841  0.65205556  0.66111804  1
  S2-  S134  1  0.00854830  0.88197481  0.15354220  1
  S2-  S135  1  0.02161301  0.88392385  0.66329587  1
  S2-  S136  1  0.24978749  0.21019722  0.13712986  1
  S2-  S137  1  0.37530821  0.12485382  0.65113747  1
  S2-  S138  1  0.23357386  0.39451297  0.18139993  1
  S2-  S139  1  0.23693551  0.28473737  0.63669870  1
  S2-  S140  1  0.24260844  0.58959286  0.18911467  1
  S2-  S141  1  0.26204219  0.73005509  0.64706731  1
  S2-  S142  1  0.24341220  0.78785691  0.14927616  1
  S2-  S143  1  0.25396523  0.94333469  0.67035983  1
  S2-  S144  1  0.50377436  0.13798287  0.15013735  1
  S2-  S145  1  0.59898171  0.11854389  0.65746313  1
  S2-  S146  1  0.51076320  0.36842751  0.16819791  1
  S2-  S147  1  0.48324194  0.31594445  0.64357444  1
  S2-  S148  1  0.44353063  0.64269814  0.17177084  1
  S2-  S149  1  0.50829774  0.63531425  0.65671548  1
  S2-  S150  1  0.52049229  0.86349286  0.16127696  1
  S2-  S151  1  0.49493581  0.89243585  0.66482551  1
  S2-  S152  1  0.73111149  0.13215206  0.14674513  1
  S2-  S153  1  0.76219212  0.07913865  0.71154197  1
  S2-  S154  1  0.74602583  0.35833282  0.15768707  1
  S2-  S155  1  0.76216904  0.28555793  0.65441519  1
  S2-  S156  1  0.64017200  0.62328408  0.14595449  1
  S2-  S157  1  0.74996865  0.61493894  0.66024778  1
  S2-  S158  1  0.76424464  0.89322296  0.14652310  1
  S2-  S159  1  0.74611605  0.88584644  0.65659404  1
  S2-  S160  1  0.13059945  0.02649446  0.35228986  1
  S2-  S161  1  0.01104125  0.01465955  0.85386786  1
  S2-  S162  1  0.12438719  0.29898403  0.33398981  1
  S2-  S163  1  0.03008773  0.26780662  0.85129055  1
  S2-  S164  1  0.21080822  0.50680110  0.34960504  1
  S2-  S165  1  0.14592324  0.60680391  0.86418467  1
  S2-  S166  1  0.15873291  0.75916812  0.34947517  1
  S2-  S167  1  0.15661803  0.87648103  0.85576924  1
  S2-  S168  1  0.41615240  0.00126682  0.35409262  1
  S2-  S169  1  0.39980135  -0.00099850  0.83863841  1
  S2-  S170  1  0.38917353  0.33604858  0.34158830  1
  S2-  S171  1  0.45893224  0.26752415  0.84991958  1
  S2-  S172  1  0.37248090  0.51867886  0.27693218  1
  S2-  S173  1  0.39456470  0.52234271  0.86025706  1
  S2-  S174  1  0.37635007  0.67726389  0.34815807  1
  S2-  S175  1  0.34839709  0.76599790  0.85184963  1
  S2-  S176  1  0.63095254  0.11983965  0.35870940  1
  S2-  S177  1  0.61524375  0.03519839  0.81389543  1
  S2-  S178  1  0.63214444  0.33747094  0.35006031  1
  S2-  S179  1  0.63964928  0.22430016  0.79905443  1
  S2-  S180  1  0.54131141  0.52024789  0.33482433  1
  S2-  S181  1  0.63009019  0.41589715  0.85130229  1
  S2-  S182  1  0.58935582  0.74448897  0.34136574  1
  S2-  S183  1  0.59539107  0.84220882  0.85192997  1
  S2-  S184  1  0.87559540  0.03540433  0.34494574  1
  S2-  S185  1  0.80773865  -0.04721266  0.83340660  1
  S2-  S186  1  0.87809706  0.27792560  0.34442618  1
  S2-  S187  1  0.82622128  0.27862385  0.82970405  1
  S2-  S188  1  0.78225453  0.49856575  0.35587860  1
  S2-  S189  1  0.88871421  0.50007565  0.84810612  1
  S2-  S190  1  0.86589093  0.72406272  0.34941066  1
  S2-  S191  1  0.97576625  0.75058402  0.84505060  1
  S2-  S192  1  0.00077032  0.12186393  0.45418455  1
  S2-  S193  1  0.00259494  0.12729257  0.95124101  1
  S2-  S194  1  0.00070928  0.37331386  0.44706221  1
  S2-  S195  1  0.00215071  0.38386454  0.95115836  1
  S2-  S196  1  0.00228519  0.62139286  0.45215266  1
  S2-  S197  1  -0.00332909  0.62243875  0.95363530  1
  S2-  S198  1  0.00284751  0.87359955  0.45325572  1
  S2-  S199  1  -0.00443460  0.86928175  0.94988922  1
  S2-  S200  1  0.25457274  0.12294805  0.45660338  1
  S2-  S201  1  0.24467616  0.12057703  0.94508130  1
  S2-  S202  1  0.25199282  0.37037113  0.44944084  1
  S2-  S203  1  0.24606975  0.37777335  0.96320823  1
  S2-  S204  1  0.24959807  0.62539496  0.46119573  1
  S2-  S205  1  0.24927618  0.62500369  0.97090905  1
  S2-  S206  1  0.25239790  0.87249460  0.46200535  1
  S2-  S207  1  0.24880463  0.87329882  0.96128948  1
  S2-  S208  1  0.49720137  0.12351392  0.46057227  1
  S2-  S209  1  0.50181392  0.12217843  0.94418221  1
  S2-  S210  1  0.50172987  0.37586305  0.44781580  1
  S2-  S211  1  0.49626483  0.37565869  0.95889189  1
  S2-  S212  1  0.50184292  0.61737077  0.44993227  1
  S2-  S213  1  0.49584309  0.62409819  0.96998874  1
  S2-  S214  1  0.50171933  0.87407444  0.45636135  1
  S2-  S215  1  0.49423100  0.87248100  0.95632694  1
  S2-  S216  1  0.75803139  0.12192098  0.45349311  1
  S2-  S217  1  0.74476558  0.12799062  0.93805642  1
  S2-  S218  1  0.75738969  0.36956174  0.45893423  1
  S2-  S219  1  0.74850375  0.37210880  0.95105118  1
  S2-  S220  1  0.74977669  0.62268397  0.45363224  1
  S2-  S221  1  0.74723690  0.62330274  0.96225401  1
  S2-  S222  1  0.74979687  0.87452455  0.44876154  1
  S2-  S223  1  0.74796410  0.86895136  0.94582932  1
  S2-  S224  1  0.12257773  -0.00199635  0.04368889  1
  S2-  S225  1  0.13094996  0.00347771  0.55650846  1
  S2-  S226  1  0.11962411  0.24819223  0.04068358  1
  S2-  S227  1  0.12419127  0.24849714  0.53768193  1
  S2-  S228  1  0.12397315  0.49948032  0.05022037  1
  S2-  S229  1  0.12473331  0.49487488  0.54489482  1
  S2-  S230  1  0.11983591  0.75362824  0.03957397  1
  S2-  S231  1  0.12165923  0.74727156  0.55155694  1
  S2-  S232  1  0.37241145  -0.00159412  0.04842703  1
  S2-  S233  1  0.37477976  -0.00131597  0.55298794  1
  S2-  S234  1  0.37681193  0.24779438  0.04285109  1
  S2-  S235  1  0.37458185  0.25137015  0.53791852  1
  S2-  S236  1  0.36984879  0.49777929  0.06467267  1
  S2-  S237  1  0.37585986  0.49316071  0.55511859  1
  S2-  S238  1  0.37616584  0.75008933  0.05699355  1
  S2-  S239  1  0.38295769  0.74963408  0.54805531  1
  S2-  S240  1  0.62506974  -0.00290451  0.03709319  1
  S2-  S241  1  0.62768003  0.00375462  0.54597094  1
  S2-  S242  1  0.62271448  0.24980739  0.04317106  1
  S2-  S243  1  0.62865502  0.24893970  0.54484329  1
  S2-  S244  1  0.62182491  0.49599075  0.04822173  1
  S2-  S245  1  0.62743182  0.49315541  0.54576358  1
  S2-  S246  1  0.62314336  0.75268694  0.04529384  1
  S2-  S247  1  0.62585168  0.74969042  0.54804779  1
  S2-  S248  1  0.87120989  -0.00060030  0.03586337  1
  S2-  S249  1  0.87414171  0.00070154  0.54712836  1
  S2-  S250  1  0.87304599  0.24869191  0.03908450  1
  S2-  S251  1  0.87601081  0.24556240  0.54667890  1
  S2-  S252  1  0.87335858  0.50120536  0.05519317  1
  S2-  S253  1  0.87445442  0.49548253  0.54429819  1
  S2-  S254  1  0.87255976  0.74907393  0.04213545  1
  S2-  S255  1  0.87402289  0.74981325  0.55300911  1
