# generated using pymatgen
data_La6Ce6Pr19Nd20Sm13(BiS2)64
_symmetry_space_group_name_H-M   'P 1'
_cell_length_a   16.10783292
_cell_length_b   16.01897183
_cell_length_c   27.59025782
_cell_angle_alpha   89.78356354
_cell_angle_beta   90.40518265
_cell_angle_gamma   89.91675767
_symmetry_Int_Tables_number   1
_chemical_formula_structural   La6Ce6Pr19Nd20Sm13(BiS2)64
_chemical_formula_sum   'La6 Ce6 Pr19 Nd20 Sm13 Bi64 S128'
_cell_volume   7118.90305678
_cell_formula_units_Z   1
loop_
 _symmetry_equiv_pos_site_id
 _symmetry_equiv_pos_as_xyz
  1  'x, y, z'
loop_
 _atom_type_symbol
 _atom_type_oxidation_number
  La3+  3.0
  Ce3+  3.0
  Pr3+  3.0
  Nd3+  3.0
  Sm3+  3.0
  Bi2+  2.0
  S2-  -2.0
loop_
 _atom_site_type_symbol
 _atom_site_label
 _atom_site_symmetry_multiplicity
 _atom_site_fract_x
 _atom_site_fract_y
 _atom_site_fract_z
 _atom_site_occupancy
  La3+  La0  1  0.49213397  0.36184716  0.05395372  1
  La3+  La1  1  0.23722531  0.86707132  0.06216023  1
  La3+  La2  1  0.69693488  0.11286241  0.12094394  1
  La3+  La3  1  0.89932844  -0.00163357  0.39760470  1
  La3+  La4  1  0.48700429  0.87003421  0.07040257  1
  La3+  La5  1  0.36262370  0.24525600  0.88781881  1
  Ce3+  Ce6  1  0.13115987  0.75687344  0.44732946  1
  Ce3+  Ce7  1  0.61690579  0.24068931  0.92869285  1
  Ce3+  Ce8  1  0.10910666  0.24229120  0.93125636  1
  Ce3+  Ce9  1  0.23677510  0.11706822  0.04726741  1
  Ce3+  Ce10  1  0.12891027  0.00437104  0.45076875  1
  Ce3+  Ce11  1  0.76091815  0.87749793  0.54759825  1
  Pr3+  Pr12  1  0.11375598  0.73981540  0.93535875  1
  Pr3+  Pr13  1  0.26571922  0.63001449  0.56361034  1
  Pr3+  Pr14  1  0.26696302  0.87733065  0.56961790  1
  Pr3+  Pr15  1  0.00741364  0.38183205  0.57019335  1
  Pr3+  Pr16  1  -0.01438335  0.11233642  0.08082236  1
  Pr3+  Pr17  1  0.86634224  0.23951210  0.94681659  1
  Pr3+  Pr18  1  0.61389327  0.74520134  0.93165765  1
  Pr3+  Pr19  1  0.13313306  0.50531639  0.44704531  1
  Pr3+  Pr20  1  0.38555995  0.00984780  0.43429605  1
  Pr3+  Pr21  1  0.50855585  0.13110404  0.56927433  1
  Pr3+  Pr22  1  0.25996870  0.12788147  0.56410008  1
  Pr3+  Pr23  1  0.38180451  0.25468771  0.43748407  1
  Pr3+  Pr24  1  0.88403470  0.75124524  0.43377810  1
  Pr3+  Pr25  1  0.63128862  0.75226030  0.43119677  1
  Pr3+  Pr26  1  0.73518248  0.61890044  0.06790563  1
  Pr3+  Pr27  1  -0.00799212  0.36136949  0.07360378  1
  Pr3+  Pr28  1  -0.00251588  0.13270068  0.57741397  1
  Pr3+  Pr29  1  0.61705786  0.49101890  0.92780205  1
  Pr3+  Pr30  1  0.12748265  0.25234392  0.44137147  1
  Nd3+  Nd31  1  0.24177223  0.61549175  0.06550392  1
  Nd3+  Nd32  1  0.63158166  0.00047508  0.43635005  1
  Nd3+  Nd33  1  0.74044348  0.36131460  0.06473812  1
  Nd3+  Nd34  1  0.75814467  0.62770561  0.55346193  1
  Nd3+  Nd35  1  0.26005561  0.37674392  0.56254550  1
  Nd3+  Nd36  1  0.63086329  0.50248784  0.43573356  1
  Nd3+  Nd37  1  0.24033600  0.36231281  0.05606043  1
  Nd3+  Nd38  1  0.10734418  -0.01192648  0.92922559  1
  Nd3+  Nd39  1  0.76149600  0.12383306  0.55224492  1
  Nd3+  Nd40  1  0.86254983  0.74377907  0.94417097  1
  Nd3+  Nd41  1  0.50912090  0.62893346  0.54841633  1
  Nd3+  Nd42  1  0.00735489  0.63128016  0.57193549  1
  Nd3+  Nd43  1  0.36435645  0.76567319  0.41200429  1
  Nd3+  Nd44  1  0.36166734  -0.01036280  0.92796325  1
  Nd3+  Nd45  1  0.88292469  0.25230137  0.42900444  1
  Nd3+  Nd46  1  0.36372475  0.74669130  0.93494838  1
  Nd3+  Nd47  1  0.76174182  0.37717634  0.55638146  1
  Nd3+  Nd48  1  0.63290857  0.25139786  0.44074932  1
  Nd3+  Nd49  1  0.88597391  0.49972616  0.43363393  1
  Nd3+  Nd50  1  0.11299182  0.49108883  0.94938946  1
  Sm3+  Sm51  1  0.36067109  0.48910746  0.93849890  1
  Sm3+  Sm52  1  0.86382465  0.49180236  0.95174680  1
  Sm3+  Sm53  1  0.86337485  -0.00778902  0.95466016  1
  Sm3+  Sm54  1  0.00930582  0.88380482  0.56901289  1
  Sm3+  Sm55  1  0.48789393  0.11562195  0.04248349  1
  Sm3+  Sm56  1  0.48972882  0.61751238  0.04989640  1
  Sm3+  Sm57  1  0.51139304  0.37520186  0.55527116  1
  Sm3+  Sm58  1  -0.01004899  0.61998120  0.06660533  1
  Sm3+  Sm59  1  0.73770853  0.86507546  0.06767134  1
  Sm3+  Sm60  1  0.38116869  0.50428291  0.44440908  1
  Sm3+  Sm61  1  0.50574443  0.87590218  0.55298771  1
  Sm3+  Sm62  1  0.61434544  -0.00450751  0.93520923  1
  Sm3+  Sm63  1  -0.00995333  0.86440038  0.06896802  1
  Bi2+  Bi64  1  0.01172856  0.12066754  0.28572319  1
  Bi2+  Bi65  1  -0.06165537  0.12362299  0.80073897  1
  Bi2+  Bi66  1  0.01242972  0.37866333  0.29116954  1
  Bi2+  Bi67  1  -0.04234128  0.39583325  0.80237124  1
  Bi2+  Bi68  1  0.06334224  0.63833058  0.30441144  1
  Bi2+  Bi69  1  0.00991524  0.70554317  0.81365772  1
  Bi2+  Bi70  1  0.01516957  0.82305734  0.26100262  1
  Bi2+  Bi71  1  -0.05584121  0.86378482  0.75450639  1
  Bi2+  Bi72  1  0.28123444  0.11188198  0.24976972  1
  Bi2+  Bi73  1  0.21823857  0.12888057  0.78023215  1
  Bi2+  Bi74  1  0.31163038  0.35007577  0.29798589  1
  Bi2+  Bi75  1  0.24595844  0.39070613  0.78106120  1
  Bi2+  Bi76  1  0.24602996  0.54793794  0.28372655  1
  Bi2+  Bi77  1  0.26077131  0.64137737  0.83819309  1
  Bi2+  Bi78  1  0.26581918  0.81646725  0.27851189  1
  Bi2+  Bi79  1  0.22792152  0.81725395  0.79425627  1
  Bi2+  Bi80  1  0.49680840  0.15148788  0.23711702  1
  Bi2+  Bi81  1  0.49529978  0.08847843  0.78536596  1
  Bi2+  Bi82  1  0.49716280  0.29968841  0.31274975  1
  Bi2+  Bi83  1  0.54065229  0.44072521  0.77104621  1
  Bi2+  Bi84  1  0.51590262  0.53236962  0.27281591  1
  Bi2+  Bi85  1  0.43834429  0.61865501  0.78930061  1
  Bi2+  Bi86  1  0.49065451  0.88786495  0.30806922  1
  Bi2+  Bi87  1  0.48962889  0.82661912  0.78731122  1
  Bi2+  Bi88  1  0.70626830  0.12128119  0.31916309  1
  Bi2+  Bi89  1  0.75568213  0.20561609  0.79224166  1
  Bi2+  Bi90  1  0.75504060  0.45245990  0.29656934  1
  Bi2+  Bi91  1  0.74129436  0.41114214  0.78671311  1
  Bi2+  Bi92  1  0.87092922  0.60779094  0.31815902  1
  Bi2+  Bi93  1  0.70284970  0.68199130  0.78296420  1
  Bi2+  Bi94  1  0.79331614  0.78882467  0.29904358  1
  Bi2+  Bi95  1  0.76672149  0.88862429  0.81543916  1
  Bi2+  Bi96  1  0.14274694  -0.02555344  0.26158722  1
  Bi2+  Bi97  1  0.09722353  -0.01989666  0.73342535  1
  Bi2+  Bi98  1  0.12692167  0.25631755  0.23646227  1
  Bi2+  Bi99  1  0.05013860  0.25427393  0.74153444  1
  Bi2+  Bi100  1  0.10948568  0.56662309  0.19941122  1
  Bi2+  Bi101  1  0.12660624  0.55407408  0.76908720  1
  Bi2+  Bi102  1  0.15506121  0.75793900  0.18763411  1
  Bi2+  Bi103  1  0.11606558  0.73014313  0.71172256  1
  Bi2+  Bi104  1  0.41700183  -0.01112027  0.19819751  1
  Bi2+  Bi105  1  0.33538979  -0.01375375  0.69570260  1
  Bi2+  Bi106  1  0.34159687  0.25219999  0.17451641  1
  Bi2+  Bi107  1  0.38070966  0.23836954  0.69434201  1
  Bi2+  Bi108  1  0.36821862  0.46315839  0.20724108  1
  Bi2+  Bi109  1  0.35472000  0.49705033  0.70905922  1
  Bi2+  Bi110  1  0.42424113  0.73945407  0.19458419  1
  Bi2+  Bi111  1  0.38093768  0.73518183  0.70252219  1
  Bi2+  Bi112  1  0.66064047  -0.06982255  0.23590075  1
  Bi2+  Bi113  1  0.67664805  0.03008072  0.75072337  1
  Bi2+  Bi114  1  0.61126450  0.37776344  0.22395977  1
  Bi2+  Bi115  1  0.63300399  0.28728089  0.71428523  1
  Bi2+  Bi116  1  0.74937901  0.50383284  0.18078337  1
  Bi2+  Bi117  1  0.61441042  0.57183231  0.70315844  1
  Bi2+  Bi118  1  0.64479396  0.65499618  0.21805389  1
  Bi2+  Bi119  1  0.62614954  0.84729185  0.70982441  1
  Bi2+  Bi120  1  0.90322608  -0.02921876  0.20844826  1
  Bi2+  Bi121  1  0.85745854  0.02200461  0.70230300  1
  Bi2+  Bi122  1  0.87670162  0.27438339  0.19640816  1
  Bi2+  Bi123  1  0.87081197  0.29160208  0.69936847  1
  Bi2+  Bi124  1  0.94912372  0.45780504  0.18873950  1
  Bi2+  Bi125  1  0.92270819  0.60065266  0.70941729  1
  Bi2+  Bi126  1  0.86042440  0.68643901  0.20646879  1
  Bi2+  Bi127  1  0.80612140  0.75880405  0.69136800  1
  S2-  S128  1  -0.13530803  0.12155117  0.16068117  1
  S2-  S129  1  0.02722632  0.26435684  0.64500111  1
  S2-  S130  1  0.03036882  0.24569309  0.14949270  1
  S2-  S131  1  0.00152142  0.50946350  0.64618673  1
  S2-  S132  1  -0.00896726  0.73670053  0.13987349  1
  S2-  S133  1  0.00815427  0.75963962  0.64043937  1
  S2-  S134  1  0.02192706  0.97306062  0.14613054  1
  S2-  S135  1  0.00835317  1.00241031  0.64931031  1
  S2-  S136  1  0.25179737  0.10920686  0.14426663  1
  S2-  S137  1  0.24960796  0.13060196  0.66439641  1
  S2-  S138  1  0.23795044  0.38744147  0.15416498  1
  S2-  S139  1  0.26862578  0.37134341  0.66144751  1
  S2-  S140  1  0.29463102  0.66108150  0.15649947  1
  S2-  S141  1  0.25707647  0.62842328  0.66328058  1
  S2-  S142  1  0.34509778  0.87592462  0.14113414  1
  S2-  S143  1  0.20585352  0.90138665  0.66542468  1
  S2-  S144  1  0.51831132  0.10636771  0.13933487  1
  S2-  S145  1  0.46656201  0.09686292  0.66433704  1
  S2-  S146  1  0.48481187  0.36300712  0.15389676  1
  S2-  S147  1  0.50604413  0.32386465  0.64753866  1
  S2-  S148  1  0.51617473  0.63122309  0.14659683  1
  S2-  S149  1  0.50462471  0.65423155  0.64558826  1
  S2-  S150  1  0.54259437  0.86873857  0.17043938  1
  S2-  S151  1  0.41195063  0.87316729  0.63504711  1
  S2-  S152  1  0.66814308  0.10444775  0.22719621  1
  S2-  S153  1  0.83975454  0.14951136  0.63872451  1
  S2-  S154  1  0.71746528  0.28307333  0.15307089  1
  S2-  S155  1  0.74715442  0.37540402  0.65446533  1
  S2-  S156  1  0.73301794  0.73719402  0.14307187  1
  S2-  S157  1  0.77054148  0.59788016  0.65028093  1
  S2-  S158  1  0.74664647  0.94768068  0.15651881  1
  S2-  S159  1  0.74904350  0.91076826  0.64187815  1
  S2-  S160  1  0.07146296  0.00910159  0.35882831  1
  S2-  S161  1  0.10579918  0.06037083  0.83459193  1
  S2-  S162  1  0.10061962  0.24632289  0.34258112  1
  S2-  S163  1  0.20229345  0.25804124  0.84478612  1
  S2-  S164  1  0.11938572  0.48615693  0.34858012  1
  S2-  S165  1  0.09035190  0.46017550  0.85349917  1
  S2-  S166  1  0.20863176  0.74746978  0.36117118  1
  S2-  S167  1  0.10170728  0.85217206  0.85848361  1
  S2-  S168  1  0.34388295  -0.07461908  0.35164412  1
  S2-  S169  1  0.35308043  0.07985288  0.84086765  1
  S2-  S170  1  0.35498297  0.19524264  0.34612106  1
  S2-  S171  1  0.43648056  0.23967406  0.78914368  1
  S2-  S172  1  0.38032340  0.50036023  0.34794565  1
  S2-  S173  1  0.35535250  0.41651141  0.84999111  1
  S2-  S174  1  0.42379605  0.73947774  0.31789363  1
  S2-  S175  1  0.36563890  0.85871099  0.85645416  1
  S2-  S176  1  0.55489109  0.04106236  0.35160404  1
  S2-  S177  1  0.60913867  -0.12321870  0.86128134  1
  S2-  S178  1  0.66248188  0.28909759  0.34644670  1
  S2-  S179  1  0.61585484  0.11450205  0.85723024  1
  S2-  S180  1  0.63780840  0.55472368  0.34213219  1
  S2-  S181  1  0.61651937  0.36512335  0.85636878  1
  S2-  S182  1  0.63493468  0.79632600  0.33503515  1
  S2-  S183  1  0.62280845  0.62113414  0.85837632  1
  S2-  S184  1  0.77746835  -0.02630590  0.31926142  1
  S2-  S185  1  0.88709680  -0.01520882  0.85699372  1
  S2-  S186  1  0.87645731  0.15273128  0.34563061  1
  S2-  S187  1  0.97128199  0.25701744  0.86691797  1
  S2-  S188  1  0.88787635  0.38219937  0.35849172  1
  S2-  S189  1  0.84620243  0.48860629  0.85463897  1
  S2-  S190  1  0.93868376  0.83814763  0.35266268  1
  S2-  S191  1  0.84356187  0.73027532  0.84640865  1
  S2-  S192  1  0.00315481  0.12809118  0.45865200  1
  S2-  S193  1  -0.01049216  0.11139519  0.96174395  1
  S2-  S194  1  0.00930212  0.37976308  0.46162984  1
  S2-  S195  1  -0.01217745  0.37222067  0.96728185  1
  S2-  S196  1  0.00791962  0.62846271  0.45754468  1
  S2-  S197  1  -0.01247052  0.61647840  0.96087253  1
  S2-  S198  1  0.00715114  0.87876941  0.46380384  1
  S2-  S199  1  -0.01273047  0.86379164  0.96284926  1
  S2-  S200  1  0.25602000  0.12882173  0.45625737  1
  S2-  S201  1  0.23503688  0.11545136  0.94418551  1
  S2-  S202  1  0.25768168  0.37846418  0.45537122  1
  S2-  S203  1  0.23813999  0.36684961  0.95296505  1
  S2-  S204  1  0.26197203  0.62768076  0.45680148  1
  S2-  S205  1  0.24006909  0.61526503  0.95957448  1
  S2-  S206  1  0.25625663  0.88314366  0.46182523  1
  S2-  S207  1  0.23636024  0.86648110  0.95618010  1
  S2-  S208  1  0.50831800  0.13188721  0.46109936  1
  S2-  S209  1  0.48106527  0.12205772  0.94318341  1
  S2-  S210  1  0.50725846  0.37943957  0.45138815  1
  S2-  S211  1  0.48453915  0.36532609  0.94874919  1
  S2-  S212  1  0.50259724  0.62939018  0.44360339  1
  S2-  S213  1  0.48335805  0.61439502  0.94783741  1
  S2-  S214  1  0.50347863  0.87509502  0.44976703  1
  S2-  S215  1  0.48839020  0.86964028  0.96032870  1
  S2-  S216  1  0.75646922  0.12396998  0.44850511  1
  S2-  S217  1  0.74294701  0.11374293  0.95104141  1
  S2-  S218  1  0.75505420  0.37976457  0.45286909  1
  S2-  S219  1  0.74250488  0.36716480  0.95890271  1
  S2-  S220  1  0.75708867  0.62541716  0.44874420  1
  S2-  S221  1  0.74155509  0.61628306  0.96120524  1
  S2-  S222  1  0.76006140  0.87996668  0.44363430  1
  S2-  S223  1  0.73937233  0.86822586  0.96162274  1
  S2-  S224  1  0.11368443  -0.01013910  0.03968865  1
  S2-  S225  1  0.13513214  0.00495772  0.55330393  1
  S2-  S226  1  0.11490752  0.24170619  0.03960410  1
  S2-  S227  1  0.13587932  0.25372844  0.54658926  1
  S2-  S228  1  0.11393450  0.49343771  0.05435358  1
  S2-  S229  1  0.13925648  0.50539540  0.55175289  1
  S2-  S230  1  0.11680803  0.73762927  0.04262493  1
  S2-  S231  1  0.13844546  0.75412683  0.54994046  1
  S2-  S232  1  0.36361669  -0.00582553  0.03605223  1
  S2-  S233  1  0.38724075  0.00691562  0.54094808  1
  S2-  S234  1  0.36469642  0.23883445  0.04480494  1
  S2-  S235  1  0.38427529  0.25417794  0.54448498  1
  S2-  S236  1  0.36495245  0.49203419  0.04510310  1
  S2-  S237  1  0.38795482  0.49906185  0.54877665  1
  S2-  S238  1  0.36463084  0.73893593  0.04018255  1
  S2-  S239  1  0.38587347  0.75197787  0.53492867  1
  S2-  S240  1  0.61589663  -0.00771441  0.04473318  1
  S2-  S241  1  0.62875790  0.00238812  0.54336194  1
  S2-  S242  1  0.61717597  0.23553452  0.04101825  1
  S2-  S243  1  0.63651167  0.25150897  0.54700728  1
  S2-  S244  1  0.61483581  0.49169706  0.04314532  1
  S2-  S245  1  0.63203811  0.50054928  0.54306586  1
  S2-  S246  1  0.60983787  0.74265917  0.04003975  1
  S2-  S247  1  0.63198692  0.75394197  0.53968323  1
  S2-  S248  1  0.86465646  -0.01651209  0.05408497  1
  S2-  S249  1  0.88349865  0.00057234  0.54411513  1
  S2-  S250  1  0.86682114  0.24210573  0.05071851  1
  S2-  S251  1  0.88222596  0.25617414  0.53667863  1
  S2-  S252  1  0.86601829  0.49347599  0.05512388  1
  S2-  S253  1  0.88171526  0.50475506  0.54004155  1
  S2-  S254  1  0.86370233  0.74139468  0.04663156  1
  S2-  S255  1  0.88253086  0.75131752  0.54095897  1
