# generated using pymatgen
data_La6Ce6Pr19Nd20Sm13(BiS2)64
_symmetry_space_group_name_H-M   'P 1'
_cell_length_a   16.13931485
_cell_length_b   16.15470031
_cell_length_c   27.31868994
_cell_angle_alpha   90.02191514
_cell_angle_beta   89.84518947
_cell_angle_gamma   90.00932893
_symmetry_Int_Tables_number   1
_chemical_formula_structural   La6Ce6Pr19Nd20Sm13(BiS2)64
_chemical_formula_sum   'La6 Ce6 Pr19 Nd20 Sm13 Bi64 S128'
_cell_volume   7122.66052615
_cell_formula_units_Z   1
loop_
 _symmetry_equiv_pos_site_id
 _symmetry_equiv_pos_as_xyz
  1  'x, y, z'
loop_
 _atom_type_symbol
 _atom_type_oxidation_number
  La3+  3.0
  Ce3+  3.0
  Pr3+  3.0
  Nd3+  3.0
  Sm3+  3.0
  Bi2+  2.0
  S2-  -2.0
loop_
 _atom_site_type_symbol
 _atom_site_label
 _atom_site_symmetry_multiplicity
 _atom_site_fract_x
 _atom_site_fract_y
 _atom_site_fract_z
 _atom_site_occupancy
  La3+  La0  1  0.23410124  0.86944501  0.07589909  1
  La3+  La1  1  0.11428989  0.74968599  0.89491610  1
  La3+  La2  1  0.36753531  0.50057158  0.94659921  1
  La3+  La3  1  0.62597601  0.23829404  0.88560423  1
  La3+  La4  1  0.38393448  -0.00502826  0.41577445  1
  La3+  La5  1  0.23837748  0.12020533  0.10970650  1
  Ce3+  Ce6  1  0.11871891  0.49901949  0.44274238  1
  Ce3+  Ce7  1  0.12099991  0.24707659  0.43728882  1
  Ce3+  Ce8  1  0.24659446  0.11949879  0.54745369  1
  Ce3+  Ce9  1  0.49315940  0.62497190  0.06583990  1
  Ce3+  Ce10  1  0.86878051  -0.00030903  0.94409946  1
  Ce3+  Ce11  1  -0.00307373  0.87296770  0.05714201  1
  Pr3+  Pr12  1  0.36438672  -0.00207511  0.94738408  1
  Pr3+  Pr13  1  0.49040003  0.62701195  0.56204574  1
  Pr3+  Pr14  1  0.87235201  0.49580427  0.44757726  1
  Pr3+  Pr15  1  0.11497656  -0.00123058  0.42183989  1
  Pr3+  Pr16  1  -0.01272492  0.13158206  0.08631300  1
  Pr3+  Pr17  1  0.74768474  0.62467174  0.55936973  1
  Pr3+  Pr18  1  0.87368126  0.74634302  0.43041548  1
  Pr3+  Pr19  1  0.86756048  0.74940784  0.93809505  1
  Pr3+  Pr20  1  0.48676833  0.12114111  0.56591529  1
  Pr3+  Pr21  1  0.11796624  0.24616920  0.94420709  1
  Pr3+  Pr22  1  0.49127980  0.36795544  0.06396584  1
  Pr3+  Pr23  1  0.74156669  0.62498453  0.05658678  1
  Pr3+  Pr24  1  0.37465620  0.24760092  0.43496287  1
  Pr3+  Pr25  1  0.86903499  0.24767681  0.93491382  1
  Pr3+  Pr26  1  0.74259966  0.12099038  0.56553903  1
  Pr3+  Pr27  1  0.24460630  0.62261647  0.07368210  1
  Pr3+  Pr28  1  0.37296478  0.24624264  0.94032432  1
  Pr3+  Pr29  1  0.36219386  0.73319036  0.41589992  1
  Pr3+  Pr30  1  -0.00762052  0.37442926  0.06124888  1
  Nd3+  Nd31  1  0.49104647  0.12222465  0.06229424  1
  Nd3+  Nd32  1  0.86995206  0.00096148  0.43662521  1
  Nd3+  Nd33  1  0.61828759  -0.00315370  0.94215392  1
  Nd3+  Nd34  1  0.74237165  0.37126507  0.05838255  1
  Nd3+  Nd35  1  0.87010474  0.24852385  0.44048575  1
  Nd3+  Nd36  1  -0.00348080  0.63335528  0.57025940  1
  Nd3+  Nd37  1  0.61584771  0.49425506  0.93868761  1
  Nd3+  Nd38  1  -0.00362051  0.36744738  0.56923743  1
  Nd3+  Nd39  1  0.74402640  0.12221644  0.06158286  1
  Nd3+  Nd40  1  0.61538271  0.74753808  0.93798446  1
  Nd3+  Nd41  1  0.74536601  0.87421394  0.55480621  1
  Nd3+  Nd42  1  0.49204362  0.87223907  0.55346901  1
  Nd3+  Nd43  1  0.24059507  0.36875436  0.06242359  1
  Nd3+  Nd44  1  0.24507092  0.37357904  0.55324158  1
  Nd3+  Nd45  1  0.86689362  0.49875421  0.94311965  1
  Nd3+  Nd46  1  0.74395179  0.87208968  0.06252665  1
  Nd3+  Nd47  1  0.00141231  0.87809595  0.56514332  1
  Nd3+  Nd48  1  0.11948131  -0.00157647  0.94689189  1
  Nd3+  Nd49  1  0.11867811  0.50169496  0.93702118  1
  Nd3+  Nd50  1  -0.00238882  0.12330164  0.56557785  1
  Sm3+  Sm51  1  0.62133656  0.74728192  0.44317830  1
  Sm3+  Sm52  1  -0.00538892  0.62395032  0.05308419  1
  Sm3+  Sm53  1  0.37080753  0.50120008  0.44355443  1
  Sm3+  Sm54  1  0.74380624  0.37442269  0.56198942  1
  Sm3+  Sm55  1  0.49246384  0.37591104  0.55792546  1
  Sm3+  Sm56  1  0.48948906  0.87512611  0.05724765  1
  Sm3+  Sm57  1  0.62111879  0.50031804  0.44737823  1
  Sm3+  Sm58  1  0.23916636  0.62584783  0.56823467  1
  Sm3+  Sm59  1  0.24566800  0.87348240  0.54455732  1
  Sm3+  Sm60  1  0.36166365  0.74923680  0.94529355  1
  Sm3+  Sm61  1  0.11521292  0.74983138  0.43401156  1
  Sm3+  Sm62  1  0.61960890  0.25007890  0.44906428  1
  Sm3+  Sm63  1  0.62389873  -0.00058472  0.44067283  1
  Bi2+  Bi64  1  -0.05776408  0.15370486  0.30415802  1
  Bi2+  Bi65  1  0.06316254  0.11598836  0.77563212  1
  Bi2+  Bi66  1  0.04141054  0.42878720  0.25409419  1
  Bi2+  Bi67  1  0.01491007  0.38336730  0.79711789  1
  Bi2+  Bi68  1  -0.02860726  0.63226926  0.28402871  1
  Bi2+  Bi69  1  -0.01763274  0.61448576  0.78553679  1
  Bi2+  Bi70  1  -0.07035894  0.87268401  0.29115890  1
  Bi2+  Bi71  1  -0.02031699  0.89033890  0.79263321  1
  Bi2+  Bi72  1  0.23924885  0.12219850  0.30774945  1
  Bi2+  Bi73  1  0.27865156  0.14327891  0.74490673  1
  Bi2+  Bi74  1  0.23543254  0.39352437  0.28278144  1
  Bi2+  Bi75  1  0.21327788  0.33853612  0.79509563  1
  Bi2+  Bi76  1  0.24566014  0.59351629  0.28928866  1
  Bi2+  Bi77  1  0.23482355  0.53636166  0.78024575  1
  Bi2+  Bi78  1  0.27678285  0.84564062  0.29077313  1
  Bi2+  Bi79  1  0.24609539  0.90605657  0.80425873  1
  Bi2+  Bi80  1  0.51074904  0.14073847  0.30155208  1
  Bi2+  Bi81  1  0.49135609  0.11857427  0.79072247  1
  Bi2+  Bi82  1  0.52251221  0.38981716  0.29082413  1
  Bi2+  Bi83  1  0.49096098  0.44180001  0.78257894  1
  Bi2+  Bi84  1  0.49136707  0.66536697  0.28945275  1
  Bi2+  Bi85  1  0.52326487  0.62627840  0.82826472  1
  Bi2+  Bi86  1  0.58586904  0.86687454  0.23914734  1
  Bi2+  Bi87  1  0.50710815  0.82637062  0.79725282  1
  Bi2+  Bi88  1  0.75856336  0.07056796  0.32129504  1
  Bi2+  Bi89  1  0.75930717  0.10688367  0.79157659  1
  Bi2+  Bi90  1  0.77890361  0.41958951  0.29987280  1
  Bi2+  Bi91  1  0.74954743  0.47553433  0.79080873  1
  Bi2+  Bi92  1  0.77586152  0.67794669  0.29795128  1
  Bi2+  Bi93  1  0.71081990  0.67329065  0.80281253  1
  Bi2+  Bi94  1  0.73412865  0.87014760  0.31567701  1
  Bi2+  Bi95  1  0.77485538  0.86458781  0.74408506  1
  Bi2+  Bi96  1  0.11230545  -0.04344015  0.21805909  1
  Bi2+  Bi97  1  0.16585017  0.01341623  0.68549120  1
  Bi2+  Bi98  1  0.10610112  0.25653885  0.21662261  1
  Bi2+  Bi99  1  0.12328829  0.25333690  0.69712278  1
  Bi2+  Bi100  1  0.19139933  0.50276717  0.18453590  1
  Bi2+  Bi101  1  0.09285302  0.45177689  0.69656090  1
  Bi2+  Bi102  1  0.11693365  0.68653815  0.21630847  1
  Bi2+  Bi103  1  0.14252871  0.73835808  0.69329218  1
  Bi2+  Bi104  1  0.40013088  -0.00027685  0.21130129  1
  Bi2+  Bi105  1  0.39572164  -0.03695234  0.74426321  1
  Bi2+  Bi106  1  0.39074796  0.25825396  0.20452920  1
  Bi2+  Bi107  1  0.37030347  0.31915306  0.72282717  1
  Bi2+  Bi108  1  0.38857550  0.47295439  0.21763598  1
  Bi2+  Bi109  1  0.35488206  0.53238098  0.69072529  1
  Bi2+  Bi110  1  0.37601709  0.74288560  0.20866158  1
  Bi2+  Bi111  1  0.36668482  0.69779058  0.77168597  1
  Bi2+  Bi112  1  0.66431856  0.04342268  0.21814006  1
  Bi2+  Bi113  1  0.63218086  0.00764115  0.68733991  1
  Bi2+  Bi114  1  0.67244303  0.23380298  0.25377645  1
  Bi2+  Bi115  1  0.62696956  0.26112812  0.68611104  1
  Bi2+  Bi116  1  0.63912413  0.52022615  0.24307882  1
  Bi2+  Bi117  1  0.62018725  0.54267034  0.71616942  1
  Bi2+  Bi118  1  0.63217640  0.69487986  0.19218495  1
  Bi2+  Bi119  1  0.61137570  0.77060911  0.70437081  1
  Bi2+  Bi120  1  0.87343234  0.02946013  0.22478539  1
  Bi2+  Bi121  1  0.91584165  0.02896089  0.72529163  1
  Bi2+  Bi122  1  0.84954125  0.27297064  0.21075325  1
  Bi2+  Bi123  1  0.85800378  0.31726703  0.74344131  1
  Bi2+  Bi124  1  0.88844852  0.51382971  0.20034566  1
  Bi2+  Bi125  1  0.89973311  0.49458170  0.70075794  1
  Bi2+  Bi126  1  0.82839686  0.78841643  0.20507320  1
  Bi2+  Bi127  1  0.87025160  0.69820626  0.71001946  1
  S2-  S128  1  0.08966650  0.10627230  0.16765798  1
  S2-  S129  1  0.00662175  0.00269910  0.63846914  1
  S2-  S130  1  -0.00761875  0.28985775  0.14877313  1
  S2-  S131  1  -0.01182315  0.24462081  0.64080485  1
  S2-  S132  1  0.00696265  0.60194689  0.15022455  1
  S2-  S133  1  0.11646319  0.60195985  0.64127358  1
  S2-  S134  1  0.04727385  0.86951198  0.14995660  1
  S2-  S135  1  -0.00863129  0.76486593  0.64227308  1
  S2-  S136  1  0.29046600  0.12836114  0.21379643  1
  S2-  S137  1  0.29867053  0.10567178  0.63904903  1
  S2-  S138  1  0.24555124  0.28775700  0.15014220  1
  S2-  S139  1  0.25487796  0.38755374  0.65192573  1
  S2-  S140  1  0.23913333  0.74122335  0.14931501  1
  S2-  S141  1  0.29708326  0.68273356  0.65831997  1
  S2-  S142  1  0.25522805  0.96152700  0.16153056  1
  S2-  S143  1  0.20847030  0.87462243  0.64175275  1
  S2-  S144  1  0.47647578  0.12945788  0.16174814  1
  S2-  S145  1  0.52521905  0.12445961  0.66373533  1
  S2-  S146  1  0.50414164  0.37981088  0.16383910  1
  S2-  S147  1  0.49817246  0.36316447  0.65491312  1
  S2-  S148  1  0.41218834  0.61297701  0.15147137  1
  S2-  S149  1  0.49688938  0.61688193  0.66180262  1
  S2-  S150  1  0.47627419  0.86958887  0.15501951  1
  S2-  S151  1  0.51778572  0.88186221  0.65189496  1
  S2-  S152  1  0.83951047  0.13306223  0.14525100  1
  S2-  S153  1  0.74364198  0.13497699  0.66561532  1
  S2-  S154  1  0.77759983  0.39039084  0.15524931  1
  S2-  S155  1  0.76053676  0.36570380  0.65934013  1
  S2-  S156  1  0.78393795  0.63533024  0.15316083  1
  S2-  S157  1  0.72598186  0.65275288  0.65681328  1
  S2-  S158  1  0.74232518  0.91401230  0.15835571  1
  S2-  S159  1  0.76903770  0.91459332  0.64900505  1
  S2-  S160  1  0.15869421  -0.03134266  0.32165842  1
  S2-  S161  1  0.11516899  -0.01154755  0.84646329  1
  S2-  S162  1  0.09820750  0.21401260  0.34242453  1
  S2-  S163  1  0.07032184  0.24071871  0.84733610  1
  S2-  S164  1  0.11938415  0.48491489  0.34524478  1
  S2-  S165  1  0.12162980  0.59069363  0.85148550  1
  S2-  S166  1  0.21742188  0.72918494  0.35496643  1
  S2-  S167  1  0.11732282  0.79561298  0.78978030  1
  S2-  S168  1  0.35326502  0.00041657  0.31372145  1
  S2-  S169  1  0.38167241  0.00231010  0.84689780  1
  S2-  S170  1  0.37003014  0.22902473  0.33529251  1
  S2-  S171  1  0.45578730  0.23904673  0.85175629  1
  S2-  S172  1  0.38250401  0.58108179  0.35776227  1
  S2-  S173  1  0.36661513  0.49227852  0.84633000  1
  S2-  S174  1  0.42541706  0.80706439  0.33195908  1
  S2-  S175  1  0.28602082  0.75732230  0.85711062  1
  S2-  S176  1  0.53859620  0.01292944  0.35756693  1
  S2-  S177  1  0.62355638  0.06453228  0.85132004  1
  S2-  S178  1  0.60379178  0.26057111  0.35219491  1
  S2-  S179  1  0.62844298  0.22381838  0.77809477  1
  S2-  S180  1  0.62398984  0.48389605  0.34960825  1
  S2-  S181  1  0.62076566  0.40675683  0.85278376  1
  S2-  S182  1  0.62972290  0.71478335  0.34717211  1
  S2-  S183  1  0.65586559  0.82382446  0.85169746  1
  S2-  S184  1  0.97198448  0.00317075  0.35730998  1
  S2-  S185  1  0.85987410  -0.00356639  0.84663573  1
  S2-  S186  1  0.87120572  0.30159713  0.34603296  1
  S2-  S187  1  0.80233130  0.24276786  0.84189224  1
  S2-  S188  1  0.86939226  0.53576354  0.35059839  1
  S2-  S189  1  0.89620297  0.49839364  0.84594198  1
  S2-  S190  1  0.99859648  0.75297112  0.35936308  1
  S2-  S191  1  0.94223854  0.75046588  0.84775346  1
  S2-  S192  1  -0.00629475  0.12739896  0.45819149  1
  S2-  S193  1  -0.00818168  0.12226587  0.95297899  1
  S2-  S194  1  -0.00387572  0.37034417  0.45894781  1
  S2-  S195  1  -0.00690673  0.37592747  0.95406889  1
  S2-  S196  1  -0.00425943  0.62302034  0.46116632  1
  S2-  S197  1  -0.00697499  0.62447644  0.95061288  1
  S2-  S198  1  -0.00623082  0.87536484  0.45858096  1
  S2-  S199  1  -0.00392174  0.87158480  0.95067149  1
  S2-  S200  1  0.24951558  0.12012339  0.44095452  1
  S2-  S201  1  0.24350202  0.12458287  0.94255277  1
  S2-  S202  1  0.24963318  0.37485016  0.44648335  1
  S2-  S203  1  0.24208457  0.37246431  0.95408510  1
  S2-  S204  1  0.24235571  0.61788699  0.46175658  1
  S2-  S205  1  0.24192692  0.62461787  0.96060594  1
  S2-  S206  1  0.24813000  0.87528349  0.44129615  1
  S2-  S207  1  0.23988506  0.87199005  0.96103866  1
  S2-  S208  1  0.49908168  0.12608407  0.45834638  1
  S2-  S209  1  0.49591985  0.12005747  0.95784060  1
  S2-  S210  1  0.49656820  0.37807609  0.45315700  1
  S2-  S211  1  0.49285626  0.37403562  0.95814620  1
  S2-  S212  1  0.49906793  0.62348947  0.45613432  1
  S2-  S213  1  0.49233752  0.62638476  0.95959832  1
  S2-  S214  1  0.50158916  0.86883259  0.44911333  1
  S2-  S215  1  0.49056418  0.87130358  0.95257073  1
  S2-  S216  1  0.74280860  0.12652893  0.45709483  1
  S2-  S217  1  0.74066438  0.12503334  0.95620544  1
  S2-  S218  1  0.74247942  0.37402516  0.45701311  1
  S2-  S219  1  0.74388529  0.37298139  0.95330502  1
  S2-  S220  1  0.74579737  0.62293659  0.45346062  1
  S2-  S221  1  0.74043253  0.62257503  0.94918002  1
  S2-  S222  1  0.74578441  0.87284079  0.44924062  1
  S2-  S223  1  0.74415737  0.87374925  0.95745906  1
  S2-  S224  1  0.11685645  0.00699933  0.05185517  1
  S2-  S225  1  0.12442605  -0.00106420  0.53146299  1
  S2-  S226  1  0.11742100  0.24365287  0.04923296  1
  S2-  S227  1  0.12451034  0.24720442  0.54320144  1
  S2-  S228  1  0.11845178  0.49769249  0.04431366  1
  S2-  S229  1  0.11596187  0.49182410  0.54566259  1
  S2-  S230  1  0.11391186  0.74234246  0.04837114  1
  S2-  S231  1  0.12293333  0.75081545  0.53839713  1
  S2-  S232  1  0.36540084  -0.00030126  0.05340889  1
  S2-  S233  1  0.37160967  -0.00550108  0.53302411  1
  S2-  S234  1  0.36458394  0.24273900  0.04754987  1
  S2-  S235  1  0.37158728  0.25159586  0.54293632  1
  S2-  S236  1  0.36578003  0.49371121  0.05300327  1
  S2-  S237  1  0.36787097  0.50019793  0.54783605  1
  S2-  S238  1  0.36968660  0.74993580  0.04790266  1
  S2-  S239  1  0.36691900  0.74948451  0.54122405  1
  S2-  S240  1  0.61769276  -0.00359566  0.05060310  1
  S2-  S241  1  0.61693938  -0.00191052  0.54460852  1
  S2-  S242  1  0.62081860  0.24539034  0.06344561  1
  S2-  S243  1  0.61751116  0.25128912  0.55245521  1
  S2-  S244  1  0.61703516  0.49774576  0.04905130  1
  S2-  S245  1  0.61901353  0.49893807  0.55230432  1
  S2-  S246  1  0.61570826  0.75263655  0.04670477  1
  S2-  S247  1  0.62031679  0.74897559  0.54737577  1
  S2-  S248  1  0.87051299  -0.00338981  0.04979430  1
  S2-  S249  1  0.86845665  0.00113030  0.54191444  1
  S2-  S250  1  0.86763111  0.24952657  0.04180472  1
  S2-  S251  1  0.86297547  0.24999194  0.54629757  1
  S2-  S252  1  0.86754897  0.49962133  0.04767383  1
  S2-  S253  1  0.87312165  0.49616322  0.55455560  1
  S2-  S254  1  0.86988107  0.74832569  0.04580168  1
  S2-  S255  1  0.86811146  0.75158219  0.53968076  1
