# generated using pymatgen
data_La6Ce6Pr19Nd20Sm13(BiS2)64
_symmetry_space_group_name_H-M   'P 1'
_cell_length_a   16.10078742
_cell_length_b   16.11102153
_cell_length_c   27.39937019
_cell_angle_alpha   89.94408502
_cell_angle_beta   90.02322320
_cell_angle_gamma   90.01714257
_symmetry_Int_Tables_number   1
_chemical_formula_structural   La6Ce6Pr19Nd20Sm13(BiS2)64
_chemical_formula_sum   'La6 Ce6 Pr19 Nd20 Sm13 Bi64 S128'
_cell_volume   7107.39597982
_cell_formula_units_Z   1
loop_
 _symmetry_equiv_pos_site_id
 _symmetry_equiv_pos_as_xyz
  1  'x, y, z'
loop_
 _atom_type_symbol
 _atom_type_oxidation_number
  La3+  3.0
  Ce3+  3.0
  Pr3+  3.0
  Nd3+  3.0
  Sm3+  3.0
  Bi2+  2.0
  S2-  -2.0
loop_
 _atom_site_type_symbol
 _atom_site_label
 _atom_site_symmetry_multiplicity
 _atom_site_fract_x
 _atom_site_fract_y
 _atom_site_fract_z
 _atom_site_occupancy
  La3+  La0  1  0.38528394  0.00988949  0.92900560  1
  La3+  La1  1  0.35446768  0.25864637  0.41180676  1
  La3+  La2  1  -0.01902473  0.13226288  0.56713902  1
  La3+  La3  1  0.86820231  0.74247871  0.92387099  1
  La3+  La4  1  0.11619357  0.76018446  0.88335151  1
  La3+  La5  1  0.75978272  0.63936197  0.08485256  1
  Ce3+  Ce6  1  -0.01804332  0.63181239  0.56327527  1
  Ce3+  Ce7  1  0.37228844  0.75276002  0.93391508  1
  Ce3+  Ce8  1  0.10964443  0.75696128  0.45026570  1
  Ce3+  Ce9  1  0.60646442  0.75491468  0.44231548  1
  Ce3+  Ce10  1  0.48056260  0.62887372  0.55656333  1
  Ce3+  Ce11  1  0.49937295  0.87449956  0.06230482  1
  Pr3+  Pr12  1  0.24710536  0.63624185  0.58920478  1
  Pr3+  Pr13  1  0.35074541  0.50719558  0.43141593  1
  Pr3+  Pr14  1  0.00481774  0.87326474  0.04905317  1
  Pr3+  Pr15  1  0.85597876  0.50571753  0.43906732  1
  Pr3+  Pr16  1  -0.01824634  0.38233214  0.55655203  1
  Pr3+  Pr17  1  0.22936349  0.12802656  0.56302501  1
  Pr3+  Pr18  1  0.62916648  0.50168698  0.94423939  1
  Pr3+  Pr19  1  0.50294663  0.37637955  0.06003303  1
  Pr3+  Pr20  1  0.24969028  0.12482264  0.06802976  1
  Pr3+  Pr21  1  0.25406209  0.62708161  0.05622426  1
  Pr3+  Pr22  1  0.85982400  0.25417232  0.42944953  1
  Pr3+  Pr23  1  0.75472265  0.37917371  0.06548740  1
  Pr3+  Pr24  1  0.61125037  0.00437225  0.43021031  1
  Pr3+  Pr25  1  0.23217832  0.37975901  0.56047756  1
  Pr3+  Pr26  1  0.00588385  0.11990492  0.06900426  1
  Pr3+  Pr27  1  -0.02241258  0.87952111  0.56883872  1
  Pr3+  Pr28  1  0.12508062  0.24810691  0.93511964  1
  Pr3+  Pr29  1  0.10739051  0.25212969  0.43039057  1
  Pr3+  Pr30  1  0.35588904  0.75820124  0.44222462  1
  Nd3+  Nd31  1  0.00412120  0.62760716  0.05969023  1
  Nd3+  Nd32  1  0.00408079  0.37649322  0.06116755  1
  Nd3+  Nd33  1  0.36118458  0.00821975  0.42116249  1
  Nd3+  Nd34  1  0.60547142  0.25353082  0.44619255  1
  Nd3+  Nd35  1  0.87880409  0.50224958  0.94394437  1
  Nd3+  Nd36  1  0.47682766  0.37975223  0.56017721  1
  Nd3+  Nd37  1  0.25155968  0.87647992  0.05080078  1
  Nd3+  Nd38  1  0.48209839  0.88545163  0.55856658  1
  Nd3+  Nd39  1  0.23133637  0.88878012  0.57110782  1
  Nd3+  Nd40  1  0.13642065  0.00608055  0.91949802  1
  Nd3+  Nd41  1  0.49558073  0.12177419  0.07541671  1
  Nd3+  Nd42  1  0.48045272  0.12891791  0.55985779  1
  Nd3+  Nd43  1  0.62562100  0.00292164  0.94228404  1
  Nd3+  Nd44  1  0.10992233  0.50864558  0.44778836  1
  Nd3+  Nd45  1  0.73114567  0.88078846  0.56665533  1
  Nd3+  Nd46  1  0.11129689  0.00269174  0.43514215  1
  Nd3+  Nd47  1  0.12951933  0.50497536  0.93670342  1
  Nd3+  Nd48  1  0.86068453  0.00291003  0.43387290  1
  Nd3+  Nd49  1  0.75063338  0.12418925  0.05921436  1
  Nd3+  Nd50  1  0.85671841  0.75510718  0.43888913  1
  Sm3+  Sm51  1  0.37741078  0.25090470  0.94764987  1
  Sm3+  Sm52  1  0.88170966  0.00028090  0.94185907  1
  Sm3+  Sm53  1  0.50223021  0.62606302  0.05524456  1
  Sm3+  Sm54  1  0.25195344  0.37643117  0.05600307  1
  Sm3+  Sm55  1  0.72972953  0.62979361  0.55660353  1
  Sm3+  Sm56  1  0.62891809  0.25195271  0.94950181  1
  Sm3+  Sm57  1  0.37773599  0.50040829  0.93744807  1
  Sm3+  Sm58  1  0.73119346  0.38176542  0.55427852  1
  Sm3+  Sm59  1  0.60443970  0.50320364  0.43981491  1
  Sm3+  Sm60  1  0.75261053  0.87555522  0.05450854  1
  Sm3+  Sm61  1  0.62745803  0.74916993  0.94360140  1
  Sm3+  Sm62  1  0.87949728  0.24978878  0.95206979  1
  Sm3+  Sm63  1  0.73608708  0.13197037  0.56072036  1
  Bi2+  Bi64  1  0.03083462  0.12312822  0.29227603  1
  Bi2+  Bi65  1  0.01753716  0.19060215  0.77489461  1
  Bi2+  Bi66  1  0.00246692  0.36189587  0.25725667  1
  Bi2+  Bi67  1  -0.03859605  0.37951594  0.80189268  1
  Bi2+  Bi68  1  0.03039370  0.56799819  0.29640142  1
  Bi2+  Bi69  1  -0.02370704  0.63251100  0.78702299  1
  Bi2+  Bi70  1  -0.02122033  0.86412028  0.29712774  1
  Bi2+  Bi71  1  -0.04629070  0.92735327  0.78306885  1
  Bi2+  Bi72  1  0.24307308  0.13660789  0.28663069  1
  Bi2+  Bi73  1  0.26613207  0.14262633  0.79007103  1
  Bi2+  Bi74  1  0.24946487  0.41749715  0.24203968  1
  Bi2+  Bi75  1  0.21335745  0.37799162  0.80166122  1
  Bi2+  Bi76  1  0.30457778  0.58874410  0.29905358  1
  Bi2+  Bi77  1  0.24066595  0.61195329  0.78623867  1
  Bi2+  Bi78  1  0.22796330  0.86080787  0.29681470  1
  Bi2+  Bi79  1  0.25068190  0.88234669  0.78073741  1
  Bi2+  Bi80  1  0.52763728  0.09786587  0.29248990  1
  Bi2+  Bi81  1  0.55196654  0.08711729  0.77987180  1
  Bi2+  Bi82  1  0.48417943  0.35451748  0.28393061  1
  Bi2+  Bi83  1  0.56746200  0.37152539  0.78251943  1
  Bi2+  Bi84  1  0.47585398  0.66217092  0.25783666  1
  Bi2+  Bi85  1  0.50711924  0.63722767  0.77995284  1
  Bi2+  Bi86  1  0.50501600  0.85963201  0.26486339  1
  Bi2+  Bi87  1  0.50404720  0.82719550  0.80560735  1
  Bi2+  Bi88  1  0.82761661  0.11531429  0.31050759  1
  Bi2+  Bi89  1  0.74594330  0.12803661  0.78821227  1
  Bi2+  Bi90  1  0.83137756  0.37227467  0.31464138  1
  Bi2+  Bi91  1  0.75977070  0.33627847  0.79947274  1
  Bi2+  Bi92  1  0.73448606  0.65198883  0.31014675  1
  Bi2+  Bi93  1  0.71644827  0.60185377  0.80252048  1
  Bi2+  Bi94  1  0.76960292  0.93305362  0.26562388  1
  Bi2+  Bi95  1  0.69917960  0.86402086  0.78179490  1
  Bi2+  Bi96  1  0.10330111  -0.01380802  0.21720766  1
  Bi2+  Bi97  1  0.14604354  0.02296257  0.70977439  1
  Bi2+  Bi98  1  0.14182885  0.24418585  0.21051296  1
  Bi2+  Bi99  1  0.15587673  0.27275737  0.70566250  1
  Bi2+  Bi100  1  0.10804144  0.52753800  0.19358717  1
  Bi2+  Bi101  1  0.08933428  0.46186493  0.72413875  1
  Bi2+  Bi102  1  0.10286016  0.71757213  0.23425577  1
  Bi2+  Bi103  1  0.09909959  0.74907784  0.68138143  1
  Bi2+  Bi104  1  0.37850108  -0.02707364  0.20924212  1
  Bi2+  Bi105  1  0.40028353  0.03717394  0.71204211  1
  Bi2+  Bi106  1  0.42736277  0.23554207  0.20460769  1
  Bi2+  Bi107  1  0.38816273  0.29804820  0.77775988  1
  Bi2+  Bi108  1  0.41116330  0.50602693  0.19705875  1
  Bi2+  Bi109  1  0.37680380  0.47618450  0.70345975  1
  Bi2+  Bi110  1  0.30311098  0.73407239  0.20561889  1
  Bi2+  Bi111  1  0.39325246  0.76486692  0.71620635  1
  Bi2+  Bi112  1  0.63620143  0.02638367  0.20648098  1
  Bi2+  Bi113  1  0.64279684  -0.03946313  0.68382289  1
  Bi2+  Bi114  1  0.70089638  0.24588750  0.26987507  1
  Bi2+  Bi115  1  0.63757398  0.15985397  0.68945474  1
  Bi2+  Bi116  1  0.65774419  0.44071390  0.25739227  1
  Bi2+  Bi117  1  0.62988171  0.49751666  0.69793599  1
  Bi2+  Bi118  1  0.65734682  0.75881970  0.21277751  1
  Bi2+  Bi119  1  0.60771592  0.75072555  0.70293717  1
  Bi2+  Bi120  1  0.91284100  0.02221900  0.19651753  1
  Bi2+  Bi121  1  0.83684557  0.01606131  0.71132309  1
  Bi2+  Bi122  1  0.88167590  0.21699301  0.21263386  1
  Bi2+  Bi123  1  0.88000732  0.27216981  0.70595825  1
  Bi2+  Bi124  1  0.83880466  0.50440141  0.20212156  1
  Bi2+  Bi125  1  0.81911319  0.48563020  0.72970863  1
  Bi2+  Bi126  1  0.91030870  0.76166320  0.20833656  1
  Bi2+  Bi127  1  0.82975947  0.75984595  0.70990589  1
  S2-  S128  1  0.12547408  0.10763588  0.14225074  1
  S2-  S129  1  0.10493571  0.14476839  0.64041881  1
  S2-  S130  1  -0.01767204  0.41519919  0.15628886  1
  S2-  S131  1  -0.00307684  0.35910428  0.65467324  1
  S2-  S132  1  -0.08848647  0.63851014  0.14497698  1
  S2-  S133  1  -0.04907336  0.66465395  0.65807759  1
  S2-  S134  1  0.00077693  0.88659676  0.15020348  1
  S2-  S135  1  0.06725426  0.91464292  0.65543472  1
  S2-  S136  1  0.36261623  0.10865299  0.14676223  1
  S2-  S137  1  0.27105932  0.01495941  0.64171362  1
  S2-  S138  1  0.25194457  0.33539528  0.15103102  1
  S2-  S139  1  0.28356688  0.37107146  0.65678902  1
  S2-  S140  1  0.25868894  0.58752250  0.15319783  1
  S2-  S141  1  0.17739755  0.58826818  0.68039620  1
  S2-  S142  1  0.27765631  0.87704137  0.15085191  1
  S2-  S143  1  0.25926374  0.78431134  0.65140280  1
  S2-  S144  1  0.56502362  0.16409000  0.16452159  1
  S2-  S145  1  0.46678854  0.16241165  0.65781463  1
  S2-  S146  1  0.50197435  0.38120585  0.15945654  1
  S2-  S147  1  0.50610279  0.40017198  0.65779415  1
  S2-  S148  1  0.48466118  0.64973047  0.15065219  1
  S2-  S149  1  0.40366102  0.61727273  0.64366053  1
  S2-  S150  1  0.51532110  0.89961641  0.15899396  1
  S2-  S151  1  0.47544223  0.90750363  0.65748969  1
  S2-  S152  1  0.77281282  0.10460598  0.15601037  1
  S2-  S153  1  0.85145940  0.13775559  0.63702291  1
  S2-  S154  1  0.74773648  0.38586139  0.16523605  1
  S2-  S155  1  0.74092350  0.38756025  0.65158908  1
  S2-  S156  1  0.70032589  0.60344673  0.17911414  1
  S2-  S157  1  0.72210604  0.65269670  0.65373125  1
  S2-  S158  1  0.76441692  0.80542844  0.14371624  1
  S2-  S159  1  0.84725363  0.87682667  0.64236500  1
  S2-  S160  1  0.22517571  -0.00897170  0.35515558  1
  S2-  S161  1  0.10607599  -0.08126268  0.83310441  1
  S2-  S162  1  0.21165204  0.25825436  0.34753352  1
  S2-  S163  1  0.12550012  0.14450723  0.85467334  1
  S2-  S164  1  0.16328624  0.51969113  0.35383204  1
  S2-  S165  1  0.10928154  0.58469037  0.84965692  1
  S2-  S166  1  0.10294455  0.78227392  0.35406409  1
  S2-  S167  1  0.11930637  0.73372946  0.77524580  1
  S2-  S168  1  0.50158966  -0.03355613  0.35060646  1
  S2-  S169  1  0.28934689  -0.00590598  0.84512374  1
  S2-  S170  1  0.38378195  0.13137616  0.34389375  1
  S2-  S171  1  0.39229404  0.18575552  0.85918990  1
  S2-  S172  1  0.37955466  0.40462741  0.35140450  1
  S2-  S173  1  0.32787837  0.49506624  0.84365014  1
  S2-  S174  1  0.33600379  0.74671901  0.34286251  1
  S2-  S175  1  0.28737075  0.74388580  0.84766660  1
  S2-  S176  1  0.73979240  -0.01461938  0.35948440  1
  S2-  S177  1  0.52471561  -0.00712817  0.86195115  1
  S2-  S178  1  0.58139717  0.24443908  0.34834491  1
  S2-  S179  1  0.63201591  0.24996492  0.85260545  1
  S2-  S180  1  0.62237083  0.51814703  0.34238876  1
  S2-  S181  1  0.58250972  0.51085372  0.84751181  1
  S2-  S182  1  0.62396477  0.75474820  0.34611637  1
  S2-  S183  1  0.71835881  0.74491749  0.86024995  1
  S2-  S184  1  0.98789291  -0.00404338  0.36176034  1
  S2-  S185  1  0.85522299  0.00550432  0.84542332  1
  S2-  S186  1  0.98270598  0.25546848  0.35612154  1
  S2-  S187  1  0.91625015  0.24007727  0.85812064  1
  S2-  S188  1  0.86741151  0.54142766  0.34081279  1
  S2-  S189  1  0.86330752  0.58317083  0.85719988  1
  S2-  S190  1  0.84878176  0.75924273  0.33954058  1
  S2-  S191  1  0.95019430  0.77235751  0.83608962  1
  S2-  S192  1  -0.01892869  0.12990243  0.45894948  1
  S2-  S193  1  0.00026525  0.12410201  0.96111639  1
  S2-  S194  1  -0.01630949  0.38583642  0.45133559  1
  S2-  S195  1  0.00333027  0.37726005  0.95453418  1
  S2-  S196  1  -0.01809084  0.63085409  0.45532490  1
  S2-  S197  1  0.00454992  0.62732836  0.95556313  1
  S2-  S198  1  -0.02030272  0.87459303  0.46159193  1
  S2-  S199  1  0.00328766  0.87746596  0.94418542  1
  S2-  S200  1  0.23482364  0.12965452  0.45512190  1
  S2-  S201  1  0.25339177  0.12986951  0.95978042  1
  S2-  S202  1  0.23125415  0.38056476  0.45486927  1
  S2-  S203  1  0.25300634  0.37506810  0.95131102  1
  S2-  S204  1  0.23358970  0.63296794  0.46058804  1
  S2-  S205  1  0.25601110  0.62197650  0.95191968  1
  S2-  S206  1  0.23404774  0.88016435  0.46167551  1
  S2-  S207  1  0.24866707  0.87444437  0.94714269  1
  S2-  S208  1  0.48484593  0.12966084  0.45389269  1
  S2-  S209  1  0.50718777  0.13288242  0.96639625  1
  S2-  S210  1  0.48260192  0.37990916  0.45513028  1
  S2-  S211  1  0.50170773  0.37471359  0.95248551  1
  S2-  S212  1  0.48106477  0.62743414  0.44839828  1
  S2-  S213  1  0.50053881  0.62704115  0.94993233  1
  S2-  S214  1  0.48418991  0.88022779  0.45452905  1
  S2-  S215  1  0.50390733  0.87053792  0.95730252  1
  S2-  S216  1  0.73406091  0.13330790  0.45618212  1
  S2-  S217  1  0.75392478  0.12662971  0.95352349  1
  S2-  S218  1  0.72934788  0.38024002  0.44912641  1
  S2-  S219  1  0.75544604  0.37458831  0.95736790  1
  S2-  S220  1  0.72870192  0.62837370  0.45283314  1
  S2-  S221  1  0.74800301  0.62409800  0.96629538  1
  S2-  S222  1  0.73204988  0.87609465  0.46043355  1
  S2-  S223  1  0.75101088  0.88101236  0.95197250  1
  S2-  S224  1  0.12870337  -0.00086634  0.03629812  1
  S2-  S225  1  0.10315599  0.00316087  0.54064913  1
  S2-  S226  1  0.12665763  0.25365572  0.04324148  1
  S2-  S227  1  0.10616117  0.25974779  0.53888230  1
  S2-  S228  1  0.12768659  0.49965822  0.04386906  1
  S2-  S229  1  0.10988804  0.50903907  0.55481214  1
  S2-  S230  1  0.12909612  0.74955695  0.05857477  1
  S2-  S231  1  0.11042233  0.75299592  0.55500299  1
  S2-  S232  1  0.37788791  -0.00103652  0.03997438  1
  S2-  S233  1  0.36154033  0.00600553  0.53618642  1
  S2-  S234  1  0.37649612  0.25343515  0.04995586  1
  S2-  S235  1  0.35713006  0.25334781  0.54766883  1
  S2-  S236  1  0.37818038  0.49942301  0.04308622  1
  S2-  S237  1  0.35576656  0.50522223  0.54074992  1
  S2-  S238  1  0.37844835  0.75006684  0.04224101  1
  S2-  S239  1  0.36204433  0.75955564  0.54701878  1
  S2-  S240  1  0.62730559  -0.00049304  0.04857462  1
  S2-  S241  1  0.61152689  0.00932475  0.54393263  1
  S2-  S242  1  0.63010294  0.25174772  0.05349552  1
  S2-  S243  1  0.60885319  0.25642761  0.55126476  1
  S2-  S244  1  0.62804228  0.50451011  0.05222923  1
  S2-  S245  1  0.60667590  0.50443013  0.54478549  1
  S2-  S246  1  0.62582595  0.75108575  0.04754640  1
  S2-  S247  1  0.60581253  0.75554405  0.54955900  1
  S2-  S248  1  0.87619540  -0.00073964  0.04646612  1
  S2-  S249  1  0.85290309  0.00495825  0.54096596  1
  S2-  S250  1  0.87966800  0.24887119  0.05633006  1
  S2-  S251  1  0.85389097  0.26185502  0.53734388  1
  S2-  S252  1  0.87869256  0.50191078  0.04804875  1
  S2-  S253  1  0.85336457  0.50704030  0.54769540  1
  S2-  S254  1  0.87735333  0.75384635  0.03632380  1
  S2-  S255  1  0.85240295  0.75020498  0.54436716  1
