# generated using pymatgen
data_La6Ce6Pr19Nd20Sm13(BiS2)64
_symmetry_space_group_name_H-M   'P 1'
_cell_length_a   16.12976861
_cell_length_b   16.13369774
_cell_length_c   27.23115803
_cell_angle_alpha   90.06176625
_cell_angle_beta   90.02121968
_cell_angle_gamma   89.97437242
_symmetry_Int_Tables_number   1
_chemical_formula_structural   La6Ce6Pr19Nd20Sm13(BiS2)64
_chemical_formula_sum   'La6 Ce6 Pr19 Nd20 Sm13 Bi64 S128'
_cell_volume   7086.43549878
_cell_formula_units_Z   1
loop_
 _symmetry_equiv_pos_site_id
 _symmetry_equiv_pos_as_xyz
  1  'x, y, z'
loop_
 _atom_type_symbol
 _atom_type_oxidation_number
  La3+  3.0
  Ce3+  3.0
  Pr3+  3.0
  Nd3+  3.0
  Sm3+  3.0
  Bi2+  2.0
  S2-  -2.0
loop_
 _atom_site_type_symbol
 _atom_site_label
 _atom_site_symmetry_multiplicity
 _atom_site_fract_x
 _atom_site_fract_y
 _atom_site_fract_z
 _atom_site_occupancy
  La3+  La0  1  0.61868522  0.49573105  0.42437164  1
  La3+  La1  1  0.26967635  0.11989466  0.61399556  1
  La3+  La2  1  0.74483580  0.86630253  0.08673402  1
  La3+  La3  1  0.61822568  0.76103211  0.88919305  1
  La3+  La4  1  0.12585601  0.49632387  0.43386821  1
  La3+  La5  1  0.87753257  0.24518296  0.43137971  1
  Ce3+  Ce6  1  0.50239882  0.12229159  0.55071611  1
  Ce3+  Ce7  1  0.86856626  -0.00469110  0.94575697  1
  Ce3+  Ce8  1  0.74792266  0.36937915  0.56161004  1
  Ce3+  Ce9  1  0.00048493  0.36914845  0.55780045  1
  Ce3+  Ce10  1  0.74727111  0.62914583  0.05431612  1
  Ce3+  Ce11  1  0.74884322  0.12366424  0.06386319  1
  Pr3+  Pr12  1  0.49506508  0.87437356  0.07191261  1
  Pr3+  Pr13  1  0.87882838  -0.00612139  0.44341562  1
  Pr3+  Pr14  1  0.50125818  0.12508848  0.06017138  1
  Pr3+  Pr15  1  0.87186507  0.74966083  0.92777295  1
  Pr3+  Pr16  1  0.50398758  0.62045336  0.57139339  1
  Pr3+  Pr17  1  0.12724824  0.74339235  0.42842339  1
  Pr3+  Pr18  1  0.63165310  -0.00985737  0.42430332  1
  Pr3+  Pr19  1  0.00346532  0.62165268  0.56948656  1
  Pr3+  Pr20  1  0.24874233  0.12723927  0.06256776  1
  Pr3+  Pr21  1  0.74945719  0.88273434  0.57333431  1
  Pr3+  Pr22  1  0.37354841  0.50139441  0.93417012  1
  Pr3+  Pr23  1  0.74887011  0.37647491  0.05752981  1
  Pr3+  Pr24  1  0.37603531  -0.00416445  0.93899355  1
  Pr3+  Pr25  1  0.24959979  0.62094201  0.56270307  1
  Pr3+  Pr26  1  0.37373238  0.24664188  0.93652195  1
  Pr3+  Pr27  1  0.37625417  -0.00180658  0.43635316  1
  Pr3+  Pr28  1  0.50671260  0.36981415  0.56931278  1
  Pr3+  Pr29  1  0.87357077  0.74801234  0.44355438  1
  Pr3+  Pr30  1  0.87214595  0.24465646  0.93876133  1
  Nd3+  Nd31  1  0.12321639  0.49917588  0.94192488  1
  Nd3+  Nd32  1  -0.00126374  0.12155349  0.05837138  1
  Nd3+  Nd33  1  0.12230525  0.75022035  0.92482830  1
  Nd3+  Nd34  1  0.00876736  0.12529432  0.56617365  1
  Nd3+  Nd35  1  0.50041317  0.62540191  0.05921318  1
  Nd3+  Nd36  1  0.25134216  0.87364767  0.56031085  1
  Nd3+  Nd37  1  0.87401864  0.50094208  0.93624984  1
  Nd3+  Nd38  1  0.87239170  0.49830094  0.44498756  1
  Nd3+  Nd39  1  0.50132524  0.87613884  0.56095003  1
  Nd3+  Nd40  1  0.00556468  0.87192005  0.55859282  1
  Nd3+  Nd41  1  0.24802942  0.37516585  0.05275225  1
  Nd3+  Nd42  1  0.62401298  0.50153866  0.93077205  1
  Nd3+  Nd43  1  0.37919275  0.49399819  0.44621252  1
  Nd3+  Nd44  1  0.75481976  0.62323104  0.56892552  1
  Nd3+  Nd45  1  0.37934372  0.74584465  0.44246870  1
  Nd3+  Nd46  1  0.62108595  0.74216837  0.43250069  1
  Nd3+  Nd47  1  0.37705224  0.24589244  0.44213594  1
  Nd3+  Nd48  1  0.62456334  0.25135849  0.93070122  1
  Nd3+  Nd49  1  0.24665566  0.62479637  0.05534204  1
  Nd3+  Nd50  1  0.12575820  0.24971374  0.43131969  1
  Sm3+  Sm51  1  -0.00308109  0.37569880  0.05458048  1
  Sm3+  Sm52  1  0.25094883  0.87438812  0.06480227  1
  Sm3+  Sm53  1  0.12200537  0.24660033  0.94009770  1
  Sm3+  Sm54  1  -0.00136178  0.87298658  0.05193482  1
  Sm3+  Sm55  1  0.62391142  -0.00702522  0.94680475  1
  Sm3+  Sm56  1  0.25149101  0.36629977  0.56469242  1
  Sm3+  Sm57  1  0.75293287  0.12168543  0.55953958  1
  Sm3+  Sm58  1  0.37575744  0.74995984  0.94356783  1
  Sm3+  Sm59  1  0.63345080  0.24611749  0.42949846  1
  Sm3+  Sm60  1  -0.00183627  0.62975411  0.05524799  1
  Sm3+  Sm61  1  0.12883613  -0.00141279  0.44466219  1
  Sm3+  Sm62  1  0.49967083  0.37665411  0.05385460  1
  Sm3+  Sm63  1  0.12498831  -0.00212995  0.93992793  1
  Bi2+  Bi64  1  0.01848566  0.07399467  0.30068729  1
  Bi2+  Bi65  1  -0.05322242  0.10358739  0.80047253  1
  Bi2+  Bi66  1  0.01232439  0.36016173  0.29901784  1
  Bi2+  Bi67  1  0.02261220  0.37518721  0.80040688  1
  Bi2+  Bi68  1  0.06081450  0.61132414  0.25540621  1
  Bi2+  Bi69  1  0.04980830  0.61644395  0.78022152  1
  Bi2+  Bi70  1  0.02397864  0.80286350  0.29098535  1
  Bi2+  Bi71  1  0.00551766  0.86740593  0.78552132  1
  Bi2+  Bi72  1  0.26409641  0.16745142  0.30022717  1
  Bi2+  Bi73  1  0.24407161  0.13485171  0.82179087  1
  Bi2+  Bi74  1  0.29265262  0.36157847  0.29655608  1
  Bi2+  Bi75  1  0.16731746  0.39186588  0.71944846  1
  Bi2+  Bi76  1  0.25439471  0.63710201  0.30513253  1
  Bi2+  Bi77  1  0.23785825  0.64671024  0.81028312  1
  Bi2+  Bi78  1  0.21864336  0.82680245  0.31403808  1
  Bi2+  Bi79  1  0.19698607  0.83964012  0.80845964  1
  Bi2+  Bi80  1  0.45843455  0.15595189  0.25137698  1
  Bi2+  Bi81  1  0.52320805  0.16152050  0.79371877  1
  Bi2+  Bi82  1  0.47521161  0.42083728  0.25476608  1
  Bi2+  Bi83  1  0.50536659  0.35865523  0.78993451  1
  Bi2+  Bi84  1  0.51330990  0.62469399  0.29777976  1
  Bi2+  Bi85  1  0.49104698  0.62772134  0.78284121  1
  Bi2+  Bi86  1  0.52783969  0.89432757  0.30274497  1
  Bi2+  Bi87  1  0.45700332  0.88600341  0.79110259  1
  Bi2+  Bi88  1  0.77407788  0.16795363  0.26348544  1
  Bi2+  Bi89  1  0.71548136  0.17438434  0.81772394  1
  Bi2+  Bi90  1  0.75102197  0.41140845  0.29555881  1
  Bi2+  Bi91  1  0.73931635  0.35596590  0.77270033  1
  Bi2+  Bi92  1  0.74698640  0.60132040  0.26266832  1
  Bi2+  Bi93  1  0.74986559  0.63762510  0.78341445  1
  Bi2+  Bi94  1  0.78621194  0.88506547  0.29455547  1
  Bi2+  Bi95  1  0.81194360  0.89121339  0.76516283  1
  Bi2+  Bi96  1  0.14598284  -0.04542259  0.21665075  1
  Bi2+  Bi97  1  0.14126379  -0.01359706  0.71549979  1
  Bi2+  Bi98  1  0.12360686  0.17869959  0.21951656  1
  Bi2+  Bi99  1  0.02527578  0.22035238  0.72192632  1
  Bi2+  Bi100  1  0.13118478  0.43763687  0.21834799  1
  Bi2+  Bi101  1  0.13071860  0.57060483  0.67710956  1
  Bi2+  Bi102  1  0.16258745  0.76031274  0.19705056  1
  Bi2+  Bi103  1  0.12561947  0.77058276  0.68381173  1
  Bi2+  Bi104  1  0.33925264  -0.03414048  0.23732665  1
  Bi2+  Bi105  1  0.40465493  0.00346138  0.71177559  1
  Bi2+  Bi106  1  0.30786601  0.23190948  0.19142611  1
  Bi2+  Bi107  1  0.40642423  0.27306506  0.70673809  1
  Bi2+  Bi108  1  0.31528293  0.52098003  0.21909012  1
  Bi2+  Bi109  1  0.31948032  0.50793752  0.73786170  1
  Bi2+  Bi110  1  0.35607057  0.77328071  0.22397275  1
  Bi2+  Bi111  1  0.31151105  0.76334576  0.72636379  1
  Bi2+  Bi112  1  0.63578829  0.02645427  0.20281621  1
  Bi2+  Bi113  1  0.64832949  0.00379134  0.76714494  1
  Bi2+  Bi114  1  0.61243217  0.27874697  0.26164062  1
  Bi2+  Bi115  1  0.66946778  0.16970082  0.70192396  1
  Bi2+  Bi116  1  0.61372390  0.50030989  0.18395725  1
  Bi2+  Bi117  1  0.59247154  0.49446305  0.69725497  1
  Bi2+  Bi118  1  0.63636843  0.73889020  0.21002289  1
  Bi2+  Bi119  1  0.62243474  0.76157803  0.67944841  1
  Bi2+  Bi120  1  0.93043472  -0.01132039  0.21279249  1
  Bi2+  Bi121  1  0.86359913  0.11079354  0.68979221  1
  Bi2+  Bi122  1  0.91537396  0.26632592  0.21524756  1
  Bi2+  Bi123  1  0.84626712  0.30936770  0.68068111  1
  Bi2+  Bi124  1  0.86108679  0.46965983  0.20437403  1
  Bi2+  Bi125  1  0.88655491  0.47934899  0.73837131  1
  Bi2+  Bi126  1  0.90202873  0.73594764  0.20563465  1
  Bi2+  Bi127  1  0.93188054  0.74037613  0.70432183  1
  S2-  S128  1  -0.01894549  0.13226444  0.15622343  1
  S2-  S129  1  0.10182196  0.11480748  0.65030822  1
  S2-  S130  1  -0.00152517  0.38387171  0.15198930  1
  S2-  S131  1  0.02505984  0.35831331  0.65342430  1
  S2-  S132  1  -0.00806652  0.62648330  0.15331912  1
  S2-  S133  1  -0.08665554  0.59587787  0.65560190  1
  S2-  S134  1  -0.01730013  0.86105715  0.14909307  1
  S2-  S135  1  0.01582178  0.90051570  0.65692995  1
  S2-  S136  1  0.22485161  0.06399957  0.15473669  1
  S2-  S137  1  0.26663064  0.10617102  0.72562530  1
  S2-  S138  1  0.25883429  0.38791142  0.15055006  1
  S2-  S139  1  0.25814274  0.28502170  0.65180714  1
  S2-  S140  1  0.27115321  0.64865180  0.15199016  1
  S2-  S141  1  0.30092205  0.62056455  0.65951498  1
  S2-  S142  1  0.36168201  0.87526278  0.14254112  1
  S2-  S143  1  0.27150223  0.94781890  0.65008941  1
  S2-  S144  1  0.49225840  0.08824827  0.15900927  1
  S2-  S145  1  0.44612779  0.12809982  0.64507140  1
  S2-  S146  1  0.50774708  0.37781059  0.15112303  1
  S2-  S147  1  0.43489088  0.41264368  0.66262054  1
  S2-  S148  1  0.51961175  0.63619481  0.15965246  1
  S2-  S149  1  0.50232524  0.64001675  0.67313796  1
  S2-  S150  1  0.59598795  0.87071929  0.15625266  1
  S2-  S151  1  0.51679554  0.89421403  0.65971362  1
  S2-  S152  1  0.71252685  0.14980278  0.15902904  1
  S2-  S153  1  0.72745491  0.02818465  0.64055532  1
  S2-  S154  1  0.74101434  0.38361062  0.15762261  1
  S2-  S155  1  0.64194366  0.37085541  0.63936715  1
  S2-  S156  1  0.76581336  0.71315481  0.14122112  1
  S2-  S157  1  0.70258846  0.60319047  0.66448649  1
  S2-  S158  1  0.78375238  0.94567286  0.17809457  1
  S2-  S159  1  0.78439398  0.82168311  0.66669884  1
  S2-  S160  1  0.13278444  -0.01830478  0.34625353  1
  S2-  S161  1  0.10633418  0.04645210  0.84574356  1
  S2-  S162  1  0.00152183  0.22456281  0.35786291  1
  S2-  S163  1  0.14693360  0.26231144  0.84357765  1
  S2-  S164  1  0.15187947  0.37835812  0.35827968  1
  S2-  S165  1  0.13094770  0.50132025  0.84335642  1
  S2-  S166  1  0.10462664  0.61455316  0.35888534  1
  S2-  S167  1  -0.00099691  0.73752299  0.85309612  1
  S2-  S168  1  0.39619197  -0.02725702  0.33674991  1
  S2-  S169  1  0.35888801  -0.00305244  0.83910136  1
  S2-  S170  1  0.40749067  0.24227138  0.34313638  1
  S2-  S171  1  0.37487865  0.25357578  0.83593420  1
  S2-  S172  1  0.46111020  0.50906039  0.35862332  1
  S2-  S173  1  0.40386614  0.49458669  0.83468627  1
  S2-  S174  1  0.47497727  0.74952103  0.35821773  1
  S2-  S175  1  0.44569395  0.74849113  0.85383980  1
  S2-  S176  1  0.61019960  0.02967335  0.32062083  1
  S2-  S177  1  0.59634804  -0.06994567  0.85615041  1
  S2-  S178  1  0.61575156  0.36164674  0.35562921  1
  S2-  S179  1  0.63063045  0.37558456  0.85701881  1
  S2-  S180  1  0.65279670  0.62319380  0.35472766  1
  S2-  S181  1  0.62081531  0.59498017  0.84571160  1
  S2-  S182  1  0.66954126  0.85127321  0.35934443  1
  S2-  S183  1  0.60977783  0.74943075  0.77521344  1
  S2-  S184  1  0.86599016  0.00178371  0.34236197  1
  S2-  S185  1  0.85146582  -0.01141816  0.84836752  1
  S2-  S186  1  0.76169501  0.21749749  0.35551286  1
  S2-  S187  1  0.90905900  0.26461323  0.84098100  1
  S2-  S188  1  0.88984205  0.46406701  0.34781524  1
  S2-  S189  1  0.85552412  0.53362863  0.83891937  1
  S2-  S190  1  0.87806711  0.76304752  0.34201150  1
  S2-  S191  1  0.77771924  0.76505783  0.84160857  1
  S2-  S192  1  0.00481638  0.11710640  0.45955004  1
  S2-  S193  1  -0.00007681  0.12132428  0.95282983  1
  S2-  S194  1  -0.00147944  0.37472252  0.45441764  1
  S2-  S195  1  -0.00051281  0.37328617  0.95014622  1
  S2-  S196  1  -0.00245455  0.62281306  0.46162857  1
  S2-  S197  1  0.00129054  0.62287926  0.95158605  1
  S2-  S198  1  0.00684735  0.87005249  0.45122079  1
  S2-  S199  1  0.00193213  0.87756131  0.94785916  1
  S2-  S200  1  0.24949318  0.12281473  0.44156377  1
  S2-  S201  1  0.24686156  0.12331602  0.95486646  1
  S2-  S202  1  0.25647881  0.37057096  0.45988516  1
  S2-  S203  1  0.24739891  0.37258886  0.94703938  1
  S2-  S204  1  0.25603454  0.62155022  0.45510499  1
  S2-  S205  1  0.24737687  0.62756168  0.94945591  1
  S2-  S206  1  0.25189699  0.87063783  0.45324471  1
  S2-  S207  1  0.24798182  0.87215394  0.95582799  1
  S2-  S208  1  0.50659096  0.12180509  0.44369478  1
  S2-  S209  1  0.50237376  0.12327921  0.95077672  1
  S2-  S210  1  0.50097979  0.36658458  0.46113545  1
  S2-  S211  1  0.49571441  0.37389730  0.94985525  1
  S2-  S212  1  0.49867706  0.62197019  0.46473260  1
  S2-  S213  1  0.49648789  0.62405971  0.95349108  1
  S2-  S214  1  0.50160166  0.87414336  0.45549326  1
  S2-  S215  1  0.49648677  0.87256328  0.96162440  1
  S2-  S216  1  0.75040953  0.11475043  0.45633609  1
  S2-  S217  1  0.74406573  0.12261901  0.95607200  1
  S2-  S218  1  0.75115157  0.37271268  0.45600756  1
  S2-  S219  1  0.75326160  0.37396358  0.95138083  1
  S2-  S220  1  0.75134468  0.62364481  0.46054533  1
  S2-  S221  1  0.74944081  0.62368185  0.95012405  1
  S2-  S222  1  0.75399727  0.87181924  0.46519678  1
  S2-  S223  1  0.74436605  0.87230016  0.95435897  1
  S2-  S224  1  0.12456513  -0.00450887  0.04611889  1
  S2-  S225  1  0.12950579  -0.00331955  0.54709140  1
  S2-  S226  1  0.12086698  0.25106908  0.04782676  1
  S2-  S227  1  0.12755645  0.24960577  0.54071808  1
  S2-  S228  1  0.12053084  0.50066001  0.04852414  1
  S2-  S229  1  0.12777767  0.49318013  0.54556214  1
  S2-  S230  1  0.12490919  0.75180519  0.04091102  1
  S2-  S231  1  0.12823885  0.74704331  0.54136142  1
  S2-  S232  1  0.37109389  0.00273697  0.04528487  1
  S2-  S233  1  0.37452481  -0.00039307  0.54288659  1
  S2-  S234  1  0.37550402  0.25154963  0.04481983  1
  S2-  S235  1  0.37597075  0.24654759  0.54711455  1
  S2-  S236  1  0.37308592  0.49955167  0.04360554  1
  S2-  S237  1  0.37530206  0.49496284  0.55140509  1
  S2-  S238  1  0.37138518  0.74671042  0.04600680  1
  S2-  S239  1  0.37727034  0.74830594  0.55098945  1
  S2-  S240  1  0.62568389  -0.00147659  0.05083389  1
  S2-  S241  1  0.62297204  -0.00154312  0.53723360  1
  S2-  S242  1  0.62264516  0.25258148  0.04137932  1
  S2-  S243  1  0.62969580  0.24087377  0.53911154  1
  S2-  S244  1  0.62309261  0.49954854  0.04030263  1
  S2-  S245  1  0.62780945  0.50089438  0.54262959  1
  S2-  S246  1  0.62034375  0.74852019  0.04948890  1
  S2-  S247  1  0.62654173  0.74944641  0.55074496  1
  S2-  S248  1  0.87311373  -0.00405507  0.05167753  1
  S2-  S249  1  0.88323244  -0.00085695  0.54997927  1
  S2-  S250  1  0.87554166  0.24945945  0.04747626  1
  S2-  S251  1  0.87614310  0.24291981  0.54425204  1
  S2-  S252  1  0.87670672  0.50275027  0.04453103  1
  S2-  S253  1  0.87401721  0.49410203  0.55096858  1
  S2-  S254  1  0.87723261  0.75146205  0.03789982  1
  S2-  S255  1  0.87845503  0.74942210  0.55116142  1
