# generated using pymatgen
data_La6Ce6Pr19Nd20Sm13(BiS2)64
_symmetry_space_group_name_H-M   'P 1'
_cell_length_a   16.11834656
_cell_length_b   16.04519554
_cell_length_c   27.42471701
_cell_angle_alpha   90.28249816
_cell_angle_beta   89.83513643
_cell_angle_gamma   90.00165948
_symmetry_Int_Tables_number   1
_chemical_formula_structural   La6Ce6Pr19Nd20Sm13(BiS2)64
_chemical_formula_sum   'La6 Ce6 Pr19 Nd20 Sm13 Bi64 S128'
_cell_volume   7092.52020159
_cell_formula_units_Z   1
loop_
 _symmetry_equiv_pos_site_id
 _symmetry_equiv_pos_as_xyz
  1  'x, y, z'
loop_
 _atom_type_symbol
 _atom_type_oxidation_number
  La3+  3.0
  Ce3+  3.0
  Pr3+  3.0
  Nd3+  3.0
  Sm3+  3.0
  Bi2+  2.0
  S2-  -2.0
loop_
 _atom_site_type_symbol
 _atom_site_label
 _atom_site_symmetry_multiplicity
 _atom_site_fract_x
 _atom_site_fract_y
 _atom_site_fract_z
 _atom_site_occupancy
  La3+  La0  1  0.38631807  0.23344592  0.40562377  1
  La3+  La1  1  0.00288670  0.36927499  0.11292931  1
  La3+  La2  1  0.50423211  0.86479763  0.57669688  1
  La3+  La3  1  0.38248521  0.74262445  0.43514786  1
  La3+  La4  1  0.12815226  0.72987193  0.93306810  1
  La3+  La5  1  0.00610240  0.86236938  0.61790918  1
  Ce3+  Ce6  1  0.75847863  0.12137789  0.56547537  1
  Ce3+  Ce7  1  0.87679619  -0.02015077  0.94163201  1
  Ce3+  Ce8  1  0.25353945  0.35542922  0.05844208  1
  Ce3+  Ce9  1  0.50660550  0.12388537  0.56205366  1
  Ce3+  Ce10  1  0.38590067  -0.00509867  0.44500349  1
  Ce3+  Ce11  1  0.14196753  0.74948567  0.43351956  1
  Pr3+  Pr12  1  0.75063138  0.85699617  0.07133636  1
  Pr3+  Pr13  1  0.12695108  0.48328843  0.93337111  1
  Pr3+  Pr14  1  0.38153151  0.23244459  0.91749882  1
  Pr3+  Pr15  1  0.00531625  0.10865737  0.06458987  1
  Pr3+  Pr16  1  0.25502078  0.37122487  0.54561436  1
  Pr3+  Pr17  1  0.63322714  -0.00772635  0.45286349  1
  Pr3+  Pr18  1  0.12867911  0.23003745  0.93215589  1
  Pr3+  Pr19  1  0.00794022  0.11895238  0.57393370  1
  Pr3+  Pr20  1  0.38872509  0.72878197  0.90557866  1
  Pr3+  Pr21  1  0.50614785  0.37325573  0.56518346  1
  Pr3+  Pr22  1  0.88657564  0.49555165  0.43739245  1
  Pr3+  Pr23  1  0.75138338  0.10524961  0.06425682  1
  Pr3+  Pr24  1  0.25242556  0.85498724  0.05325000  1
  Pr3+  Pr25  1  0.88233354  0.24366968  0.43712109  1
  Pr3+  Pr26  1  0.14900817  0.49182878  0.40304053  1
  Pr3+  Pr27  1  0.76065033  0.86459233  0.56366932  1
  Pr3+  Pr28  1  0.88481154  -0.00767897  0.44812398  1
  Pr3+  Pr29  1  0.00370539  0.86003942  0.06848375  1
  Pr3+  Pr30  1  0.50687575  0.61864233  0.56845846  1
  Nd3+  Nd31  1  0.49904387  0.11003412  0.05565799  1
  Nd3+  Nd32  1  0.38991762  0.49202548  0.43210468  1
  Nd3+  Nd33  1  0.62753492  0.47864939  0.94465559  1
  Nd3+  Nd34  1  0.00915762  0.36763271  0.55897321  1
  Nd3+  Nd35  1  0.62792025  0.23194966  0.93556940  1
  Nd3+  Nd36  1  0.89622551  0.74750441  0.42982359  1
  Nd3+  Nd37  1  0.75103943  0.35156288  0.07638249  1
  Nd3+  Nd38  1  0.87600182  0.73121010  0.93881566  1
  Nd3+  Nd39  1  0.25720974  0.12361183  0.55867513  1
  Nd3+  Nd40  1  0.75867532  0.37246126  0.55601673  1
  Nd3+  Nd41  1  0.12596127  0.23653139  0.42093642  1
  Nd3+  Nd42  1  0.00012817  0.60658624  0.05913813  1
  Nd3+  Nd43  1  0.63230365  0.24372961  0.43770608  1
  Nd3+  Nd44  1  0.25396181  0.62214232  0.55902789  1
  Nd3+  Nd45  1  0.25079585  0.11109334  0.05624895  1
  Nd3+  Nd46  1  0.62625520  0.73284871  0.94034824  1
  Nd3+  Nd47  1  0.12587286  -0.02397937  0.92741531  1
  Nd3+  Nd48  1  0.25040794  0.60495454  0.05900747  1
  Nd3+  Nd49  1  0.50144018  0.60544695  0.06246980  1
  Nd3+  Nd50  1  0.37756695  -0.01987903  0.93870955  1
  Sm3+  Sm51  1  0.62873586  0.74582220  0.43525189  1
  Sm3+  Sm52  1  0.76027379  0.62262491  0.54823515  1
  Sm3+  Sm53  1  0.75217591  0.60574162  0.05482913  1
  Sm3+  Sm54  1  0.62993801  0.49464816  0.43735404  1
  Sm3+  Sm55  1  0.49672124  0.35435709  0.06142046  1
  Sm3+  Sm56  1  0.37835090  0.48296415  0.93628420  1
  Sm3+  Sm57  1  0.01058430  0.62641000  0.54798800  1
  Sm3+  Sm58  1  0.25632193  0.87101772  0.56822819  1
  Sm3+  Sm59  1  0.87839108  0.23062930  0.94689336  1
  Sm3+  Sm60  1  0.62767180  -0.02070251  0.94673341  1
  Sm3+  Sm61  1  0.13329940  -0.00107340  0.44799392  1
  Sm3+  Sm62  1  0.49776124  0.85428280  0.05984467  1
  Sm3+  Sm63  1  0.87662757  0.47722900  0.94558128  1
  Bi2+  Bi64  1  0.01134964  0.10113524  0.29100409  1
  Bi2+  Bi65  1  0.03116008  0.20495830  0.79168151  1
  Bi2+  Bi66  1  -0.01542534  0.39139378  0.31335670  1
  Bi2+  Bi67  1  0.05336668  0.39968589  0.81378118  1
  Bi2+  Bi68  1  -0.06767621  0.64236733  0.21791854  1
  Bi2+  Bi69  1  -0.00833848  0.58896459  0.78997941  1
  Bi2+  Bi70  1  -0.04512151  0.84341269  0.28755409  1
  Bi2+  Bi71  1  -0.01976090  0.89828122  0.81252396  1
  Bi2+  Bi72  1  0.26934524  0.08758992  0.28892775  1
  Bi2+  Bi73  1  0.31646762  0.20972727  0.76213129  1
  Bi2+  Bi74  1  0.26817246  0.41026939  0.27877220  1
  Bi2+  Bi75  1  0.24929749  0.38416267  0.80645995  1
  Bi2+  Bi76  1  0.16412577  0.67797410  0.28769901  1
  Bi2+  Bi77  1  0.24068367  0.60128231  0.78293954  1
  Bi2+  Bi78  1  0.25084052  0.88674452  0.28420013  1
  Bi2+  Bi79  1  0.24375280  0.93436565  0.79626619  1
  Bi2+  Bi80  1  0.55700362  0.10756684  0.29806766  1
  Bi2+  Bi81  1  0.53371725  0.15632900  0.75701594  1
  Bi2+  Bi82  1  0.53488928  0.38950207  0.28151313  1
  Bi2+  Bi83  1  0.53334071  0.36875668  0.79348847  1
  Bi2+  Bi84  1  0.49201962  0.61606686  0.28310440  1
  Bi2+  Bi85  1  0.55590407  0.68348592  0.75356968  1
  Bi2+  Bi86  1  0.51646582  0.85465248  0.28674252  1
  Bi2+  Bi87  1  0.49229886  0.89867619  0.80696060  1
  Bi2+  Bi88  1  0.74987348  0.18679863  0.32811980  1
  Bi2+  Bi89  1  0.73316549  0.21962992  0.80286092  1
  Bi2+  Bi90  1  0.73373863  0.37870455  0.30617187  1
  Bi2+  Bi91  1  0.77144954  0.41669517  0.80400965  1
  Bi2+  Bi92  1  0.67819295  0.64566582  0.28637095  1
  Bi2+  Bi93  1  0.72226692  0.58373167  0.74673345  1
  Bi2+  Bi94  1  0.71756048  0.84490032  0.31202357  1
  Bi2+  Bi95  1  0.73994399  0.86402000  0.79939973  1
  Bi2+  Bi96  1  0.09923733  -0.03590635  0.22434961  1
  Bi2+  Bi97  1  0.12081144  0.04026718  0.73011889  1
  Bi2+  Bi98  1  0.12926566  0.23510947  0.20714883  1
  Bi2+  Bi99  1  0.15762791  0.26534353  0.70152418  1
  Bi2+  Bi100  1  0.15182996  0.50399972  0.20972249  1
  Bi2+  Bi101  1  0.14542288  0.46937210  0.71083929  1
  Bi2+  Bi102  1  0.06907198  0.77066385  0.18706207  1
  Bi2+  Bi103  1  0.14687098  0.71754624  0.70173535  1
  Bi2+  Bi104  1  0.40046718  -0.02712725  0.22944871  1
  Bi2+  Bi105  1  0.37012496  0.04036633  0.70789588  1
  Bi2+  Bi106  1  0.37316839  0.22510672  0.20246974  1
  Bi2+  Bi107  1  0.41404541  0.36615285  0.69797586  1
  Bi2+  Bi108  1  0.42130037  0.48999368  0.20368298  1
  Bi2+  Bi109  1  0.41780898  0.54064945  0.75314593  1
  Bi2+  Bi110  1  0.35699104  0.74554717  0.18687637  1
  Bi2+  Bi111  1  0.38732712  0.76942421  0.71107300  1
  Bi2+  Bi112  1  0.64274586  -0.00814702  0.21524948  1
  Bi2+  Bi113  1  0.59816194  -0.02231390  0.71591591  1
  Bi2+  Bi114  1  0.60867727  0.22301695  0.21013863  1
  Bi2+  Bi115  1  0.68210189  0.23083552  0.68919789  1
  Bi2+  Bi116  1  0.59867607  0.41195063  0.17227709  1
  Bi2+  Bi117  1  0.64070807  0.42224326  0.69480101  1
  Bi2+  Bi118  1  0.67638319  0.78846168  0.20390859  1
  Bi2+  Bi119  1  0.67747035  0.80694845  0.69103272  1
  Bi2+  Bi120  1  0.81444632  0.03612425  0.26535715  1
  Bi2+  Bi121  1  0.77875734  0.03977863  0.75325829  1
  Bi2+  Bi122  1  0.82391115  0.25915324  0.22672028  1
  Bi2+  Bi123  1  0.89766293  0.25625246  0.71102644  1
  Bi2+  Bi124  1  0.75613913  0.51399714  0.21449447  1
  Bi2+  Bi125  1  0.94777345  0.44863976  0.71612396  1
  Bi2+  Bi126  1  0.87464570  0.81428147  0.18009426  1
  Bi2+  Bi127  1  0.87703057  0.71382929  0.70738887  1
  S2-  S128  1  0.00450925  0.20448661  0.15127399  1
  S2-  S129  1  0.01301877  0.02382835  0.66056850  1
  S2-  S130  1  0.02667748  0.37249131  0.22368582  1
  S2-  S131  1  0.01937609  0.25992117  0.63847244  1
  S2-  S132  1  0.00830168  0.54244874  0.15089624  1
  S2-  S133  1  0.00697900  0.67942357  0.64162562  1
  S2-  S134  1  0.01307682  0.98378633  0.14083595  1
  S2-  S135  1  0.00131483  0.82578366  0.72894589  1
  S2-  S136  1  0.24744343  0.13183512  0.15605491  1
  S2-  S137  1  0.23693881  0.10214915  0.65779507  1
  S2-  S138  1  0.17419988  0.36736044  0.14538690  1
  S2-  S139  1  0.26332230  0.37861591  0.64736347  1
  S2-  S140  1  0.25060610  0.61247287  0.15890509  1
  S2-  S141  1  0.28646981  0.65214740  0.65662461  1
  S2-  S142  1  0.24750307  0.84545052  0.15340223  1
  S2-  S143  1  0.16971371  0.85500867  0.65409720  1
  S2-  S144  1  0.48543966  0.13471926  0.15336562  1
  S2-  S145  1  0.46893155  0.15177295  0.65568173  1
  S2-  S146  1  0.38145790  0.34353356  0.13616548  1
  S2-  S147  1  0.50328061  0.49234819  0.64078317  1
  S2-  S148  1  0.48975966  0.63104328  0.16085850  1
  S2-  S149  1  0.52131524  0.73147675  0.64667614  1
  S2-  S150  1  0.47175863  0.86604032  0.15626772  1
  S2-  S151  1  0.37509444  0.88964613  0.64759933  1
  S2-  S152  1  0.74104698  0.21377208  0.14466502  1
  S2-  S153  1  0.81023770  0.11996955  0.65811545  1
  S2-  S154  1  0.84447909  0.38907545  0.15899667  1
  S2-  S155  1  0.79816525  0.37072862  0.65215902  1
  S2-  S156  1  0.74119236  0.64736092  0.14816661  1
  S2-  S157  1  0.76062568  0.62389233  0.64560630  1
  S2-  S158  1  0.75434348  0.98621087  0.14188085  1
  S2-  S159  1  0.83727378  0.85553365  0.65348330  1
  S2-  S160  1  0.13705451  0.08736966  0.36096280  1
  S2-  S161  1  0.09118170  0.05368655  0.83759900  1
  S2-  S162  1  0.14448690  0.34726060  0.34264878  1
  S2-  S163  1  0.24403789  0.22323677  0.85228621  1
  S2-  S164  1  0.07224547  0.55221126  0.31669311  1
  S2-  S165  1  0.12345935  0.60766798  0.85805277  1
  S2-  S166  1  0.05164265  0.76150840  0.34903287  1
  S2-  S167  1  0.12149650  0.84299092  0.85419675  1
  S2-  S168  1  0.39084748  0.06702729  0.35697065  1
  S2-  S169  1  0.37352988  0.01680002  0.84136192  1
  S2-  S170  1  0.32983861  0.25189915  0.30647561  1
  S2-  S171  1  0.39782026  0.37595810  0.85729362  1
  S2-  S172  1  0.29779429  0.52308329  0.34655721  1
  S2-  S173  1  0.37575309  0.58204748  0.85134547  1
  S2-  S174  1  0.26860480  0.76158101  0.35672726  1
  S2-  S175  1  0.33436537  0.80184020  0.81499746  1
  S2-  S176  1  0.60322581  -0.03238645  0.35514467  1
  S2-  S177  1  0.61857468  -0.02820830  0.84897367  1
  S2-  S178  1  0.53655880  0.25372731  0.35404734  1
  S2-  S179  1  0.52751382  0.21687569  0.85400805  1
  S2-  S180  1  0.52035359  0.49979520  0.36084640  1
  S2-  S181  1  0.62642859  0.48589549  0.84622567  1
  S2-  S182  1  0.50765369  0.74071267  0.36158446  1
  S2-  S183  1  0.54358415  0.74068999  0.85382910  1
  S2-  S184  1  0.90876952  -0.01093535  0.34781017  1
  S2-  S185  1  0.84842164  0.00070682  0.84540298  1
  S2-  S186  1  0.97741560  0.22912708  0.35317319  1
  S2-  S187  1  0.88459751  0.23806596  0.84812611  1
  S2-  S188  1  0.85042632  0.49198447  0.33970901  1
  S2-  S189  1  0.86834400  0.53361422  0.85262181  1
  S2-  S190  1  0.84168372  0.73490980  0.33550169  1
  S2-  S191  1  0.86466723  0.77500905  0.84233791  1
  S2-  S192  1  0.00569355  0.11828288  0.46308251  1
  S2-  S193  1  0.00144965  0.10674432  0.95352563  1
  S2-  S194  1  0.01358941  0.37367314  0.45279804  1
  S2-  S195  1  -0.00041088  0.35630489  0.94545713  1
  S2-  S196  1  0.01562454  0.61615732  0.44495619  1
  S2-  S197  1  -0.00450082  0.60527875  0.95515070  1
  S2-  S198  1  0.01412024  0.87475068  0.44957937  1
  S2-  S199  1  -0.00045998  0.85516197  0.95875034  1
  S2-  S200  1  0.26283406  0.12357605  0.45478761  1
  S2-  S201  1  0.25091101  0.09993893  0.95032963  1
  S2-  S202  1  0.26760685  0.36185690  0.44154969  1
  S2-  S203  1  0.25167357  0.36010455  0.95236710  1
  S2-  S204  1  0.25562868  0.61245842  0.45440739  1
  S2-  S205  1  0.25919686  0.60950325  0.95408707  1
  S2-  S206  1  0.25936619  0.87823880  0.46042832  1
  S2-  S207  1  0.26194400  0.84999504  0.94776778  1
  S2-  S208  1  0.51002919  0.12095162  0.45814483  1
  S2-  S209  1  0.50468939  0.10137660  0.95203885  1
  S2-  S210  1  0.51012736  0.36726955  0.45909920  1
  S2-  S211  1  0.50526612  0.35741961  0.95934461  1
  S2-  S212  1  0.51166395  0.61927975  0.46180695  1
  S2-  S213  1  0.50457734  0.60565083  0.95600803  1
  S2-  S214  1  0.50799322  0.86922118  0.46492374  1
  S2-  S215  1  0.50093783  0.85644469  0.95589399  1
  S2-  S216  1  0.75744934  0.11882764  0.45877209  1
  S2-  S217  1  0.74960267  0.10667146  0.95559457  1
  S2-  S218  1  0.75615568  0.37187196  0.45069163  1
  S2-  S219  1  0.75290793  0.35415068  0.95704994  1
  S2-  S220  1  0.75456184  0.62110531  0.44395436  1
  S2-  S221  1  0.75037430  0.60664846  0.95133328  1
  S2-  S222  1  0.75808118  0.86380094  0.45488899  1
  S2-  S223  1  0.74982078  0.85583728  0.95956005  1
  S2-  S224  1  0.13114114  -0.01834869  0.03668986  1
  S2-  S225  1  0.13470681  -0.00378420  0.54985174  1
  S2-  S226  1  0.12816216  0.23253883  0.03883902  1
  S2-  S227  1  0.13309103  0.24434145  0.53597602  1
  S2-  S228  1  0.12417121  0.48358857  0.04049955  1
  S2-  S229  1  0.12788069  0.49720536  0.55488588  1
  S2-  S230  1  0.12532307  0.73030014  0.04371562  1
  S2-  S231  1  0.13400208  0.74767933  0.54116023  1
  S2-  S232  1  0.37700797  -0.01806252  0.04682474  1
  S2-  S233  1  0.38287714  -0.00077463  0.54840042  1
  S2-  S234  1  0.37733431  0.22981551  0.03196877  1
  S2-  S235  1  0.38262396  0.24786183  0.54847957  1
  S2-  S236  1  0.37853637  0.48399349  0.04262857  1
  S2-  S237  1  0.37953978  0.49706319  0.53991665  1
  S2-  S238  1  0.37820571  0.72935263  0.04844360  1
  S2-  S239  1  0.37906419  0.74408494  0.54375966  1
  S2-  S240  1  0.61900394  -0.02086644  0.04947375  1
  S2-  S241  1  0.63262241  -0.00647155  0.55952313  1
  S2-  S242  1  0.62292288  0.23365045  0.04225035  1
  S2-  S243  1  0.63354024  0.24805182  0.54719506  1
  S2-  S244  1  0.62844089  0.48051151  0.04995733  1
  S2-  S245  1  0.63731723  0.49729795  0.54102554  1
  S2-  S246  1  0.62520902  0.73248357  0.04666181  1
  S2-  S247  1  0.63505694  0.74265687  0.53987963  1
  S2-  S248  1  0.87694240  -0.01951476  0.04354988  1
  S2-  S249  1  0.88270321  -0.00706061  0.55278671  1
  S2-  S250  1  0.87754883  0.23319601  0.04857706  1
  S2-  S251  1  0.88046349  0.24646753  0.54311940  1
  S2-  S252  1  0.87385624  0.48209520  0.04809565  1
  S2-  S253  1  0.88626728  0.49809102  0.54469397  1
  S2-  S254  1  0.87532739  0.73164759  0.04602512  1
  S2-  S255  1  0.88396389  0.74303623  0.53692214  1
