# generated using pymatgen
data_La6Ce6Pr19Nd20Sm13(BiS2)64
_symmetry_space_group_name_H-M   'P 1'
_cell_length_a   16.05063221
_cell_length_b   16.09371300
_cell_length_c   27.35383622
_cell_angle_alpha   90.04054292
_cell_angle_beta   90.36101535
_cell_angle_gamma   90.10617372
_symmetry_Int_Tables_number   1
_chemical_formula_structural   La6Ce6Pr19Nd20Sm13(BiS2)64
_chemical_formula_sum   'La6 Ce6 Pr19 Nd20 Sm13 Bi64 S128'
_cell_volume   7065.73196161
_cell_formula_units_Z   1
loop_
 _symmetry_equiv_pos_site_id
 _symmetry_equiv_pos_as_xyz
  1  'x, y, z'
loop_
 _atom_type_symbol
 _atom_type_oxidation_number
  La3+  3.0
  Ce3+  3.0
  Pr3+  3.0
  Nd3+  3.0
  Sm3+  3.0
  Bi2+  2.0
  S2-  -2.0
loop_
 _atom_site_type_symbol
 _atom_site_label
 _atom_site_symmetry_multiplicity
 _atom_site_fract_x
 _atom_site_fract_y
 _atom_site_fract_z
 _atom_site_occupancy
  La3+  La0  1  0.13175673  0.48899453  0.89380228  1
  La3+  La1  1  0.84802269  0.75212540  0.37996883  1
  La3+  La2  1  -0.01020096  0.87429246  0.57076722  1
  La3+  La3  1  0.37470476  0.23992011  0.93990643  1
  La3+  La4  1  0.87335066  0.24482084  0.92756369  1
  La3+  La5  1  0.87392899  -0.00861394  0.93865656  1
  Ce3+  Ce6  1  0.87109827  0.50370067  0.43841802  1
  Ce3+  Ce7  1  0.62585196  0.00163112  0.43584402  1
  Ce3+  Ce8  1  0.12483956  0.24306966  0.93929831  1
  Ce3+  Ce9  1  0.25155923  0.37372410  0.57531046  1
  Ce3+  Ce10  1  0.00312238  0.86855976  0.06131993  1
  Ce3+  Ce11  1  0.50293139  0.36978451  0.05943017  1
  Pr3+  Pr12  1  0.24708464  0.12202354  0.56155915  1
  Pr3+  Pr13  1  0.00386510  0.61762150  0.04769265  1
  Pr3+  Pr14  1  0.50514737  0.60950323  0.06922237  1
  Pr3+  Pr15  1  0.50666348  0.85668038  0.07919584  1
  Pr3+  Pr16  1  0.25068355  0.61651859  0.05632755  1
  Pr3+  Pr17  1  0.74814893  0.37338107  0.55331985  1
  Pr3+  Pr18  1  0.25603886  0.11435558  0.07060406  1
  Pr3+  Pr19  1  0.25585357  0.63521585  0.59669916  1
  Pr3+  Pr20  1  0.49832980  0.87236790  0.55037192  1
  Pr3+  Pr21  1  0.75547291  0.11651089  0.07619024  1
  Pr3+  Pr22  1  0.75711141  0.37150317  0.06807725  1
  Pr3+  Pr23  1  0.87447346  0.74203406  0.93236035  1
  Pr3+  Pr24  1  0.61852701  0.24358929  0.42363770  1
  Pr3+  Pr25  1  0.74749211  0.62438846  0.55174812  1
  Pr3+  Pr26  1  0.36674502  0.74313680  0.43136231  1
  Pr3+  Pr27  1  0.37881159  0.74094901  0.94217247  1
  Pr3+  Pr28  1  0.75107775  0.87281104  0.55146954  1
  Pr3+  Pr29  1  0.61000686  0.74361297  0.40901845  1
  Pr3+  Pr30  1  0.00298255  0.11684749  0.06691528  1
  Nd3+  Nd31  1  0.24658226  0.36673392  0.06523800  1
  Nd3+  Nd32  1  0.50112529  0.37168129  0.56481135  1
  Nd3+  Nd33  1  0.36821541  -0.00263214  0.43762055  1
  Nd3+  Nd34  1  0.74371206  0.13196465  0.56672493  1
  Nd3+  Nd35  1  0.24678706  0.87121314  0.55941689  1
  Nd3+  Nd36  1  0.00109075  0.36673977  0.05825769  1
  Nd3+  Nd37  1  0.37750554  -0.01046206  0.95005906  1
  Nd3+  Nd38  1  0.87425890  0.49180286  0.92999942  1
  Nd3+  Nd39  1  0.87539010  0.00080267  0.42988779  1
  Nd3+  Nd40  1  0.62870468  0.24060154  0.94495723  1
  Nd3+  Nd41  1  0.25280864  0.86483404  0.06144707  1
  Nd3+  Nd42  1  0.12403224  0.74483799  0.91089555  1
  Nd3+  Nd43  1  -0.00027738  0.37549133  0.55942308  1
  Nd3+  Nd44  1  0.11157749  0.74679996  0.44138959  1
  Nd3+  Nd45  1  0.76106547  0.61969891  0.06972370  1
  Nd3+  Nd46  1  0.49988903  0.62487671  0.56311967  1
  Nd3+  Nd47  1  0.61759457  0.49522882  0.42982236  1
  Nd3+  Nd48  1  0.50605580  0.11627271  0.07510944  1
  Nd3+  Nd49  1  0.37573889  0.49346922  0.93653768  1
  Nd3+  Nd50  1  0.62976525  0.73992031  0.93754051  1
  Sm3+  Sm51  1  0.63003156  -0.00871175  0.94829527  1
  Sm3+  Sm52  1  0.87186384  0.24576608  0.43643032  1
  Sm3+  Sm53  1  0.36996052  0.50119878  0.45319633  1
  Sm3+  Sm54  1  -0.00174203  0.62376663  0.56249602  1
  Sm3+  Sm55  1  0.63016297  0.49326981  0.93638041  1
  Sm3+  Sm56  1  0.49727089  0.12308614  0.55566444  1
  Sm3+  Sm57  1  0.36916496  0.25040167  0.44732786  1
  Sm3+  Sm58  1  0.12382016  0.49820599  0.45281705  1
  Sm3+  Sm59  1  -0.00500972  0.12397791  0.55856406  1
  Sm3+  Sm60  1  0.12375915  -0.01377932  0.93196985  1
  Sm3+  Sm61  1  0.12348915  0.25087283  0.45066264  1
  Sm3+  Sm62  1  0.75317252  0.86264834  0.07085719  1
  Sm3+  Sm63  1  0.11887107  -0.00300593  0.44598524  1
  Bi2+  Bi64  1  -0.03101478  0.19591507  0.28965089  1
  Bi2+  Bi65  1  0.06729422  0.07790352  0.78659874  1
  Bi2+  Bi66  1  -0.02002126  0.38897396  0.27621648  1
  Bi2+  Bi67  1  -0.00471320  0.32753750  0.79054979  1
  Bi2+  Bi68  1  0.01384698  0.61585591  0.28898401  1
  Bi2+  Bi69  1  -0.07099273  0.62503879  0.77529308  1
  Bi2+  Bi70  1  0.02389327  0.88295527  0.28962985  1
  Bi2+  Bi71  1  0.03624912  0.86949234  0.78956603  1
  Bi2+  Bi72  1  0.25904020  0.20373071  0.29721528  1
  Bi2+  Bi73  1  0.30806836  0.12461864  0.81198329  1
  Bi2+  Bi74  1  0.17958213  0.39070825  0.30362995  1
  Bi2+  Bi75  1  0.26498223  0.35487076  0.77911786  1
  Bi2+  Bi76  1  0.26403805  0.61325829  0.30506425  1
  Bi2+  Bi77  1  0.30127827  0.62012938  0.79073303  1
  Bi2+  Bi78  1  0.24254291  0.80498480  0.30127728  1
  Bi2+  Bi79  1  0.28729480  0.94035703  0.77654741  1
  Bi2+  Bi80  1  0.44966304  0.18166975  0.23734969  1
  Bi2+  Bi81  1  0.52535407  0.09283731  0.80871613  1
  Bi2+  Bi82  1  0.48836848  0.37097633  0.28521242  1
  Bi2+  Bi83  1  0.55421474  0.40245159  0.81607804  1
  Bi2+  Bi84  1  0.48083952  0.62299404  0.28813335  1
  Bi2+  Bi85  1  0.52356056  0.59746015  0.83132974  1
  Bi2+  Bi86  1  0.41917981  0.90120920  0.28789004  1
  Bi2+  Bi87  1  0.53127490  0.79275792  0.80041724  1
  Bi2+  Bi88  1  0.71983720  0.18951465  0.29401772  1
  Bi2+  Bi89  1  0.79324422  0.12389214  0.79719676  1
  Bi2+  Bi90  1  0.77924634  0.37984918  0.29210299  1
  Bi2+  Bi91  1  0.74461605  0.40748709  0.78116988  1
  Bi2+  Bi92  1  0.74890130  0.58277202  0.27796875  1
  Bi2+  Bi93  1  0.70832901  0.64194878  0.78668941  1
  Bi2+  Bi94  1  0.74595981  0.93813434  0.27175720  1
  Bi2+  Bi95  1  0.80819278  0.88898600  0.79950318  1
  Bi2+  Bi96  1  0.11965042  0.05484926  0.25063283  1
  Bi2+  Bi97  1  0.17655222  0.00873560  0.69475625  1
  Bi2+  Bi98  1  0.07986551  0.23057875  0.19756701  1
  Bi2+  Bi99  1  0.17731455  0.20536654  0.72777874  1
  Bi2+  Bi100  1  0.14097877  0.50515907  0.19918396  1
  Bi2+  Bi101  1  0.09792661  0.48764471  0.70089889  1
  Bi2+  Bi102  1  0.14344020  0.69797942  0.21788035  1
  Bi2+  Bi103  1  0.13424424  0.74073504  0.71008727  1
  Bi2+  Bi104  1  0.30433103  0.00981663  0.22169652  1
  Bi2+  Bi105  1  0.45057624  0.01954053  0.70916263  1
  Bi2+  Bi106  1  0.28917728  0.26863657  0.18544182  1
  Bi2+  Bi107  1  0.43580036  0.21987532  0.70717400  1
  Bi2+  Bi108  1  0.32410708  0.44313566  0.22792344  1
  Bi2+  Bi109  1  0.47664589  0.50112441  0.72830614  1
  Bi2+  Bi110  1  0.35680444  0.75817366  0.20468756  1
  Bi2+  Bi111  1  0.40731972  0.76474431  0.71047799  1
  Bi2+  Bi112  1  0.60080353  0.05234647  0.23640208  1
  Bi2+  Bi113  1  0.63649015  -0.04608633  0.75834796  1
  Bi2+  Bi114  1  0.56394987  0.31677393  0.18275152  1
  Bi2+  Bi115  1  0.63495792  0.23976279  0.76686645  1
  Bi2+  Bi116  1  0.60391751  0.50737394  0.21347732  1
  Bi2+  Bi117  1  0.62987029  0.58672589  0.68134303  1
  Bi2+  Bi118  1  0.60808815  0.79019837  0.21533785  1
  Bi2+  Bi119  1  0.63062128  0.78180038  0.69580258  1
  Bi2+  Bi120  1  0.90834129  0.01240336  0.20668208  1
  Bi2+  Bi121  1  0.92209339  0.00983154  0.69423449  1
  Bi2+  Bi122  1  0.75718036  0.27615195  0.19430498  1
  Bi2+  Bi123  1  0.85230692  0.24401554  0.68433551  1
  Bi2+  Bi124  1  0.87716532  0.49535403  0.19711856  1
  Bi2+  Bi125  1  0.86095502  0.48390301  0.70664413  1
  Bi2+  Bi126  1  0.88109429  0.76990539  0.18735312  1
  Bi2+  Bi127  1  0.83590708  0.76331297  0.71410716  1
  S2-  S128  1  -0.11266427  0.13388654  0.14583366  1
  S2-  S129  1  -0.00750114  0.14232397  0.65677392  1
  S2-  S130  1  -0.11005961  0.35816456  0.13929633  1
  S2-  S131  1  -0.02412803  0.37235058  0.65801508  1
  S2-  S132  1  -0.07643759  0.62703226  0.13785507  1
  S2-  S133  1  0.03356208  0.63903246  0.65978770  1
  S2-  S134  1  0.00999978  0.88460496  0.15981325  1
  S2-  S135  1  0.06474799  0.88383447  0.66460847  1
  S2-  S136  1  0.13036953  0.10200380  0.14163801  1
  S2-  S137  1  0.28905505  0.14087203  0.65802444  1
  S2-  S138  1  0.11818906  0.37158563  0.13718600  1
  S2-  S139  1  0.21746434  0.37790455  0.67210434  1
  S2-  S140  1  0.27399027  0.62381526  0.15679540  1
  S2-  S141  1  0.22364876  0.58982572  0.69496998  1
  S2-  S142  1  0.26269730  0.88013591  0.16114594  1
  S2-  S143  1  0.26343204  0.79120176  0.64723133  1
  S2-  S144  1  0.38160132  0.11058523  0.14777560  1
  S2-  S145  1  0.54401386  0.13618898  0.64877756  1
  S2-  S146  1  0.48980745  0.47462248  0.13840492  1
  S2-  S147  1  0.45540885  0.36792708  0.66069732  1
  S2-  S148  1  0.50894387  0.71645397  0.15138465  1
  S2-  S149  1  0.41415962  0.63563494  0.64960167  1
  S2-  S150  1  0.53256501  0.91507255  0.17517093  1
  S2-  S151  1  0.48832916  0.88001136  0.64996411  1
  S2-  S152  1  0.62930394  0.11732763  0.14849631  1
  S2-  S153  1  0.78269203  0.09324516  0.66257338  1
  S2-  S154  1  0.72946417  0.49961514  0.14176998  1
  S2-  S155  1  0.72086549  0.30380880  0.64257431  1
  S2-  S156  1  0.73169990  0.73949898  0.14517228  1
  S2-  S157  1  0.79990713  0.60560250  0.64792574  1
  S2-  S158  1  0.77693658  0.94174316  0.16342058  1
  S2-  S159  1  0.84654620  0.88028963  0.63831652  1
  S2-  S160  1  0.08876939  -0.00523464  0.34896702  1
  S2-  S161  1  0.17122770  -0.11733404  0.85042503  1
  S2-  S162  1  0.11017033  0.24475088  0.35378055  1
  S2-  S163  1  0.13769645  0.31987575  0.85014428  1
  S2-  S164  1  0.12302703  0.53162321  0.35586497  1
  S2-  S165  1  0.03703767  0.49588471  0.80153281  1
  S2-  S166  1  0.02324725  0.74906138  0.35418687  1
  S2-  S167  1  0.16350301  0.63966702  0.83528783  1
  S2-  S168  1  0.35287968  0.02444806  0.34014169  1
  S2-  S169  1  0.40464451  -0.01639082  0.85214258  1
  S2-  S170  1  0.38370228  0.27026039  0.35115170  1
  S2-  S171  1  0.37897566  0.27216950  0.83990314  1
  S2-  S172  1  0.38533879  0.52940801  0.35699739  1
  S2-  S173  1  0.29468429  0.47598811  0.84727009  1
  S2-  S174  1  0.46277695  0.75409596  0.34683318  1
  S2-  S175  1  0.36832942  0.74504747  0.84148754  1
  S2-  S176  1  0.61464335  0.10122027  0.35597970  1
  S2-  S177  1  0.73881669  0.00002485  0.86844506  1
  S2-  S178  1  0.61185548  0.37161438  0.35353905  1
  S2-  S179  1  0.72615215  0.22347594  0.86221735  1
  S2-  S180  1  0.61878767  0.59805977  0.34855719  1
  S2-  S181  1  0.74319563  0.51961881  0.86016001  1
  S2-  S182  1  0.67132203  0.82303947  0.32196012  1
  S2-  S183  1  0.74467967  0.75945397  0.86104888  1
  S2-  S184  1  0.87666055  -0.08590142  0.34174803  1
  S2-  S185  1  0.99142879  -0.01613677  0.86086244  1
  S2-  S186  1  0.86392351  0.13621451  0.36013062  1
  S2-  S187  1  0.94388583  0.18255234  0.83544632  1
  S2-  S188  1  0.87908448  0.57822612  0.35153684  1
  S2-  S189  1  0.88454581  0.37452489  0.85287575  1
  S2-  S190  1  0.83874852  0.72561033  0.27428537  1
  S2-  S191  1  0.97838626  0.74421845  0.84768352  1
  S2-  S192  1  0.00167023  0.12645260  0.45557857  1
  S2-  S193  1  0.00508077  0.11644938  0.95692978  1
  S2-  S194  1  -0.00326594  0.37302007  0.45171054  1
  S2-  S195  1  0.00875733  0.37260791  0.95157964  1
  S2-  S196  1  0.00049141  0.61680637  0.45990511  1
  S2-  S197  1  0.00608616  0.61244157  0.94240433  1
  S2-  S198  1  -0.00259736  0.87819163  0.46029946  1
  S2-  S199  1  0.00609363  0.86049236  0.95686433  1
  S2-  S200  1  0.24469603  0.12389774  0.45424354  1
  S2-  S201  1  0.24955888  0.11193397  0.95484636  1
  S2-  S202  1  0.24802436  0.37418631  0.46373548  1
  S2-  S203  1  0.25218440  0.36793886  0.95779043  1
  S2-  S204  1  0.24355704  0.62305099  0.45641729  1
  S2-  S205  1  0.24898528  0.61864798  0.95020189  1
  S2-  S206  1  0.24309935  0.87179144  0.45225096  1
  S2-  S207  1  0.25249462  0.86439598  0.95688329  1
  S2-  S208  1  0.48975776  0.12371949  0.45214436  1
  S2-  S209  1  0.50403755  0.11457917  0.96074954  1
  S2-  S210  1  0.49091749  0.37475081  0.45776766  1
  S2-  S211  1  0.50287999  0.36866993  0.95216897  1
  S2-  S212  1  0.49611831  0.62387314  0.45770784  1
  S2-  S213  1  0.50325739  0.61520304  0.95907549  1
  S2-  S214  1  0.49766305  0.87644924  0.44532823  1
  S2-  S215  1  0.50591572  0.86648947  0.95797579  1
  S2-  S216  1  0.74585757  0.12717416  0.45889537  1
  S2-  S217  1  0.74839259  0.11574770  0.96917404  1
  S2-  S218  1  0.75040195  0.37129135  0.44745710  1
  S2-  S219  1  0.74703284  0.36961815  0.95857542  1
  S2-  S220  1  0.74505057  0.63091701  0.44604088  1
  S2-  S221  1  0.75115504  0.61866574  0.96242024  1
  S2-  S222  1  0.74535038  0.86991478  0.44507006  1
  S2-  S223  1  0.74771114  0.86606327  0.96583174  1
  S2-  S224  1  0.12945743  -0.01149568  0.03990854  1
  S2-  S225  1  0.12066791  -0.00090837  0.55043382  1
  S2-  S226  1  0.12952989  0.23839896  0.04226244  1
  S2-  S227  1  0.12243424  0.24854493  0.55544342  1
  S2-  S228  1  0.12783336  0.49466058  0.04366630  1
  S2-  S229  1  0.12888716  0.50205967  0.55773040  1
  S2-  S230  1  0.12761079  0.74287432  0.05616851  1
  S2-  S231  1  0.12273591  0.74658660  0.54841259  1
  S2-  S232  1  0.38290131  -0.01466608  0.05344315  1
  S2-  S233  1  0.37203001  -0.00212585  0.54552216  1
  S2-  S234  1  0.37719324  0.24307702  0.04771050  1
  S2-  S235  1  0.37414669  0.24789701  0.55146951  1
  S2-  S236  1  0.37179292  0.48964604  0.04157699  1
  S2-  S237  1  0.37268839  0.49893982  0.55650454  1
  S2-  S238  1  0.37950031  0.74024731  0.04811522  1
  S2-  S239  1  0.37154125  0.74783601  0.53893282  1
  S2-  S240  1  0.62555805  -0.01518259  0.05135067  1
  S2-  S241  1  0.62425249  0.00083103  0.54440278  1
  S2-  S242  1  0.62626434  0.24550025  0.04887397  1
  S2-  S243  1  0.61798376  0.24757883  0.53521376  1
  S2-  S244  1  0.62722060  0.49147703  0.03896064  1
  S2-  S245  1  0.62075843  0.49685489  0.54175307  1
  S2-  S246  1  0.62658731  0.73934625  0.04259456  1
  S2-  S247  1  0.62311105  0.74918120  0.54639829  1
  S2-  S248  1  0.87513654  -0.01249674  0.04740414  1
  S2-  S249  1  0.86948273  0.00832693  0.53859478  1
  S2-  S250  1  0.87740113  0.24210924  0.03741557  1
  S2-  S251  1  0.87591429  0.24900933  0.54130765  1
  S2-  S252  1  0.87984952  0.49275044  0.03605244  1
  S2-  S253  1  0.87553829  0.49760615  0.54437788  1
  S2-  S254  1  0.87860458  0.74819386  0.03958758  1
  S2-  S255  1  0.87568750  0.74279886  0.54747737  1
