# generated using pymatgen
data_La6Ce6Pr19Nd20Sm13(BiS2)64
_symmetry_space_group_name_H-M   'P 1'
_cell_length_a   16.10125802
_cell_length_b   16.13907301
_cell_length_c   27.29275972
_cell_angle_alpha   90.03086053
_cell_angle_beta   90.02827586
_cell_angle_gamma   90.06206598
_symmetry_Int_Tables_number   1
_chemical_formula_structural   La6Ce6Pr19Nd20Sm13(BiS2)64
_chemical_formula_sum   'La6 Ce6 Pr19 Nd20 Sm13 Bi64 S128'
_cell_volume   7092.27353090
_cell_formula_units_Z   1
loop_
 _symmetry_equiv_pos_site_id
 _symmetry_equiv_pos_as_xyz
  1  'x, y, z'
loop_
 _atom_type_symbol
 _atom_type_oxidation_number
  La3+  3.0
  Ce3+  3.0
  Pr3+  3.0
  Nd3+  3.0
  Sm3+  3.0
  Bi2+  2.0
  S2-  -2.0
loop_
 _atom_site_type_symbol
 _atom_site_label
 _atom_site_symmetry_multiplicity
 _atom_site_fract_x
 _atom_site_fract_y
 _atom_site_fract_z
 _atom_site_occupancy
  La3+  La0  1  0.11772980  0.75180089  0.42608071  1
  La3+  La1  1  0.37853671  0.24353961  0.41154085  1
  La3+  La2  1  0.62429775  -0.00105381  0.43497613  1
  La3+  La3  1  0.11878406  0.24861696  0.39274576  1
  La3+  La4  1  0.86596674  0.24644540  0.89513828  1
  La3+  La5  1  0.74582772  0.62853698  0.60978124  1
  Ce3+  Ce6  1  0.36926315  0.00434919  0.43771777  1
  Ce3+  Ce7  1  0.74482705  0.87409466  0.56683218  1
  Ce3+  Ce8  1  0.48806000  0.12157365  0.07166290  1
  Ce3+  Ce9  1  0.62309014  0.25564522  0.43362289  1
  Ce3+  Ce10  1  0.10965369  0.00132749  0.94050120  1
  Ce3+  Ce11  1  0.74679278  0.12820256  0.55387430  1
  Pr3+  Pr12  1  0.00071034  0.62913777  0.57012352  1
  Pr3+  Pr13  1  0.49726224  0.12823520  0.55901423  1
  Pr3+  Pr14  1  0.85193087  -0.00430822  0.92881290  1
  Pr3+  Pr15  1  0.87192799  0.50363436  0.44724239  1
  Pr3+  Pr16  1  0.60492942  0.49600060  0.94150547  1
  Pr3+  Pr17  1  0.11975477  0.50312107  0.43432381  1
  Pr3+  Pr18  1  -0.02237352  0.62406173  0.05827593  1
  Pr3+  Pr19  1  0.87363399  0.00290528  0.44495970  1
  Pr3+  Pr20  1  -0.01695230  0.87097934  0.05280121  1
  Pr3+  Pr21  1  0.24296515  0.62606357  0.56611781  1
  Pr3+  Pr22  1  0.22532231  0.63328222  0.07525396  1
  Pr3+  Pr23  1  0.73506447  0.87140762  0.06229758  1
  Pr3+  Pr24  1  0.36006892  0.00228281  0.93875968  1
  Pr3+  Pr25  1  0.23410974  0.12119958  0.07139722  1
  Pr3+  Pr26  1  0.37167331  0.50262243  0.43198623  1
  Pr3+  Pr27  1  -0.01928802  0.37320887  0.06199323  1
  Pr3+  Pr28  1  0.48427406  0.87107242  0.07341441  1
  Pr3+  Pr29  1  0.49347375  0.62632884  0.56856540  1
  Pr3+  Pr30  1  0.60657567  0.74665430  0.94070497  1
  Nd3+  Nd31  1  0.48338925  0.36842309  0.07655246  1
  Nd3+  Nd32  1  0.73857758  0.37174722  0.06021295  1
  Nd3+  Nd33  1  0.49591142  0.37724034  0.55720587  1
  Nd3+  Nd34  1  -0.00394248  0.12887197  0.56113680  1
  Nd3+  Nd35  1  0.36161270  0.49827251  0.94961297  1
  Nd3+  Nd36  1  -0.00914699  0.37743399  0.56755431  1
  Nd3+  Nd37  1  0.87299397  0.25615272  0.43736516  1
  Nd3+  Nd38  1  0.24608124  0.13088014  0.55580887  1
  Nd3+  Nd39  1  0.60404713  -0.00197018  0.93671472  1
  Nd3+  Nd40  1  0.86059379  0.74171356  0.91712139  1
  Nd3+  Nd41  1  0.11107174  0.24726887  0.94039394  1
  Nd3+  Nd42  1  0.61868362  0.74849076  0.44262977  1
  Nd3+  Nd43  1  0.37004812  0.75024115  0.44340906  1
  Nd3+  Nd44  1  0.24483979  0.37345291  0.54725731  1
  Nd3+  Nd45  1  0.11126259  0.74279953  0.92871941  1
  Nd3+  Nd46  1  0.12056852  0.00599492  0.43726604  1
  Nd3+  Nd47  1  0.48205571  0.61921480  0.07909523  1
  Nd3+  Nd48  1  -0.01659916  0.12253516  0.05821815  1
  Nd3+  Nd49  1  0.61025983  0.24922120  0.93653407  1
  Nd3+  Nd50  1  0.85219282  0.49462161  0.92398167  1
  Sm3+  Sm51  1  0.73765617  0.62144247  0.05725386  1
  Sm3+  Sm52  1  0.23579069  0.87093364  0.04843015  1
  Sm3+  Sm53  1  0.86745185  0.75034122  0.44888038  1
  Sm3+  Sm54  1  0.22714350  0.37802546  0.07174264  1
  Sm3+  Sm55  1  0.10696680  0.49412348  0.94207501  1
  Sm3+  Sm56  1  0.74170042  0.37859764  0.56135583  1
  Sm3+  Sm57  1  -0.00232077  0.87624186  0.55876811  1
  Sm3+  Sm58  1  0.36419905  0.74457182  0.94075952  1
  Sm3+  Sm59  1  0.24462454  0.87832453  0.55168838  1
  Sm3+  Sm60  1  0.49486461  0.87644155  0.55562335  1
  Sm3+  Sm61  1  0.36039694  0.24882764  0.95088755  1
  Sm3+  Sm62  1  0.73509518  0.12378902  0.05035465  1
  Sm3+  Sm63  1  0.62162025  0.50507614  0.44692059  1
  Bi2+  Bi64  1  -0.02238858  0.09490506  0.29586181  1
  Bi2+  Bi65  1  0.05483236  0.12595214  0.80004756  1
  Bi2+  Bi66  1  -0.05847907  0.39340997  0.29168024  1
  Bi2+  Bi67  1  0.03203572  0.37873345  0.79373207  1
  Bi2+  Bi68  1  0.01315349  0.59174191  0.27858425  1
  Bi2+  Bi69  1  0.01423947  0.63794640  0.79154535  1
  Bi2+  Bi70  1  0.07360381  0.86387110  0.30851264  1
  Bi2+  Bi71  1  -0.00684313  0.92587259  0.74952605  1
  Bi2+  Bi72  1  0.25228885  0.13370853  0.27809197  1
  Bi2+  Bi73  1  0.31687584  0.12895780  0.75490344  1
  Bi2+  Bi74  1  0.21531558  0.40883635  0.28146071  1
  Bi2+  Bi75  1  0.33943004  0.42133194  0.76050763  1
  Bi2+  Bi76  1  0.27058143  0.67906583  0.31074189  1
  Bi2+  Bi77  1  0.26533406  0.67259054  0.82380446  1
  Bi2+  Bi78  1  0.26488145  0.87376122  0.29888623  1
  Bi2+  Bi79  1  0.25172946  0.86073068  0.79721967  1
  Bi2+  Bi80  1  0.49948718  0.10496214  0.28405112  1
  Bi2+  Bi81  1  0.49929426  0.14042515  0.80135402  1
  Bi2+  Bi82  1  0.57915002  0.37832042  0.29300163  1
  Bi2+  Bi83  1  0.48059225  0.33019939  0.82719898  1
  Bi2+  Bi84  1  0.55934586  0.63728809  0.25202382  1
  Bi2+  Bi85  1  0.45253483  0.61446987  0.79762951  1
  Bi2+  Bi86  1  0.52474468  0.84071033  0.29381017  1
  Bi2+  Bi87  1  0.45366652  0.87111575  0.79685973  1
  Bi2+  Bi88  1  0.73714141  0.13564774  0.28173765  1
  Bi2+  Bi89  1  0.75493475  0.11195216  0.79055552  1
  Bi2+  Bi90  1  0.75902049  0.31603920  0.32530143  1
  Bi2+  Bi91  1  0.65750446  0.37090833  0.78139985  1
  Bi2+  Bi92  1  0.73458362  0.57864121  0.29389333  1
  Bi2+  Bi93  1  0.72538617  0.62307708  0.79686683  1
  Bi2+  Bi94  1  0.78188982  0.85782588  0.29869376  1
  Bi2+  Bi95  1  0.81982611  0.86820214  0.80089759  1
  Bi2+  Bi96  1  0.05330876  -0.01040100  0.21047660  1
  Bi2+  Bi97  1  0.17980889  -0.00854843  0.71897384  1
  Bi2+  Bi98  1  0.13800283  0.23885779  0.17929257  1
  Bi2+  Bi99  1  0.13537818  0.25829950  0.68365339  1
  Bi2+  Bi100  1  0.14514721  0.52474509  0.20449675  1
  Bi2+  Bi101  1  0.19153255  0.55136177  0.73776854  1
  Bi2+  Bi102  1  0.11387708  0.77940006  0.20193942  1
  Bi2+  Bi103  1  0.16135361  0.74433139  0.71327106  1
  Bi2+  Bi104  1  0.40488580  -0.04712093  0.23240002  1
  Bi2+  Bi105  1  0.38649462  -0.03882980  0.70227552  1
  Bi2+  Bi106  1  0.40745940  0.30724018  0.22488097  1
  Bi2+  Bi107  1  0.39819431  0.27630201  0.69180226  1
  Bi2+  Bi108  1  0.40750539  0.51533650  0.23459505  1
  Bi2+  Bi109  1  0.36256327  0.56035487  0.67301295  1
  Bi2+  Bi110  1  0.35777809  0.74197476  0.20713162  1
  Bi2+  Bi111  1  0.36876494  0.74339370  0.71421983  1
  Bi2+  Bi112  1  0.63854018  -0.00620479  0.20341305  1
  Bi2+  Bi113  1  0.64896977  -0.04607659  0.75350574  1
  Bi2+  Bi114  1  0.64980537  0.26014482  0.20018365  1
  Bi2+  Bi115  1  0.59547076  0.22756341  0.71225768  1
  Bi2+  Bi116  1  0.65586036  0.47092547  0.19737211  1
  Bi2+  Bi117  1  0.53648345  0.49869654  0.71746538  1
  Bi2+  Bi118  1  0.72052287  0.68955965  0.19619302  1
  Bi2+  Bi119  1  0.60482640  0.77458091  0.71473617  1
  Bi2+  Bi120  1  0.85322914  -0.00186224  0.22886275  1
  Bi2+  Bi121  1  0.82465740  -0.00577343  0.70376997  1
  Bi2+  Bi122  1  0.84675928  0.26925763  0.22034987  1
  Bi2+  Bi123  1  0.87870400  0.21667787  0.68992340  1
  Bi2+  Bi124  1  0.85465492  0.50501254  0.20713614  1
  Bi2+  Bi125  1  0.88037868  0.47263391  0.70972841  1
  Bi2+  Bi126  1  0.92892987  0.76038258  0.24699642  1
  Bi2+  Bi127  1  0.88813614  0.75286566  0.71710825  1
  S2-  S128  1  0.00524257  0.13496778  0.15727414  1
  S2-  S129  1  0.01459660  0.13300232  0.66050232  1
  S2-  S130  1  0.08945047  0.39141350  0.14358386  1
  S2-  S131  1  0.02511235  0.38523947  0.66723375  1
  S2-  S132  1  0.08231382  0.63662694  0.14071659  1
  S2-  S133  1  -0.09329037  0.61703243  0.65552783  1
  S2-  S134  1  -0.02814346  0.86162399  0.15314865  1
  S2-  S135  1  -0.00276735  0.85188572  0.65555971  1
  S2-  S136  1  0.25028824  0.10425907  0.17238813  1
  S2-  S137  1  0.23561659  0.12354221  0.65516083  1
  S2-  S138  1  0.28760965  0.34273324  0.16488766  1
  S2-  S139  1  0.25267667  0.35077512  0.64728609  1
  S2-  S140  1  0.30191083  0.59305715  0.16421246  1
  S2-  S141  1  0.12948169  0.62546713  0.64298341  1
  S2-  S142  1  0.23901770  0.82077356  0.14149569  1
  S2-  S143  1  0.24281768  0.87302300  0.64925810  1
  S2-  S144  1  0.49174185  0.23913605  0.14661030  1
  S2-  S145  1  0.48813698  0.13047183  0.65906529  1
  S2-  S146  1  0.49351311  0.49105265  0.14931476  1
  S2-  S147  1  0.56118425  0.37175702  0.64995252  1
  S2-  S148  1  0.48553493  0.74773797  0.14784156  1
  S2-  S149  1  0.58114492  0.64540817  0.65516251  1
  S2-  S150  1  0.48970966  1.00011729  0.14458398  1
  S2-  S151  1  0.51875756  0.88938293  0.65220442  1
  S2-  S152  1  0.71587569  0.12175704  0.14913731  1
  S2-  S153  1  0.73857973  0.12252647  0.65110236  1
  S2-  S154  1  0.85595969  0.37551946  0.13729843  1
  S2-  S155  1  0.80666754  0.35857588  0.65114781  1
  S2-  S156  1  0.84931358  0.63581486  0.13304283  1
  S2-  S157  1  0.73658972  0.53716096  0.70241039  1
  S2-  S158  1  0.69897053  0.86126862  0.16161811  1
  S2-  S159  1  0.74769406  0.79004210  0.65372852  1
  S2-  S160  1  0.13099164  0.08630424  0.34868667  1
  S2-  S161  1  0.16381997  0.03775218  0.85129475  1
  S2-  S162  1  0.13361852  0.25187465  0.27565113  1
  S2-  S163  1  0.12429219  0.26352960  0.84095730  1
  S2-  S164  1  0.10103285  0.40791883  0.35037225  1
  S2-  S165  1  0.11005232  0.50987824  0.84347920  1
  S2-  S166  1  0.11991141  0.62690839  0.35696683  1
  S2-  S167  1  0.00759554  0.76464614  0.84940271  1
  S2-  S168  1  0.36756882  0.08597615  0.35149360  1
  S2-  S169  1  0.47890211  0.00156734  0.86502822  1
  S2-  S170  1  0.31909202  0.28377893  0.31812422  1
  S2-  S171  1  0.35702207  0.20844743  0.85458881  1
  S2-  S172  1  0.33443545  0.51607621  0.33391321  1
  S2-  S173  1  0.46999930  0.49440552  0.87117907  1
  S2-  S174  1  0.42232456  0.73123295  0.34970014  1
  S2-  S175  1  0.48173514  0.74317717  0.86723596  1
  S2-  S176  1  0.58195159  -0.00871541  0.33692506  1
  S2-  S177  1  0.70911071  -0.01336017  0.85496690  1
  S2-  S178  1  0.53070977  0.23914282  0.35112762  1
  S2-  S179  1  0.70631176  0.24852582  0.84937874  1
  S2-  S180  1  0.59113048  0.52997240  0.35112663  1
  S2-  S181  1  0.69585508  0.49300240  0.85284770  1
  S2-  S182  1  0.65496563  0.77924071  0.34659971  1
  S2-  S183  1  0.71439501  0.75159775  0.85637764  1
  S2-  S184  1  0.84668259  0.00648640  0.34607375  1
  S2-  S185  1  0.90081646  0.08834578  0.84762443  1
  S2-  S186  1  0.95662066  0.23790821  0.35088433  1
  S2-  S187  1  0.92353291  0.24493442  0.77925841  1
  S2-  S188  1  0.88550017  0.52911737  0.34729839  1
  S2-  S189  1  0.89704943  0.39666998  0.84465458  1
  S2-  S190  1  0.89616371  0.76732253  0.35286063  1
  S2-  S191  1  0.86963167  0.61020309  0.84551384  1
  S2-  S192  1  -0.00175823  0.12952574  0.45524879  1
  S2-  S193  1  -0.01494976  0.12506689  0.95313808  1
  S2-  S194  1  -0.00454959  0.37682298  0.45900278  1
  S2-  S195  1  -0.01260035  0.36884220  0.95335497  1
  S2-  S196  1  -0.00670337  0.63107067  0.46068189  1
  S2-  S197  1  -0.01085173  0.61962405  0.95095404  1
  S2-  S198  1  -0.00316217  0.87790648  0.45392741  1
  S2-  S199  1  -0.01593539  0.87855167  0.94704414  1
  S2-  S200  1  0.24364514  0.13229004  0.45114577  1
  S2-  S201  1  0.23641216  0.12481249  0.96257138  1
  S2-  S202  1  0.24943774  0.37118900  0.44219516  1
  S2-  S203  1  0.23603646  0.37361218  0.95577359  1
  S2-  S204  1  0.24812534  0.62700333  0.45836513  1
  S2-  S205  1  0.23492691  0.62037463  0.95691378  1
  S2-  S206  1  0.24512579  0.87788530  0.44657934  1
  S2-  S207  1  0.23670239  0.87038558  0.94452233  1
  S2-  S208  1  0.49929921  0.12368638  0.45371919  1
  S2-  S209  1  0.48400578  0.12843012  0.96366748  1
  S2-  S210  1  0.49715752  0.37993266  0.45032263  1
  S2-  S211  1  0.48369811  0.36771351  0.96952688  1
  S2-  S212  1  0.49490179  0.62546477  0.46040401  1
  S2-  S213  1  0.48249413  0.62171726  0.97190107  1
  S2-  S214  1  0.49361922  0.87670890  0.45096567  1
  S2-  S215  1  0.47958577  0.87289115  0.96574692  1
  S2-  S216  1  0.74750330  0.12905045  0.44717159  1
  S2-  S217  1  0.73497801  0.12532087  0.94911608  1
  S2-  S218  1  0.74442539  0.38033587  0.45637046  1
  S2-  S219  1  0.73645842  0.36743844  0.95526317  1
  S2-  S220  1  0.74464646  0.62823159  0.45054184  1
  S2-  S221  1  0.73270349  0.62121821  0.95568613  1
  S2-  S222  1  0.74760911  0.87525438  0.45831607  1
  S2-  S223  1  0.73156321  0.87285429  0.95667276  1
  S2-  S224  1  0.11056308  -0.00456629  0.04827915  1
  S2-  S225  1  0.12115806  0.00204442  0.54562552  1
  S2-  S226  1  0.11111527  0.24720702  0.04716364  1
  S2-  S227  1  0.11871553  0.25269683  0.55101498  1
  S2-  S228  1  0.11072415  0.50070084  0.04339944  1
  S2-  S229  1  0.12009756  0.49735806  0.54303235  1
  S2-  S230  1  0.10891713  0.75157207  0.03430011  1
  S2-  S231  1  0.12233499  0.75702757  0.53920889  1
  S2-  S232  1  0.35487430  -0.00316933  0.04624469  1
  S2-  S233  1  0.37021099  0.00151359  0.54542795  1
  S2-  S234  1  0.35265278  0.25008789  0.05340422  1
  S2-  S235  1  0.37343380  0.25200613  0.54008615  1
  S2-  S236  1  0.35232952  0.49449209  0.05280683  1
  S2-  S237  1  0.37022061  0.49998992  0.54082485  1
  S2-  S238  1  0.35678147  0.74605425  0.04374270  1
  S2-  S239  1  0.36886065  0.75404063  0.55078456  1
  S2-  S240  1  0.61293353  -0.00200014  0.04330214  1
  S2-  S241  1  0.62068733  -0.00006717  0.54526023  1
  S2-  S242  1  0.61416927  0.24860721  0.04399020  1
  S2-  S243  1  0.62212378  0.25340288  0.54228484  1
  S2-  S244  1  0.61541377  0.49649281  0.04903840  1
  S2-  S245  1  0.62483350  0.50583802  0.55203014  1
  S2-  S246  1  0.61420634  0.74265520  0.04854271  1
  S2-  S247  1  0.61828035  0.75359040  0.54728416  1
  S2-  S248  1  0.85852946  -0.00106124  0.04480192  1
  S2-  S249  1  0.87296787  0.00007680  0.55174623  1
  S2-  S250  1  0.85960208  0.24123961  0.04550819  1
  S2-  S251  1  0.86966195  0.25296555  0.54435803  1
  S2-  S252  1  0.85828304  0.49750018  0.03326749  1
  S2-  S253  1  0.86457709  0.50358938  0.55295151  1
  S2-  S254  1  0.85836226  0.75036757  0.03158300  1
  S2-  S255  1  0.87243928  0.75292212  0.55173420  1
