# generated using pymatgen
data_La6Ce6Pr19Nd20Sm13(BiS2)64
_symmetry_space_group_name_H-M   'P 1'
_cell_length_a   16.08513377
_cell_length_b   16.06628374
_cell_length_c   27.74087051
_cell_angle_alpha   89.46088401
_cell_angle_beta   89.73610754
_cell_angle_gamma   89.92522884
_symmetry_Int_Tables_number   1
_chemical_formula_structural   La6Ce6Pr19Nd20Sm13(BiS2)64
_chemical_formula_sum   'La6 Ce6 Pr19 Nd20 Sm13 Bi64 S128'
_cell_volume   7168.62755069
_cell_formula_units_Z   1
loop_
 _symmetry_equiv_pos_site_id
 _symmetry_equiv_pos_as_xyz
  1  'x, y, z'
loop_
 _atom_type_symbol
 _atom_type_oxidation_number
  La3+  3.0
  Ce3+  3.0
  Pr3+  3.0
  Nd3+  3.0
  Sm3+  3.0
  Bi2+  2.0
  S2-  -2.0
loop_
 _atom_site_type_symbol
 _atom_site_label
 _atom_site_symmetry_multiplicity
 _atom_site_fract_x
 _atom_site_fract_y
 _atom_site_fract_z
 _atom_site_occupancy
  La3+  La0  1  0.62296507  0.26110960  0.39257156  1
  La3+  La1  1  0.22586498  0.60809681  0.59303445  1
  La3+  La2  1  0.49751364  0.12994247  0.07658908  1
  La3+  La3  1  0.35587903  0.73639546  0.41012029  1
  La3+  La4  1  0.75437419  0.88907548  0.05971117  1
  La3+  La5  1  0.38846247  0.77029556  0.90463290  1
  Ce3+  Ce6  1  0.60559254  -0.00914759  0.44532637  1
  Ce3+  Ce7  1  0.85533225  0.49087784  0.44703502  1
  Ce3+  Ce8  1  0.36046367  0.49099257  0.44258588  1
  Ce3+  Ce9  1  0.00730016  0.88690471  0.05348551  1
  Ce3+  Ce10  1  0.23382295  0.36350048  0.55997357  1
  Ce3+  Ce11  1  0.00608354  0.14128633  0.05698269  1
  Pr3+  Pr12  1  0.00312505  0.63579953  0.05735617  1
  Pr3+  Pr13  1  0.48181955  0.11207585  0.56408745  1
  Pr3+  Pr14  1  0.00488234  0.38084343  0.07026478  1
  Pr3+  Pr15  1  0.22415444  0.87277779  0.59561496  1
  Pr3+  Pr16  1  0.25633758  0.64337458  0.04522798  1
  Pr3+  Pr17  1  0.50385273  0.64204297  0.05136452  1
  Pr3+  Pr18  1  0.84398942  0.73911795  0.42821641  1
  Pr3+  Pr19  1  0.13297601  0.01706702  0.93649792  1
  Pr3+  Pr20  1  0.85918847  0.23841781  0.44047045  1
  Pr3+  Pr21  1  0.63169766  0.02486483  0.93242718  1
  Pr3+  Pr22  1  0.11289687  0.49310899  0.44190643  1
  Pr3+  Pr23  1  0.72939061  0.11244108  0.56088449  1
  Pr3+  Pr24  1  0.11353757  -0.01451592  0.43761357  1
  Pr3+  Pr25  1  0.38856603  0.51490488  0.92681872  1
  Pr3+  Pr26  1  -0.01604765  0.11255135  0.55451230  1
  Pr3+  Pr27  1  0.11180230  0.23950406  0.43890997  1
  Pr3+  Pr28  1  0.11230223  0.73965140  0.43809839  1
  Pr3+  Pr29  1  0.63583634  0.77469873  0.92297147  1
  Pr3+  Pr30  1  0.73504413  0.61461661  0.56875375  1
  Nd3+  Nd31  1  0.38296110  0.26306207  0.94125209  1
  Nd3+  Nd32  1  0.88231916  0.27171250  0.93483776  1
  Nd3+  Nd33  1  0.75409615  0.13900457  0.06585896  1
  Nd3+  Nd34  1  0.73108100  0.36253156  0.56387030  1
  Nd3+  Nd35  1  0.25698051  0.38980996  0.05802661  1
  Nd3+  Nd36  1  0.88169724  0.77122872  0.93483170  1
  Nd3+  Nd37  1  0.13191834  0.27109645  0.94059029  1
  Nd3+  Nd38  1  0.25400988  0.88603115  0.04562586  1
  Nd3+  Nd39  1  0.88076086  0.02458453  0.93407846  1
  Nd3+  Nd40  1  0.38295513  0.02141609  0.92734103  1
  Nd3+  Nd41  1  0.75498824  0.38861882  0.05787154  1
  Nd3+  Nd42  1  0.88341711  0.51588461  0.93499573  1
  Nd3+  Nd43  1  0.47526602  0.61706864  0.56333620  1
  Nd3+  Nd44  1  0.36586782  0.23827661  0.43748927  1
  Nd3+  Nd45  1  -0.01574323  0.61827006  0.55827086  1
  Nd3+  Nd46  1  0.50491991  0.38740606  0.06589530  1
  Nd3+  Nd47  1  0.73415992  0.86024518  0.56988494  1
  Nd3+  Nd48  1  0.12150485  0.77583834  0.90395205  1
  Nd3+  Nd49  1  0.50336504  0.88926883  0.05091231  1
  Nd3+  Nd50  1  -0.01604760  0.36257844  0.55631028  1
  Sm3+  Sm51  1  0.25754676  0.13981959  0.06042705  1
  Sm3+  Sm52  1  0.13351772  0.51824639  0.94379649  1
  Sm3+  Sm53  1  0.36162921  -0.01313217  0.44987413  1
  Sm3+  Sm54  1  0.85402228  -0.01089016  0.45093030  1
  Sm3+  Sm55  1  0.63058826  0.51816839  0.94157531  1
  Sm3+  Sm56  1  0.23300651  0.11196583  0.55839021  1
  Sm3+  Sm57  1  0.75431533  0.63975139  0.05363293  1
  Sm3+  Sm58  1  0.47648933  0.85958852  0.56603462  1
  Sm3+  Sm59  1  0.60610622  0.74214190  0.45210757  1
  Sm3+  Sm60  1  0.48168152  0.36337983  0.55850239  1
  Sm3+  Sm61  1  0.62983377  0.26210428  0.94845175  1
  Sm3+  Sm62  1  -0.01319760  0.86084096  0.55452623  1
  Sm3+  Sm63  1  0.60659684  0.49066609  0.44970635  1
  Bi2+  Bi64  1  -0.01953668  0.17237037  0.26693159  1
  Bi2+  Bi65  1  0.00470102  0.17692477  0.78882214  1
  Bi2+  Bi66  1  0.02906772  0.38520985  0.29440812  1
  Bi2+  Bi67  1  0.03843147  0.36937221  0.80613344  1
  Bi2+  Bi68  1  0.05096346  0.66307669  0.25485756  1
  Bi2+  Bi69  1  -0.08578236  0.61519072  0.79013843  1
  Bi2+  Bi70  1  0.04107651  0.85197253  0.28441067  1
  Bi2+  Bi71  1  -0.06546781  0.86853660  0.71334153  1
  Bi2+  Bi72  1  0.26044956  0.18430109  0.29009716  1
  Bi2+  Bi73  1  0.26277450  0.13329434  0.79378495  1
  Bi2+  Bi74  1  0.28556668  0.37080874  0.31913624  1
  Bi2+  Bi75  1  0.20642584  0.38018631  0.73817812  1
  Bi2+  Bi76  1  0.22733199  0.60269542  0.29108386  1
  Bi2+  Bi77  1  0.22591650  0.57864294  0.79247066  1
  Bi2+  Bi78  1  0.31235655  0.81738649  0.28130412  1
  Bi2+  Bi79  1  0.24661460  0.88837376  0.79245302  1
  Bi2+  Bi80  1  0.50256863  0.07233200  0.30629066  1
  Bi2+  Bi81  1  0.50576482  0.08292276  0.79866970  1
  Bi2+  Bi82  1  0.47642755  0.37180357  0.29287010  1
  Bi2+  Bi83  1  0.47249333  0.32997145  0.75765510  1
  Bi2+  Bi84  1  0.47115164  0.64117013  0.28546050  1
  Bi2+  Bi85  1  0.47020010  0.59105275  0.79508539  1
  Bi2+  Bi86  1  0.52003176  0.85657345  0.23849183  1
  Bi2+  Bi87  1  0.53929806  0.88067756  0.78509579  1
  Bi2+  Bi88  1  0.78830107  0.14036639  0.29075278  1
  Bi2+  Bi89  1  0.76755475  0.04999663  0.80829366  1
  Bi2+  Bi90  1  0.75514175  0.42456985  0.29520027  1
  Bi2+  Bi91  1  0.77358611  0.35645827  0.79474208  1
  Bi2+  Bi92  1  0.77732435  0.67322112  0.29098487  1
  Bi2+  Bi93  1  0.72966540  0.62805037  0.82731659  1
  Bi2+  Bi94  1  0.75830074  0.88166699  0.30814725  1
  Bi2+  Bi95  1  0.82236170  0.80686043  0.80674814  1
  Bi2+  Bi96  1  0.13411060  0.02030906  0.24136043  1
  Bi2+  Bi97  1  0.12684556  0.05368981  0.72953298  1
  Bi2+  Bi98  1  0.14733407  0.20233106  0.19696764  1
  Bi2+  Bi99  1  0.11359726  0.23804087  0.68598500  1
  Bi2+  Bi100  1  0.16984376  0.40850347  0.21780519  1
  Bi2+  Bi101  1  0.01793236  0.49885565  0.71884638  1
  Bi2+  Bi102  1  0.15740293  0.78753507  0.16998098  1
  Bi2+  Bi103  1  0.11674484  0.74007581  0.70881708  1
  Bi2+  Bi104  1  0.33166987  0.00763603  0.25214071  1
  Bi2+  Bi105  1  0.38694762  0.04364845  0.70911360  1
  Bi2+  Bi106  1  0.39999293  0.23094042  0.19834036  1
  Bi2+  Bi107  1  0.33055545  0.23432877  0.70231022  1
  Bi2+  Bi108  1  0.35453089  0.48198423  0.23152020  1
  Bi2+  Bi109  1  0.39049385  0.47980384  0.69663073  1
  Bi2+  Bi110  1  0.37918822  0.74012103  0.18253006  1
  Bi2+  Bi111  1  0.39504967  0.74497302  0.70597443  1
  Bi2+  Bi112  1  0.66115393  0.00795241  0.19473844  1
  Bi2+  Bi113  1  0.65795680  0.03593005  0.70882392  1
  Bi2+  Bi114  1  0.65123373  0.26709759  0.19699244  1
  Bi2+  Bi115  1  0.63581272  0.22248664  0.76790277  1
  Bi2+  Bi116  1  0.63150423  0.55354647  0.24948465  1
  Bi2+  Bi117  1  0.63123979  0.48500934  0.77466594  1
  Bi2+  Bi118  1  0.64668252  0.72959164  0.19538272  1
  Bi2+  Bi119  1  0.68975314  0.76623749  0.72595910  1
  Bi2+  Bi120  1  0.90424050  -0.00991280  0.25414815  1
  Bi2+  Bi121  1  0.88785953  0.06079675  0.71766853  1
  Bi2+  Bi122  1  0.89610585  0.33229823  0.19866259  1
  Bi2+  Bi123  1  0.85451639  0.28068316  0.70320353  1
  Bi2+  Bi124  1  0.91191970  0.52475060  0.24713303  1
  Bi2+  Bi125  1  0.82136429  0.52124031  0.70313935  1
  Bi2+  Bi126  1  0.89556215  0.78109649  0.18392383  1
  Bi2+  Bi127  1  0.85602358  0.71034145  0.66797224  1
  S2-  S128  1  0.00237750  0.23556948  0.13710732  1
  S2-  S129  1  0.01558992  0.10588537  0.65019775  1
  S2-  S130  1  -0.02157088  0.46261517  0.15588631  1
  S2-  S131  1  -0.01058938  0.36001154  0.65382063  1
  S2-  S132  1  0.01394022  0.68015373  0.15266428  1
  S2-  S133  1  0.06489204  0.61491247  0.64507239  1
  S2-  S134  1  0.01210548  0.89519096  0.14924767  1
  S2-  S135  1  0.06169230  0.86553310  0.64160648  1
  S2-  S136  1  0.35239787  0.11236264  0.13866995  1
  S2-  S137  1  0.23828018  0.03539248  0.64509805  1
  S2-  S138  1  0.26233662  0.31902940  0.14786632  1
  S2-  S139  1  0.23575015  0.44539095  0.64409788  1
  S2-  S140  1  0.24890345  0.64835866  0.14481278  1
  S2-  S141  1  0.25520863  0.63915964  0.69249258  1
  S2-  S142  1  0.28448666  0.87785539  0.14295087  1
  S2-  S143  1  0.25985956  0.84085671  0.69286256  1
  S2-  S144  1  0.54733094  0.14423272  0.17351543  1
  S2-  S145  1  0.51465389  0.11137899  0.66094087  1
  S2-  S146  1  0.51492451  0.35627576  0.16168574  1
  S2-  S147  1  0.49471088  0.36882056  0.65466631  1
  S2-  S148  1  0.51628241  0.64211472  0.14960792  1
  S2-  S149  1  0.47492319  0.61055256  0.66134585  1
  S2-  S150  1  0.52999927  0.92965982  0.14583831  1
  S2-  S151  1  0.48259995  0.85958351  0.66345948  1
  S2-  S152  1  0.76331690  0.14201802  0.16402124  1
  S2-  S153  1  0.76843543  0.14852672  0.65475262  1
  S2-  S154  1  0.75073871  0.39028190  0.15561760  1
  S2-  S155  1  0.74150708  0.38363106  0.66043621  1
  S2-  S156  1  0.78139390  0.65941413  0.14799030  1
  S2-  S157  1  0.69081889  0.63265095  0.66399827  1
  S2-  S158  1  0.76739735  0.90303209  0.15824798  1
  S2-  S159  1  0.72167170  0.90853332  0.66360782  1
  S2-  S160  1  0.09823769  -0.02063580  0.33925163  1
  S2-  S161  1  0.12681134  -0.06288164  0.84857029  1
  S2-  S162  1  0.06399468  0.23773548  0.34483661  1
  S2-  S163  1  0.15553700  0.24665463  0.84520504  1
  S2-  S164  1  0.10516265  0.52355532  0.34469043  1
  S2-  S165  1  0.09784894  0.51666511  0.85040768  1
  S2-  S166  1  0.20673474  0.74696211  0.35223037  1
  S2-  S167  1  0.15534984  0.74267901  0.80685432  1
  S2-  S168  1  0.36933050  0.00618003  0.35354450  1
  S2-  S169  1  0.38614285  -0.08139721  0.84497600  1
  S2-  S170  1  0.46197432  0.23076914  0.35487735  1
  S2-  S171  1  0.39018406  0.16075220  0.86241859  1
  S2-  S172  1  0.36954210  0.58019000  0.35928267  1
  S2-  S173  1  0.32596022  0.47569437  0.83567028  1
  S2-  S174  1  0.46333751  0.78899559  0.33482339  1
  S2-  S175  1  0.34938260  0.69900044  0.81287719  1
  S2-  S176  1  0.61762683  -0.02336370  0.34874204  1
  S2-  S177  1  0.64948291  -0.08122343  0.85085127  1
  S2-  S178  1  0.63524640  0.19557806  0.29347799  1
  S2-  S179  1  0.62421663  0.16616551  0.86744833  1
  S2-  S180  1  0.60642472  0.42964719  0.35829419  1
  S2-  S181  1  0.53614438  0.48321168  0.86403212  1
  S2-  S182  1  0.69168710  0.74755107  0.36804563  1
  S2-  S183  1  0.53772709  0.74225563  0.84264798  1
  S2-  S184  1  0.84878532  0.00474023  0.35510233  1
  S2-  S185  1  0.89027590  -0.04912671  0.84483014  1
  S2-  S186  1  0.79339157  0.27763669  0.35269445  1
  S2-  S187  1  0.87489534  0.16129759  0.85849110  1
  S2-  S188  1  0.83899067  0.53701728  0.35559883  1
  S2-  S189  1  0.89232962  0.39829518  0.86321500  1
  S2-  S190  1  0.90071288  0.77519672  0.33612908  1
  S2-  S191  1  0.97078227  0.74468181  0.85295414  1
  S2-  S192  1  -0.01651278  0.11054674  0.44998568  1
  S2-  S193  1  0.01053582  0.14413137  0.95322986  1
  S2-  S194  1  -0.01575488  0.36623221  0.45113801  1
  S2-  S195  1  0.01016605  0.39375366  0.96373508  1
  S2-  S196  1  -0.01848370  0.61880813  0.45239517  1
  S2-  S197  1  0.00709379  0.63782306  0.95236220  1
  S2-  S198  1  -0.01929483  0.86534678  0.45131032  1
  S2-  S199  1  0.00532844  0.89400143  0.95066934  1
  S2-  S200  1  0.23799918  0.11401659  0.45343964  1
  S2-  S201  1  0.25425908  0.14273515  0.95721242  1
  S2-  S202  1  0.23703009  0.36283154  0.45450631  1
  S2-  S203  1  0.25921824  0.39231259  0.95251057  1
  S2-  S204  1  0.23668552  0.61599815  0.45827743  1
  S2-  S205  1  0.25642269  0.64330176  0.93893556  1
  S2-  S206  1  0.24121459  0.86477175  0.45022415  1
  S2-  S207  1  0.25524276  0.88578076  0.94270414  1
  S2-  S208  1  0.48369377  0.11317611  0.45987073  1
  S2-  S209  1  0.50430813  0.14156982  0.96645763  1
  S2-  S210  1  0.48669587  0.36316264  0.45602433  1
  S2-  S211  1  0.50688485  0.38496908  0.96142900  1
  S2-  S212  1  0.48593394  0.61898819  0.45854576  1
  S2-  S213  1  0.50866740  0.64381501  0.94801100  1
  S2-  S214  1  0.47979814  0.85983264  0.46080973  1
  S2-  S215  1  0.50832335  0.89431295  0.94773400  1
  S2-  S216  1  0.72975692  0.11778945  0.45394931  1
  S2-  S217  1  0.75717408  0.14552602  0.96175595  1
  S2-  S218  1  0.72963315  0.36551604  0.45987373  1
  S2-  S219  1  0.74879890  0.39158344  0.95309468  1
  S2-  S220  1  0.72737917  0.61309014  0.46304763  1
  S2-  S221  1  0.75664846  0.64059388  0.95077622  1
  S2-  S222  1  0.73130695  0.86805111  0.46454238  1
  S2-  S223  1  0.75919471  0.89589919  0.95365137  1
  S2-  S224  1  0.13308856  0.01674510  0.04440068  1
  S2-  S225  1  0.11081132  -0.01243170  0.54155282  1
  S2-  S226  1  0.13662496  0.26315531  0.04373474  1
  S2-  S227  1  0.11056013  0.23729576  0.54418459  1
  S2-  S228  1  0.13215866  0.51287617  0.04842774  1
  S2-  S229  1  0.10676266  0.48852631  0.54564477  1
  S2-  S230  1  0.12760305  0.76305801  0.03494218  1
  S2-  S231  1  0.11307790  0.74069988  0.54346876  1
  S2-  S232  1  0.37668854  0.01009323  0.03400529  1
  S2-  S233  1  0.35613511  -0.01597500  0.55160793  1
  S2-  S234  1  0.38082211  0.26509995  0.04444421  1
  S2-  S235  1  0.35727030  0.23750647  0.54639273  1
  S2-  S236  1  0.38155299  0.51299667  0.04153308  1
  S2-  S237  1  0.35840959  0.48975631  0.54672435  1
  S2-  S238  1  0.38179894  0.76659561  0.03254374  1
  S2-  S239  1  0.34841911  0.74151441  0.56793078  1
  S2-  S240  1  0.63108501  0.01673996  0.04235001  1
  S2-  S241  1  0.60569852  -0.01701870  0.55212829  1
  S2-  S242  1  0.62840253  0.26254717  0.05117881  1
  S2-  S243  1  0.60614306  0.24055061  0.55743434  1
  S2-  S244  1  0.62984636  0.51499079  0.04572250  1
  S2-  S245  1  0.60527652  0.49024401  0.55290881  1
  S2-  S246  1  0.63135506  0.76459460  0.03853531  1
  S2-  S247  1  0.60588503  0.73994775  0.55501553  1
  S2-  S248  1  0.88222621  0.01706561  0.04546776  1
  S2-  S249  1  0.85980922  -0.01501606  0.55437604  1
  S2-  S250  1  0.87652453  0.26405001  0.04114135  1
  S2-  S251  1  0.85785173  0.23866756  0.54560908  1
  S2-  S252  1  0.87593830  0.51428043  0.04094698  1
  S2-  S253  1  0.86044592  0.48955648  0.55208683  1
  S2-  S254  1  0.87942355  0.76261605  0.04012635  1
  S2-  S255  1  0.85849093  0.74172423  0.53972172  1
