# generated using pymatgen
data_La6Ce6Pr19Nd20Sm13(BiS2)64
_symmetry_space_group_name_H-M   'P 1'
_cell_length_a   16.05858666
_cell_length_b   16.11855754
_cell_length_c   27.32656054
_cell_angle_alpha   90.01565997
_cell_angle_beta   89.82659901
_cell_angle_gamma   90.08232930
_symmetry_Int_Tables_number   1
_chemical_formula_structural   La6Ce6Pr19Nd20Sm13(BiS2)64
_chemical_formula_sum   'La6 Ce6 Pr19 Nd20 Sm13 Bi64 S128'
_cell_volume   7073.20122712
_cell_formula_units_Z   1
loop_
 _symmetry_equiv_pos_site_id
 _symmetry_equiv_pos_as_xyz
  1  'x, y, z'
loop_
 _atom_type_symbol
 _atom_type_oxidation_number
  La3+  3.0
  Ce3+  3.0
  Pr3+  3.0
  Nd3+  3.0
  Sm3+  3.0
  Bi2+  2.0
  S2-  -2.0
loop_
 _atom_site_type_symbol
 _atom_site_label
 _atom_site_symmetry_multiplicity
 _atom_site_fract_x
 _atom_site_fract_y
 _atom_site_fract_z
 _atom_site_occupancy
  La3+  La0  1  0.88333040  0.50371320  0.40160415  1
  La3+  La1  1  0.49918082  0.61227335  0.07534623  1
  La3+  La2  1  0.11943323  0.75775086  0.89079524  1
  La3+  La3  1  0.75568674  0.61984306  0.10212627  1
  La3+  La4  1  0.88649575  0.75705565  0.41647797  1
  La3+  La5  1  0.14616513  0.49326754  0.41116182  1
  Ce3+  Ce6  1  0.00592912  0.12971060  0.55944419  1
  Ce3+  Ce7  1  0.37417882  0.49999908  0.93362143  1
  Ce3+  Ce8  1  0.38228330  0.00684715  0.43423272  1
  Ce3+  Ce9  1  0.87111729  0.24598749  0.94225842  1
  Ce3+  Ce10  1  0.88758532  0.00425889  0.42495723  1
  Ce3+  Ce11  1  0.13001842  0.75379877  0.43823994  1
  Pr3+  Pr12  1  0.62999501  0.49786592  0.93816904  1
  Pr3+  Pr13  1  0.00126188  0.12220851  0.05537166  1
  Pr3+  Pr14  1  -0.00084312  0.88216908  0.56469624  1
  Pr3+  Pr15  1  -0.00079420  0.37139802  0.05530291  1
  Pr3+  Pr16  1  0.37705510  0.26413191  0.44376705  1
  Pr3+  Pr17  1  0.74617333  0.87487783  0.07739811  1
  Pr3+  Pr18  1  0.62637831  0.00796583  0.42950046  1
  Pr3+  Pr19  1  0.00587715  0.38685136  0.56813078  1
  Pr3+  Pr20  1  0.49746715  0.86243612  0.07329614  1
  Pr3+  Pr21  1  0.75647318  0.13032407  0.55329480  1
  Pr3+  Pr22  1  0.87152353  0.74297190  0.94192633  1
  Pr3+  Pr23  1  0.88532266  0.26117453  0.44169009  1
  Pr3+  Pr24  1  0.87242163  -0.00630290  0.94306393  1
  Pr3+  Pr25  1  0.12609849  0.24705495  0.92666509  1
  Pr3+  Pr26  1  -0.00169140  0.86934532  0.06238786  1
  Pr3+  Pr27  1  0.63162901  0.50609935  0.42195398  1
  Pr3+  Pr28  1  0.12765607  0.49864005  0.89226889  1
  Pr3+  Pr29  1  0.00281943  0.62099503  0.06062571  1
  Pr3+  Pr30  1  0.62217686  0.75995978  0.42021351  1
  Nd3+  Nd31  1  0.62422708  -0.00591748  0.94774267  1
  Nd3+  Nd32  1  0.74926030  0.12125950  0.07387953  1
  Nd3+  Nd33  1  0.13435148  0.00691014  0.43744380  1
  Nd3+  Nd34  1  0.25922472  0.38825961  0.58082204  1
  Nd3+  Nd35  1  0.24711864  0.37151420  0.05377549  1
  Nd3+  Nd36  1  0.37519743  0.74270512  0.93469494  1
  Nd3+  Nd37  1  0.50868718  0.38520778  0.56431264  1
  Nd3+  Nd38  1  0.51037076  0.63485760  0.55856191  1
  Nd3+  Nd39  1  0.87707204  0.49875201  0.93605754  1
  Nd3+  Nd40  1  0.75706581  0.38545001  0.55692594  1
  Nd3+  Nd41  1  0.25223967  0.11996566  0.05709235  1
  Nd3+  Nd42  1  0.63230959  0.25954608  0.44025215  1
  Nd3+  Nd43  1  0.75742783  0.63373778  0.54550094  1
  Nd3+  Nd44  1  0.25752728  0.13146266  0.56482705  1
  Nd3+  Nd45  1  0.00410816  0.63342523  0.55423046  1
  Nd3+  Nd46  1  0.37437487  0.24659645  0.93899142  1
  Nd3+  Nd47  1  0.25504779  0.63358554  0.56043301  1
  Nd3+  Nd48  1  0.74980377  0.37325261  0.06734088  1
  Nd3+  Nd49  1  0.37732827  -0.00791581  0.94427027  1
  Nd3+  Nd50  1  0.50988615  0.88350156  0.56776021  1
  Sm3+  Sm51  1  0.24901943  0.86653011  0.05279934  1
  Sm3+  Sm52  1  0.25639784  0.88145059  0.55859215  1
  Sm3+  Sm53  1  0.38212708  0.50801494  0.44962000  1
  Sm3+  Sm54  1  0.62639927  0.24571874  0.94777760  1
  Sm3+  Sm55  1  0.13370353  0.26305921  0.45502435  1
  Sm3+  Sm56  1  0.62902098  0.74299161  0.94975020  1
  Sm3+  Sm57  1  0.50425558  0.13242859  0.55488294  1
  Sm3+  Sm58  1  0.75312025  0.88093117  0.55313607  1
  Sm3+  Sm59  1  0.12499805  -0.00600252  0.94281969  1
  Sm3+  Sm60  1  0.49860890  0.37293777  0.05439555  1
  Sm3+  Sm61  1  0.38194992  0.75645145  0.44295316  1
  Sm3+  Sm62  1  0.49844393  0.12088398  0.05814818  1
  Sm3+  Sm63  1  0.23974060  0.61970386  0.05057471  1
  Bi2+  Bi64  1  -0.02530557  0.14580565  0.29049913  1
  Bi2+  Bi65  1  0.00546548  0.13545393  0.78584038  1
  Bi2+  Bi66  1  0.02047081  0.36328159  0.28813542  1
  Bi2+  Bi67  1  -0.00984165  0.36524977  0.78261012  1
  Bi2+  Bi68  1  0.00723868  0.65433232  0.27780534  1
  Bi2+  Bi69  1  -0.01107255  0.62581493  0.78117645  1
  Bi2+  Bi70  1  0.00139107  0.89796977  0.29034717  1
  Bi2+  Bi71  1  -0.02078390  0.87945939  0.78717359  1
  Bi2+  Bi72  1  0.24717037  0.12850122  0.29432666  1
  Bi2+  Bi73  1  0.20511819  0.14954697  0.80574754  1
  Bi2+  Bi74  1  0.27686513  0.35746044  0.29664994  1
  Bi2+  Bi75  1  0.26578811  0.36816306  0.78290337  1
  Bi2+  Bi76  1  0.20795805  0.63313888  0.30196099  1
  Bi2+  Bi77  1  0.36821757  0.65723553  0.77595375  1
  Bi2+  Bi78  1  0.24324641  0.84558629  0.30577507  1
  Bi2+  Bi79  1  0.36181397  0.87583151  0.78657872  1
  Bi2+  Bi80  1  0.52149547  0.18552943  0.29439867  1
  Bi2+  Bi81  1  0.51066703  0.08417684  0.79437601  1
  Bi2+  Bi82  1  0.50497910  0.33205017  0.21521925  1
  Bi2+  Bi83  1  0.53176889  0.38698075  0.80205414  1
  Bi2+  Bi84  1  0.40570798  0.65700041  0.30779277  1
  Bi2+  Bi85  1  0.51913968  0.57889114  0.83591233  1
  Bi2+  Bi86  1  0.43225870  0.91184763  0.28865364  1
  Bi2+  Bi87  1  0.52064938  0.77749155  0.82638217  1
  Bi2+  Bi88  1  0.77791819  0.11634140  0.30944657  1
  Bi2+  Bi89  1  0.75165009  0.08327296  0.80780067  1
  Bi2+  Bi90  1  0.74818158  0.31352928  0.28899142  1
  Bi2+  Bi91  1  0.74722396  0.34589973  0.80013558  1
  Bi2+  Bi92  1  0.71444064  0.60976740  0.28759847  1
  Bi2+  Bi93  1  0.71998235  0.61630921  0.79272159  1
  Bi2+  Bi94  1  0.70396378  0.93864504  0.30442129  1
  Bi2+  Bi95  1  0.71388188  0.82637104  0.77984586  1
  Bi2+  Bi96  1  0.17944893  -0.02332860  0.22775707  1
  Bi2+  Bi97  1  0.13349876  -0.00925796  0.75778630  1
  Bi2+  Bi98  1  0.12131163  0.23233073  0.22793325  1
  Bi2+  Bi99  1  0.12726489  0.19956905  0.70106291  1
  Bi2+  Bi100  1  0.13195599  0.49085315  0.20250143  1
  Bi2+  Bi101  1  0.12362636  0.49042583  0.69223389  1
  Bi2+  Bi102  1  0.14902050  0.74899245  0.20899740  1
  Bi2+  Bi103  1  0.17180492  0.73463278  0.69162966  1
  Bi2+  Bi104  1  0.37054454  0.04968864  0.21619374  1
  Bi2+  Bi105  1  0.46835947  -0.03245399  0.70020136  1
  Bi2+  Bi106  1  0.32352513  0.26265913  0.19641355  1
  Bi2+  Bi107  1  0.37477481  0.16471770  0.72534993  1
  Bi2+  Bi108  1  0.31717793  0.54739707  0.21609513  1
  Bi2+  Bi109  1  0.44271943  0.49848851  0.71872484  1
  Bi2+  Bi110  1  0.34867876  0.77203628  0.20940137  1
  Bi2+  Bi111  1  0.41151476  0.77800476  0.68419145  1
  Bi2+  Bi112  1  0.62871959  0.04919683  0.21729467  1
  Bi2+  Bi113  1  0.66530313  -0.02032817  0.71093720  1
  Bi2+  Bi114  1  0.66903868  0.23852144  0.18228765  1
  Bi2+  Bi115  1  0.55461244  0.24592505  0.72415893  1
  Bi2+  Bi116  1  0.51220317  0.53401920  0.23222751  1
  Bi2+  Bi117  1  0.65885767  0.46794231  0.72318697  1
  Bi2+  Bi118  1  0.60183395  0.77989073  0.21547637  1
  Bi2+  Bi119  1  0.59631858  0.72672549  0.71326752  1
  Bi2+  Bi120  1  0.88935388  0.00658846  0.21398690  1
  Bi2+  Bi121  1  0.88032209  0.01192919  0.70336890  1
  Bi2+  Bi122  1  0.85894039  0.23043416  0.20380364  1
  Bi2+  Bi123  1  0.83864579  0.19865130  0.72761811  1
  Bi2+  Bi124  1  0.88608170  0.47933905  0.20828057  1
  Bi2+  Bi125  1  0.86318075  0.49567602  0.68855284  1
  Bi2+  Bi126  1  0.88498339  0.75767314  0.21678271  1
  Bi2+  Bi127  1  0.88336397  0.74530510  0.68602365  1
  S2-  S128  1  -0.03342388  0.12461726  0.15346358  1
  S2-  S129  1  0.01411150  0.08740554  0.65303956  1
  S2-  S130  1  0.00588937  0.39394442  0.15586780  1
  S2-  S131  1  -0.01143191  0.37730095  0.67090269  1
  S2-  S132  1  -0.08773236  0.62158810  0.15220849  1
  S2-  S133  1  0.00109543  0.59889443  0.65476134  1
  S2-  S134  1  -0.02407924  0.87321977  0.16275088  1
  S2-  S135  1  0.04217423  0.80930275  0.65612965  1
  S2-  S136  1  0.20781627  0.15741833  0.14937930  1
  S2-  S137  1  0.25748188  0.10399542  0.66287090  1
  S2-  S138  1  0.25528629  0.41035284  0.15141604  1
  S2-  S139  1  0.22768359  0.35128770  0.67817325  1
  S2-  S140  1  0.13755496  0.62565427  0.13668502  1
  S2-  S141  1  0.25382166  0.58291846  0.65581279  1
  S2-  S142  1  0.24559485  0.88534388  0.15052556  1
  S2-  S143  1  0.26246429  0.86412304  0.65646961  1
  S2-  S144  1  0.48276845  0.12300040  0.15513834  1
  S2-  S145  1  0.51168308  0.12498678  0.65193653  1
  S2-  S146  1  0.49358330  0.46248274  0.13813736  1
  S2-  S147  1  0.46793534  0.36386898  0.65964304  1
  S2-  S148  1  0.47760864  0.73469004  0.14698403  1
  S2-  S149  1  0.54190031  0.59680516  0.65363567  1
  S2-  S150  1  0.56749580  0.91202763  0.16517443  1
  S2-  S151  1  0.64207828  0.87266346  0.63294227  1
  S2-  S152  1  0.75851498  0.00694522  0.14926784  1
  S2-  S153  1  0.75221631  0.11174818  0.65310555  1
  S2-  S154  1  0.75891455  0.45816811  0.15363581  1
  S2-  S155  1  0.76072460  0.37929911  0.65647363  1
  S2-  S156  1  0.64301867  0.61614535  0.18718073  1
  S2-  S157  1  0.78139995  0.63960535  0.64588745  1
  S2-  S158  1  0.75148785  0.77727175  0.16136388  1
  S2-  S159  1  0.85907944  0.88293912  0.63300910  1
  S2-  S160  1  0.02583503  0.02081385  0.35853934  1
  S2-  S161  1  0.11745183  -0.07238865  0.85288651  1
  S2-  S162  1  0.14602939  0.32403688  0.36341169  1
  S2-  S163  1  0.12246963  0.34287037  0.84076403  1
  S2-  S164  1  0.02686054  0.50826641  0.33831414  1
  S2-  S165  1  0.13057716  0.54619484  0.78651006  1
  S2-  S166  1  0.03984281  0.76952036  0.35520531  1
  S2-  S167  1  0.10995156  0.75107321  0.78000861  1
  S2-  S168  1  0.25755858  0.00454632  0.36361662  1
  S2-  S169  1  0.37376516  0.01241770  0.84625404  1
  S2-  S170  1  0.37969109  0.23332001  0.34432431  1
  S2-  S171  1  0.34140303  0.25205279  0.84182689  1
  S2-  S172  1  0.31155085  0.46914224  0.36288750  1
  S2-  S173  1  0.29372045  0.48198848  0.84789759  1
  S2-  S174  1  0.47177939  0.78737320  0.36086828  1
  S2-  S175  1  0.28527508  0.74846773  0.84848912  1
  S2-  S176  1  0.49922090  0.01708232  0.35734486  1
  S2-  S177  1  0.62409520  -0.01352863  0.84876888  1
  S2-  S178  1  0.60051489  0.30515849  0.34623276  1
  S2-  S179  1  0.67109854  0.22612266  0.85437563  1
  S2-  S180  1  0.55097731  0.56313081  0.33624329  1
  S2-  S181  1  0.74986272  0.49336109  0.86122610  1
  S2-  S182  1  0.66863746  0.77223295  0.31946328  1
  S2-  S183  1  0.73630553  0.74512190  0.86786215  1
  S2-  S184  1  0.85892913  -0.10806181  0.34855075  1
  S2-  S185  1  0.86642779  -0.02593623  0.84367286  1
  S2-  S186  1  0.89136939  0.34037881  0.35243140  1
  S2-  S187  1  0.89577854  0.28306230  0.84775234  1
  S2-  S188  1  0.74078067  0.47868466  0.33918737  1
  S2-  S189  1  0.96580328  0.49906431  0.84689547  1
  S2-  S190  1  0.85879321  0.64754129  0.33504114  1
  S2-  S191  1  0.95426756  0.74892073  0.85126381  1
  S2-  S192  1  0.01159334  0.13938588  0.45541875  1
  S2-  S193  1  0.00153867  0.11951121  0.94740281  1
  S2-  S194  1  0.01048183  0.38612781  0.46029026  1
  S2-  S195  1  0.00091274  0.36882044  0.95022731  1
  S2-  S196  1  0.01247278  0.62198045  0.44888850  1
  S2-  S197  1  0.00619269  0.62218088  0.95021893  1
  S2-  S198  1  0.01008272  0.88257814  0.45785951  1
  S2-  S199  1  0.00114803  0.87207055  0.95577150  1
  S2-  S200  1  0.25541985  0.13802815  0.45965447  1
  S2-  S201  1  0.25067894  0.11810786  0.95111479  1
  S2-  S202  1  0.25671955  0.38633214  0.47291905  1
  S2-  S203  1  0.24914662  0.37035933  0.94953261  1
  S2-  S204  1  0.25769402  0.63058175  0.45373426  1
  S2-  S205  1  0.24389192  0.62040130  0.94720531  1
  S2-  S206  1  0.25779772  0.87542836  0.45586352  1
  S2-  S207  1  0.24926582  0.87121381  0.95016373  1
  S2-  S208  1  0.50439629  0.13988487  0.45328361  1
  S2-  S209  1  0.49991746  0.12251119  0.95303814  1
  S2-  S210  1  0.50560219  0.38530039  0.45653523  1
  S2-  S211  1  0.50063793  0.36994972  0.95032967  1
  S2-  S212  1  0.50368238  0.63092280  0.45405573  1
  S2-  S213  1  0.50104065  0.62240988  0.96190891  1
  S2-  S214  1  0.50447425  0.88379356  0.46243346  1
  S2-  S215  1  0.50005617  0.86712491  0.96234061  1
  S2-  S216  1  0.75646341  0.13352640  0.44671127  1
  S2-  S217  1  0.74733690  0.12011946  0.96439179  1
  S2-  S218  1  0.75619498  0.38462506  0.45250335  1
  S2-  S219  1  0.74937246  0.36744108  0.96063429  1
  S2-  S220  1  0.75097378  0.63372627  0.44156072  1
  S2-  S221  1  0.74927871  0.61970301  0.96400262  1
  S2-  S222  1  0.74866031  0.88230981  0.44918533  1
  S2-  S223  1  0.74672335  0.87332482  0.96637204  1
  S2-  S224  1  0.12711133  -0.00445306  0.04807466  1
  S2-  S225  1  0.13427768  0.00450905  0.54763282  1
  S2-  S226  1  0.12642006  0.24476090  0.03765049  1
  S2-  S227  1  0.13310341  0.25921716  0.55902950  1
  S2-  S228  1  0.12435126  0.49224558  0.04170686  1
  S2-  S229  1  0.13330782  0.50732798  0.55405019  1
  S2-  S230  1  0.12535769  0.75112857  0.04395815  1
  S2-  S231  1  0.13295562  0.75753912  0.54432173  1
  S2-  S232  1  0.37576855  -0.00652630  0.05087505  1
  S2-  S233  1  0.38159925  0.00576806  0.54816861  1
  S2-  S234  1  0.37621416  0.24723026  0.04578442  1
  S2-  S235  1  0.38092924  0.25910236  0.55302774  1
  S2-  S236  1  0.36832615  0.49745773  0.03996120  1
  S2-  S237  1  0.38385705  0.50947583  0.55358724  1
  S2-  S238  1  0.36720652  0.74088247  0.04233790  1
  S2-  S239  1  0.38288820  0.75794735  0.54718389  1
  S2-  S240  1  0.61910072  -0.00057718  0.05191052  1
  S2-  S241  1  0.62752128  0.01172807  0.53775268  1
  S2-  S242  1  0.62084536  0.24709427  0.05160259  1
  S2-  S243  1  0.62966663  0.25748545  0.54843614  1
  S2-  S244  1  0.62714873  0.49309539  0.04540299  1
  S2-  S245  1  0.63174720  0.50751267  0.54109884  1
  S2-  S246  1  0.62741414  0.74051278  0.05323260  1
  S2-  S247  1  0.63080061  0.75540644  0.53388630  1
  S2-  S248  1  0.87536095  -0.00138268  0.04838251  1
  S2-  S249  1  0.87997981  0.00941974  0.53463413  1
  S2-  S250  1  0.87183204  0.24484250  0.04964864  1
  S2-  S251  1  0.88164442  0.25813766  0.54977032  1
  S2-  S252  1  0.87504641  0.49486276  0.04410956  1
  S2-  S253  1  0.88052467  0.50764502  0.54591329  1
  S2-  S254  1  0.87276870  0.74756378  0.04989416  1
  S2-  S255  1  0.88028246  0.75610496  0.53099503  1
