# generated using pymatgen
data_La6Ce6Pr19Nd20Sm13(BiS2)64
_symmetry_space_group_name_H-M   'P 1'
_cell_length_a   16.02048711
_cell_length_b   16.12405115
_cell_length_c   27.31709538
_cell_angle_alpha   90.16522130
_cell_angle_beta   90.41995477
_cell_angle_gamma   89.91522823
_symmetry_Int_Tables_number   1
_chemical_formula_structural   La6Ce6Pr19Nd20Sm13(BiS2)64
_chemical_formula_sum   'La6 Ce6 Pr19 Nd20 Sm13 Bi64 S128'
_cell_volume   7056.19330654
_cell_formula_units_Z   1
loop_
 _symmetry_equiv_pos_site_id
 _symmetry_equiv_pos_as_xyz
  1  'x, y, z'
loop_
 _atom_type_symbol
 _atom_type_oxidation_number
  La3+  3.0
  Ce3+  3.0
  Pr3+  3.0
  Nd3+  3.0
  Sm3+  3.0
  Bi2+  2.0
  S2-  -2.0
loop_
 _atom_site_type_symbol
 _atom_site_label
 _atom_site_symmetry_multiplicity
 _atom_site_fract_x
 _atom_site_fract_y
 _atom_site_fract_z
 _atom_site_occupancy
  La3+  La0  1  0.15200908  0.24065776  0.38574658  1
  La3+  La1  1  0.74960725  0.62733547  0.61312125  1
  La3+  La2  1  0.87103021  0.00964084  0.42718365  1
  La3+  La3  1  0.59758624  0.74799784  0.91568952  1
  La3+  La4  1  0.22435710  0.36822592  0.11214764  1
  La3+  La5  1  0.86817361  0.75518190  0.43611218  1
  Ce3+  Ce6  1  0.11889181  0.75133950  0.42827868  1
  Ce3+  Ce7  1  -0.00099716  0.63563972  0.56364608  1
  Ce3+  Ce8  1  0.25017587  0.88323257  0.54762816  1
  Ce3+  Ce9  1  0.35882125  0.74869985  0.94293967  1
  Ce3+  Ce10  1  0.86011928  -0.00507743  0.93015231  1
  Ce3+  Ce11  1  0.49831748  0.63442638  0.57278218  1
  Pr3+  Pr12  1  0.75525046  0.88242642  0.57162215  1
  Pr3+  Pr13  1  0.12166234  0.00567721  0.42462698  1
  Pr3+  Pr14  1  -0.01569183  0.37283208  0.05785942  1
  Pr3+  Pr15  1  0.35758933  -0.00325979  0.93299912  1
  Pr3+  Pr16  1  0.23160205  0.62238728  0.06939144  1
  Pr3+  Pr17  1  0.75034841  0.12893354  0.56636527  1
  Pr3+  Pr18  1  0.10964181  0.49770688  0.93145336  1
  Pr3+  Pr19  1  0.85804585  0.24783846  0.93782779  1
  Pr3+  Pr20  1  0.49091445  0.88434593  0.57622141  1
  Pr3+  Pr21  1  0.35623733  0.49612988  0.94923182  1
  Pr3+  Pr22  1  0.61923351  0.75769268  0.44279309  1
  Pr3+  Pr23  1  0.48279892  0.12258326  0.05957520  1
  Pr3+  Pr24  1  0.60347268  0.49559251  0.92692168  1
  Pr3+  Pr25  1  0.10991096  -0.01553688  0.91841087  1
  Pr3+  Pr26  1  0.60752707  0.00401565  0.91620757  1
  Pr3+  Pr27  1  0.48976840  0.87228593  0.06666730  1
  Pr3+  Pr28  1  0.00542505  0.88658505  0.55943919  1
  Pr3+  Pr29  1  0.48767626  0.62163206  0.06718146  1
  Pr3+  Pr30  1  0.11045500  0.25097491  0.92923568  1
  Nd3+  Nd31  1  0.48830631  0.13399873  0.57470327  1
  Nd3+  Nd32  1  0.23226364  0.11994183  0.06301085  1
  Nd3+  Nd33  1  0.62443377  0.50940264  0.45001754  1
  Nd3+  Nd34  1  0.48439679  0.37749209  0.07258825  1
  Nd3+  Nd35  1  0.62397056  0.25816017  0.45006269  1
  Nd3+  Nd36  1  0.24904963  0.63504317  0.56684835  1
  Nd3+  Nd37  1  0.85518863  0.75022570  0.93807154  1
  Nd3+  Nd38  1  0.73154514  0.62322654  0.05578057  1
  Nd3+  Nd39  1  -0.01452993  0.62387173  0.06026410  1
  Nd3+  Nd40  1  0.60525818  0.24862607  0.93624277  1
  Nd3+  Nd41  1  0.73356644  0.12135135  0.05599243  1
  Nd3+  Nd42  1  0.49902424  0.38475469  0.56663048  1
  Nd3+  Nd43  1  0.35548447  0.24874125  0.94499402  1
  Nd3+  Nd44  1  0.75340554  0.37994116  0.56949657  1
  Nd3+  Nd45  1  0.73240229  0.37487993  0.05978554  1
  Nd3+  Nd46  1  0.61767333  0.00716409  0.44239675  1
  Nd3+  Nd47  1  0.22842258  0.87733232  0.06722461  1
  Nd3+  Nd48  1  0.87692616  0.26067428  0.43780331  1
  Nd3+  Nd49  1  -0.01365474  0.12224736  0.05068120  1
  Nd3+  Nd50  1  0.12349965  0.50578846  0.43246976  1
  Sm3+  Sm51  1  0.73422008  0.87359217  0.05865664  1
  Sm3+  Sm52  1  0.00482026  0.13560988  0.54601619  1
  Sm3+  Sm53  1  0.37325837  0.50893814  0.44656172  1
  Sm3+  Sm54  1  0.00357122  0.38281918  0.55514238  1
  Sm3+  Sm55  1  0.87089346  0.50809751  0.45032714  1
  Sm3+  Sm56  1  0.37824728  0.75605010  0.43947213  1
  Sm3+  Sm57  1  0.37047799  0.01335291  0.43500393  1
  Sm3+  Sm58  1  0.24798434  0.38430234  0.55423303  1
  Sm3+  Sm59  1  -0.01867501  0.87627917  0.06131670  1
  Sm3+  Sm60  1  0.85627328  0.49875833  0.94206532  1
  Sm3+  Sm61  1  0.24766548  0.13397038  0.55948149  1
  Sm3+  Sm62  1  0.10624459  0.74120647  0.93586655  1
  Sm3+  Sm63  1  0.38242202  0.26043364  0.43679389  1
  Bi2+  Bi64  1  -0.10456493  0.12358729  0.29412113  1
  Bi2+  Bi65  1  0.00664097  0.10014977  0.78216358  1
  Bi2+  Bi66  1  -0.04867178  0.37379550  0.30463104  1
  Bi2+  Bi67  1  -0.01457413  0.29537753  0.79997670  1
  Bi2+  Bi68  1  -0.00128314  0.63959132  0.29379955  1
  Bi2+  Bi69  1  0.05022006  0.61261469  0.76154708  1
  Bi2+  Bi70  1  0.00386190  0.88483080  0.27644516  1
  Bi2+  Bi71  1  0.06152264  0.88973831  0.76481380  1
  Bi2+  Bi72  1  0.34325179  0.00342228  0.29821463  1
  Bi2+  Bi73  1  0.20327543  0.14243339  0.79383495  1
  Bi2+  Bi74  1  0.27029761  0.41979359  0.30662720  1
  Bi2+  Bi75  1  0.18656073  0.37520417  0.76269950  1
  Bi2+  Bi76  1  0.26530577  0.66915985  0.29169043  1
  Bi2+  Bi77  1  0.24588209  0.57927250  0.79619170  1
  Bi2+  Bi78  1  0.20509835  0.85538906  0.29082556  1
  Bi2+  Bi79  1  0.25309522  0.87026772  0.78654997  1
  Bi2+  Bi80  1  0.49952813  0.14063996  0.30112839  1
  Bi2+  Bi81  1  0.46974840  0.11676167  0.79196220  1
  Bi2+  Bi82  1  0.48266506  0.38204097  0.23819637  1
  Bi2+  Bi83  1  0.56152403  0.35698391  0.82071364  1
  Bi2+  Bi84  1  0.53253235  0.59790563  0.30562368  1
  Bi2+  Bi85  1  0.48150029  0.53538828  0.79388539  1
  Bi2+  Bi86  1  0.48823272  0.84093893  0.27895964  1
  Bi2+  Bi87  1  0.47672495  0.85098140  0.78385621  1
  Bi2+  Bi88  1  0.69711996  0.11244846  0.28334493  1
  Bi2+  Bi89  1  0.75888437  0.13479907  0.77323333  1
  Bi2+  Bi90  1  0.65820624  0.36272716  0.29350897  1
  Bi2+  Bi91  1  0.74517855  0.40748365  0.80928043  1
  Bi2+  Bi92  1  0.70760582  0.69062457  0.26880693  1
  Bi2+  Bi93  1  0.78350423  0.63227280  0.82199186  1
  Bi2+  Bi94  1  0.77275534  0.87761349  0.28952259  1
  Bi2+  Bi95  1  0.79420526  0.88689575  0.79074681  1
  Bi2+  Bi96  1  0.12726586  -0.01605690  0.20592395  1
  Bi2+  Bi97  1  0.15417449  -0.08503218  0.66662809  1
  Bi2+  Bi98  1  0.08083219  0.23261375  0.20345468  1
  Bi2+  Bi99  1  0.08948197  0.23281511  0.70553859  1
  Bi2+  Bi100  1  0.10380436  0.50331125  0.21312552  1
  Bi2+  Bi101  1  0.13382796  0.50851884  0.68073686  1
  Bi2+  Bi102  1  0.14979396  0.73263420  0.20207591  1
  Bi2+  Bi103  1  0.12442299  0.71083001  0.67014589  1
  Bi2+  Bi104  1  0.40331913  -0.05585249  0.19263103  1
  Bi2+  Bi105  1  0.30444797  0.01942332  0.70691564  1
  Bi2+  Bi106  1  0.38998665  0.20930464  0.21764504  1
  Bi2+  Bi107  1  0.34699710  0.23405245  0.73925106  1
  Bi2+  Bi108  1  0.40071448  0.60118397  0.21912325  1
  Bi2+  Bi109  1  0.37819166  0.47610562  0.70295632  1
  Bi2+  Bi110  1  0.35155290  0.76062503  0.15764465  1
  Bi2+  Bi111  1  0.30349579  0.71410764  0.72293906  1
  Bi2+  Bi112  1  0.61450279  -0.04305868  0.22568221  1
  Bi2+  Bi113  1  0.63541835  -0.00198797  0.71742932  1
  Bi2+  Bi114  1  0.60580061  0.24705395  0.19812112  1
  Bi2+  Bi115  1  0.62292968  0.25208060  0.72160335  1
  Bi2+  Bi116  1  0.68597325  0.49525742  0.19110861  1
  Bi2+  Bi117  1  0.61906876  0.47014035  0.71768057  1
  Bi2+  Bi118  1  0.54773803  0.72876390  0.18615543  1
  Bi2+  Bi119  1  0.62056090  0.73775043  0.72560694  1
  Bi2+  Bi120  1  0.87804379  0.00792951  0.19937760  1
  Bi2+  Bi121  1  0.90000121  0.04568543  0.68845513  1
  Bi2+  Bi122  1  0.80553868  0.24453358  0.21226817  1
  Bi2+  Bi123  1  0.80830417  0.23646469  0.67829894  1
  Bi2+  Bi124  1  0.85060343  0.52266472  0.25375094  1
  Bi2+  Bi125  1  0.88267032  0.40146243  0.72290460  1
  Bi2+  Bi126  1  0.86195645  0.75737029  0.21172122  1
  Bi2+  Bi127  1  0.88139665  0.76799457  0.71194124  1
  S2-  S128  1  0.00984641  0.09867497  0.14989594  1
  S2-  S129  1  0.04681341  0.10791973  0.64108797  1
  S2-  S130  1  0.04809980  0.37370327  0.15072134  1
  S2-  S131  1  0.01042075  0.38740552  0.65384984  1
  S2-  S132  1  0.02908672  0.63098526  0.15736295  1
  S2-  S133  1  -0.08054938  0.63994551  0.64956475  1
  S2-  S134  1  0.09279999  0.86422102  0.13970484  1
  S2-  S135  1  -0.08187819  0.89245737  0.64655103  1
  S2-  S136  1  0.21406528  0.20509753  0.15191444  1
  S2-  S137  1  0.34257275  0.14702871  0.64302427  1
  S2-  S138  1  0.19944606  0.35990860  0.22826203  1
  S2-  S139  1  0.26453954  0.39213508  0.65303767  1
  S2-  S140  1  0.23152846  0.52961260  0.15649592  1
  S2-  S141  1  0.36639726  0.62903117  0.64436892  1
  S2-  S142  1  0.25501204  0.99966093  0.14240360  1
  S2-  S143  1  0.33235821  0.89231751  0.63429196  1
  S2-  S144  1  0.49573379  0.11735835  0.16088658  1
  S2-  S145  1  0.55552742  0.11773233  0.66917550  1
  S2-  S146  1  0.38716284  0.34989055  0.15575359  1
  S2-  S147  1  0.49743103  0.36696330  0.66549123  1
  S2-  S148  1  0.54039621  0.50403570  0.14065032  1
  S2-  S149  1  0.58475717  0.61861007  0.65962942  1
  S2-  S150  1  0.62384274  0.87061639  0.13946170  1
  S2-  S151  1  0.53057028  0.87171777  0.67930711  1
  S2-  S152  1  0.75761378  0.09856068  0.15378391  1
  S2-  S153  1  0.74425859  0.01283068  0.64337959  1
  S2-  S154  1  0.80627450  0.37608246  0.15061774  1
  S2-  S155  1  0.75441504  0.46357983  0.65654439  1
  S2-  S156  1  0.77977868  0.63241737  0.15160189  1
  S2-  S157  1  0.76355701  0.63896593  0.72853213  1
  S2-  S158  1  0.85688846  0.87722811  0.13454570  1
  S2-  S159  1  0.73465375  0.78937993  0.65757851  1
  S2-  S160  1  0.21809663  0.07441687  0.35093207  1
  S2-  S161  1  0.24350921  0.00928941  0.85262829  1
  S2-  S162  1  0.03826326  0.21759867  0.30595869  1
  S2-  S163  1  0.11459296  0.37408217  0.85364750  1
  S2-  S164  1  0.11550213  0.40425758  0.34858607  1
  S2-  S165  1  0.10540621  0.62100840  0.85654434  1
  S2-  S166  1  0.14027738  0.62487752  0.35667623  1
  S2-  S167  1  0.12097109  0.83625245  0.85354837  1
  S2-  S168  1  0.49429099  0.00771695  0.36668109  1
  S2-  S169  1  0.46821111  -0.02231989  0.85033014  1
  S2-  S170  1  0.31198075  0.27563102  0.34672823  1
  S2-  S171  1  0.35382059  0.22223673  0.84493730  1
  S2-  S172  1  0.40443855  0.51543296  0.35022023  1
  S2-  S173  1  0.35077700  0.47083381  0.84853545  1
  S2-  S174  1  0.49156944  0.74801617  0.36466078  1
  S2-  S175  1  0.43548594  0.75115674  0.85526715  1
  S2-  S176  1  0.73091080  0.00320807  0.36220906  1
  S2-  S177  1  0.74960206  0.00604646  0.85100183  1
  S2-  S178  1  0.55131127  0.27087709  0.36001625  1
  S2-  S179  1  0.59272743  0.15384704  0.85225498  1
  S2-  S180  1  0.64999460  0.50308892  0.35032698  1
  S2-  S181  1  0.61451243  0.60756018  0.84949255  1
  S2-  S182  1  0.73666390  0.75775342  0.36182952  1
  S2-  S183  1  0.64454842  0.82004443  0.82245920  1
  S2-  S184  1  0.98883395  0.00535220  0.34995716  1
  S2-  S185  1  0.96763171  -0.01432180  0.85226337  1
  S2-  S186  1  0.82371987  0.29892142  0.34463961  1
  S2-  S187  1  0.82165219  0.25116712  0.83908692  1
  S2-  S188  1  0.89496071  0.52967327  0.35230657  1
  S2-  S189  1  0.88494562  0.50013567  0.84532102  1
  S2-  S190  1  0.98172569  0.76536781  0.35498916  1
  S2-  S191  1  0.88951003  0.75971795  0.83974696  1
  S2-  S192  1  0.01045591  0.14638915  0.44256016  1
  S2-  S193  1  -0.01370990  0.12564954  0.94502344  1
  S2-  S194  1  -0.00325270  0.38495072  0.45250581  1
  S2-  S195  1  -0.02029854  0.37487200  0.95181377  1
  S2-  S196  1  -0.00249030  0.62765398  0.45802394  1
  S2-  S197  1  -0.02156337  0.62185040  0.95408252  1
  S2-  S198  1  -0.00210743  0.88332087  0.45408490  1
  S2-  S199  1  -0.01603585  0.86635307  0.95670217  1
  S2-  S200  1  0.25627684  0.14222079  0.45698238  1
  S2-  S201  1  0.23036852  0.12485553  0.95502790  1
  S2-  S202  1  0.25235622  0.38251865  0.45183371  1
  S2-  S203  1  0.23349720  0.37243272  0.95401245  1
  S2-  S204  1  0.25478463  0.63332962  0.45885257  1
  S2-  S205  1  0.23528546  0.62409910  0.95966883  1
  S2-  S206  1  0.25247767  0.88007893  0.44063643  1
  S2-  S207  1  0.23463257  0.86863683  0.95927525  1
  S2-  S208  1  0.49683979  0.13739487  0.46571484  1
  S2-  S209  1  0.48166728  0.12400574  0.95479499  1
  S2-  S210  1  0.49814725  0.38611923  0.46060177  1
  S2-  S211  1  0.48273883  0.37111091  0.95981331  1
  S2-  S212  1  0.49681581  0.62896186  0.46518674  1
  S2-  S213  1  0.48240588  0.62102302  0.95881395  1
  S2-  S214  1  0.49184705  0.88338807  0.46541051  1
  S2-  S215  1  0.48522028  0.87268805  0.95834487  1
  S2-  S216  1  0.74854558  0.13789053  0.45832020  1
  S2-  S217  1  0.73272020  0.12574393  0.95192148  1
  S2-  S218  1  0.74881695  0.38223808  0.46182550  1
  S2-  S219  1  0.73243315  0.37364600  0.95218270  1
  S2-  S220  1  0.74826050  0.62852148  0.45942432  1
  S2-  S221  1  0.73246061  0.62252740  0.95002998  1
  S2-  S222  1  0.74489401  0.88562698  0.46467264  1
  S2-  S223  1  0.72782465  0.87103429  0.95194945  1
  S2-  S224  1  0.10547235  -0.00285687  0.03562538  1
  S2-  S225  1  0.12880943  0.01227883  0.53278497  1
  S2-  S226  1  0.10819411  0.24830347  0.03967635  1
  S2-  S227  1  0.12821103  0.25994263  0.55089931  1
  S2-  S228  1  0.10813895  0.49855081  0.04312940  1
  S2-  S229  1  0.12581910  0.50856360  0.54240942  1
  S2-  S230  1  0.10827877  0.74616626  0.04100588  1
  S2-  S231  1  0.12677124  0.75814189  0.53686242  1
  S2-  S232  1  0.36248897  -0.00497970  0.04097392  1
  S2-  S233  1  0.37095632  0.01228992  0.53903141  1
  S2-  S234  1  0.35800679  0.24707199  0.04960453  1
  S2-  S235  1  0.37273781  0.26414762  0.54431775  1
  S2-  S236  1  0.35857922  0.49824717  0.05433499  1
  S2-  S237  1  0.37322556  0.50540516  0.54931272  1
  S2-  S238  1  0.35984470  0.74787104  0.04635704  1
  S2-  S239  1  0.37273426  0.75639846  0.54229891  1
  S2-  S240  1  0.61068246  -0.00006372  0.04090996  1
  S2-  S241  1  0.61369302  0.01077121  0.54953242  1
  S2-  S242  1  0.60827641  0.25044641  0.04681092  1
  S2-  S243  1  0.62269350  0.25685159  0.55697101  1
  S2-  S244  1  0.61221928  0.49714389  0.03397213  1
  S2-  S245  1  0.62678660  0.50525569  0.55505138  1
  S2-  S246  1  0.61074969  0.74533375  0.03974509  1
  S2-  S247  1  0.61791656  0.76041637  0.55233240  1
  S2-  S248  1  0.85849145  -0.00028967  0.03649096  1
  S2-  S249  1  0.88107555  0.01490887  0.53685536  1
  S2-  S250  1  0.85736673  0.24742387  0.04445324  1
  S2-  S251  1  0.87966180  0.25750316  0.54522549  1
  S2-  S252  1  0.85856293  0.49983774  0.04636131  1
  S2-  S253  1  0.87697264  0.50383979  0.55254444  1
  S2-  S254  1  0.85892562  0.74529459  0.04227942  1
  S2-  S255  1  0.87883136  0.75941069  0.54529199  1
