# generated using pymatgen
data_La6Ce6Pr19Nd20Sm13(BiS2)64
_symmetry_space_group_name_H-M   'P 1'
_cell_length_a   16.11736501
_cell_length_b   16.09500836
_cell_length_c   27.33622690
_cell_angle_alpha   89.79981288
_cell_angle_beta   90.14127290
_cell_angle_gamma   90.01145109
_symmetry_Int_Tables_number   1
_chemical_formula_structural   La6Ce6Pr19Nd20Sm13(BiS2)64
_chemical_formula_sum   'La6 Ce6 Pr19 Nd20 Sm13 Bi64 S128'
_cell_volume   7091.20172131
_cell_formula_units_Z   1
loop_
 _symmetry_equiv_pos_site_id
 _symmetry_equiv_pos_as_xyz
  1  'x, y, z'
loop_
 _atom_type_symbol
 _atom_type_oxidation_number
  La3+  3.0
  Ce3+  3.0
  Pr3+  3.0
  Nd3+  3.0
  Sm3+  3.0
  Bi2+  2.0
  S2-  -2.0
loop_
 _atom_site_type_symbol
 _atom_site_label
 _atom_site_symmetry_multiplicity
 _atom_site_fract_x
 _atom_site_fract_y
 _atom_site_fract_z
 _atom_site_occupancy
  La3+  La0  1  0.73328074  0.36540105  0.61909977  1
  La3+  La1  1  0.50822208  0.88433436  0.10271993  1
  La3+  La2  1  0.35687405  -0.02413072  0.41229659  1
  La3+  La3  1  0.52067355  0.14422302  0.08763722  1
  La3+  La4  1  -0.00999841  0.35286671  0.57562491  1
  La3+  La5  1  0.24952246  0.85159617  0.57869709  1
  Ce3+  Ce6  1  -0.01100617  0.10100121  0.55368005  1
  Ce3+  Ce7  1  0.24294321  0.60487782  0.56189963  1
  Ce3+  Ce8  1  0.26377034  0.13092530  0.07361801  1
  Ce3+  Ce9  1  0.88618001  0.00549750  0.93643052  1
  Ce3+  Ce10  1  0.36305613  0.72892621  0.43185991  1
  Ce3+  Ce11  1  0.74028218  0.84960024  0.55340982  1
  Pr3+  Pr12  1  0.25468475  0.88347170  0.06788803  1
  Pr3+  Pr13  1  0.62887966  0.51311950  0.91911689  1
  Pr3+  Pr14  1  0.75996622  0.88134288  0.06502910  1
  Pr3+  Pr15  1  0.38763536  0.76253353  0.94208896  1
  Pr3+  Pr16  1  0.35260699  0.48267932  0.42152294  1
  Pr3+  Pr17  1  0.86337553  -0.02899979  0.42482096  1
  Pr3+  Pr18  1  0.61382662  0.47841696  0.44207167  1
  Pr3+  Pr19  1  0.62332634  0.25866048  0.92974356  1
  Pr3+  Pr20  1  0.38588476  0.50936297  0.94615437  1
  Pr3+  Pr21  1  0.73979406  0.10769832  0.55718782  1
  Pr3+  Pr22  1  0.48876954  0.59990122  0.55833886  1
  Pr3+  Pr23  1  0.88273875  0.25989032  0.93847423  1
  Pr3+  Pr24  1  0.88401001  0.76537709  0.93283794  1
  Pr3+  Pr25  1  0.13409197  0.50612455  0.93551534  1
  Pr3+  Pr26  1  0.38894389  0.01090871  0.94821272  1
  Pr3+  Pr27  1  0.49014960  0.35655923  0.55967331  1
  Pr3+  Pr28  1  0.24161553  0.10026343  0.55692281  1
  Pr3+  Pr29  1  0.48839895  0.10300255  0.55206580  1
  Pr3+  Pr30  1  0.74216232  0.60807959  0.57013619  1
  Nd3+  Nd31  1  0.61438338  0.71880941  0.42449495  1
  Nd3+  Nd32  1  0.00822141  0.63403511  0.05428378  1
  Nd3+  Nd33  1  0.51272189  0.63681418  0.06906824  1
  Nd3+  Nd34  1  0.86407794  0.47969458  0.44194140  1
  Nd3+  Nd35  1  0.25911740  0.63545453  0.05651366  1
  Nd3+  Nd36  1  0.86391273  0.22982609  0.44117518  1
  Nd3+  Nd37  1  0.89357517  0.52040756  0.90227777  1
  Nd3+  Nd38  1  -0.01147133  0.85462375  0.55484383  1
  Nd3+  Nd39  1  0.36246861  0.23172713  0.44212277  1
  Nd3+  Nd40  1  0.00735812  0.38473392  0.06130599  1
  Nd3+  Nd41  1  0.86393717  0.72060821  0.43058132  1
  Nd3+  Nd42  1  0.61308905  0.23031373  0.43348530  1
  Nd3+  Nd43  1  0.49073644  0.85083785  0.55057210  1
  Nd3+  Nd44  1  0.25835322  0.38469182  0.06327229  1
  Nd3+  Nd45  1  0.75945861  0.38731847  0.05041044  1
  Nd3+  Nd46  1  0.23718337  0.35569525  0.56934212  1
  Nd3+  Nd47  1  0.11796076  0.73158281  0.44268554  1
  Nd3+  Nd48  1  0.00977088  0.13311520  0.05336379  1
  Nd3+  Nd49  1  0.13409166  0.76561679  0.93488366  1
  Nd3+  Nd50  1  0.11709248  -0.02143085  0.43720258  1
  Sm3+  Sm51  1  0.63562773  0.75702334  0.94163908  1
  Sm3+  Sm52  1  0.38753868  0.25736566  0.95609456  1
  Sm3+  Sm53  1  0.76097784  0.63314319  0.05415208  1
  Sm3+  Sm54  1  -0.01079814  0.60501377  0.55708762  1
  Sm3+  Sm55  1  0.11309287  0.47835708  0.44603912  1
  Sm3+  Sm56  1  0.13493102  0.25941819  0.94618808  1
  Sm3+  Sm57  1  0.01091258  0.88634475  0.06367747  1
  Sm3+  Sm58  1  0.51343540  0.38832060  0.06419348  1
  Sm3+  Sm59  1  0.75798640  0.13258149  0.05931508  1
  Sm3+  Sm60  1  0.61419656  -0.02220070  0.43716374  1
  Sm3+  Sm61  1  0.11327717  0.23014117  0.44392165  1
  Sm3+  Sm62  1  0.62904356  0.01103063  0.94425110  1
  Sm3+  Sm63  1  0.14556227  0.01241548  0.93616326  1
  Bi2+  Bi64  1  -0.02279226  0.14584516  0.28108970  1
  Bi2+  Bi65  1  -0.05864064  0.06011894  0.75174079  1
  Bi2+  Bi66  1  -0.03980667  0.44430122  0.32230481  1
  Bi2+  Bi67  1  0.02049887  0.35739624  0.79961673  1
  Bi2+  Bi68  1  0.08594848  0.59384909  0.29544401  1
  Bi2+  Bi69  1  0.03766799  0.60821819  0.74601498  1
  Bi2+  Bi70  1  -0.01862788  0.95041951  0.29470188  1
  Bi2+  Bi71  1  -0.00339253  0.83786474  0.80371324  1
  Bi2+  Bi72  1  0.23529912  0.13959810  0.29578865  1
  Bi2+  Bi73  1  0.31013647  0.14101908  0.78067114  1
  Bi2+  Bi74  1  0.30185810  0.39999235  0.29885880  1
  Bi2+  Bi75  1  0.27111896  0.42766848  0.79836551  1
  Bi2+  Bi76  1  0.28939749  0.58729030  0.25644518  1
  Bi2+  Bi77  1  0.32208155  0.59699876  0.74998097  1
  Bi2+  Bi78  1  0.21758464  0.84859174  0.28815998  1
  Bi2+  Bi79  1  0.22858913  0.90251594  0.81142788  1
  Bi2+  Bi80  1  0.48771936  0.16789371  0.28047054  1
  Bi2+  Bi81  1  0.51311120  0.13603277  0.79820099  1
  Bi2+  Bi82  1  0.49661956  0.42880167  0.30883492  1
  Bi2+  Bi83  1  0.47402325  0.38261965  0.79494383  1
  Bi2+  Bi84  1  0.50417935  0.62998740  0.29491851  1
  Bi2+  Bi85  1  0.50497692  0.64877478  0.79463853  1
  Bi2+  Bi86  1  0.50047861  0.89001407  0.29614697  1
  Bi2+  Bi87  1  0.46389170  0.91012011  0.78886280  1
  Bi2+  Bi88  1  0.83801831  0.12127067  0.19613764  1
  Bi2+  Bi89  1  0.75495791  0.04030194  0.79300124  1
  Bi2+  Bi90  1  0.77961665  0.35781771  0.29542654  1
  Bi2+  Bi91  1  0.76491999  0.31242300  0.81876277  1
  Bi2+  Bi92  1  0.76009403  0.55298859  0.28386433  1
  Bi2+  Bi93  1  0.76910920  0.71829690  0.78860884  1
  Bi2+  Bi94  1  0.74649814  0.89928294  0.29996798  1
  Bi2+  Bi95  1  0.65336894  0.87199493  0.81724034  1
  Bi2+  Bi96  1  0.09401193  0.00807855  0.20367544  1
  Bi2+  Bi97  1  0.10807178  0.03062610  0.69945858  1
  Bi2+  Bi98  1  0.06877401  0.31641522  0.26030971  1
  Bi2+  Bi99  1  0.15965219  0.25799315  0.74269320  1
  Bi2+  Bi100  1  0.12499324  0.48417553  0.19675695  1
  Bi2+  Bi101  1  0.16988122  0.49016737  0.70036783  1
  Bi2+  Bi102  1  0.09814561  0.75307984  0.21539712  1
  Bi2+  Bi103  1  0.13240235  0.76531373  0.70729648  1
  Bi2+  Bi104  1  0.34264877  0.01560060  0.21205128  1
  Bi2+  Bi105  1  0.35975105  0.02731451  0.69342083  1
  Bi2+  Bi106  1  0.38342484  0.31271887  0.21092439  1
  Bi2+  Bi107  1  0.34877941  0.30662583  0.71584185  1
  Bi2+  Bi108  1  0.48306628  0.51297596  0.19945749  1
  Bi2+  Bi109  1  0.36226758  0.48041650  0.64709426  1
  Bi2+  Bi110  1  0.36607177  0.74488084  0.21484650  1
  Bi2+  Bi111  1  0.41939191  0.76293103  0.71106412  1
  Bi2+  Bi112  1  0.66899050  0.01589695  0.21690347  1
  Bi2+  Bi113  1  0.61420825  -0.02665589  0.71062413  1
  Bi2+  Bi114  1  0.61958612  0.35251631  0.22898967  1
  Bi2+  Bi115  1  0.59919820  0.21675987  0.70826292  1
  Bi2+  Bi116  1  0.67392417  0.54995286  0.17973577  1
  Bi2+  Bi117  1  0.52282105  0.51710321  0.70919277  1
  Bi2+  Bi118  1  0.65960272  0.74444113  0.21087899  1
  Bi2+  Bi119  1  0.63256852  0.77645501  0.70855191  1
  Bi2+  Bi120  1  0.89485140  -0.06651016  0.17574581  1
  Bi2+  Bi121  1  0.80359853  -0.02622839  0.68403553  1
  Bi2+  Bi122  1  0.88435819  0.33373889  0.19612782  1
  Bi2+  Bi123  1  0.86844956  0.22571087  0.70959381  1
  Bi2+  Bi124  1  0.92605448  0.52580099  0.21431713  1
  Bi2+  Bi125  1  0.86812389  0.51342441  0.71979864  1
  Bi2+  Bi126  1  0.91149405  0.78263283  0.24425726  1
  Bi2+  Bi127  1  0.88059096  0.79687465  0.70731811  1
  S2-  S128  1  -0.00080935  0.11875053  0.15145270  1
  S2-  S129  1  -0.01129352  0.13665817  0.64983677  1
  S2-  S130  1  0.05315209  0.34334084  0.15408621  1
  S2-  S131  1  -0.10080166  0.37168103  0.66111992  1
  S2-  S132  1  0.03063626  0.62485269  0.15292833  1
  S2-  S133  1  -0.03225175  0.61036127  0.65404078  1
  S2-  S134  1  0.12239227  0.87094994  0.13952301  1
  S2-  S135  1  0.01122048  0.86027298  0.65372202  1
  S2-  S136  1  0.21865396  0.11725770  0.16919765  1
  S2-  S137  1  0.22886608  0.12771739  0.65562031  1
  S2-  S138  1  0.27192269  0.40145119  0.16134581  1
  S2-  S139  1  0.12476141  0.35084588  0.64753250  1
  S2-  S140  1  0.26878650  0.64882369  0.15499084  1
  S2-  S141  1  0.23551746  0.70506844  0.64231219  1
  S2-  S142  1  0.34651766  0.87768971  0.15280613  1
  S2-  S143  1  0.21330042  0.91389281  0.67629964  1
  S2-  S144  1  0.42771746  0.14106012  0.17801723  1
  S2-  S145  1  0.48335324  0.11776844  0.65215037  1
  S2-  S146  1  0.53126892  0.30477625  0.14836689  1
  S2-  S147  1  0.56408972  0.35197613  0.65141122  1
  S2-  S148  1  0.51545725  0.72892522  0.15427702  1
  S2-  S149  1  0.53010906  0.66088090  0.65011928  1
  S2-  S150  1  0.51106472  0.95687536  0.20171884  1
  S2-  S151  1  0.40839275  0.87909526  0.63694614  1
  S2-  S152  1  0.67246823  0.13453266  0.14580171  1
  S2-  S153  1  0.73570073  0.18812684  0.64647170  1
  S2-  S154  1  0.74169633  0.38487111  0.15009162  1
  S2-  S155  1  0.72555928  0.33106117  0.72714859  1
  S2-  S156  1  0.77630815  0.68610861  0.14820690  1
  S2-  S157  1  0.73925359  0.52701726  0.66148027  1
  S2-  S158  1  0.67202118  0.88035725  0.15193737  1
  S2-  S159  1  0.75185933  0.75125437  0.63425280  1
  S2-  S160  1  0.19975300  -0.00758023  0.34951238  1
  S2-  S161  1  0.08410519  -0.02848522  0.84585159  1
  S2-  S162  1  0.13117951  0.22886045  0.34605814  1
  S2-  S163  1  0.14931650  0.27454698  0.84987364  1
  S2-  S164  1  0.19303666  0.47635255  0.35976205  1
  S2-  S165  1  0.04482570  0.50121441  0.84957303  1
  S2-  S166  1  0.11922291  0.74599140  0.34306779  1
  S2-  S167  1  0.14426645  0.75387787  0.83567801  1
  S2-  S168  1  0.40670105  0.03015446  0.31731473  1
  S2-  S169  1  0.27758006  0.03145318  0.86579512  1
  S2-  S170  1  0.35322367  0.22499624  0.34167191  1
  S2-  S171  1  0.45372294  0.25030692  0.86644466  1
  S2-  S172  1  0.36296845  0.61826627  0.35420792  1
  S2-  S173  1  0.47256321  0.52062515  0.86066960  1
  S2-  S174  1  0.35874581  0.83060790  0.34857559  1
  S2-  S175  1  0.36326798  0.80696609  0.84516881  1
  S2-  S176  1  0.61406935  -0.00493289  0.33951963  1
  S2-  S177  1  0.50703109  0.01630803  0.87068363  1
  S2-  S178  1  0.60207738  0.23398672  0.33376111  1
  S2-  S179  1  0.67225978  0.15889605  0.84680280  1
  S2-  S180  1  0.62913822  0.57499013  0.35785857  1
  S2-  S181  1  0.62464023  0.37986245  0.85242966  1
  S2-  S182  1  0.61808242  0.77600926  0.32705024  1
  S2-  S183  1  0.64293010  0.65650487  0.85787642  1
  S2-  S184  1  0.83270309  0.02969943  0.33112653  1
  S2-  S185  1  0.87924527  -0.10364542  0.86063305  1
  S2-  S186  1  0.87848653  0.24005099  0.34188930  1
  S2-  S187  1  0.92478461  0.23891178  0.84091506  1
  S2-  S188  1  0.86614610  0.58918952  0.36114359  1
  S2-  S189  1  0.82111962  0.46862924  0.81659699  1
  S2-  S190  1  0.87624014  0.81924518  0.34888333  1
  S2-  S191  1  0.89640960  0.67176016  0.84680110  1
  S2-  S192  1  -0.00985961  0.10246393  0.44575994  1
  S2-  S193  1  0.01446965  0.13264432  0.94759129  1
  S2-  S194  1  -0.00870922  0.35388984  0.45822460  1
  S2-  S195  1  0.00841405  0.38301027  0.95508095  1
  S2-  S196  1  -0.00359037  0.60414307  0.45381990  1
  S2-  S197  1  0.01240088  0.63582289  0.95024043  1
  S2-  S198  1  -0.00772946  0.85450674  0.44966725  1
  S2-  S199  1  0.01498554  0.88808858  0.96014038  1
  S2-  S200  1  0.23853909  0.10808999  0.45141878  1
  S2-  S201  1  0.26033409  0.14117703  0.96612529  1
  S2-  S202  1  0.23566665  0.35160470  0.45966395  1
  S2-  S203  1  0.26137285  0.38177977  0.95634618  1
  S2-  S204  1  0.23530765  0.60501318  0.45683733  1
  S2-  S205  1  0.25822345  0.63487395  0.94852892  1
  S2-  S206  1  0.23880373  0.85480967  0.45779792  1
  S2-  S207  1  0.25964052  0.88361208  0.96067193  1
  S2-  S208  1  0.48857764  0.10320021  0.44470784  1
  S2-  S209  1  0.51063448  0.13666495  0.97335464  1
  S2-  S210  1  0.48606902  0.35592239  0.45023458  1
  S2-  S211  1  0.50818376  0.38586646  0.96282542  1
  S2-  S212  1  0.48647265  0.60117366  0.45279074  1
  S2-  S213  1  0.50984691  0.63710583  0.96264938  1
  S2-  S214  1  0.49449105  0.85360957  0.44533300  1
  S2-  S215  1  0.51519764  0.87862571  0.95885341  1
  S2-  S216  1  0.73782587  0.10378910  0.44872874  1
  S2-  S217  1  0.76102687  0.13016378  0.95602639  1
  S2-  S218  1  0.74000729  0.35452529  0.44074072  1
  S2-  S219  1  0.76516902  0.39282930  0.94620676  1
  S2-  S220  1  0.73999409  0.60411694  0.46153387  1
  S2-  S221  1  0.76646497  0.63082374  0.95217836  1
  S2-  S222  1  0.73527181  0.85058905  0.44736485  1
  S2-  S223  1  0.75218368  0.88616886  0.95798880  1
  S2-  S224  1  0.13402727  0.01225283  0.04334598  1
  S2-  S225  1  0.11654866  -0.02357756  0.54441668  1
  S2-  S226  1  0.13654200  0.25728151  0.05059494  1
  S2-  S227  1  0.11569287  0.22635124  0.54649025  1
  S2-  S228  1  0.13435647  0.50858113  0.04337077  1
  S2-  S229  1  0.11423606  0.48319918  0.54900915  1
  S2-  S230  1  0.13290597  0.75560701  0.04134844  1
  S2-  S231  1  0.11157888  0.73030655  0.54692759  1
  S2-  S232  1  0.39068943  0.01081156  0.05699085  1
  S2-  S233  1  0.36539801  -0.02068161  0.53332661  1
  S2-  S234  1  0.38447353  0.26317501  0.05830798  1
  S2-  S235  1  0.36267974  0.23207902  0.54817432  1
  S2-  S236  1  0.38585315  0.50984262  0.05293357  1
  S2-  S237  1  0.36081855  0.47642334  0.53274533  1
  S2-  S238  1  0.38514589  0.75777755  0.04848792  1
  S2-  S239  1  0.36735428  0.72709253  0.53983289  1
  S2-  S240  1  0.63442700  0.00652340  0.04835795  1
  S2-  S241  1  0.61537714  -0.02209318  0.54423303  1
  S2-  S242  1  0.64010276  0.26261025  0.03999853  1
  S2-  S243  1  0.61203336  0.22983104  0.53952622  1
  S2-  S244  1  0.63435535  0.51206884  0.04479916  1
  S2-  S245  1  0.61937245  0.47773222  0.54851106  1
  S2-  S246  1  0.63712339  0.75546361  0.04501604  1
  S2-  S247  1  0.61318973  0.72831056  0.53430427  1
  S2-  S248  1  0.88455292  0.00935489  0.04318110  1
  S2-  S249  1  0.86283351  -0.02172375  0.53750864  1
  S2-  S250  1  0.88289713  0.25750478  0.04646139  1
  S2-  S251  1  0.86713362  0.22909583  0.54547870  1
  S2-  S252  1  0.88521787  0.51016611  0.05363348  1
  S2-  S253  1  0.86672485  0.48113071  0.54721990  1
  S2-  S254  1  0.88864442  0.76146828  0.04304727  1
  S2-  S255  1  0.87055152  0.72893103  0.53674998  1
