# generated using pymatgen
data_La6Ce6Pr19Nd20Sm13(BiS2)64
_symmetry_space_group_name_H-M   'P 1'
_cell_length_a   16.02806994
_cell_length_b   16.08024726
_cell_length_c   27.58022225
_cell_angle_alpha   90.36345523
_cell_angle_beta   90.29377259
_cell_angle_gamma   89.97378615
_symmetry_Int_Tables_number   1
_chemical_formula_structural   La6Ce6Pr19Nd20Sm13(BiS2)64
_chemical_formula_sum   'La6 Ce6 Pr19 Nd20 Sm13 Bi64 S128'
_cell_volume   7108.16052534
_cell_formula_units_Z   1
loop_
 _symmetry_equiv_pos_site_id
 _symmetry_equiv_pos_as_xyz
  1  'x, y, z'
loop_
 _atom_type_symbol
 _atom_type_oxidation_number
  La3+  3.0
  Ce3+  3.0
  Pr3+  3.0
  Nd3+  3.0
  Sm3+  3.0
  Bi2+  2.0
  S2-  -2.0
loop_
 _atom_site_type_symbol
 _atom_site_label
 _atom_site_symmetry_multiplicity
 _atom_site_fract_x
 _atom_site_fract_y
 _atom_site_fract_z
 _atom_site_occupancy
  La3+  La0  1  0.37981204  0.50313520  0.38996119  1
  La3+  La1  1  0.37370010  0.26934939  0.89124746  1
  La3+  La2  1  0.51250620  0.13799032  0.58345074  1
  La3+  La3  1  0.88188228  0.50246538  0.43070189  1
  La3+  La4  1  -0.00373734  0.14022942  0.07894507  1
  La3+  La5  1  0.36786619  0.75803497  0.91516855  1
  Ce3+  Ce6  1  0.63181205  0.25342845  0.44454233  1
  Ce3+  Ce7  1  0.11371282  0.01012875  0.93768232  1
  Ce3+  Ce8  1  0.39506057  0.00154265  0.43010773  1
  Ce3+  Ce9  1  0.74563273  0.88436865  0.05461645  1
  Ce3+  Ce10  1  0.63060505  0.75342644  0.44270077  1
  Ce3+  Ce11  1  0.87493983  0.25312741  0.93606503  1
  Pr3+  Pr12  1  0.01562584  0.87969530  0.57804491  1
  Pr3+  Pr13  1  0.61666315  0.25643815  0.93844565  1
  Pr3+  Pr14  1  -0.00863491  0.88644186  0.06492374  1
  Pr3+  Pr15  1  0.88381754  0.00457023  0.44572120  1
  Pr3+  Pr16  1  0.61891155  0.50775069  0.94422678  1
  Pr3+  Pr17  1  0.87112241  0.00941958  0.93725683  1
  Pr3+  Pr18  1  0.49398943  0.63696567  0.06356180  1
  Pr3+  Pr19  1  0.36112612  0.01205810  0.92401935  1
  Pr3+  Pr20  1  0.13471701  0.25461852  0.44702404  1
  Pr3+  Pr21  1  0.49506221  0.13276907  0.06353416  1
  Pr3+  Pr22  1  0.87245067  0.75657647  0.93177102  1
  Pr3+  Pr23  1  0.49297366  0.88307953  0.05366934  1
  Pr3+  Pr24  1  0.26227760  0.38084386  0.56055697  1
  Pr3+  Pr25  1  0.11824755  0.75546045  0.93279124  1
  Pr3+  Pr26  1  0.38231160  0.75690919  0.42920497  1
  Pr3+  Pr27  1  0.13433112  0.50169111  0.43473780  1
  Pr3+  Pr28  1  0.12965660  0.75492925  0.43552929  1
  Pr3+  Pr29  1  0.12772767  0.00692166  0.43410319  1
  Pr3+  Pr30  1  0.23712215  0.64949328  0.08176013  1
  Nd3+  Nd31  1  0.12316850  0.50591992  0.94743814  1
  Nd3+  Nd32  1  0.36665647  0.50763098  0.94548645  1
  Nd3+  Nd33  1  0.49494296  0.38205962  0.05958011  1
  Nd3+  Nd34  1  0.26054573  0.88204745  0.55599416  1
  Nd3+  Nd35  1  0.63443257  0.50359418  0.43030037  1
  Nd3+  Nd36  1  0.24689892  0.38146716  0.06168973  1
  Nd3+  Nd37  1  0.61818781  0.75702106  0.93111459  1
  Nd3+  Nd38  1  0.61597101  0.01051074  0.93547289  1
  Nd3+  Nd39  1  0.01198730  0.62980024  0.56897093  1
  Nd3+  Nd40  1  0.88352428  0.25202324  0.44414587  1
  Nd3+  Nd41  1  0.63258892  0.00553225  0.45001325  1
  Nd3+  Nd42  1  0.86962622  0.50686146  0.94632262  1
  Nd3+  Nd43  1  0.88616801  0.75608940  0.44388876  1
  Nd3+  Nd44  1  0.26180244  0.12904027  0.55491981  1
  Nd3+  Nd45  1  0.76188212  0.62899169  0.55824182  1
  Nd3+  Nd46  1  0.51845452  0.38513822  0.56373062  1
  Nd3+  Nd47  1  0.24744611  0.13379375  0.06033752  1
  Nd3+  Nd48  1  0.39275463  0.25613957  0.43408525  1
  Nd3+  Nd49  1  0.50714687  0.87685882  0.56818908  1
  Nd3+  Nd50  1  0.26139269  0.62869562  0.55241243  1
  Sm3+  Sm51  1  0.01157233  0.12675738  0.57235809  1
  Sm3+  Sm52  1  0.12025590  0.25597442  0.93667703  1
  Sm3+  Sm53  1  0.74598441  0.38275116  0.05506988  1
  Sm3+  Sm54  1  0.75932318  0.13120176  0.56595099  1
  Sm3+  Sm55  1  0.76102711  0.87894547  0.55920536  1
  Sm3+  Sm56  1  -0.00365601  0.63447844  0.06177694  1
  Sm3+  Sm57  1  0.00611027  0.38530071  0.57154955  1
  Sm3+  Sm58  1  -0.00470844  0.38248390  0.06129280  1
  Sm3+  Sm59  1  0.24479116  0.88487516  0.05058849  1
  Sm3+  Sm60  1  0.74583984  0.63273812  0.05991042  1
  Sm3+  Sm61  1  0.76385759  0.38178114  0.56423251  1
  Sm3+  Sm62  1  0.74702969  0.13460553  0.06965908  1
  Sm3+  Sm63  1  0.50904258  0.62957616  0.55088915  1
  Bi2+  Bi64  1  0.04881662  0.13325391  0.30989000  1
  Bi2+  Bi65  1  0.00657093  0.12521773  0.79015923  1
  Bi2+  Bi66  1  -0.03187110  0.35513540  0.24215994  1
  Bi2+  Bi67  1  -0.04001092  0.36621168  0.78808268  1
  Bi2+  Bi68  1  -0.01545301  0.50566623  0.31295461  1
  Bi2+  Bi69  1  -0.07179141  0.64073454  0.78506184  1
  Bi2+  Bi70  1  0.06466008  0.88211049  0.31389057  1
  Bi2+  Bi71  1  -0.06218407  0.86999699  0.79674583  1
  Bi2+  Bi72  1  0.27861204  0.13448036  0.25845251  1
  Bi2+  Bi73  1  0.21973662  0.12565021  0.78754886  1
  Bi2+  Bi74  1  0.22378324  0.36219806  0.28757092  1
  Bi2+  Bi75  1  0.22657586  0.40673243  0.79296494  1
  Bi2+  Bi76  1  0.26239233  0.62718987  0.27695650  1
  Bi2+  Bi77  1  0.31695635  0.64914034  0.77685976  1
  Bi2+  Bi78  1  0.26869019  0.86116275  0.23393234  1
  Bi2+  Bi79  1  0.24007201  0.86629402  0.78871051  1
  Bi2+  Bi80  1  0.44950480  0.09945927  0.30651226  1
  Bi2+  Bi81  1  0.49250596  0.13717080  0.77908466  1
  Bi2+  Bi82  1  0.51208503  0.33722497  0.29097871  1
  Bi2+  Bi83  1  0.50133948  0.40116903  0.79015916  1
  Bi2+  Bi84  1  0.52159535  0.61754446  0.28525358  1
  Bi2+  Bi85  1  0.49327328  0.58053112  0.73670141  1
  Bi2+  Bi86  1  0.48700780  0.88680625  0.29125541  1
  Bi2+  Bi87  1  0.51465313  0.85329705  0.79077145  1
  Bi2+  Bi88  1  0.76154844  0.18238031  0.32954265  1
  Bi2+  Bi89  1  0.81406274  0.11012952  0.82596418  1
  Bi2+  Bi90  1  0.72945568  0.36490874  0.28908608  1
  Bi2+  Bi91  1  0.77162204  0.29084370  0.79345378  1
  Bi2+  Bi92  1  0.76239686  0.63725789  0.29391171  1
  Bi2+  Bi93  1  0.74512496  0.59265447  0.81646251  1
  Bi2+  Bi94  1  0.76288044  0.98826354  0.31111278  1
  Bi2+  Bi95  1  0.74977179  0.82209950  0.82842599  1
  Bi2+  Bi96  1  0.14257561  0.00546504  0.21480386  1
  Bi2+  Bi97  1  0.08697431  -0.09874555  0.71987056  1
  Bi2+  Bi98  1  0.14347603  0.26582324  0.20135554  1
  Bi2+  Bi99  1  0.01418949  0.24685449  0.70327472  1
  Bi2+  Bi100  1  0.07326886  0.51781106  0.21171568  1
  Bi2+  Bi101  1  0.08185466  0.51485917  0.74469872  1
  Bi2+  Bi102  1  0.08248402  0.72925296  0.24002347  1
  Bi2+  Bi103  1  0.11548138  0.70356930  0.71984429  1
  Bi2+  Bi104  1  0.40971308  -0.01057486  0.20200516  1
  Bi2+  Bi105  1  0.32967511  -0.01082753  0.69388950  1
  Bi2+  Bi106  1  0.40216980  0.25354248  0.19863707  1
  Bi2+  Bi107  1  0.33094353  0.24288838  0.68193326  1
  Bi2+  Bi108  1  0.40816877  0.49033440  0.17699324  1
  Bi2+  Bi109  1  0.31879161  0.50305876  0.69913152  1
  Bi2+  Bi110  1  0.40731461  0.74737779  0.18445240  1
  Bi2+  Bi111  1  0.37799529  0.74794616  0.68448260  1
  Bi2+  Bi112  1  0.68172710  -0.00711801  0.20524687  1
  Bi2+  Bi113  1  0.70171427  -0.01468603  0.76878283  1
  Bi2+  Bi114  1  0.58974521  0.17411840  0.23378199  1
  Bi2+  Bi115  1  0.63581936  0.27214109  0.69803036  1
  Bi2+  Bi116  1  0.66870482  0.46573446  0.19784713  1
  Bi2+  Bi117  1  0.70752360  0.44922912  0.73190993  1
  Bi2+  Bi118  1  0.68964481  0.81903113  0.26419808  1
  Bi2+  Bi119  1  0.64044084  0.71968363  0.75394611  1
  Bi2+  Bi120  1  0.89368464  -0.01733842  0.21258218  1
  Bi2+  Bi121  1  0.87086589  0.00387568  0.71000437  1
  Bi2+  Bi122  1  0.79417778  0.22333201  0.21836972  1
  Bi2+  Bi123  1  0.82636108  0.19519755  0.69001313  1
  Bi2+  Bi124  1  0.87808578  0.54638025  0.21308731  1
  Bi2+  Bi125  1  0.88047825  0.51339293  0.68934356  1
  Bi2+  Bi126  1  0.88967092  0.76510600  0.25345162  1
  Bi2+  Bi127  1  0.84577290  0.77085641  0.69764004  1
  S2-  S128  1  -0.13715628  0.12045297  0.14758580  1
  S2-  S129  1  0.00800019  0.01079637  0.64643265  1
  S2-  S130  1  0.00347772  0.29605720  0.14451993  1
  S2-  S131  1  -0.12318714  0.36957187  0.63987272  1
  S2-  S132  1  0.08195552  0.65669700  0.14528478  1
  S2-  S133  1  0.03284942  0.51120414  0.64172730  1
  S2-  S134  1  0.02016522  0.91547396  0.16289165  1
  S2-  S135  1  0.00406419  0.74613798  0.64623637  1
  S2-  S136  1  0.13887493  0.12526228  0.14191064  1
  S2-  S137  1  0.22871607  0.10731885  0.65191158  1
  S2-  S138  1  0.27638636  0.37134364  0.16011724  1
  S2-  S139  1  0.22607686  0.37230170  0.65901307  1
  S2-  S140  1  0.28918553  0.60382940  0.17486308  1
  S2-  S141  1  0.23878888  0.64115668  0.65042433  1
  S2-  S142  1  0.25369293  0.80865168  0.13784532  1
  S2-  S143  1  0.21041873  0.87954238  0.65043628  1
  S2-  S144  1  0.36954787  0.12650846  0.13713598  1
  S2-  S145  1  0.44907427  0.09511120  0.67889630  1
  S2-  S146  1  0.53422097  0.36661587  0.15651546  1
  S2-  S147  1  0.48146017  0.28970542  0.64441092  1
  S2-  S148  1  0.52079368  0.62781885  0.16365889  1
  S2-  S149  1  0.50948375  0.66359282  0.64647723  1
  S2-  S150  1  0.51183699  0.87190274  0.15299751  1
  S2-  S151  1  0.46771576  0.88421222  0.66490798  1
  S2-  S152  1  0.62010580  0.12247658  0.13812398  1
  S2-  S153  1  0.66342770  0.13013504  0.64743466  1
  S2-  S154  1  0.76785158  0.36090676  0.15049948  1
  S2-  S155  1  0.64998435  0.41763071  0.63699850  1
  S2-  S156  1  0.74366677  0.60676440  0.15568719  1
  S2-  S157  1  0.76292832  0.64022629  0.65628408  1
  S2-  S158  1  0.78811837  0.88874278  0.14833525  1
  S2-  S159  1  0.74861046  0.88304920  0.65595175  1
  S2-  S160  1  0.17541398  0.01339764  0.33618965  1
  S2-  S161  1  0.20060235  0.00667290  0.85101799  1
  S2-  S162  1  0.14995371  0.25920895  0.34687929  1
  S2-  S163  1  0.20882541  0.26063508  0.84975591  1
  S2-  S164  1  0.21428263  0.50741594  0.34562549  1
  S2-  S165  1  0.13215726  0.49970930  0.84808877  1
  S2-  S166  1  0.16381012  0.73843533  0.33729170  1
  S2-  S167  1  0.22607830  0.73214320  0.85190916  1
  S2-  S168  1  0.37035358  -0.11545137  0.35683722  1
  S2-  S169  1  0.37308064  0.11413107  0.84103608  1
  S2-  S170  1  0.36329284  0.34161899  0.34644057  1
  S2-  S171  1  0.38493719  0.27448392  0.77018268  1
  S2-  S172  1  0.38917268  0.50989039  0.26947684  1
  S2-  S173  1  0.36884498  0.43990818  0.85381184  1
  S2-  S174  1  0.38963602  0.66401361  0.34207776  1
  S2-  S175  1  0.37906032  0.89268585  0.84482348  1
  S2-  S176  1  0.54714301  -0.00268658  0.36413278  1
  S2-  S177  1  0.57426992  0.01507156  0.83788614  1
  S2-  S178  1  0.53156556  0.23333928  0.36567259  1
  S2-  S179  1  0.54261754  0.25950326  0.84790491  1
  S2-  S180  1  0.54139656  0.49229446  0.34554377  1
  S2-  S181  1  0.60954450  0.49158616  0.84604235  1
  S2-  S182  1  0.62582178  0.72271427  0.34672012  1
  S2-  S183  1  0.51252940  0.72912844  0.85234135  1
  S2-  S184  1  0.98059662  0.00752811  0.36382493  1
  S2-  S185  1  0.99092249  0.00082103  0.86302179  1
  S2-  S186  1  0.93579990  0.23156375  0.35041073  1
  S2-  S187  1  0.99290181  0.25593597  0.86405982  1
  S2-  S188  1  0.76046312  0.49864225  0.35617532  1
  S2-  S189  1  0.88850884  0.49867507  0.84908758  1
  S2-  S190  1  0.93823071  0.77041676  0.35131674  1
  S2-  S191  1  0.99482677  0.74222500  0.85854943  1
  S2-  S192  1  0.00834630  0.13137843  0.46748036  1
  S2-  S193  1  -0.00520129  0.13479783  0.96529552  1
  S2-  S194  1  0.00721700  0.37836677  0.45766841  1
  S2-  S195  1  -0.00419855  0.38523136  0.95946362  1
  S2-  S196  1  0.00796420  0.62742018  0.45453221  1
  S2-  S197  1  -0.00520541  0.62795523  0.95968418  1
  S2-  S198  1  0.00896037  0.87945496  0.46588247  1
  S2-  S199  1  -0.00902616  0.87956635  0.95995928  1
  S2-  S200  1  0.26431565  0.12863563  0.44877647  1
  S2-  S201  1  0.24053437  0.13461850  0.95546371  1
  S2-  S202  1  0.26225133  0.38043771  0.45481819  1
  S2-  S203  1  0.24585836  0.38007220  0.95688002  1
  S2-  S204  1  0.25957961  0.62883408  0.44901030  1
  S2-  S205  1  0.24434487  0.63157482  0.95999552  1
  S2-  S206  1  0.25443609  0.88249061  0.45307229  1
  S2-  S207  1  0.24197853  0.88144660  0.95045073  1
  S2-  S208  1  0.51031835  0.12822732  0.46935277  1
  S2-  S209  1  0.49187480  0.13306700  0.95416203  1
  S2-  S210  1  0.51083761  0.38337851  0.45788751  1
  S2-  S211  1  0.49249911  0.38299193  0.95555219  1
  S2-  S212  1  0.50600800  0.62696519  0.44947739  1
  S2-  S213  1  0.49301989  0.63125648  0.95721125  1
  S2-  S214  1  0.51012267  0.87628094  0.46223071  1
  S2-  S215  1  0.49673487  0.88244418  0.94941572  1
  S2-  S216  1  0.75787348  0.12844974  0.46163720  1
  S2-  S217  1  0.74291188  0.13307079  0.95742974  1
  S2-  S218  1  0.75923494  0.37539243  0.45857293  1
  S2-  S219  1  0.74613844  0.38086959  0.95033754  1
  S2-  S220  1  0.76040815  0.63385092  0.45326162  1
  S2-  S221  1  0.74593823  0.63487163  0.95513752  1
  S2-  S222  1  0.75789959  0.87850320  0.45404241  1
  S2-  S223  1  0.74298696  0.88329105  0.95017579  1
  S2-  S224  1  0.11973161  0.00499864  0.04434281  1
  S2-  S225  1  0.13405830  0.00728400  0.54275857  1
  S2-  S226  1  0.12139715  0.26288545  0.04194452  1
  S2-  S227  1  0.12908059  0.25525394  0.55295575  1
  S2-  S228  1  0.11971111  0.50781406  0.05294646  1
  S2-  S229  1  0.13526480  0.50393553  0.54075085  1
  S2-  S230  1  0.11492641  0.76232530  0.04026373  1
  S2-  S231  1  0.13538799  0.75302878  0.54259735  1
  S2-  S232  1  0.36833376  0.00459515  0.03687554  1
  S2-  S233  1  0.38696995  0.00475367  0.54739608  1
  S2-  S234  1  0.37195800  0.26184771  0.04783770  1
  S2-  S235  1  0.38399403  0.25550250  0.54129400  1
  S2-  S236  1  0.36737767  0.51191713  0.05130038  1
  S2-  S237  1  0.38875860  0.50621370  0.55783977  1
  S2-  S238  1  0.36882784  0.75773345  0.03952307  1
  S2-  S239  1  0.38417330  0.75497006  0.54037830  1
  S2-  S240  1  0.62219922  0.00634407  0.04016454  1
  S2-  S241  1  0.63409603  0.00003868  0.55327210  1
  S2-  S242  1  0.62336192  0.26136030  0.04401170  1
  S2-  S243  1  0.64134027  0.25639395  0.54662450  1
  S2-  S244  1  0.62203500  0.50880242  0.04947750  1
  S2-  S245  1  0.63703523  0.51246407  0.53613897  1
  S2-  S246  1  0.62314922  0.75606463  0.04290147  1
  S2-  S247  1  0.63582696  0.75509277  0.54858395  1
  S2-  S248  1  0.86757598  0.01079614  0.04307295  1
  S2-  S249  1  0.88038416  0.00532851  0.55053922  1
  S2-  S250  1  0.86798530  0.26077332  0.04288085  1
  S2-  S251  1  0.88828255  0.24877884  0.54812352  1
  S2-  S252  1  0.87186474  0.50865891  0.05219008  1
  S2-  S253  1  0.88612526  0.50650622  0.53987487  1
  S2-  S254  1  0.87069887  0.75383842  0.04613674  1
  S2-  S255  1  0.88413329  0.75662116  0.54763087  1
