# generated using pymatgen
data_La6Ce6Pr19Nd20Sm13(BiS2)64
_symmetry_space_group_name_H-M   'P 1'
_cell_length_a   16.18015878
_cell_length_b   16.17146108
_cell_length_c   27.27526787
_cell_angle_alpha   89.96611771
_cell_angle_beta   90.06904055
_cell_angle_gamma   89.99496273
_symmetry_Int_Tables_number   1
_chemical_formula_structural   La6Ce6Pr19Nd20Sm13(BiS2)64
_chemical_formula_sum   'La6 Ce6 Pr19 Nd20 Sm13 Bi64 S128'
_cell_volume   7136.75307165
_cell_formula_units_Z   1
loop_
 _symmetry_equiv_pos_site_id
 _symmetry_equiv_pos_as_xyz
  1  'x, y, z'
loop_
 _atom_type_symbol
 _atom_type_oxidation_number
  La3+  3.0
  Ce3+  3.0
  Pr3+  3.0
  Nd3+  3.0
  Sm3+  3.0
  Bi2+  2.0
  S2-  -2.0
loop_
 _atom_site_type_symbol
 _atom_site_label
 _atom_site_symmetry_multiplicity
 _atom_site_fract_x
 _atom_site_fract_y
 _atom_site_fract_z
 _atom_site_occupancy
  La3+  La0  1  0.24051501  0.38037162  0.57132792  1
  La3+  La1  1  0.87063313  0.00146276  0.88824522  1
  La3+  La2  1  0.61384020  0.74446096  0.40561180  1
  La3+  La3  1  0.47705225  0.11379311  0.60577616  1
  La3+  La4  1  0.88120570  0.25834211  0.91868888  1
  La3+  La5  1  0.60822219  0.01304962  0.41033252  1
  Ce3+  Ce6  1  0.87197341  0.76189953  0.94350969  1
  Ce3+  Ce7  1  -0.00971410  0.88163774  0.55488042  1
  Ce3+  Ce8  1  0.49204414  0.87446553  0.55915717  1
  Ce3+  Ce9  1  0.12091028  0.00890125  0.93416552  1
  Ce3+  Ce10  1  0.86281230  0.25225590  0.44215277  1
  Ce3+  Ce11  1  0.62474504  0.01083245  0.93071751  1
  Pr3+  Pr12  1  0.37591744  0.01537544  0.92186100  1
  Pr3+  Pr13  1  0.73433048  0.88263992  0.55109060  1
  Pr3+  Pr14  1  0.61229754  0.25233162  0.44390240  1
  Pr3+  Pr15  1  -0.00297621  0.38261293  0.05878165  1
  Pr3+  Pr16  1  -0.00304388  0.88434141  0.06010052  1
  Pr3+  Pr17  1  0.12383828  0.76148151  0.94266561  1
  Pr3+  Pr18  1  0.74855332  0.38135637  0.05623440  1
  Pr3+  Pr19  1  0.24506433  0.88270314  0.56636877  1
  Pr3+  Pr20  1  -0.00241584  0.63154727  0.05746678  1
  Pr3+  Pr21  1  0.11707488  0.75409083  0.44123561  1
  Pr3+  Pr22  1  0.74752388  0.63265453  0.05735286  1
  Pr3+  Pr23  1  0.62057352  0.50762034  0.93356786  1
  Pr3+  Pr24  1  0.74908849  0.13397279  0.05472375  1
  Pr3+  Pr25  1  0.24974436  0.88486087  0.05938781  1
  Pr3+  Pr26  1  0.36319327  0.00760906  0.43232855  1
  Pr3+  Pr27  1  0.62525325  0.26126439  0.92620225  1
  Pr3+  Pr28  1  0.24923310  0.13210878  0.05843537  1
  Pr3+  Pr29  1  0.73681484  0.12672606  0.56601087  1
  Pr3+  Pr30  1  -0.01222986  0.37879746  0.56123327  1
  Nd3+  Nd31  1  0.62306584  0.76213238  0.94144987  1
  Nd3+  Nd32  1  0.49796441  0.88623625  0.06090881  1
  Nd3+  Nd33  1  0.49816878  0.38055773  0.05874705  1
  Nd3+  Nd34  1  0.74028676  0.37865197  0.55925802  1
  Nd3+  Nd35  1  0.23993945  0.62944468  0.55623107  1
  Nd3+  Nd36  1  0.49922857  0.63388000  0.05997196  1
  Nd3+  Nd37  1  -0.01040224  0.12901356  0.55796798  1
  Nd3+  Nd38  1  0.37358219  0.25743114  0.93751998  1
  Nd3+  Nd39  1  0.87469119  0.50903770  0.92706667  1
  Nd3+  Nd40  1  0.11464758  0.50544552  0.44459620  1
  Nd3+  Nd41  1  0.49443141  0.37616434  0.57341359  1
  Nd3+  Nd42  1  0.36823924  0.25570424  0.44765051  1
  Nd3+  Nd43  1  -0.01158702  0.63437451  0.56049524  1
  Nd3+  Nd44  1  0.11598800  0.26004638  0.44113916  1
  Nd3+  Nd45  1  0.36947425  0.75659627  0.43934285  1
  Nd3+  Nd46  1  0.11878297  0.00620397  0.43965867  1
  Nd3+  Nd47  1  0.86254299  0.50754517  0.44513524  1
  Nd3+  Nd48  1  0.86170178  0.00533035  0.43323196  1
  Nd3+  Nd49  1  0.49325193  0.63089303  0.57057865  1
  Nd3+  Nd50  1  -0.00395551  0.13153593  0.05419598  1
  Sm3+  Sm51  1  0.74698152  0.88698798  0.06169652  1
  Sm3+  Sm52  1  0.73972555  0.63299912  0.55734354  1
  Sm3+  Sm53  1  0.24956177  0.38111728  0.05513488  1
  Sm3+  Sm54  1  0.24985627  0.63322664  0.05753440  1
  Sm3+  Sm55  1  0.12493515  0.51057926  0.94617107  1
  Sm3+  Sm56  1  0.36898323  0.50443145  0.45225605  1
  Sm3+  Sm57  1  0.50173354  0.13294652  0.05891795  1
  Sm3+  Sm58  1  0.37279656  0.50954073  0.94831976  1
  Sm3+  Sm59  1  0.86300922  0.75840742  0.44204612  1
  Sm3+  Sm60  1  0.12310550  0.25987898  0.94094826  1
  Sm3+  Sm61  1  0.24212105  0.13045906  0.56131800  1
  Sm3+  Sm62  1  0.37363147  0.76102757  0.94458381  1
  Sm3+  Sm63  1  0.61260789  0.50526279  0.44675448  1
  Bi2+  Bi64  1  0.02237665  0.15611667  0.27300813  1
  Bi2+  Bi65  1  -0.00677921  0.13343024  0.78480580  1
  Bi2+  Bi66  1  -0.05919358  0.42374640  0.27935624  1
  Bi2+  Bi67  1  0.00524382  0.39999899  0.78933270  1
  Bi2+  Bi68  1  0.07841761  0.60837515  0.31076377  1
  Bi2+  Bi69  1  -0.01462594  0.59591532  0.80813328  1
  Bi2+  Bi70  1  0.05220141  0.87787591  0.25753499  1
  Bi2+  Bi71  1  0.01144542  0.79627665  0.78063902  1
  Bi2+  Bi72  1  0.25082623  0.13446167  0.29856803  1
  Bi2+  Bi73  1  0.23333216  0.07960880  0.81256421  1
  Bi2+  Bi74  1  0.22678860  0.38387996  0.28192229  1
  Bi2+  Bi75  1  0.28529135  0.36585675  0.79777359  1
  Bi2+  Bi76  1  0.26645904  0.64555621  0.29081070  1
  Bi2+  Bi77  1  0.25369428  0.57280210  0.79089242  1
  Bi2+  Bi78  1  0.24876791  0.84315734  0.31287486  1
  Bi2+  Bi79  1  0.27116134  0.88893647  0.81484662  1
  Bi2+  Bi80  1  0.49469944  0.13532477  0.29267794  1
  Bi2+  Bi81  1  0.49707845  0.11806165  0.78743025  1
  Bi2+  Bi82  1  0.51215185  0.37201763  0.30550777  1
  Bi2+  Bi83  1  0.47996168  0.37608739  0.79315955  1
  Bi2+  Bi84  1  0.47149841  0.58433812  0.29836975  1
  Bi2+  Bi85  1  0.53077787  0.57107745  0.79347659  1
  Bi2+  Bi86  1  0.43546172  0.86007985  0.28062263  1
  Bi2+  Bi87  1  0.50487551  0.84897428  0.79231847  1
  Bi2+  Bi88  1  0.77318687  0.12020593  0.30133023  1
  Bi2+  Bi89  1  0.73577108  0.10453923  0.76912375  1
  Bi2+  Bi90  1  0.73927694  0.35659188  0.25721791  1
  Bi2+  Bi91  1  0.74289129  0.43687550  0.78155644  1
  Bi2+  Bi92  1  0.74937939  0.61297634  0.29521994  1
  Bi2+  Bi93  1  0.79453759  0.61896208  0.79840483  1
  Bi2+  Bi94  1  0.79309810  0.87074410  0.29132122  1
  Bi2+  Bi95  1  0.75243972  0.85397152  0.78732440  1
  Bi2+  Bi96  1  0.13554594  0.03693790  0.21003445  1
  Bi2+  Bi97  1  0.13557843  -0.04184368  0.73738233  1
  Bi2+  Bi98  1  0.15382100  0.26047533  0.20763165  1
  Bi2+  Bi99  1  0.14802430  0.23835286  0.76270282  1
  Bi2+  Bi100  1  0.06721089  0.51085169  0.20788420  1
  Bi2+  Bi101  1  0.20034144  0.47714500  0.69526623  1
  Bi2+  Bi102  1  0.18995920  0.77382001  0.20233041  1
  Bi2+  Bi103  1  0.13244343  0.67580575  0.72233683  1
  Bi2+  Bi104  1  0.33110755  -0.00016563  0.22938006  1
  Bi2+  Bi105  1  0.33764702  -0.02091038  0.71862610  1
  Bi2+  Bi106  1  0.39563275  0.30635138  0.22314168  1
  Bi2+  Bi107  1  0.34634325  0.24974620  0.71209757  1
  Bi2+  Bi108  1  0.33465795  0.49742004  0.21660733  1
  Bi2+  Bi109  1  0.39566736  0.49790792  0.70253231  1
  Bi2+  Bi110  1  0.38159243  0.72810020  0.20026612  1
  Bi2+  Bi111  1  0.41862534  0.69929234  0.72957193  1
  Bi2+  Bi112  1  0.62256425  -0.00654500  0.20207301  1
  Bi2+  Bi113  1  0.59911480  -0.07269879  0.70241432  1
  Bi2+  Bi114  1  0.62830076  0.23071094  0.19227219  1
  Bi2+  Bi115  1  0.62003378  0.32647464  0.71626237  1
  Bi2+  Bi116  1  0.60603944  0.48960409  0.23522170  1
  Bi2+  Bi117  1  0.58190065  0.50344025  0.67234292  1
  Bi2+  Bi118  1  0.63328466  0.75094931  0.19875804  1
  Bi2+  Bi119  1  0.62142081  0.68299674  0.71408887  1
  Bi2+  Bi120  1  0.87233906  0.00721504  0.18944340  1
  Bi2+  Bi121  1  0.89032506  -0.00586523  0.67218426  1
  Bi2+  Bi122  1  0.90034313  0.26830085  0.20983902  1
  Bi2+  Bi123  1  0.89493079  0.25354374  0.69261737  1
  Bi2+  Bi124  1  0.86919873  0.53943596  0.19420185  1
  Bi2+  Bi125  1  0.89435639  0.50516946  0.71440549  1
  Bi2+  Bi126  1  0.93522018  0.69998765  0.25003308  1
  Bi2+  Bi127  1  0.88417909  0.73496385  0.70088133  1
  S2-  S128  1  -0.03786753  0.12847514  0.15202695  1
  S2-  S129  1  0.00500027  0.12970353  0.65720604  1
  S2-  S130  1  0.02679961  0.35993641  0.15634564  1
  S2-  S131  1  -0.01416937  0.37720721  0.66148093  1
  S2-  S132  1  -0.00098278  0.65168197  0.15634379  1
  S2-  S133  1  -0.00211111  0.61886204  0.65883372  1
  S2-  S134  1  -0.02334098  0.89403651  0.15983678  1
  S2-  S135  1  -0.01457038  0.85709319  0.65086294  1
  S2-  S136  1  0.24932578  0.14096905  0.15808889  1
  S2-  S137  1  0.31357956  0.11536999  0.65061386  1
  S2-  S138  1  0.27603864  0.37025647  0.15050915  1
  S2-  S139  1  0.20665215  0.31083404  0.66114099  1
  S2-  S140  1  0.25136316  0.62487600  0.15436149  1
  S2-  S141  1  0.25250837  0.63951012  0.65409905  1
  S2-  S142  1  0.30302809  0.88918754  0.15412089  1
  S2-  S143  1  0.22486473  0.88091927  0.66676638  1
  S2-  S144  1  0.51681136  0.10955092  0.15697542  1
  S2-  S145  1  0.57581427  0.09116671  0.69677428  1
  S2-  S146  1  0.52380946  0.34692296  0.15468048  1
  S2-  S147  1  0.48525422  0.27385886  0.65417750  1
  S2-  S148  1  0.51268597  0.64693821  0.15843559  1
  S2-  S149  1  0.49815978  0.74643307  0.64457009  1
  S2-  S150  1  0.53368710  0.88217190  0.15885996  1
  S2-  S151  1  0.45197778  0.94843386  0.64469397  1
  S2-  S152  1  0.73593395  0.10168660  0.15449406  1
  S2-  S153  1  0.77955582  0.12903529  0.66459352  1
  S2-  S154  1  0.76355186  0.32467395  0.15054276  1
  S2-  S155  1  0.76082951  0.34596500  0.65572794  1
  S2-  S156  1  0.73815479  0.64712645  0.15738471  1
  S2-  S157  1  0.76080441  0.65272801  0.65421431  1
  S2-  S158  1  0.74311683  0.88048966  0.16186848  1
  S2-  S159  1  0.74389506  0.89905905  0.65224880  1
  S2-  S160  1  0.22832538  0.00257186  0.36287970  1
  S2-  S161  1  0.03333785  0.01192843  0.84902242  1
  S2-  S162  1  0.11655788  0.21782904  0.34570825  1
  S2-  S163  1  0.04452715  0.26201990  0.85351010  1
  S2-  S164  1  0.12487992  0.44812191  0.35222795  1
  S2-  S165  1  0.11954069  0.49933881  0.84907068  1
  S2-  S166  1  0.08723278  0.79340409  0.34501272  1
  S2-  S167  1  0.14240961  0.77700180  0.84370919  1
  S2-  S168  1  0.46588751  0.00152307  0.34668502  1
  S2-  S169  1  0.50424832  -0.00647252  0.85497540  1
  S2-  S170  1  0.37416818  0.21407309  0.35019517  1
  S2-  S171  1  0.37105072  0.16176482  0.85457295  1
  S2-  S172  1  0.39408305  0.46489907  0.35814376  1
  S2-  S173  1  0.38844168  0.52569416  0.85222374  1
  S2-  S174  1  0.45992573  0.74132937  0.35509307  1
  S2-  S175  1  0.38694571  0.76458241  0.84763415  1
  S2-  S176  1  0.67730382  -0.02463222  0.31495494  1
  S2-  S177  1  0.71049881  -0.01204566  0.84336467  1
  S2-  S178  1  0.62667756  0.17091950  0.35306156  1
  S2-  S179  1  0.62384100  0.18036546  0.83399968  1
  S2-  S180  1  0.61954311  0.58198596  0.36007549  1
  S2-  S181  1  0.62134932  0.39490955  0.85633475  1
  S2-  S182  1  0.65998232  0.76972363  0.30185871  1
  S2-  S183  1  0.63342057  0.77091723  0.84257951  1
  S2-  S184  1  0.88705228  0.00069990  0.33452325  1
  S2-  S185  1  0.86208642  -0.01454951  0.76612874  1
  S2-  S186  1  0.85788945  0.23372788  0.34590095  1
  S2-  S187  1  0.85115609  0.15678732  0.83712830  1
  S2-  S188  1  0.83788718  0.50162299  0.34714441  1
  S2-  S189  1  0.86897158  0.39342223  0.85143953  1
  S2-  S190  1  0.85815083  0.73576235  0.34550782  1
  S2-  S191  1  0.87663999  0.83209002  0.85412675  1
  S2-  S192  1  -0.00807667  0.12839536  0.45036707  1
  S2-  S193  1  0.00119912  0.13443652  0.95120418  1
  S2-  S194  1  -0.01319007  0.38116296  0.45359495  1
  S2-  S195  1  0.00326920  0.38888798  0.95328444  1
  S2-  S196  1  -0.01308223  0.63207080  0.45365301  1
  S2-  S197  1  -0.00117796  0.63304023  0.95088170  1
  S2-  S198  1  -0.01031663  0.88215845  0.44890720  1
  S2-  S199  1  -0.00177314  0.88442224  0.95411586  1
  S2-  S200  1  0.23861088  0.13666192  0.45809576  1
  S2-  S201  1  0.24449263  0.13517555  0.95270343  1
  S2-  S202  1  0.24218798  0.38228340  0.46147710  1
  S2-  S203  1  0.24809891  0.38437012  0.95020471  1
  S2-  S204  1  0.24345166  0.62727069  0.44943890  1
  S2-  S205  1  0.25029717  0.63429035  0.95254953  1
  S2-  S206  1  0.24099212  0.87595582  0.45942896  1
  S2-  S207  1  0.25256980  0.88776656  0.95300114  1
  S2-  S208  1  0.48934347  0.13083123  0.45435641  1
  S2-  S209  1  0.49950620  0.13687713  0.95485052  1
  S2-  S210  1  0.49273437  0.38117129  0.46531464  1
  S2-  S211  1  0.49301253  0.38400119  0.95356172  1
  S2-  S212  1  0.49021133  0.62667759  0.46324836  1
  S2-  S213  1  0.49713888  0.63469715  0.95332343  1
  S2-  S214  1  0.49486545  0.87949671  0.45195903  1
  S2-  S215  1  0.49567765  0.88156279  0.95578171  1
  S2-  S216  1  0.73891084  0.12576525  0.45753229  1
  S2-  S217  1  0.75069224  0.13454617  0.94820625  1
  S2-  S218  1  0.73712384  0.38166726  0.45197425  1
  S2-  S219  1  0.75015256  0.38532419  0.95183237  1
  S2-  S220  1  0.74009244  0.63404854  0.45391930  1
  S2-  S221  1  0.74732941  0.63145602  0.94889601  1
  S2-  S222  1  0.73507687  0.87962085  0.44231269  1
  S2-  S223  1  0.74729924  0.88337471  0.95636998  1
  S2-  S224  1  0.12315345  0.00839690  0.04603710  1
  S2-  S225  1  0.11827487  0.00679409  0.54686847  1
  S2-  S226  1  0.12425525  0.25852828  0.04580617  1
  S2-  S227  1  0.11418665  0.25304914  0.54815185  1
  S2-  S228  1  0.12753157  0.50709996  0.05092836  1
  S2-  S229  1  0.11257782  0.50656103  0.55179286  1
  S2-  S230  1  0.12543003  0.75700141  0.04999260  1
  S2-  S231  1  0.11714666  0.75529689  0.54898557  1
  S2-  S232  1  0.37709567  0.01144180  0.04417653  1
  S2-  S233  1  0.36182316  0.00809225  0.54028888  1
  S2-  S234  1  0.37453976  0.25657514  0.04473609  1
  S2-  S235  1  0.36498956  0.25385739  0.55202786  1
  S2-  S236  1  0.37314364  0.50768309  0.05255631  1
  S2-  S237  1  0.36869596  0.50451330  0.55668273  1
  S2-  S238  1  0.37372338  0.75674119  0.04927366  1
  S2-  S239  1  0.36259952  0.75258804  0.54572552  1
  S2-  S240  1  0.62222137  0.00771747  0.04354569  1
  S2-  S241  1  0.60909510  0.00841380  0.55472328  1
  S2-  S242  1  0.62175342  0.25813111  0.03935810  1
  S2-  S243  1  0.61706288  0.25442438  0.55103732  1
  S2-  S244  1  0.62161217  0.50677723  0.04454222  1
  S2-  S245  1  0.61807601  0.50598726  0.54939488  1
  S2-  S246  1  0.62329120  0.75991002  0.04764005  1
  S2-  S247  1  0.61907122  0.75122511  0.54427328  1
  S2-  S248  1  0.87133525  0.00637730  0.04871941  1
  S2-  S249  1  0.86506627  0.00540434  0.54077618  1
  S2-  S250  1  0.87535851  0.25843480  0.03917496  1
  S2-  S251  1  0.86413099  0.25285939  0.54765337  1
  S2-  S252  1  0.87301333  0.50786031  0.04012763  1
  S2-  S253  1  0.86344953  0.50738810  0.55146806  1
  S2-  S254  1  0.87075036  0.75960332  0.05086034  1
  S2-  S255  1  0.86324360  0.75687423  0.54583567  1
