# generated using pymatgen
data_La6Ce6Pr19Nd20Sm13(BiS2)64
_symmetry_space_group_name_H-M   'P 1'
_cell_length_a   16.17148878
_cell_length_b   16.16511793
_cell_length_c   27.21233566
_cell_angle_alpha   90.19460020
_cell_angle_beta   90.02445216
_cell_angle_gamma   90.00533866
_symmetry_Int_Tables_number   1
_chemical_formula_structural   La6Ce6Pr19Nd20Sm13(BiS2)64
_chemical_formula_sum   'La6 Ce6 Pr19 Nd20 Sm13 Bi64 S128'
_cell_volume   7113.64443738
_cell_formula_units_Z   1
loop_
 _symmetry_equiv_pos_site_id
 _symmetry_equiv_pos_as_xyz
  1  'x, y, z'
loop_
 _atom_type_symbol
 _atom_type_oxidation_number
  La3+  3.0
  Ce3+  3.0
  Pr3+  3.0
  Nd3+  3.0
  Sm3+  3.0
  Bi2+  2.0
  S2-  -2.0
loop_
 _atom_site_type_symbol
 _atom_site_label
 _atom_site_symmetry_multiplicity
 _atom_site_fract_x
 _atom_site_fract_y
 _atom_site_fract_z
 _atom_site_occupancy
  La3+  La0  1  0.38211102  0.25693004  0.88701612  1
  La3+  La1  1  0.51666905  0.12874271  0.58716024  1
  La3+  La2  1  0.88137043  0.74281189  0.91743454  1
  La3+  La3  1  0.25174213  0.36529375  0.56714415  1
  La3+  La4  1  0.14159059  0.23731587  0.40836044  1
  La3+  La5  1  0.63294029  0.74930895  0.92581132  1
  Ce3+  Ce6  1  0.25388164  0.37481288  0.06445580  1
  Ce3+  Ce7  1  0.00969153  0.87192034  0.56352300  1
  Ce3+  Ce8  1  0.00431890  0.87047258  0.05866828  1
  Ce3+  Ce9  1  0.88090268  0.00132506  0.94554474  1
  Ce3+  Ce10  1  0.75449712  0.12636059  0.05542008  1
  Ce3+  Ce11  1  0.13661472  0.49188050  0.43401138  1
  Pr3+  Pr12  1  0.88707088  0.49791893  0.42500859  1
  Pr3+  Pr13  1  0.00283307  0.12897282  0.07482657  1
  Pr3+  Pr14  1  0.12464067  0.25153692  0.93676001  1
  Pr3+  Pr15  1  0.51335951  0.86250179  0.57737791  1
  Pr3+  Pr16  1  0.87275155  0.23656528  0.39621796  1
  Pr3+  Pr17  1  0.75237214  0.37989385  0.06927296  1
  Pr3+  Pr18  1  0.63369461  0.49165809  0.43950159  1
  Pr3+  Pr19  1  0.12871269  0.74853610  0.92880838  1
  Pr3+  Pr20  1  0.37791875  0.49580391  0.94117686  1
  Pr3+  Pr21  1  0.63243698  -0.00843439  0.44508214  1
  Pr3+  Pr22  1  0.88509661  -0.00353363  0.44216212  1
  Pr3+  Pr23  1  0.50341252  0.12638496  0.05858145  1
  Pr3+  Pr24  1  0.00872215  0.12501110  0.55513572  1
  Pr3+  Pr25  1  0.38552293  0.75118185  0.91815541  1
  Pr3+  Pr26  1  0.62703115  0.23222269  0.42546608  1
  Pr3+  Pr27  1  0.38273012  0.74604620  0.44291915  1
  Pr3+  Pr28  1  0.01390339  0.61567315  0.56778577  1
  Pr3+  Pr29  1  0.00440352  0.38794663  0.07849328  1
  Pr3+  Pr30  1  0.75880453  0.12469433  0.56277563  1
  Nd3+  Nd31  1  0.00306220  0.63333914  0.06535250  1
  Nd3+  Nd32  1  0.13504777  0.74359231  0.44762753  1
  Nd3+  Nd33  1  0.50174719  0.37371427  0.06062470  1
  Nd3+  Nd34  1  0.13270464  0.50016281  0.94393172  1
  Nd3+  Nd35  1  0.26046146  0.87244451  0.56941599  1
  Nd3+  Nd36  1  0.51042486  0.36875476  0.55647015  1
  Nd3+  Nd37  1  0.76652108  0.61451933  0.55925233  1
  Nd3+  Nd38  1  0.25638799  0.11624814  0.56600308  1
  Nd3+  Nd39  1  0.12783609  0.00347377  0.94467859  1
  Nd3+  Nd40  1  0.13633214  -0.00660450  0.43675024  1
  Nd3+  Nd41  1  0.88242513  0.49867472  0.94274753  1
  Nd3+  Nd42  1  0.25741672  0.63065350  0.05646386  1
  Nd3+  Nd43  1  0.25664105  0.87440591  0.05493690  1
  Nd3+  Nd44  1  0.38311898  0.23975272  0.44295392  1
  Nd3+  Nd45  1  0.62857779  0.00476179  0.93452256  1
  Nd3+  Nd46  1  0.50611948  0.87515127  0.05520129  1
  Nd3+  Nd47  1  0.25767022  0.61863041  0.56370892  1
  Nd3+  Nd48  1  0.37634443  0.00211466  0.93544316  1
  Nd3+  Nd49  1  0.63419816  0.74595187  0.44084023  1
  Nd3+  Nd50  1  0.76252664  0.86676888  0.56381226  1
  Sm3+  Sm51  1  0.50336067  0.62859592  0.05119573  1
  Sm3+  Sm52  1  0.00840575  0.36616359  0.53826974  1
  Sm3+  Sm53  1  0.51126600  0.62059200  0.55887372  1
  Sm3+  Sm54  1  0.75313717  0.87387843  0.05170562  1
  Sm3+  Sm55  1  0.38266084  0.49188924  0.44894317  1
  Sm3+  Sm56  1  0.88575488  0.74213684  0.44091491  1
  Sm3+  Sm57  1  0.62703319  0.25134567  0.93894154  1
  Sm3+  Sm58  1  0.62929815  0.49407441  0.94621320  1
  Sm3+  Sm59  1  0.38449312  -0.00505439  0.45682256  1
  Sm3+  Sm60  1  0.75208303  0.63010313  0.05627773  1
  Sm3+  Sm61  1  0.88428468  0.25184099  0.94678407  1
  Sm3+  Sm62  1  0.76071660  0.36854111  0.54640909  1
  Sm3+  Sm63  1  0.25325924  0.12744421  0.06177242  1
  Bi2+  Bi64  1  0.00501630  0.08999568  0.28680517  1
  Bi2+  Bi65  1  -0.01598280  0.10913852  0.81171121  1
  Bi2+  Bi66  1  -0.00017470  0.39611421  0.27846096  1
  Bi2+  Bi67  1  -0.03553047  0.34948966  0.74540140  1
  Bi2+  Bi68  1  -0.01658137  0.67269459  0.27447516  1
  Bi2+  Bi69  1  0.02125898  0.60194216  0.80231658  1
  Bi2+  Bi70  1  0.00018231  0.86508407  0.30320185  1
  Bi2+  Bi71  1  0.01126510  0.83524649  0.75624548  1
  Bi2+  Bi72  1  0.28518980  0.11204529  0.29469369  1
  Bi2+  Bi73  1  0.24155789  0.13334523  0.78885082  1
  Bi2+  Bi74  1  0.24447723  0.39095946  0.29862737  1
  Bi2+  Bi75  1  0.21920087  0.43427299  0.80464343  1
  Bi2+  Bi76  1  0.22940345  0.67715871  0.29131183  1
  Bi2+  Bi77  1  0.21458049  0.63052285  0.82363916  1
  Bi2+  Bi78  1  0.31571961  0.87226737  0.28666283  1
  Bi2+  Bi79  1  0.23808278  0.82570368  0.80189569  1
  Bi2+  Bi80  1  0.48779786  0.18674566  0.31357018  1
  Bi2+  Bi81  1  0.49613896  0.12660863  0.78114653  1
  Bi2+  Bi82  1  0.48996875  0.37960977  0.30383979  1
  Bi2+  Bi83  1  0.50135642  0.45882976  0.77262899  1
  Bi2+  Bi84  1  0.49438713  0.65820297  0.27674988  1
  Bi2+  Bi85  1  0.41359229  0.63342543  0.79881793  1
  Bi2+  Bi86  1  0.56336057  0.93910942  0.30389920  1
  Bi2+  Bi87  1  0.49880853  0.87708116  0.78513790  1
  Bi2+  Bi88  1  0.71103742  0.11887589  0.24698574  1
  Bi2+  Bi89  1  0.78156534  0.17724194  0.79533748  1
  Bi2+  Bi90  1  0.73278323  0.37577983  0.27966296  1
  Bi2+  Bi91  1  0.71820967  0.35687393  0.81524437  1
  Bi2+  Bi92  1  0.76526482  0.66849791  0.28907343  1
  Bi2+  Bi93  1  0.73825000  0.61487602  0.79402524  1
  Bi2+  Bi94  1  0.73302979  0.85256937  0.32357812  1
  Bi2+  Bi95  1  0.76661591  0.90321857  0.78996000  1
  Bi2+  Bi96  1  0.14943688  -0.06917401  0.24075451  1
  Bi2+  Bi97  1  0.09597858  0.00662381  0.73130279  1
  Bi2+  Bi98  1  0.14913894  0.22338347  0.19872067  1
  Bi2+  Bi99  1  0.10207942  0.24350371  0.69984992  1
  Bi2+  Bi100  1  0.12107402  0.55752037  0.22196757  1
  Bi2+  Bi101  1  0.06002016  0.50596836  0.70435858  1
  Bi2+  Bi102  1  0.13305640  0.75259920  0.19158108  1
  Bi2+  Bi103  1  0.15907581  0.72984912  0.71338035  1
  Bi2+  Bi104  1  0.42957822  0.03800611  0.23796740  1
  Bi2+  Bi105  1  0.34397092  -0.07815816  0.71742016  1
  Bi2+  Bi106  1  0.38740406  0.31753356  0.20476933  1
  Bi2+  Bi107  1  0.37942319  0.27228079  0.68328396  1
  Bi2+  Bi108  1  0.37875908  0.50617142  0.24365901  1
  Bi2+  Bi109  1  0.35323072  0.52538348  0.70726501  1
  Bi2+  Bi110  1  0.36037991  0.74814252  0.18260662  1
  Bi2+  Bi111  1  0.35646737  0.72657446  0.69884432  1
  Bi2+  Bi112  1  0.62978794  -0.03415629  0.19603717  1
  Bi2+  Bi113  1  0.65336213  -0.00037191  0.71523309  1
  Bi2+  Bi114  1  0.57569109  0.24576114  0.21022050  1
  Bi2+  Bi115  1  0.66629351  0.26654064  0.71434351  1
  Bi2+  Bi116  1  0.64338994  0.54144647  0.23794843  1
  Bi2+  Bi117  1  0.62539074  0.54910298  0.70485981  1
  Bi2+  Bi118  1  0.58486656  0.76981264  0.19831447  1
  Bi2+  Bi119  1  0.62858725  0.75257247  0.71058919  1
  Bi2+  Bi120  1  0.84875161  -0.02663861  0.25881734  1
  Bi2+  Bi121  1  0.86173320  0.03706058  0.72427371  1
  Bi2+  Bi122  1  0.88632484  0.22739235  0.19747818  1
  Bi2+  Bi123  1  0.85867803  0.21838890  0.68374834  1
  Bi2+  Bi124  1  0.85393417  0.51537197  0.20170452  1
  Bi2+  Bi125  1  0.80319256  0.46240096  0.73150960  1
  Bi2+  Bi126  1  0.85975974  0.78189619  0.21147330  1
  Bi2+  Bi127  1  0.87705120  0.71488710  0.70842222  1
  S2-  S128  1  0.01567675  0.11081084  0.17639147  1
  S2-  S129  1  0.02796505  0.10534865  0.65594381  1
  S2-  S130  1  0.01031230  0.32756994  0.17398787  1
  S2-  S131  1  0.03174128  0.36883008  0.63636932  1
  S2-  S132  1  -0.00129857  0.52953838  0.14593653  1
  S2-  S133  1  -0.07417033  0.58757955  0.65429199  1
  S2-  S134  1  -0.01510830  0.76557505  0.13549286  1
  S2-  S135  1  -0.04530843  0.84384497  0.65346964  1
  S2-  S136  1  0.25519205  0.12514813  0.16118343  1
  S2-  S137  1  0.23465706  0.18298382  0.65690010  1
  S2-  S138  1  0.23040798  0.36161054  0.16189503  1
  S2-  S139  1  0.26006678  0.40629496  0.66576115  1
  S2-  S140  1  0.24429476  0.61748630  0.15522467  1
  S2-  S141  1  0.14576860  0.60635247  0.64002301  1
  S2-  S142  1  0.24398781  0.87803202  0.15420742  1
  S2-  S143  1  0.21011949  0.94213579  0.65613184  1
  S2-  S144  1  0.51871602  0.09765752  0.15744171  1
  S2-  S145  1  0.43961980  0.12290940  0.67946480  1
  S2-  S146  1  0.53211545  0.38781609  0.15817863  1
  S2-  S147  1  0.53304567  0.30759845  0.64716152  1
  S2-  S148  1  0.49201835  0.64842616  0.14808486  1
  S2-  S149  1  0.50874541  0.71661014  0.64021658  1
  S2-  S150  1  0.46187061  0.86472862  0.15174078  1
  S2-  S151  1  0.51064752  0.92555585  0.67384073  1
  S2-  S152  1  0.77577533  0.12032620  0.15184423  1
  S2-  S153  1  0.66172056  0.12389840  0.64658274  1
  S2-  S154  1  0.78718879  0.36602662  0.16841253  1
  S2-  S155  1  0.76990719  0.35897197  0.64486518  1
  S2-  S156  1  0.73852494  0.59453431  0.15317299  1
  S2-  S157  1  0.73600181  0.66336921  0.65272685  1
  S2-  S158  1  0.72936484  0.84076569  0.14734941  1
  S2-  S159  1  0.72070055  0.87155913  0.66007878  1
  S2-  S160  1  0.13906644  0.08386699  0.35157066  1
  S2-  S161  1  0.13456600  0.02443927  0.84471523  1
  S2-  S162  1  0.12202489  0.28603581  0.30501527  1
  S2-  S163  1  0.21285712  0.26130529  0.84769670  1
  S2-  S164  1  0.10872479  0.49839968  0.33755600  1
  S2-  S165  1  0.07941922  0.45389951  0.85251218  1
  S2-  S166  1  0.13639353  0.77633245  0.35047705  1
  S2-  S167  1  0.01366095  0.75831213  0.85139401  1
  S2-  S168  1  0.34851085  -0.01131282  0.36030908  1
  S2-  S169  1  0.37072049  0.08996761  0.84784350  1
  S2-  S170  1  0.29965374  0.25050381  0.35511053  1
  S2-  S171  1  0.37772148  0.24351789  0.77841120  1
  S2-  S172  1  0.36684031  0.49241585  0.35170815  1
  S2-  S173  1  0.38076984  0.42302977  0.84946207  1
  S2-  S174  1  0.37265763  0.73542726  0.34337947  1
  S2-  S175  1  0.37253976  0.88661927  0.85345347  1
  S2-  S176  1  0.60608970  0.08419471  0.36164076  1
  S2-  S177  1  0.60560527  -0.00982456  0.83539210  1
  S2-  S178  1  0.72653245  0.25403899  0.34207242  1
  S2-  S179  1  0.54996823  0.23682459  0.85119997  1
  S2-  S180  1  0.62377524  0.47941409  0.33944902  1
  S2-  S181  1  0.62721559  0.50152157  0.84803199  1
  S2-  S182  1  0.60714428  0.72208537  0.34405536  1
  S2-  S183  1  0.52239699  0.74565935  0.84822755  1
  S2-  S184  1  0.87482125  0.07127317  0.35165795  1
  S2-  S185  1  0.88536954  -0.03210995  0.84915730  1
  S2-  S186  1  0.93185961  0.24630364  0.29862697  1
  S2-  S187  1  0.98641423  0.24573475  0.86829869  1
  S2-  S188  1  0.86183566  0.43423268  0.32983510  1
  S2-  S189  1  0.87821016  0.58291823  0.85577904  1
  S2-  S190  1  0.89254142  0.64195170  0.36075595  1
  S2-  S191  1  0.75127611  0.76085637  0.84663878  1
  S2-  S192  1  0.00901005  0.12287878  0.44851041  1
  S2-  S193  1  0.00212714  0.12389925  0.96724389  1
  S2-  S194  1  0.00878823  0.36207574  0.43386056  1
  S2-  S195  1  0.00317983  0.37872503  0.96886469  1
  S2-  S196  1  0.01385122  0.61987678  0.45850463  1
  S2-  S197  1  0.00770850  0.62224998  0.95925692  1
  S2-  S198  1  0.00851731  0.86827346  0.45502856  1
  S2-  S199  1  0.00561761  0.87674985  0.95436916  1
  S2-  S200  1  0.25991781  0.11662427  0.45942106  1
  S2-  S201  1  0.25118671  0.12616103  0.95692528  1
  S2-  S202  1  0.25973141  0.36902595  0.45646899  1
  S2-  S203  1  0.25347891  0.37344893  0.95819412  1
  S2-  S204  1  0.25983827  0.61776603  0.45659780  1
  S2-  S205  1  0.25860479  0.62722086  0.95044381  1
  S2-  S206  1  0.25825759  0.87121624  0.46135513  1
  S2-  S207  1  0.24986525  0.87519939  0.95005046  1
  S2-  S208  1  0.50375571  0.11673764  0.46802183  1
  S2-  S209  1  0.50444880  0.12615302  0.95338341  1
  S2-  S210  1  0.50631161  0.36718297  0.44988221  1
  S2-  S211  1  0.50523897  0.37223107  0.95456262  1
  S2-  S212  1  0.50666927  0.61765722  0.45415045  1
  S2-  S213  1  0.50651711  0.61790200  0.94800190  1
  S2-  S214  1  0.50717842  0.86906057  0.46048134  1
  S2-  S215  1  0.50737492  0.87951435  0.95068416  1
  S2-  S216  1  0.75843017  0.11905301  0.45599501  1
  S2-  S217  1  0.75565923  0.13103387  0.94803819  1
  S2-  S218  1  0.76082292  0.36850068  0.44392080  1
  S2-  S219  1  0.75617479  0.37340244  0.95946035  1
  S2-  S220  1  0.75638093  0.62026700  0.45242957  1
  S2-  S221  1  0.75039385  0.61793921  0.95331745  1
  S2-  S222  1  0.76250479  0.86655326  0.45650661  1
  S2-  S223  1  0.75401170  0.88042129  0.94863604  1
  S2-  S224  1  0.12921847  0.00066452  0.05313160  1
  S2-  S225  1  0.13163817  -0.00371971  0.54331576  1
  S2-  S226  1  0.12760063  0.25036675  0.05211557  1
  S2-  S227  1  0.13309419  0.24347984  0.53754385  1
  S2-  S228  1  0.13405645  0.50584927  0.05032986  1
  S2-  S229  1  0.13331981  0.49062058  0.53917001  1
  S2-  S230  1  0.13252772  0.75153142  0.03876425  1
  S2-  S231  1  0.13573448  0.74991317  0.55254223  1
  S2-  S232  1  0.37728645  0.00202496  0.04601809  1
  S2-  S233  1  0.38684600  -0.00476987  0.56121142  1
  S2-  S234  1  0.37836770  0.24920488  0.05851417  1
  S2-  S235  1  0.38279132  0.24425557  0.54961699  1
  S2-  S236  1  0.38086148  0.50244402  0.04985749  1
  S2-  S237  1  0.38574099  0.49628919  0.55401895  1
  S2-  S238  1  0.38230817  0.75196938  0.03375620  1
  S2-  S239  1  0.37979354  0.74431561  0.54877818  1
  S2-  S240  1  0.63107849  -0.00019565  0.04312384  1
  S2-  S241  1  0.63493462  -0.01048114  0.55079227  1
  S2-  S242  1  0.63011554  0.25207493  0.04723558  1
  S2-  S243  1  0.63629243  0.24896756  0.53640183  1
  S2-  S244  1  0.62656163  0.50384870  0.05056776  1
  S2-  S245  1  0.63447512  0.49515657  0.54760962  1
  S2-  S246  1  0.62824702  0.75013632  0.03807555  1
  S2-  S247  1  0.63859724  0.74125554  0.54511429  1
  S2-  S248  1  0.87887923  -0.00335617  0.05363511  1
  S2-  S249  1  0.88216040  -0.00296320  0.55062278  1
  S2-  S250  1  0.87978091  0.25513335  0.05201616  1
  S2-  S251  1  0.88328759  0.24795673  0.54094807  1
  S2-  S252  1  0.87309309  0.50584726  0.04783702  1
  S2-  S253  1  0.88571336  0.49020577  0.53569311  1
  S2-  S254  1  0.87180963  0.75060154  0.03318808  1
  S2-  S255  1  0.88601887  0.74162119  0.54485729  1
