# generated using pymatgen
data_La6Ce6Pr19Nd20Sm13(BiS2)64
_symmetry_space_group_name_H-M   'P 1'
_cell_length_a   16.09684252
_cell_length_b   16.14627473
_cell_length_c   27.22397464
_cell_angle_alpha   89.94406922
_cell_angle_beta   90.14081380
_cell_angle_gamma   89.95740024
_symmetry_Int_Tables_number   1
_chemical_formula_structural   La6Ce6Pr19Nd20Sm13(BiS2)64
_chemical_formula_sum   'La6 Ce6 Pr19 Nd20 Sm13 Bi64 S128'
_cell_volume   7075.59432981
_cell_formula_units_Z   1
loop_
 _symmetry_equiv_pos_site_id
 _symmetry_equiv_pos_as_xyz
  1  'x, y, z'
loop_
 _atom_type_symbol
 _atom_type_oxidation_number
  La3+  3.0
  Ce3+  3.0
  Pr3+  3.0
  Nd3+  3.0
  Sm3+  3.0
  Bi2+  2.0
  S2-  -2.0
loop_
 _atom_site_type_symbol
 _atom_site_label
 _atom_site_symmetry_multiplicity
 _atom_site_fract_x
 _atom_site_fract_y
 _atom_site_fract_z
 _atom_site_occupancy
  La3+  La0  1  0.02121894  0.13517590  0.08870601  1
  La3+  La1  1  0.76301661  0.87140189  0.09162776  1
  La3+  La2  1  0.51022674  0.62955493  0.58746492  1
  La3+  La3  1  0.50001949  0.11608918  0.56467305  1
  La3+  La4  1  0.12562558  0.76165143  0.91894480  1
  La3+  La5  1  0.63972187  0.50766888  0.89532092  1
  Ce3+  Ce6  1  0.00179809  0.36619016  0.55263210  1
  Ce3+  Ce7  1  0.89025378  0.25392201  0.95007732  1
  Ce3+  Ce8  1  -0.00163891  0.87205226  0.54971679  1
  Ce3+  Ce9  1  0.62138124  0.24840296  0.43505616  1
  Ce3+  Ce10  1  0.39365565  0.25499512  0.94384635  1
  Ce3+  Ce11  1  0.62335053  -0.00566180  0.43613141  1
  Pr3+  Pr12  1  0.37400287  0.74062503  0.44111151  1
  Pr3+  Pr13  1  0.74797425  0.36852212  0.56104377  1
  Pr3+  Pr14  1  0.74676835  0.62274492  0.55038252  1
  Pr3+  Pr15  1  0.00094146  0.62043397  0.55670392  1
  Pr3+  Pr16  1  0.51588886  0.12833764  0.06753481  1
  Pr3+  Pr17  1  0.13765580  0.50634084  0.94444094  1
  Pr3+  Pr18  1  0.13556185  0.25183635  0.41582968  1
  Pr3+  Pr19  1  0.23977642  0.87093285  0.57524019  1
  Pr3+  Pr20  1  0.02718084  0.87333328  0.08700338  1
  Pr3+  Pr21  1  0.76290193  0.38148817  0.05842409  1
  Pr3+  Pr22  1  0.02375301  0.38416688  0.07425188  1
  Pr3+  Pr23  1  0.88071601  -0.00852137  0.40896992  1
  Pr3+  Pr24  1  0.39002514  0.75350222  0.93200428  1
  Pr3+  Pr25  1  0.12467245  0.00972872  0.93477684  1
  Pr3+  Pr26  1  0.64645601  0.24966734  0.93090940  1
  Pr3+  Pr27  1  0.61595858  0.73346902  0.41209163  1
  Pr3+  Pr28  1  0.50207676  0.36212131  0.57664022  1
  Pr3+  Pr29  1  0.13053890  -0.01108968  0.41747600  1
  Pr3+  Pr30  1  0.13703026  0.25535863  0.94252120  1
  Nd3+  Nd31  1  0.38661440  0.00530494  0.93880255  1
  Nd3+  Nd32  1  0.49641361  0.86877471  0.55255914  1
  Nd3+  Nd33  1  0.37524285  0.49563885  0.45704775  1
  Nd3+  Nd34  1  0.24727585  0.62425074  0.57148265  1
  Nd3+  Nd35  1  0.24476598  0.37458367  0.57326228  1
  Nd3+  Nd36  1  0.76337575  0.13047407  0.06849208  1
  Nd3+  Nd37  1  0.27179862  0.38345397  0.06790775  1
  Nd3+  Nd38  1  0.64368202  0.75658861  0.93515945  1
  Nd3+  Nd39  1  0.87443071  0.49278873  0.43855512  1
  Nd3+  Nd40  1  0.26859787  0.12734344  0.06974550  1
  Nd3+  Nd41  1  0.26035765  0.87787159  0.05474742  1
  Nd3+  Nd42  1  0.12828144  0.49613636  0.43476157  1
  Nd3+  Nd43  1  0.76395066  0.62855574  0.06272460  1
  Nd3+  Nd44  1  0.51553614  0.63153150  0.05442206  1
  Nd3+  Nd45  1  0.00170385  0.11693297  0.54686991  1
  Nd3+  Nd46  1  0.12596164  0.74497304  0.43215955  1
  Nd3+  Nd47  1  0.38990370  0.50176619  0.93020703  1
  Nd3+  Nd48  1  0.51732363  0.88051852  0.05098962  1
  Nd3+  Nd49  1  0.51439939  0.38119876  0.06089750  1
  Nd3+  Nd50  1  0.88743551  0.50582345  0.93916182  1
  Sm3+  Sm51  1  0.24374650  0.11644030  0.55756494  1
  Sm3+  Sm52  1  0.64515292  0.00687858  0.94037361  1
  Sm3+  Sm53  1  0.75122580  0.11593052  0.54756762  1
  Sm3+  Sm54  1  0.01684256  0.63208110  0.06335808  1
  Sm3+  Sm55  1  0.37225036  0.24696262  0.45086772  1
  Sm3+  Sm56  1  0.37051710  -0.00373356  0.43597697  1
  Sm3+  Sm57  1  0.26628505  0.63335347  0.04827351  1
  Sm3+  Sm58  1  0.74889110  0.86872512  0.54686941  1
  Sm3+  Sm59  1  0.61754493  0.48985296  0.43877771  1
  Sm3+  Sm60  1  0.87535227  0.24396068  0.43956354  1
  Sm3+  Sm61  1  0.88742442  0.75837243  0.95330004  1
  Sm3+  Sm62  1  0.89320188  0.00272063  0.96580745  1
  Sm3+  Sm63  1  0.87296512  0.74461509  0.43051162  1
  Bi2+  Bi64  1  -0.03917425  0.15891553  0.29436702  1
  Bi2+  Bi65  1  -0.02691915  0.15342832  0.81784855  1
  Bi2+  Bi66  1  0.00823052  0.45390054  0.29115721  1
  Bi2+  Bi67  1  0.02434047  0.34430546  0.81323103  1
  Bi2+  Bi68  1  0.04052099  0.65369773  0.30213356  1
  Bi2+  Bi69  1  0.00979664  0.61222068  0.81242970  1
  Bi2+  Bi70  1  0.00674958  0.87465960  0.28231519  1
  Bi2+  Bi71  1  0.00865201  0.92314476  0.79024159  1
  Bi2+  Bi72  1  0.27875147  0.14234498  0.28602062  1
  Bi2+  Bi73  1  0.19436441  0.12393521  0.77143071  1
  Bi2+  Bi74  1  0.28571359  0.39655976  0.29732194  1
  Bi2+  Bi75  1  0.19928427  0.32095557  0.75845442  1
  Bi2+  Bi76  1  0.22588715  0.59502728  0.32530877  1
  Bi2+  Bi77  1  0.21924405  0.56984671  0.77214199  1
  Bi2+  Bi78  1  0.27915916  0.77589903  0.29881328  1
  Bi2+  Bi79  1  0.27772845  0.89243684  0.78761945  1
  Bi2+  Bi80  1  0.47767417  0.10170733  0.29347538  1
  Bi2+  Bi81  1  0.49578208  0.06086725  0.79450521  1
  Bi2+  Bi82  1  0.51196346  0.34860667  0.27178483  1
  Bi2+  Bi83  1  0.50064035  0.33554641  0.78654208  1
  Bi2+  Bi84  1  0.49522957  0.59268664  0.29080970  1
  Bi2+  Bi85  1  0.47515991  0.64586868  0.78724595  1
  Bi2+  Bi86  1  0.49803560  0.85454504  0.28882251  1
  Bi2+  Bi87  1  0.56169504  0.87517206  0.77704391  1
  Bi2+  Bi88  1  0.64773646  0.19121470  0.26894457  1
  Bi2+  Bi89  1  0.73861724  0.08032042  0.78746460  1
  Bi2+  Bi90  1  0.73690073  0.35907073  0.30006909  1
  Bi2+  Bi91  1  0.76960441  0.32687462  0.77900276  1
  Bi2+  Bi92  1  0.74998402  0.56159283  0.27643791  1
  Bi2+  Bi93  1  0.74689872  0.63915127  0.77937503  1
  Bi2+  Bi94  1  0.73937984  0.90972146  0.29714831  1
  Bi2+  Bi95  1  0.73698876  0.89690183  0.82612143  1
  Bi2+  Bi96  1  0.09832317  -0.00038516  0.20857913  1
  Bi2+  Bi97  1  0.10298358  0.00505263  0.70068975  1
  Bi2+  Bi98  1  0.13473640  0.27007094  0.21112342  1
  Bi2+  Bi99  1  0.10524553  0.22808836  0.67075122  1
  Bi2+  Bi100  1  0.14211282  0.52889497  0.21704986  1
  Bi2+  Bi101  1  0.06622904  0.51256845  0.70269229  1
  Bi2+  Bi102  1  0.15966175  0.74322897  0.20483529  1
  Bi2+  Bi103  1  0.11834423  0.75122310  0.70523305  1
  Bi2+  Bi104  1  0.33992641  -0.04211244  0.25955796  1
  Bi2+  Bi105  1  0.41075353  0.03566870  0.68088748  1
  Bi2+  Bi106  1  0.38849668  0.24748987  0.20222153  1
  Bi2+  Bi107  1  0.37333938  0.19836814  0.74805352  1
  Bi2+  Bi108  1  0.35984300  0.51376290  0.21250443  1
  Bi2+  Bi109  1  0.35069327  0.47907531  0.71166882  1
  Bi2+  Bi110  1  0.40288500  0.70596035  0.21033025  1
  Bi2+  Bi111  1  0.39557292  0.84719761  0.70501379  1
  Bi2+  Bi112  1  0.54711867  0.03458843  0.19309738  1
  Bi2+  Bi113  1  0.60673118  0.02149118  0.69354664  1
  Bi2+  Bi114  1  0.58063724  0.27067951  0.17051228  1
  Bi2+  Bi115  1  0.65288791  0.22782542  0.70115174  1
  Bi2+  Bi116  1  0.63046873  0.46573039  0.20679783  1
  Bi2+  Bi117  1  0.62095466  0.49713974  0.70623569  1
  Bi2+  Bi118  1  0.62704030  0.75895159  0.20279879  1
  Bi2+  Bi119  1  0.66392430  0.76652106  0.69936435  1
  Bi2+  Bi120  1  0.83232298  0.02768490  0.21642106  1
  Bi2+  Bi121  1  0.84002947  -0.04900796  0.72648700  1
  Bi2+  Bi122  1  0.88460003  0.35469918  0.22239623  1
  Bi2+  Bi123  1  0.92880288  0.25342883  0.72294231  1
  Bi2+  Bi124  1  0.95290136  0.52035562  0.17310656  1
  Bi2+  Bi125  1  0.88165317  0.48937210  0.75982711  1
  Bi2+  Bi126  1  0.88668046  0.67429557  0.22725334  1
  Bi2+  Bi127  1  0.88729631  0.76894749  0.76472974  1
  S2-  S128  1  -0.03052111  0.10572922  0.19084250  1
  S2-  S129  1  -0.01168461  0.09321999  0.64555902  1
  S2-  S130  1  0.00085199  0.28097091  0.15485648  1
  S2-  S131  1  -0.00376963  0.37403087  0.65018343  1
  S2-  S132  1  0.03099269  0.72352367  0.14678942  1
  S2-  S133  1  0.00037623  0.64949539  0.65640525  1
  S2-  S134  1  -0.04849973  0.90917219  0.18181541  1
  S2-  S135  1  0.07138522  0.86409959  0.63901704  1
  S2-  S136  1  0.17073266  0.12850167  0.15391513  1
  S2-  S137  1  0.24508094  0.01402632  0.63738176  1
  S2-  S138  1  0.16767460  0.38842476  0.14933139  1
  S2-  S139  1  0.26657297  0.28920969  0.66091878  1
  S2-  S140  1  0.27455882  0.63928824  0.14673645  1
  S2-  S141  1  0.21749110  0.50781564  0.64528305  1
  S2-  S142  1  0.18316518  0.88569591  0.14505520  1
  S2-  S143  1  0.24960909  0.74249425  0.64931597  1
  S2-  S144  1  0.40082311  0.10708415  0.14488946  1
  S2-  S145  1  0.51684107  0.22225693  0.64337712  1
  S2-  S146  1  0.39869439  0.40063637  0.13947238  1
  S2-  S147  1  0.48998815  0.41132753  0.67587072  1
  S2-  S148  1  0.53959140  0.63961746  0.15376104  1
  S2-  S149  1  0.44489614  0.60701351  0.68634420  1
  S2-  S150  1  0.52913120  0.88236679  0.15059806  1
  S2-  S151  1  0.51868282  0.78859363  0.64005941  1
  S2-  S152  1  0.70916043  0.11578857  0.16258040  1
  S2-  S153  1  0.73551247  0.11250390  0.64539673  1
  S2-  S154  1  0.74858620  0.36557143  0.15857438  1
  S2-  S155  1  0.71771414  0.38396343  0.65961760  1
  S2-  S156  1  0.76407136  0.71301765  0.15098554  1
  S2-  S157  1  0.67554541  0.62320823  0.64218283  1
  S2-  S158  1  0.72571979  0.90145869  0.18975179  1
  S2-  S159  1  0.77756473  0.85446114  0.64368842  1
  S2-  S160  1  0.01631855  0.01169604  0.33820608  1
  S2-  S161  1  0.14237764  -0.09843087  0.85455094  1
  S2-  S162  1  0.11498745  0.19841021  0.31682062  1
  S2-  S163  1  0.13270724  0.14334932  0.86537174  1
  S2-  S164  1  0.13924247  0.39461115  0.35402275  1
  S2-  S165  1  0.12265474  0.47462439  0.84610033  1
  S2-  S166  1  0.13335506  0.84454390  0.35027498  1
  S2-  S167  1  0.15697110  0.69821129  0.82191040  1
  S2-  S168  1  0.27248668  0.01079815  0.35467543  1
  S2-  S169  1  0.34759989  0.01680075  0.84144246  1
  S2-  S170  1  0.32738765  0.26498597  0.35621556  1
  S2-  S171  1  0.37982583  0.29228456  0.84737877  1
  S2-  S172  1  0.38207986  0.50797765  0.35685174  1
  S2-  S173  1  0.35844276  0.54973337  0.83559612  1
  S2-  S174  1  0.46406925  0.73278937  0.35404804  1
  S2-  S175  1  0.38231044  0.77901866  0.83266820  1
  S2-  S176  1  0.59178088  -0.01986981  0.34018146  1
  S2-  S177  1  0.62812139  0.11435860  0.86252134  1
  S2-  S178  1  0.59823655  0.36548567  0.36513514  1
  S2-  S179  1  0.63630105  0.34775903  0.84789752  1
  S2-  S180  1  0.62135153  0.58087285  0.35416335  1
  S2-  S181  1  0.54939133  0.50182832  0.80237044  1
  S2-  S182  1  0.66408757  0.77053821  0.31152571  1
  S2-  S183  1  0.62052413  0.67399709  0.84826354  1
  S2-  S184  1  0.81857978  0.06701006  0.32219418  1
  S2-  S185  1  0.95209803  0.00972362  0.87338303  1
  S2-  S186  1  0.88407176  0.28551524  0.34493460  1
  S2-  S187  1  0.82612921  0.24098034  0.85982097  1
  S2-  S188  1  0.87773387  0.54361829  0.34373402  1
  S2-  S189  1  0.80087645  0.51992250  0.85250635  1
  S2-  S190  1  0.87206382  0.83552854  0.34569440  1
  S2-  S191  1  0.95737679  0.75139479  0.86399631  1
  S2-  S192  1  0.00231137  0.12678331  0.44136120  1
  S2-  S193  1  0.01037166  0.13460529  0.97499180  1
  S2-  S194  1  -0.00019105  0.36824152  0.44820205  1
  S2-  S195  1  0.01224677  0.38235664  0.96158213  1
  S2-  S196  1  -0.00078952  0.62117073  0.44844862  1
  S2-  S197  1  0.01084418  0.62938143  0.95905419  1
  S2-  S198  1  -0.00351173  0.86751423  0.44651769  1
  S2-  S199  1  0.01196998  0.87745901  0.97078694  1
  S2-  S200  1  0.24855742  0.12440653  0.45397939  1
  S2-  S201  1  0.26841246  0.13142958  0.95962389  1
  S2-  S202  1  0.25053570  0.37160755  0.46436179  1
  S2-  S203  1  0.26465687  0.38087771  0.95476251  1
  S2-  S204  1  0.24768916  0.62029195  0.46054991  1
  S2-  S205  1  0.26186552  0.63210121  0.94399019  1
  S2-  S206  1  0.25339166  0.86747048  0.45607807  1
  S2-  S207  1  0.26496765  0.87912728  0.95093032  1
  S2-  S208  1  0.49479003  0.12082479  0.45194798  1
  S2-  S209  1  0.51261006  0.12610355  0.96015805  1
  S2-  S210  1  0.49456844  0.36736975  0.46817462  1
  S2-  S211  1  0.51707721  0.38442651  0.95390633  1
  S2-  S212  1  0.50074633  0.61633083  0.46395304  1
  S2-  S213  1  0.51539401  0.62661557  0.94839910  1
  S2-  S214  1  0.49479630  0.87340064  0.44756446  1
  S2-  S215  1  0.51805888  0.88282856  0.94385348  1
  S2-  S216  1  0.74851590  0.12211219  0.44268402  1
  S2-  S217  1  0.76907754  0.12354507  0.96267149  1
  S2-  S218  1  0.75137699  0.36950258  0.45428635  1
  S2-  S219  1  0.76243612  0.38408364  0.95388055  1
  S2-  S220  1  0.75104689  0.61974748  0.44595221  1
  S2-  S221  1  0.76468719  0.63246032  0.95712992  1
  S2-  S222  1  0.74447412  0.86630357  0.44205130  1
  S2-  S223  1  0.76574030  0.88195521  0.96349067  1
  S2-  S224  1  0.14018761  0.00650603  0.04582079  1
  S2-  S225  1  0.12339544  -0.00589920  0.53056443  1
  S2-  S226  1  0.14715077  0.25873980  0.04794011  1
  S2-  S227  1  0.12622665  0.24283273  0.53892463  1
  S2-  S228  1  0.14361011  0.51185525  0.04950430  1
  S2-  S229  1  0.12091922  0.49472454  0.54019573  1
  S2-  S230  1  0.14167758  0.74986391  0.03763936  1
  S2-  S231  1  0.12283813  0.74483341  0.53815465  1
  S2-  S232  1  0.38816969  -0.00122705  0.04462156  1
  S2-  S233  1  0.37187755  -0.00620437  0.53940143  1
  S2-  S234  1  0.39078026  0.25406045  0.04710507  1
  S2-  S235  1  0.36778416  0.24015740  0.55258695  1
  S2-  S236  1  0.39013195  0.51108033  0.03773711  1
  S2-  S237  1  0.37822745  0.49658473  0.56121957  1
  S2-  S238  1  0.39074911  0.75715975  0.04073019  1
  S2-  S239  1  0.37394339  0.74439691  0.54684343  1
  S2-  S240  1  0.64311474  0.00221297  0.04751719  1
  S2-  S241  1  0.62536693  -0.00798621  0.54299712  1
  S2-  S242  1  0.63869598  0.25419522  0.04234449  1
  S2-  S243  1  0.62931196  0.24097813  0.54035474  1
  S2-  S244  1  0.63769051  0.50652420  0.05500854  1
  S2-  S245  1  0.62179921  0.49262465  0.54597576  1
  S2-  S246  1  0.64133353  0.75596696  0.04276712  1
  S2-  S247  1  0.62614870  0.74934948  0.53315382  1
  S2-  S248  1  0.88638977  0.00258646  0.06850904  1
  S2-  S249  1  0.87257116  -0.00598856  0.53292103  1
  S2-  S250  1  0.88673051  0.25614591  0.05530479  1
  S2-  S251  1  0.87337937  0.24121201  0.54557271  1
  S2-  S252  1  0.89072729  0.50692943  0.04663874  1
  S2-  S253  1  0.87343226  0.49506028  0.54651484  1
  S2-  S254  1  0.88979651  0.75545706  0.05493656  1
  S2-  S255  1  0.87426135  0.74510505  0.53634768  1
