# generated using pymatgen
data_La6Ce6Pr19Nd20Sm13(BiS2)64
_symmetry_space_group_name_H-M   'P 1'
_cell_length_a   16.06248217
_cell_length_b   16.07565043
_cell_length_c   27.33548497
_cell_angle_alpha   89.49618943
_cell_angle_beta   89.52546226
_cell_angle_gamma   89.86279874
_symmetry_Int_Tables_number   1
_chemical_formula_structural   La6Ce6Pr19Nd20Sm13(BiS2)64
_chemical_formula_sum   'La6 Ce6 Pr19 Nd20 Sm13 Bi64 S128'
_cell_volume   7057.89412791
_cell_formula_units_Z   1
loop_
 _symmetry_equiv_pos_site_id
 _symmetry_equiv_pos_as_xyz
  1  'x, y, z'
loop_
 _atom_type_symbol
 _atom_type_oxidation_number
  La3+  3.0
  Ce3+  3.0
  Pr3+  3.0
  Nd3+  3.0
  Sm3+  3.0
  Bi2+  2.0
  S2-  -2.0
loop_
 _atom_site_type_symbol
 _atom_site_label
 _atom_site_symmetry_multiplicity
 _atom_site_fract_x
 _atom_site_fract_y
 _atom_site_fract_z
 _atom_site_occupancy
  La3+  La0  1  0.24152672  0.86906452  0.10090536  1
  La3+  La1  1  0.75524448  0.13674204  0.08924399  1
  La3+  La2  1  0.38559995  0.51740476  0.91481332  1
  La3+  La3  1  -0.01551991  0.10773081  0.59917718  1
  La3+  La4  1  0.49548205  0.13266808  0.09188253  1
  La3+  La5  1  0.24396722  0.37518028  0.61208113  1
  Ce3+  Ce6  1  0.00901493  0.38099310  0.05454123  1
  Ce3+  Ce7  1  0.61814936  0.74539408  0.43734152  1
  Ce3+  Ce8  1  0.36918631  0.24536929  0.44029664  1
  Ce3+  Ce9  1  0.86810341  0.24127089  0.44794913  1
  Ce3+  Ce10  1  -0.01213875  0.86213178  0.56787121  1
  Ce3+  Ce11  1  0.74153068  0.11884395  0.56135478  1
  Pr3+  Pr12  1  -0.00932684  0.61855286  0.56375176  1
  Pr3+  Pr13  1  0.36910619  0.49721485  0.43257171  1
  Pr3+  Pr14  1  0.61980895  -0.00161600  0.39501977  1
  Pr3+  Pr15  1  0.88077718  0.76147739  0.93587460  1
  Pr3+  Pr16  1  0.75614195  0.63079193  0.07100461  1
  Pr3+  Pr17  1  0.11979780  0.24345926  0.45007496  1
  Pr3+  Pr18  1  0.11714178  0.49611421  0.43757767  1
  Pr3+  Pr19  1  0.38681703  0.24644083  0.92512897  1
  Pr3+  Pr20  1  0.49386565  0.37086721  0.56106810  1
  Pr3+  Pr21  1  0.13250601  0.76019534  0.93048037  1
  Pr3+  Pr22  1  0.50162154  0.38296509  0.05874433  1
  Pr3+  Pr23  1  0.50475816  0.87860721  0.07105627  1
  Pr3+  Pr24  1  0.62861659  0.25512473  0.94219679  1
  Pr3+  Pr25  1  0.73966967  0.87138109  0.55526403  1
  Pr3+  Pr26  1  0.12202647  -0.00682923  0.43217076  1
  Pr3+  Pr27  1  0.87051042  0.48943522  0.42381727  1
  Pr3+  Pr28  1  0.49135714  0.61714295  0.55934623  1
  Pr3+  Pr29  1  0.24035913  0.11993483  0.56740627  1
  Pr3+  Pr30  1  0.00420955  0.88238354  0.05637351  1
  Nd3+  Nd31  1  0.74107219  0.61502911  0.55493808  1
  Nd3+  Nd32  1  0.87617037  0.02076498  0.93259784  1
  Nd3+  Nd33  1  0.50463504  0.62864114  0.06192896  1
  Nd3+  Nd34  1  -0.00797019  0.37040072  0.56631306  1
  Nd3+  Nd35  1  0.23830340  0.87646951  0.56839892  1
  Nd3+  Nd36  1  0.36913716  -0.00589090  0.42647158  1
  Nd3+  Nd37  1  0.87934587  0.50918484  0.93975631  1
  Nd3+  Nd38  1  0.62161511  0.49084654  0.41797705  1
  Nd3+  Nd39  1  0.63266813  0.51685390  0.92953269  1
  Nd3+  Nd40  1  0.75380889  0.38367461  0.06630124  1
  Nd3+  Nd41  1  0.74077996  0.37168634  0.56001816  1
  Nd3+  Nd42  1  0.24126377  0.61754787  0.56345166  1
  Nd3+  Nd43  1  0.48934845  0.12207321  0.55427308  1
  Nd3+  Nd44  1  0.61901011  0.24339867  0.42996998  1
  Nd3+  Nd45  1  0.01051929  0.13032695  0.05729140  1
  Nd3+  Nd46  1  0.49117484  0.87338629  0.55346511  1
  Nd3+  Nd47  1  0.86591381  0.74762586  0.43875602  1
  Nd3+  Nd48  1  0.25085882  0.13658409  0.07006765  1
  Nd3+  Nd49  1  0.13435080  0.00960042  0.93902882  1
  Nd3+  Nd50  1  0.00833786  0.63384723  0.05501350  1
  Sm3+  Sm51  1  0.13204377  0.50915662  0.94242558  1
  Sm3+  Sm52  1  0.25921015  0.38036578  0.04545777  1
  Sm3+  Sm53  1  0.38049884  0.00895938  0.95691951  1
  Sm3+  Sm54  1  0.38381094  0.76299467  0.94264483  1
  Sm3+  Sm55  1  0.25758926  0.63094417  0.05521044  1
  Sm3+  Sm56  1  0.63200940  0.76049438  0.94196274  1
  Sm3+  Sm57  1  0.62973778  0.01305233  0.95699903  1
  Sm3+  Sm58  1  0.88201202  0.25921036  0.94317925  1
  Sm3+  Sm59  1  0.86916587  -0.00421212  0.44183765  1
  Sm3+  Sm60  1  0.11739765  0.75018835  0.44362300  1
  Sm3+  Sm61  1  0.36828404  0.75011653  0.44629106  1
  Sm3+  Sm62  1  0.75857067  0.88400240  0.05728875  1
  Sm3+  Sm63  1  0.13617681  0.25584873  0.92351030  1
  Bi2+  Bi64  1  0.00328340  0.07419746  0.29421170  1
  Bi2+  Bi65  1  -0.00391383  0.11376408  0.80598761  1
  Bi2+  Bi66  1  0.05897483  0.36554291  0.29306808  1
  Bi2+  Bi67  1  -0.00976903  0.46834101  0.72385936  1
  Bi2+  Bi68  1  -0.04448959  0.60628275  0.28248795  1
  Bi2+  Bi69  1  -0.01156776  0.65315286  0.79693494  1
  Bi2+  Bi70  1  -0.00100056  0.86668121  0.28470449  1
  Bi2+  Bi71  1  -0.01212895  0.85400123  0.77695684  1
  Bi2+  Bi72  1  0.19611544  0.12809007  0.28016089  1
  Bi2+  Bi73  1  0.28365749  0.11512991  0.79266286  1
  Bi2+  Bi74  1  0.26442720  0.39275507  0.28586371  1
  Bi2+  Bi75  1  0.17770753  0.39948055  0.81155759  1
  Bi2+  Bi76  1  0.23168325  0.57245273  0.33163047  1
  Bi2+  Bi77  1  0.23843547  0.64826764  0.79806426  1
  Bi2+  Bi78  1  0.24573118  0.86829359  0.29850937  1
  Bi2+  Bi79  1  0.30185264  0.89471026  0.77945225  1
  Bi2+  Bi80  1  0.51597552  0.13992374  0.28633726  1
  Bi2+  Bi81  1  0.52780633  0.12230096  0.80304891  1
  Bi2+  Bi82  1  0.48669226  0.38193765  0.29330001  1
  Bi2+  Bi83  1  0.56725084  0.37680379  0.77784066  1
  Bi2+  Bi84  1  0.40569123  0.60531251  0.27496855  1
  Bi2+  Bi85  1  0.52426256  0.65081916  0.80060066  1
  Bi2+  Bi86  1  0.49876884  0.78305454  0.27830745  1
  Bi2+  Bi87  1  0.49071344  0.86666169  0.81518757  1
  Bi2+  Bi88  1  0.78541362  0.10571180  0.27762048  1
  Bi2+  Bi89  1  0.76633953  0.19279315  0.77925495  1
  Bi2+  Bi90  1  0.76587137  0.37290543  0.28908836  1
  Bi2+  Bi91  1  0.75679122  0.39147815  0.80899949  1
  Bi2+  Bi92  1  0.71471958  0.61940778  0.26702895  1
  Bi2+  Bi93  1  0.75362607  0.58284729  0.78217312  1
  Bi2+  Bi94  1  0.75789482  0.80317659  0.29027244  1
  Bi2+  Bi95  1  0.68273587  0.90751750  0.80285710  1
  Bi2+  Bi96  1  0.11052822  -0.00326339  0.20981978  1
  Bi2+  Bi97  1  0.13137553  -0.03372087  0.71584688  1
  Bi2+  Bi98  1  0.11845423  0.26520574  0.20023048  1
  Bi2+  Bi99  1  0.11880937  0.25404750  0.72883569  1
  Bi2+  Bi100  1  0.15599720  0.52619212  0.22248279  1
  Bi2+  Bi101  1  0.09267567  0.62622212  0.69119342  1
  Bi2+  Bi102  1  0.12797881  0.70476775  0.26981596  1
  Bi2+  Bi103  1  0.20918611  0.78630039  0.68975690  1
  Bi2+  Bi104  1  0.40741119  0.01390986  0.23385346  1
  Bi2+  Bi105  1  0.39908719  0.00133642  0.70349548  1
  Bi2+  Bi106  1  0.36548957  0.26400859  0.20976214  1
  Bi2+  Bi107  1  0.37375630  0.24499828  0.71560729  1
  Bi2+  Bi108  1  0.33319888  0.49125484  0.18454291  1
  Bi2+  Bi109  1  0.37586942  0.50259161  0.71734691  1
  Bi2+  Bi110  1  0.37743108  0.73923458  0.19150838  1
  Bi2+  Bi111  1  0.39831781  0.75074777  0.71087230  1
  Bi2+  Bi112  1  0.66279953  -0.02151873  0.20054977  1
  Bi2+  Bi113  1  0.65658740  0.05115434  0.72298775  1
  Bi2+  Bi114  1  0.64111257  0.28812350  0.20746695  1
  Bi2+  Bi115  1  0.63602265  0.24721889  0.69915099  1
  Bi2+  Bi116  1  0.60866439  0.49472575  0.20758119  1
  Bi2+  Bi117  1  0.62962523  0.51846598  0.70248267  1
  Bi2+  Bi118  1  0.56917571  0.69307930  0.18269861  1
  Bi2+  Bi119  1  0.59478760  0.79144938  0.72724926  1
  Bi2+  Bi120  1  0.90275073  -0.10605457  0.18664354  1
  Bi2+  Bi121  1  0.84748332  -0.02337132  0.71269768  1
  Bi2+  Bi122  1  0.91743250  0.24241521  0.25312859  1
  Bi2+  Bi123  1  0.83655051  0.33329437  0.70589692  1
  Bi2+  Bi124  1  0.89910826  0.48484525  0.19884552  1
  Bi2+  Bi125  1  0.85718945  0.49944866  0.64406169  1
  Bi2+  Bi126  1  0.85736610  0.69737854  0.19134312  1
  Bi2+  Bi127  1  0.82674096  0.71243777  0.69847305  1
  S2-  S128  1  0.11338040  0.13245334  0.13755036  1
  S2-  S129  1  0.02142924  0.14144084  0.70063092  1
  S2-  S130  1  -0.00325729  0.37126007  0.15162640  1
  S2-  S131  1  0.07662017  0.36987924  0.65406501  1
  S2-  S132  1  -0.00311264  0.61484108  0.15304094  1
  S2-  S133  1  -0.02448986  0.73285701  0.64160904  1
  S2-  S134  1  0.07761495  0.86613401  0.14673589  1
  S2-  S135  1  0.00288429  0.95162709  0.65128514  1
  S2-  S136  1  0.34980590  0.12644340  0.15440037  1
  S2-  S137  1  0.24025409  0.21184196  0.65611121  1
  S2-  S138  1  0.24858008  0.34355863  0.14207887  1
  S2-  S139  1  0.25535150  0.37571817  0.72662183  1
  S2-  S140  1  0.23690281  0.70493948  0.14290575  1
  S2-  S141  1  0.24930572  0.54208060  0.65301487  1
  S2-  S142  1  0.29039658  0.91380355  0.19831973  1
  S2-  S143  1  0.25033652  0.99420812  0.64316603  1
  S2-  S144  1  0.62197878  0.12825495  0.16422236  1
  S2-  S145  1  0.46101992  0.13234591  0.65350058  1
  S2-  S146  1  0.49141399  0.28840412  0.14831652  1
  S2-  S147  1  0.40874206  0.37307040  0.65155725  1
  S2-  S148  1  0.48436558  0.50571690  0.13382087  1
  S2-  S149  1  0.48189695  0.59049854  0.65960555  1
  S2-  S150  1  0.50527593  0.95409938  0.16251774  1
  S2-  S151  1  0.48608831  0.86802365  0.65312254  1
  S2-  S152  1  0.82185666  0.04962415  0.17497313  1
  S2-  S153  1  0.82311023  0.10433275  0.64785406  1
  S2-  S154  1  0.76978868  0.28260161  0.14971853  1
  S2-  S155  1  0.62354564  0.38363914  0.63554654  1
  S2-  S156  1  0.74999783  0.50321037  0.14195413  1
  S2-  S157  1  0.69700570  0.66049234  0.64937263  1
  S2-  S158  1  0.74043092  0.84485152  0.15237765  1
  S2-  S159  1  0.78124359  0.86547274  0.65434101  1
  S2-  S160  1  0.24649730  0.01098176  0.35495576  1
  S2-  S161  1  0.13829257  0.05268474  0.84187302  1
  S2-  S162  1  0.13510158  0.23782682  0.34833820  1
  S2-  S163  1  0.04935212  0.27549466  0.83551954  1
  S2-  S164  1  0.00644197  0.49562485  0.35728049  1
  S2-  S165  1  0.11640888  0.55223328  0.84746325  1
  S2-  S166  1  0.11117012  0.85512483  0.36447604  1
  S2-  S167  1  0.12144519  0.77438706  0.83052832  1
  S2-  S168  1  0.46903215  0.00706156  0.34075139  1
  S2-  S169  1  0.39485959  0.08248667  0.86657969  1
  S2-  S170  1  0.40827587  0.24266756  0.34402909  1
  S2-  S171  1  0.26475136  0.25789804  0.85081825  1
  S2-  S172  1  0.48404422  0.51294403  0.35357817  1
  S2-  S173  1  0.31671058  0.49546543  0.81889016  1
  S2-  S174  1  0.36532254  0.79660237  0.35121143  1
  S2-  S175  1  0.37358561  0.68246261  0.85621310  1
  S2-  S176  1  0.65855351  -0.07040493  0.30053805  1
  S2-  S177  1  0.65047458  0.05022628  0.86188321  1
  S2-  S178  1  0.65485550  0.14703665  0.34456108  1
  S2-  S179  1  0.52688753  0.25807693  0.85748909  1
  S2-  S180  1  0.62363420  0.35494515  0.34927425  1
  S2-  S181  1  0.52571560  0.49922440  0.84961227  1
  S2-  S182  1  0.61919517  0.71277549  0.34176621  1
  S2-  S183  1  0.65844993  0.66087675  0.86292198  1
  S2-  S184  1  0.85157099  0.00641526  0.34285453  1
  S2-  S185  1  0.91993361  -0.03002039  0.83808958  1
  S2-  S186  1  0.86829808  0.28752766  0.35376550  1
  S2-  S187  1  0.85813961  0.16041380  0.86509215  1
  S2-  S188  1  0.75728470  0.51057186  0.34731122  1
  S2-  S189  1  0.88612010  0.51811814  0.84044691  1
  S2-  S190  1  0.90208803  0.74639171  0.34164037  1
  S2-  S191  1  0.87558181  0.75673510  0.83493187  1
  S2-  S192  1  -0.00678855  0.11642291  0.44442095  1
  S2-  S193  1  0.01046019  0.13639156  0.95317491  1
  S2-  S194  1  -0.00623372  0.36698708  0.45939828  1
  S2-  S195  1  0.00660988  0.38427794  0.94772212  1
  S2-  S196  1  -0.00591191  0.62765720  0.45523587  1
  S2-  S197  1  0.00571644  0.63419847  0.94973447  1
  S2-  S198  1  -0.01170688  0.87013365  0.45960184  1
  S2-  S199  1  0.00503801  0.88728192  0.94930834  1
  S2-  S200  1  0.24681553  0.12008327  0.45873720  1
  S2-  S201  1  0.25466861  0.13169771  0.96050186  1
  S2-  S202  1  0.24365792  0.37145494  0.44249826  1
  S2-  S203  1  0.25644370  0.38815737  0.94314410  1
  S2-  S204  1  0.24309284  0.62710719  0.45627485  1
  S2-  S205  1  0.25384883  0.63519541  0.95194493  1
  S2-  S206  1  0.24539114  0.86937064  0.46269112  1
  S2-  S207  1  0.26115350  0.88510857  0.93880346  1
  S2-  S208  1  0.49759611  0.11577933  0.44955612  1
  S2-  S209  1  0.50622628  0.12879336  0.97189736  1
  S2-  S210  1  0.49282209  0.36908457  0.45353314  1
  S2-  S211  1  0.50571698  0.38621658  0.95328502  1
  S2-  S212  1  0.48992973  0.62696624  0.45331597  1
  S2-  S213  1  0.50783596  0.64075665  0.95753954  1
  S2-  S214  1  0.49732738  0.87353004  0.44798667  1
  S2-  S215  1  0.50827075  0.88450796  0.96156299  1
  S2-  S216  1  0.74190239  0.11397803  0.45509622  1
  S2-  S217  1  0.75382607  0.13538389  0.97016751  1
  S2-  S218  1  0.74399868  0.36775341  0.45526058  1
  S2-  S219  1  0.75606244  0.38228364  0.95416603  1
  S2-  S220  1  0.74358862  0.62103083  0.44876200  1
  S2-  S221  1  0.76023501  0.63621030  0.96239955  1
  S2-  S222  1  0.73839403  0.87664631  0.44617197  1
  S2-  S223  1  0.75517507  0.88722922  0.95217159  1
  S2-  S224  1  0.13673803  -0.00035574  0.04421744  1
  S2-  S225  1  0.11146928  -0.00495697  0.54357771  1
  S2-  S226  1  0.13173114  0.26021205  0.03289583  1
  S2-  S227  1  0.10113519  0.23173467  0.55459560  1
  S2-  S228  1  0.13437762  0.50788466  0.04751568  1
  S2-  S229  1  0.11815238  0.49411894  0.54522259  1
  S2-  S230  1  0.13305372  0.75788244  0.03728158  1
  S2-  S231  1  0.12067424  0.74584080  0.54658514  1
  S2-  S232  1  0.36741459  -0.00723974  0.05779775  1
  S2-  S233  1  0.36869684  -0.00461719  0.53883822  1
  S2-  S234  1  0.37629696  0.25527592  0.03949367  1
  S2-  S235  1  0.36304269  0.24857751  0.54566579  1
  S2-  S236  1  0.37513707  0.51014086  0.03095723  1
  S2-  S237  1  0.36451796  0.49511020  0.54099058  1
  S2-  S238  1  0.37907111  0.75777449  0.04657270  1
  S2-  S239  1  0.36502761  0.74688641  0.55171744  1
  S2-  S240  1  0.63279660  0.00387358  0.05879555  1
  S2-  S241  1  0.61464111  -0.00311229  0.56074076  1
  S2-  S242  1  0.63057647  0.25933519  0.04882207  1
  S2-  S243  1  0.61872281  0.24215432  0.53991824  1
  S2-  S244  1  0.63180292  0.51057395  0.03749717  1
  S2-  S245  1  0.61672889  0.49784349  0.53268479  1
  S2-  S246  1  0.63353816  0.75790992  0.04603187  1
  S2-  S247  1  0.61474487  0.74574800  0.54362501  1
  S2-  S248  1  0.88105612  0.01000131  0.04509623  1
  S2-  S249  1  0.86817117  -0.00593265  0.54455036  1
  S2-  S250  1  0.88582412  0.25515838  0.04624214  1
  S2-  S251  1  0.86730585  0.24524591  0.55366454  1
  S2-  S252  1  0.88473528  0.50769357  0.04450003  1
  S2-  S253  1  0.86829696  0.49379682  0.53193274  1
  S2-  S254  1  0.87993400  0.75654906  0.04440194  1
  S2-  S255  1  0.86031040  0.74230429  0.54234575  1
