# generated using pymatgen
data_La6Ce6Pr19Nd20Sm13(BiS2)64
_symmetry_space_group_name_H-M   'P 1'
_cell_length_a   16.10436054
_cell_length_b   16.09557245
_cell_length_c   27.23241268
_cell_angle_alpha   89.91427135
_cell_angle_beta   89.87354851
_cell_angle_gamma   89.82920074
_symmetry_Int_Tables_number   1
_chemical_formula_structural   La6Ce6Pr19Nd20Sm13(BiS2)64
_chemical_formula_sum   'La6 Ce6 Pr19 Nd20 Sm13 Bi64 S128'
_cell_volume   7058.82740238
_cell_formula_units_Z   1
loop_
 _symmetry_equiv_pos_site_id
 _symmetry_equiv_pos_as_xyz
  1  'x, y, z'
loop_
 _atom_type_symbol
 _atom_type_oxidation_number
  La3+  3.0
  Ce3+  3.0
  Pr3+  3.0
  Nd3+  3.0
  Sm3+  3.0
  Bi2+  2.0
  S2-  -2.0
loop_
 _atom_site_type_symbol
 _atom_site_label
 _atom_site_symmetry_multiplicity
 _atom_site_fract_x
 _atom_site_fract_y
 _atom_site_fract_z
 _atom_site_occupancy
  La3+  La0  1  0.48899681  0.09550264  0.56501756  1
  La3+  La1  1  0.72902162  0.35007081  0.57884386  1
  La3+  La2  1  0.01418522  0.64753586  0.07415531  1
  La3+  La3  1  0.86565365  -0.02012458  0.42393134  1
  La3+  La4  1  0.23194038  0.59539183  0.59328074  1
  La3+  La5  1  0.89540102  0.52241118  0.91722172  1
  Ce3+  Ce6  1  0.13709121  0.52238777  0.94308841  1
  Ce3+  Ce7  1  0.76746114  0.89371619  0.05308314  1
  Ce3+  Ce8  1  0.63388117  0.51870101  0.94110828  1
  Ce3+  Ce9  1  0.51164557  0.39400265  0.05779731  1
  Ce3+  Ce10  1  0.89068970  0.02136505  0.93716862  1
  Ce3+  Ce11  1  0.26417142  0.39780618  0.05750982  1
  Pr3+  Pr12  1  0.51494781  0.14308910  0.07415636  1
  Pr3+  Pr13  1  0.10444039  0.47567212  0.42994282  1
  Pr3+  Pr14  1  0.86360643  0.72109699  0.43837642  1
  Pr3+  Pr15  1  0.48307969  0.35390502  0.55992231  1
  Pr3+  Pr16  1  0.35811765  0.46748390  0.42979918  1
  Pr3+  Pr17  1  0.38898908  0.02790235  0.93208822  1
  Pr3+  Pr18  1  0.85954969  0.22549558  0.43187398  1
  Pr3+  Pr19  1  0.51372675  0.89622701  0.06678607  1
  Pr3+  Pr20  1  0.50847754  0.64999734  0.07222923  1
  Pr3+  Pr21  1  0.61495860  0.47041456  0.43290095  1
  Pr3+  Pr22  1  0.26473480  0.65172840  0.07195660  1
  Pr3+  Pr23  1  0.26164975  0.14188266  0.06921865  1
  Pr3+  Pr24  1  -0.01716575  0.59283126  0.57773889  1
  Pr3+  Pr25  1  0.76444892  0.39630147  0.05915507  1
  Pr3+  Pr26  1  0.48543077  0.60146768  0.55710129  1
  Pr3+  Pr27  1  0.39266556  0.77952462  0.92583727  1
  Pr3+  Pr28  1  0.24007203  0.09930836  0.57442279  1
  Pr3+  Pr29  1  0.14294886  0.76979835  0.92591803  1
  Pr3+  Pr30  1  0.35835057  0.71686212  0.43043596  1
  Nd3+  Nd31  1  0.63577373  0.77113404  0.93758555  1
  Nd3+  Nd32  1  0.11081906  0.72221237  0.44321977  1
  Nd3+  Nd33  1  0.76594996  0.64354787  0.05316251  1
  Nd3+  Nd34  1  0.73392170  0.10300310  0.56566584  1
  Nd3+  Nd35  1  0.13113461  0.02007722  0.93023668  1
  Nd3+  Nd36  1  0.61329043  0.22119238  0.43616848  1
  Nd3+  Nd37  1  0.77007418  0.14273805  0.07411400  1
  Nd3+  Nd38  1  0.38595113  0.52395537  0.93727321  1
  Nd3+  Nd39  1  0.64013515  0.02565573  0.94310083  1
  Nd3+  Nd40  1  0.89064989  0.26954321  0.94142081  1
  Nd3+  Nd41  1  -0.01484243  0.84906533  0.56156216  1
  Nd3+  Nd42  1  0.23498916  0.84866678  0.55558100  1
  Nd3+  Nd43  1  0.01088575  0.39810715  0.07122441  1
  Nd3+  Nd44  1  0.23361474  0.35321674  0.55837030  1
  Nd3+  Nd45  1  0.86328325  0.47359917  0.44469218  1
  Nd3+  Nd46  1  0.26411366  0.89553735  0.05744052  1
  Nd3+  Nd47  1  0.73432768  0.85324140  0.55041286  1
  Nd3+  Nd48  1  -0.01562984  0.34593897  0.56672458  1
  Nd3+  Nd49  1  0.01652886  0.14503439  0.07353390  1
  Nd3+  Nd50  1  0.60087183  -0.02429342  0.41734189  1
  Sm3+  Sm51  1  0.35913856  0.22337037  0.44037900  1
  Sm3+  Sm52  1  0.11125761  0.22340922  0.44385987  1
  Sm3+  Sm53  1  0.13466079  0.27068899  0.94877978  1
  Sm3+  Sm54  1  0.11143606  -0.02185788  0.44112071  1
  Sm3+  Sm55  1  0.35973399  -0.02357718  0.43659994  1
  Sm3+  Sm56  1  0.73977376  0.59947759  0.57191045  1
  Sm3+  Sm57  1  0.38629219  0.26462829  0.94470064  1
  Sm3+  Sm58  1  0.61393475  0.72217016  0.43270249  1
  Sm3+  Sm59  1  0.88950721  0.76725227  0.93249403  1
  Sm3+  Sm60  1  0.48426903  0.84559808  0.55003951  1
  Sm3+  Sm61  1  0.64009106  0.26896042  0.94586421  1
  Sm3+  Sm62  1  0.01619554  0.89047257  0.05604938  1
  Sm3+  Sm63  1  -0.01590781  0.10298829  0.56132684  1
  Bi2+  Bi64  1  -0.02224735  0.14508661  0.30645516  1
  Bi2+  Bi65  1  0.01312902  0.14626122  0.73666854  1
  Bi2+  Bi66  1  0.02428919  0.38371736  0.29650689  1
  Bi2+  Bi67  1  -0.03246272  0.34719261  0.80911035  1
  Bi2+  Bi68  1  0.00934936  0.63658985  0.29722448  1
  Bi2+  Bi69  1  -0.01497536  0.64478201  0.77248136  1
  Bi2+  Bi70  1  -0.00953784  0.90432974  0.27086997  1
  Bi2+  Bi71  1  0.02216915  0.93607915  0.79024682  1
  Bi2+  Bi72  1  0.24074869  0.06213628  0.33118731  1
  Bi2+  Bi73  1  0.25390201  0.10513933  0.80249686  1
  Bi2+  Bi74  1  0.29956553  0.31562020  0.26084740  1
  Bi2+  Bi75  1  0.22358030  0.31010080  0.78996691  1
  Bi2+  Bi76  1  0.25331398  0.61526232  0.30621620  1
  Bi2+  Bi77  1  0.21920699  0.58317222  0.81382894  1
  Bi2+  Bi78  1  0.22096728  0.91152180  0.26119359  1
  Bi2+  Bi79  1  0.28249627  0.89741454  0.78341841  1
  Bi2+  Bi80  1  0.40890895  0.14724259  0.30547668  1
  Bi2+  Bi81  1  0.52681320  0.13055096  0.79842520  1
  Bi2+  Bi82  1  0.53197122  0.40200276  0.26175688  1
  Bi2+  Bi83  1  0.50486597  0.36426095  0.73937524  1
  Bi2+  Bi84  1  0.49382152  0.66715619  0.29714165  1
  Bi2+  Bi85  1  0.44671992  0.62173910  0.80836035  1
  Bi2+  Bi86  1  0.45769735  0.93869912  0.25735142  1
  Bi2+  Bi87  1  0.54520880  0.84597337  0.74877737  1
  Bi2+  Bi88  1  0.71826458  0.21585068  0.30666008  1
  Bi2+  Bi89  1  0.77078181  0.04581664  0.81006163  1
  Bi2+  Bi90  1  0.72536668  0.43681442  0.25854893  1
  Bi2+  Bi91  1  0.71844365  0.36120397  0.80730424  1
  Bi2+  Bi92  1  0.76546817  0.62187329  0.30573364  1
  Bi2+  Bi93  1  0.68635592  0.73758737  0.80486065  1
  Bi2+  Bi94  1  0.73608430  0.91872068  0.29939855  1
  Bi2+  Bi95  1  0.84236966  0.85961562  0.81284534  1
  Bi2+  Bi96  1  0.08636080  -0.00297505  0.19092432  1
  Bi2+  Bi97  1  0.17252977  0.04415204  0.70241387  1
  Bi2+  Bi98  1  0.15100957  0.17414744  0.25070896  1
  Bi2+  Bi99  1  0.17005215  0.24147787  0.68402324  1
  Bi2+  Bi100  1  0.11895697  0.47028456  0.20545635  1
  Bi2+  Bi101  1  0.10313038  0.46143751  0.75950478  1
  Bi2+  Bi102  1  0.13666976  0.75313134  0.20780850  1
  Bi2+  Bi103  1  0.14502027  0.75195916  0.70375007  1
  Bi2+  Bi104  1  0.33181479  -0.00928200  0.17487932  1
  Bi2+  Bi105  1  0.39638297  0.03107790  0.73374064  1
  Bi2+  Bi106  1  0.37429195  0.17866509  0.18797068  1
  Bi2+  Bi107  1  0.36099289  0.24542647  0.70969775  1
  Bi2+  Bi108  1  0.38137101  0.47645323  0.20788681  1
  Bi2+  Bi109  1  0.36345827  0.48904544  0.70756504  1
  Bi2+  Bi110  1  0.39620595  0.75703305  0.20488833  1
  Bi2+  Bi111  1  0.40862444  0.75118474  0.68430786  1
  Bi2+  Bi112  1  0.62299580  0.02391360  0.22730563  1
  Bi2+  Bi113  1  0.67991542  -0.01967264  0.71489233  1
  Bi2+  Bi114  1  0.56291131  0.22252543  0.21177543  1
  Bi2+  Bi115  1  0.63296796  0.20557962  0.70856418  1
  Bi2+  Bi116  1  0.60296102  0.57671155  0.21271257  1
  Bi2+  Bi117  1  0.59680581  0.55723759  0.74703153  1
  Bi2+  Bi118  1  0.65696972  0.75713187  0.25094956  1
  Bi2+  Bi119  1  0.65976627  0.71726414  0.69250048  1
  Bi2+  Bi120  1  0.84110896  0.00852591  0.21963106  1
  Bi2+  Bi121  1  0.87717796  0.01235191  0.71350081  1
  Bi2+  Bi122  1  0.86986459  0.27026269  0.19694377  1
  Bi2+  Bi123  1  0.89001185  0.30281283  0.70402811  1
  Bi2+  Bi124  1  0.87798761  0.53856912  0.21870893  1
  Bi2+  Bi125  1  0.83963411  0.51349205  0.71322986  1
  Bi2+  Bi126  1  0.87300107  0.78205452  0.20421508  1
  Bi2+  Bi127  1  0.88947188  0.78642195  0.70531508  1
  S2-  S128  1  -0.10203564  0.12430151  0.14650809  1
  S2-  S129  1  -0.01082933  0.21347576  0.63769757  1
  S2-  S130  1  0.01211710  0.31712473  0.16558700  1
  S2-  S131  1  -0.03524222  0.43723098  0.65305634  1
  S2-  S132  1  -0.00705875  0.51979952  0.14477959  1
  S2-  S133  1  0.09086942  0.62497425  0.65660076  1
  S2-  S134  1  0.00965171  0.78925327  0.13939756  1
  S2-  S135  1  0.02374130  0.85339017  0.65945547  1
  S2-  S136  1  0.14352294  0.13853060  0.14558056  1
  S2-  S137  1  0.37338162  0.10474954  0.64268104  1
  S2-  S138  1  0.24683851  0.39360192  0.15643078  1
  S2-  S139  1  0.24950379  0.43915537  0.64567000  1
  S2-  S140  1  0.15804602  0.61810749  0.15558555  1
  S2-  S141  1  0.27880970  0.63901982  0.69251716  1
  S2-  S142  1  0.26242575  0.79546582  0.14040415  1
  S2-  S143  1  0.26575804  0.84215229  0.65386620  1
  S2-  S144  1  0.52585614  0.01330504  0.14472595  1
  S2-  S145  1  0.61047863  0.07977958  0.63967755  1
  S2-  S146  1  0.51141896  0.37809241  0.15478599  1
  S2-  S147  1  0.57076521  0.33385840  0.64648346  1
  S2-  S148  1  0.38677689  0.61181711  0.14804918  1
  S2-  S149  1  0.48654958  0.59114040  0.65844995  1
  S2-  S150  1  0.52111972  0.77898892  0.14424271  1
  S2-  S151  1  0.49469074  0.87799192  0.64657735  1
  S2-  S152  1  0.70912174  0.20168503  0.16585290  1
  S2-  S153  1  0.76640950  0.21860359  0.64667667  1
  S2-  S154  1  0.79100431  0.41009360  0.15849957  1
  S2-  S155  1  0.72335915  0.48425548  0.64930529  1
  S2-  S156  1  0.82522333  0.65865010  0.14774892  1
  S2-  S157  1  0.85858789  0.63728251  0.64804614  1
  S2-  S158  1  0.77311014  0.89707127  0.15108485  1
  S2-  S159  1  0.74861835  0.85156116  0.65040964  1
  S2-  S160  1  0.01417504  -0.01241441  0.35821446  1
  S2-  S161  1  0.15277282  -0.09650855  0.85304258  1
  S2-  S162  1  0.10813871  0.25222626  0.34620437  1
  S2-  S163  1  0.09661043  0.25439831  0.85302281  1
  S2-  S164  1  0.17510799  0.47783859  0.33422460  1
  S2-  S165  1  0.05157665  0.49280681  0.85868582  1
  S2-  S166  1  0.12357053  0.72416420  0.34212736  1
  S2-  S167  1  0.10153477  0.70654446  0.82817932  1
  S2-  S168  1  0.45170784  -0.01962703  0.35320120  1
  S2-  S169  1  0.38905519  -0.08301263  0.85301713  1
  S2-  S170  1  0.36878296  0.30383968  0.35211210  1
  S2-  S171  1  0.38758726  0.16519251  0.86419164  1
  S2-  S172  1  0.38714876  0.54411738  0.34067474  1
  S2-  S173  1  0.36586983  0.48344136  0.83936146  1
  S2-  S174  1  0.35680853  0.75362698  0.33066416  1
  S2-  S175  1  0.30956359  0.71235512  0.84181684  1
  S2-  S176  1  0.62163360  0.11523012  0.35240057  1
  S2-  S177  1  0.61077899  0.00532658  0.84537776  1
  S2-  S178  1  0.63617134  0.33651004  0.35885489  1
  S2-  S179  1  0.60333440  0.25514670  0.85022816  1
  S2-  S180  1  0.62360786  0.59795821  0.36144222  1
  S2-  S181  1  0.62148697  0.49546310  0.84352472  1
  S2-  S182  1  0.61928206  0.83322978  0.35390666  1
  S2-  S183  1  0.53213400  0.75276258  0.85847886  1
  S2-  S184  1  0.83816115  0.10761769  0.35268781  1
  S2-  S185  1  0.99656376  0.04757581  0.86138709  1
  S2-  S186  1  0.89724080  0.29953467  0.33479152  1
  S2-  S187  1  0.83475645  0.25178464  0.84637449  1
  S2-  S188  1  0.96352900  0.50200388  0.36191327  1
  S2-  S189  1  0.83519508  0.47196691  0.82127141  1
  S2-  S190  1  0.89137330  0.73891520  0.33862524  1
  S2-  S191  1  0.89079903  0.66719833  0.85133865  1
  S2-  S192  1  -0.01078364  0.10324461  0.45897525  1
  S2-  S193  1  0.01397171  0.14801277  0.96592396  1
  S2-  S194  1  -0.01145350  0.34613645  0.45845204  1
  S2-  S195  1  0.01180882  0.39302264  0.96247694  1
  S2-  S196  1  -0.01230870  0.60211826  0.46517119  1
  S2-  S197  1  0.01490889  0.64881464  0.95601289  1
  S2-  S198  1  -0.01120673  0.85117384  0.45447370  1
  S2-  S199  1  0.01024170  0.88991858  0.95223438  1
  S2-  S200  1  0.23625763  0.09958819  0.46211825  1
  S2-  S201  1  0.25524314  0.14643127  0.96068578  1
  S2-  S202  1  0.23230842  0.34734695  0.45264717  1
  S2-  S203  1  0.26314508  0.39087976  0.94978680  1
  S2-  S204  1  0.23297160  0.59648178  0.44752148  1
  S2-  S205  1  0.26334337  0.64453412  0.95703395  1
  S2-  S206  1  0.23484017  0.85261103  0.44742003  1
  S2-  S207  1  0.26341861  0.89992031  0.95439860  1
  S2-  S208  1  0.47955652  0.10171363  0.45564245  1
  S2-  S209  1  0.51684123  0.14832172  0.96518193  1
  S2-  S210  1  0.48484653  0.34748576  0.45441026  1
  S2-  S211  1  0.50874102  0.38944412  0.95094820  1
  S2-  S212  1  0.48576033  0.59790495  0.45209967  1
  S2-  S213  1  0.51233081  0.64175186  0.96078286  1
  S2-  S214  1  0.47990564  0.84372755  0.44824033  1
  S2-  S215  1  0.51846270  0.90197546  0.95895260  1
  S2-  S216  1  0.73593465  0.09483273  0.45943079  1
  S2-  S217  1  0.76548766  0.14710642  0.96095342  1
  S2-  S218  1  0.74180203  0.35117091  0.46117224  1
  S2-  S219  1  0.76246457  0.39491778  0.95174408  1
  S2-  S220  1  0.74065820  0.59894260  0.46268308  1
  S2-  S221  1  0.75860739  0.64281234  0.94778357  1
  S2-  S222  1  0.74313544  0.85120720  0.44709919  1
  S2-  S223  1  0.76332299  0.89417827  0.94700826  1
  S2-  S224  1  0.13559484  0.01530071  0.04174010  1
  S2-  S225  1  0.11000056  -0.02144755  0.54765265  1
  S2-  S226  1  0.13912858  0.27425867  0.05163369  1
  S2-  S227  1  0.11666929  0.22147341  0.54609813  1
  S2-  S228  1  0.14038481  0.52026664  0.04605911  1
  S2-  S229  1  0.10940879  0.47464341  0.54467251  1
  S2-  S230  1  0.13972734  0.77221342  0.03668353  1
  S2-  S231  1  0.11266965  0.72492413  0.54847111  1
  S2-  S232  1  0.38799481  0.02315219  0.04179924  1
  S2-  S233  1  0.35998912  -0.02960226  0.54172932  1
  S2-  S234  1  0.38712310  0.26714107  0.04942135  1
  S2-  S235  1  0.35846266  0.22915815  0.54468265  1
  S2-  S236  1  0.38926538  0.51723686  0.04333213  1
  S2-  S237  1  0.35859577  0.47899142  0.54052238  1
  S2-  S238  1  0.38991451  0.77339130  0.03777053  1
  S2-  S239  1  0.35535644  0.72167788  0.54291726  1
  S2-  S240  1  0.64718338  0.02288221  0.04864629  1
  S2-  S241  1  0.60639355  -0.03296296  0.53216540  1
  S2-  S242  1  0.63911709  0.26870152  0.05058677  1
  S2-  S243  1  0.60846050  0.22579149  0.54115496  1
  S2-  S244  1  0.63613389  0.52142120  0.05068450  1
  S2-  S245  1  0.60983424  0.47835384  0.54169622  1
  S2-  S246  1  0.64197509  0.76904624  0.04313161  1
  S2-  S247  1  0.61347944  0.72450254  0.54171359  1
  S2-  S248  1  0.89369707  0.01440696  0.04358306  1
  S2-  S249  1  0.86350677  -0.02180195  0.54648309  1
  S2-  S250  1  0.88891551  0.27075631  0.04902793  1
  S2-  S251  1  0.86175050  0.22308152  0.53922002  1
  S2-  S252  1  0.88660150  0.52056868  0.03676659  1
  S2-  S253  1  0.85819946  0.47248233  0.54761048  1
  S2-  S254  1  0.88805017  0.76940305  0.03628989  1
  S2-  S255  1  0.86075015  0.72871165  0.54445827  1
