# generated using pymatgen
data_La6Ce6Pr19Nd20Sm13(BiS2)64
_symmetry_space_group_name_H-M   'P 1'
_cell_length_a   16.06243208
_cell_length_b   16.04052923
_cell_length_c   27.73292403
_cell_angle_alpha   90.24932749
_cell_angle_beta   89.71225395
_cell_angle_gamma   90.05556465
_symmetry_Int_Tables_number   1
_chemical_formula_structural   La6Ce6Pr19Nd20Sm13(BiS2)64
_chemical_formula_sum   'La6 Ce6 Pr19 Nd20 Sm13 Bi64 S128'
_cell_volume   7145.22444051
_cell_formula_units_Z   1
loop_
 _symmetry_equiv_pos_site_id
 _symmetry_equiv_pos_as_xyz
  1  'x, y, z'
loop_
 _atom_type_symbol
 _atom_type_oxidation_number
  La3+  3.0
  Ce3+  3.0
  Pr3+  3.0
  Nd3+  3.0
  Sm3+  3.0
  Bi2+  2.0
  S2-  -2.0
loop_
 _atom_site_type_symbol
 _atom_site_label
 _atom_site_symmetry_multiplicity
 _atom_site_fract_x
 _atom_site_fract_y
 _atom_site_fract_z
 _atom_site_occupancy
  La3+  La0  1  0.75824458  0.11576105  0.11452447  1
  La3+  La1  1  0.25402958  0.08937387  0.61892671  1
  La3+  La2  1  0.64299095  0.74133873  0.92797157  1
  La3+  La3  1  0.09999559  0.51537441  0.38359378  1
  La3+  La4  1  0.88267813  0.23592569  0.92405267  1
  La3+  La5  1  0.40565864  0.00031945  0.91818023  1
  Ce3+  Ce6  1  0.73825791  0.38770958  0.55466205  1
  Ce3+  Ce7  1  0.74075413  0.88567919  0.56141588  1
  Ce3+  Ce8  1  0.86490350  0.51491593  0.44837193  1
  Ce3+  Ce9  1  0.51566407  0.62664777  0.06838678  1
  Ce3+  Ce10  1  0.01319909  0.36837700  0.05773966  1
  Ce3+  Ce11  1  0.89231361  0.49623206  0.94554749  1
  Pr3+  Pr12  1  -0.00579285  0.15037861  0.58932900  1
  Pr3+  Pr13  1  0.02078790  0.87038766  0.06326622  1
  Pr3+  Pr14  1  0.51836671  0.37069170  0.05930058  1
  Pr3+  Pr15  1  0.74398610  0.13898450  0.57285410  1
  Pr3+  Pr16  1  0.48745039  0.13820509  0.55147018  1
  Pr3+  Pr17  1  0.39429326  0.74485210  0.93286009  1
  Pr3+  Pr18  1  0.26025096  0.11962043  0.05993432  1
  Pr3+  Pr19  1  0.11689677  0.75497502  0.44493370  1
  Pr3+  Pr20  1  0.88875381  0.74044346  0.93185841  1
  Pr3+  Pr21  1  0.61852836  0.76244137  0.43702804  1
  Pr3+  Pr22  1  0.36439754  0.01383853  0.42990711  1
  Pr3+  Pr23  1  0.26571411  0.87461641  0.05504719  1
  Pr3+  Pr24  1  0.48684959  0.63508600  0.56482387  1
  Pr3+  Pr25  1  0.13694680  -0.01268690  0.92801898  1
  Pr3+  Pr26  1  0.11560266  0.01579979  0.44364920  1
  Pr3+  Pr27  1  0.36256835  0.51115296  0.43114435  1
  Pr3+  Pr28  1  0.02129154  0.62377133  0.06640744  1
  Pr3+  Pr29  1  0.38909832  0.24279092  0.93964034  1
  Pr3+  Pr30  1  0.86653486  0.26538990  0.43927614  1
  Nd3+  Nd31  1  0.14763516  0.74283199  0.92991778  1
  Nd3+  Nd32  1  0.86836702  0.01365526  0.44501472  1
  Nd3+  Nd33  1  0.39297999  0.49562200  0.94227934  1
  Nd3+  Nd34  1  0.61960463  0.01085734  0.44495772  1
  Nd3+  Nd35  1  0.01234817  0.12314463  0.06461964  1
  Nd3+  Nd36  1  -0.00524286  0.88936778  0.56291125  1
  Nd3+  Nd37  1  0.11610469  0.26689923  0.43598115  1
  Nd3+  Nd38  1  0.14172919  0.49544773  0.94375256  1
  Nd3+  Nd39  1  0.51250007  0.11968036  0.06837256  1
  Nd3+  Nd40  1  0.13529867  0.24221188  0.93559926  1
  Nd3+  Nd41  1  0.36695200  0.75832013  0.43963006  1
  Nd3+  Nd42  1  0.48242431  0.89094011  0.56032493  1
  Nd3+  Nd43  1  -0.00671320  0.63466070  0.56393234  1
  Nd3+  Nd44  1  0.73092343  0.63690500  0.57149780  1
  Nd3+  Nd45  1  0.51630339  0.87305311  0.05985899  1
  Nd3+  Nd46  1  0.77157708  0.86531000  0.07580384  1
  Nd3+  Nd47  1  0.76741392  0.36676166  0.06402965  1
  Nd3+  Nd48  1  0.76877280  0.62387456  0.06780328  1
  Nd3+  Nd49  1  0.26863521  0.37102760  0.06270567  1
  Nd3+  Nd50  1  0.26830464  0.62314772  0.06657444  1
  Sm3+  Sm51  1  0.24411457  0.62885001  0.56217918  1
  Sm3+  Sm52  1  0.64365638  -0.00370562  0.95303251  1
  Sm3+  Sm53  1  0.61965956  0.26197138  0.43981545  1
  Sm3+  Sm54  1  0.61299171  0.51898634  0.42878977  1
  Sm3+  Sm55  1  0.86870277  0.75786813  0.44786137  1
  Sm3+  Sm56  1  0.88750296  -0.00559970  0.94986331  1
  Sm3+  Sm57  1  0.64193036  0.49672231  0.94248892  1
  Sm3+  Sm58  1  0.48974068  0.38617609  0.55005738  1
  Sm3+  Sm59  1  -0.00862918  0.38689504  0.55695165  1
  Sm3+  Sm60  1  0.23880279  0.37169232  0.55864948  1
  Sm3+  Sm61  1  0.36585849  0.26272599  0.43633310  1
  Sm3+  Sm62  1  0.24019152  0.88605643  0.54815162  1
  Sm3+  Sm63  1  0.64486729  0.24339156  0.94808353  1
  Bi2+  Bi64  1  0.02914852  0.08464316  0.29575456  1
  Bi2+  Bi65  1  0.02197553  0.19226625  0.80407999  1
  Bi2+  Bi66  1  -0.05922184  0.38323885  0.28858611  1
  Bi2+  Bi67  1  0.05790772  0.42045167  0.76154720  1
  Bi2+  Bi68  1  -0.03513154  0.66008093  0.29732723  1
  Bi2+  Bi69  1  0.02989389  0.62548823  0.79474375  1
  Bi2+  Bi70  1  0.01798744  0.89775113  0.25516695  1
  Bi2+  Bi71  1  -0.06183492  0.80263217  0.80347193  1
  Bi2+  Bi72  1  0.27536277  0.10762970  0.30834226  1
  Bi2+  Bi73  1  0.25956782  0.09652175  0.81444748  1
  Bi2+  Bi74  1  0.30630557  0.35756426  0.28709787  1
  Bi2+  Bi75  1  0.26903231  0.35250342  0.77166866  1
  Bi2+  Bi76  1  0.23703608  0.63752142  0.28700859  1
  Bi2+  Bi77  1  0.27558178  0.57435908  0.80543260  1
  Bi2+  Bi78  1  0.30220424  0.91062040  0.25005124  1
  Bi2+  Bi79  1  0.21907676  0.82492772  0.78031554  1
  Bi2+  Bi80  1  0.48142930  0.09371993  0.22519528  1
  Bi2+  Bi81  1  0.54060318  0.13100480  0.79096047  1
  Bi2+  Bi82  1  0.51733546  0.40085790  0.28205174  1
  Bi2+  Bi83  1  0.53759177  0.32976813  0.78616448  1
  Bi2+  Bi84  1  0.48082018  0.59480403  0.26629337  1
  Bi2+  Bi85  1  0.51621124  0.62612244  0.79594331  1
  Bi2+  Bi86  1  0.46892056  0.82225516  0.30175906  1
  Bi2+  Bi87  1  0.49917206  0.90131974  0.79231106  1
  Bi2+  Bi88  1  0.76572723  0.12346380  0.32606573  1
  Bi2+  Bi89  1  0.77013554  0.15677861  0.78294852  1
  Bi2+  Bi90  1  0.71444820  0.37284675  0.29028651  1
  Bi2+  Bi91  1  0.72382903  0.38525784  0.79242538  1
  Bi2+  Bi92  1  0.74080895  0.56449819  0.29943588  1
  Bi2+  Bi93  1  0.76806711  0.65268089  0.79747416  1
  Bi2+  Bi94  1  0.66455833  0.84348131  0.31234259  1
  Bi2+  Bi95  1  0.68798316  0.92589969  0.74566000  1
  Bi2+  Bi96  1  0.15271787  0.00596682  0.19654729  1
  Bi2+  Bi97  1  0.06133958  -0.03188306  0.73672063  1
  Bi2+  Bi98  1  0.14535631  0.24691555  0.27007184  1
  Bi2+  Bi99  1  0.11883465  0.24126220  0.71178602  1
  Bi2+  Bi100  1  0.08216610  0.48945454  0.18495462  1
  Bi2+  Bi101  1  0.20696709  0.47804884  0.69014082  1
  Bi2+  Bi102  1  0.05624781  0.75050027  0.18848717  1
  Bi2+  Bi103  1  0.15629876  0.67626121  0.70973730  1
  Bi2+  Bi104  1  0.37039386  0.00140664  0.14812457  1
  Bi2+  Bi105  1  0.41409687  -0.04382523  0.69948197  1
  Bi2+  Bi106  1  0.30491130  0.17366522  0.19833573  1
  Bi2+  Bi107  1  0.37855941  0.23632450  0.70628538  1
  Bi2+  Bi108  1  0.36166219  0.47757698  0.20289897  1
  Bi2+  Bi109  1  0.40056131  0.49727495  0.69911875  1
  Bi2+  Bi110  1  0.37391440  0.74940027  0.20590741  1
  Bi2+  Bi111  1  0.35535349  0.70884846  0.73039275  1
  Bi2+  Bi112  1  0.58274924  -0.07540522  0.22173177  1
  Bi2+  Bi113  1  0.64726523  0.10473298  0.69592376  1
  Bi2+  Bi114  1  0.60203219  0.32149310  0.18982376  1
  Bi2+  Bi115  1  0.62524060  0.30197128  0.68328408  1
  Bi2+  Bi116  1  0.66276869  0.49711087  0.15646892  1
  Bi2+  Bi117  1  0.59736196  0.49786573  0.72468330  1
  Bi2+  Bi118  1  0.61342007  0.67319877  0.19614595  1
  Bi2+  Bi119  1  0.65419286  0.75255037  0.69325936  1
  Bi2+  Bi120  1  0.84978375  -0.02900166  0.21987131  1
  Bi2+  Bi121  1  0.87476648  -0.01516268  0.77317971  1
  Bi2+  Bi122  1  0.90210698  0.23285629  0.21003659  1
  Bi2+  Bi123  1  0.86410497  0.26817537  0.70408687  1
  Bi2+  Bi124  1  0.84207620  0.48939815  0.20888398  1
  Bi2+  Bi125  1  0.87791149  0.50000667  0.76541453  1
  Bi2+  Bi126  1  0.78493082  0.73794916  0.24623619  1
  Bi2+  Bi127  1  0.90622961  0.75725827  0.69422662  1
  S2-  S128  1  -0.07587983  0.10613418  0.15216280  1
  S2-  S129  1  0.09122078  0.08882718  0.66605210  1
  S2-  S130  1  0.00619597  0.34340161  0.15400367  1
  S2-  S131  1  -0.00370509  0.30672356  0.64379168  1
  S2-  S132  1  -0.05726867  0.59648504  0.15830935  1
  S2-  S133  1  0.00383958  0.63189019  0.66163387  1
  S2-  S134  1  -0.06692205  0.86032083  0.15146441  1
  S2-  S135  1  0.02678965  0.87913684  0.65945988  1
  S2-  S136  1  0.14271322  0.13488863  0.13589768  1
  S2-  S137  1  0.28770371  0.08631805  0.72369619  1
  S2-  S138  1  0.22784220  0.40829999  0.15631485  1
  S2-  S139  1  0.24306836  0.26698821  0.63890085  1
  S2-  S140  1  0.15164605  0.63388668  0.14133490  1
  S2-  S141  1  0.35969929  0.63867872  0.63625472  1
  S2-  S142  1  0.15438130  0.85872147  0.13427777  1
  S2-  S143  1  0.28762710  0.91571519  0.63838332  1
  S2-  S144  1  0.59059218  0.14615385  0.15548845  1
  S2-  S145  1  0.43205145  0.11108328  0.64335243  1
  S2-  S146  1  0.44784328  0.35328376  0.14993709  1
  S2-  S147  1  0.46403361  0.36161346  0.64580295  1
  S2-  S148  1  0.39182019  0.61903968  0.13896533  1
  S2-  S149  1  0.59648231  0.62054654  0.64244841  1
  S2-  S150  1  0.51924485  0.81021831  0.15257675  1
  S2-  S151  1  0.51648039  0.85019305  0.65367805  1
  S2-  S152  1  0.76878897  0.12211209  0.23167594  1
  S2-  S153  1  0.85346805  0.13032376  0.65110590  1
  S2-  S154  1  0.77598824  0.28311753  0.15058789  1
  S2-  S155  1  0.76608861  0.38539161  0.64965246  1
  S2-  S156  1  0.75569064  0.73352676  0.14532964  1
  S2-  S157  1  0.78952632  0.65251465  0.66576577  1
  S2-  S158  1  0.72554747  0.95623375  0.15875686  1
  S2-  S159  1  0.76711649  0.88124414  0.65643864  1
  S2-  S160  1  0.14317158  -0.00034161  0.34554800  1
  S2-  S161  1  0.10245638  0.03963263  0.83334771  1
  S2-  S162  1  0.10094855  0.34583621  0.34761567  1
  S2-  S163  1  0.19758786  0.25634415  0.84324632  1
  S2-  S164  1  0.09581658  0.53314387  0.27595559  1
  S2-  S165  1  0.12445750  0.50312172  0.84624504  1
  S2-  S166  1  0.11149073  0.69188232  0.35299601  1
  S2-  S167  1  0.09854272  0.83493003  0.85007558  1
  S2-  S168  1  0.39219598  -0.01707904  0.33351909  1
  S2-  S169  1  0.33590415  -0.06147966  0.83126665  1
  S2-  S170  1  0.38401549  0.23858952  0.33977105  1
  S2-  S171  1  0.41051508  0.15027219  0.85664219  1
  S2-  S172  1  0.26621107  0.50637332  0.34617606  1
  S2-  S173  1  0.41648163  0.50498910  0.84529996  1
  S2-  S174  1  0.34203612  0.71967837  0.34520939  1
  S2-  S175  1  0.27594515  0.71477079  0.85833321  1
  S2-  S176  1  0.64481056  0.01128152  0.34848644  1
  S2-  S177  1  0.57730826  0.00448637  0.86152515  1
  S2-  S178  1  0.64000663  0.24966246  0.34450766  1
  S2-  S179  1  0.72825686  0.24985968  0.86195625  1
  S2-  S180  1  0.48714075  0.51006590  0.35776604  1
  S2-  S181  1  0.64627253  0.58716590  0.86038904  1
  S2-  S182  1  0.64407252  0.64841843  0.36247965  1
  S2-  S183  1  0.51265984  0.76188700  0.85580294  1
  S2-  S184  1  0.88860919  0.00982853  0.34742896  1
  S2-  S185  1  0.87992940  0.07259641  0.86079339  1
  S2-  S186  1  0.88655349  0.25774336  0.34002192  1
  S2-  S187  1  0.94802760  0.31768783  0.84137276  1
  S2-  S188  1  0.92420793  0.51916316  0.35704129  1
  S2-  S189  1  0.88973636  0.58492127  0.86270780  1
  S2-  S190  1  0.87419424  0.75778968  0.35070368  1
  S2-  S191  1  0.77061528  0.78190676  0.85761260  1
  S2-  S192  1  -0.00914928  0.14010000  0.44780332  1
  S2-  S193  1  0.01548290  0.11781772  0.95597954  1
  S2-  S194  1  -0.00848405  0.39276170  0.45497268  1
  S2-  S195  1  0.01572140  0.37006908  0.95293613  1
  S2-  S196  1  -0.00704576  0.63364735  0.45961239  1
  S2-  S197  1  0.02043410  0.62158390  0.95708886  1
  S2-  S198  1  -0.00821868  0.88443589  0.45653857  1
  S2-  S199  1  0.00914083  0.86909631  0.95600259  1
  S2-  S200  1  0.24126186  0.14122592  0.44166189  1
  S2-  S201  1  0.26183581  0.11731317  0.95174072  1
  S2-  S202  1  0.24374558  0.38284322  0.45480600  1
  S2-  S203  1  0.26622973  0.36980514  0.95358594  1
  S2-  S204  1  0.24228375  0.63450019  0.46029232  1
  S2-  S205  1  0.26862567  0.61540959  0.96114855  1
  S2-  S206  1  0.24124541  0.88445838  0.44514885  1
  S2-  S207  1  0.27012741  0.87287824  0.94966602  1
  S2-  S208  1  0.49456004  0.13737393  0.44586099  1
  S2-  S209  1  0.52098416  0.12480117  0.96284128  1
  S2-  S210  1  0.49498741  0.38216292  0.44823216  1
  S2-  S211  1  0.51939205  0.36857656  0.95049927  1
  S2-  S212  1  0.49054926  0.63863008  0.45880406  1
  S2-  S213  1  0.51586862  0.61739943  0.96108143  1
  S2-  S214  1  0.49082081  0.88763860  0.45243649  1
  S2-  S215  1  0.51889547  0.87222497  0.95724527  1
  S2-  S216  1  0.74205232  0.13773652  0.46136764  1
  S2-  S217  1  0.76137431  0.11750898  0.95981906  1
  S2-  S218  1  0.73703409  0.39203387  0.44776023  1
  S2-  S219  1  0.76513766  0.37446113  0.95792827  1
  S2-  S220  1  0.74358557  0.63906303  0.46512851  1
  S2-  S221  1  0.76548504  0.61775855  0.96354681  1
  S2-  S222  1  0.74629548  0.88492030  0.45599667  1
  S2-  S223  1  0.76534820  0.87344387  0.96395579  1
  S2-  S224  1  0.13805526  -0.00221997  0.03486415  1
  S2-  S225  1  0.11961484  0.01449882  0.54871027  1
  S2-  S226  1  0.14263015  0.25138375  0.03902955  1
  S2-  S227  1  0.10776196  0.26326283  0.53882431  1
  S2-  S228  1  0.14215707  0.49269316  0.04607029  1
  S2-  S229  1  0.11857119  0.50680093  0.55882957  1
  S2-  S230  1  0.14523346  0.74506506  0.03379570  1
  S2-  S231  1  0.12098390  0.75863556  0.55149969  1
  S2-  S232  1  0.39237178  -0.00077089  0.03399327  1
  S2-  S233  1  0.36021171  0.01447464  0.53540093  1
  S2-  S234  1  0.38951865  0.24383918  0.04473998  1
  S2-  S235  1  0.36941563  0.26339963  0.53731925  1
  S2-  S236  1  0.39266448  0.49314686  0.04501546  1
  S2-  S237  1  0.36245820  0.50231180  0.54079456  1
  S2-  S238  1  0.39084582  0.75025921  0.04132704  1
  S2-  S239  1  0.36291640  0.76417405  0.54243980  1
  S2-  S240  1  0.64045454  -0.00146185  0.05406007  1
  S2-  S241  1  0.61622726  0.01240628  0.55053653  1
  S2-  S242  1  0.64114306  0.24429435  0.04881107  1
  S2-  S243  1  0.61615492  0.26058243  0.54409129  1
  S2-  S244  1  0.64134441  0.49800360  0.04383554  1
  S2-  S245  1  0.61319742  0.50908480  0.53686578  1
  S2-  S246  1  0.63939819  0.74713824  0.04320052  1
  S2-  S247  1  0.61199711  0.76662123  0.54294903  1
  S2-  S248  1  0.88823740  -0.00451263  0.05045579  1
  S2-  S249  1  0.87104331  0.01261357  0.54950869  1
  S2-  S250  1  0.89177640  0.24674594  0.04065928  1
  S2-  S251  1  0.86493723  0.26346424  0.54364772  1
  S2-  S252  1  0.89017287  0.49554530  0.04895326  1
  S2-  S253  1  0.86516405  0.51372247  0.55362730  1
  S2-  S254  1  0.89356518  0.74268344  0.04151052  1
  S2-  S255  1  0.86889745  0.76099582  0.55124759  1
