# generated using pymatgen
data_La6Ce6Pr19Nd20Sm13(BiS2)64
_symmetry_space_group_name_H-M   'P 1'
_cell_length_a   16.01422153
_cell_length_b   16.08992350
_cell_length_c   27.42020882
_cell_angle_alpha   89.72029860
_cell_angle_beta   89.97090886
_cell_angle_gamma   90.10128931
_symmetry_Int_Tables_number   1
_chemical_formula_structural   La6Ce6Pr19Nd20Sm13(BiS2)64
_chemical_formula_sum   'La6 Ce6 Pr19 Nd20 Sm13 Bi64 S128'
_cell_volume   7065.20321303
_cell_formula_units_Z   1
loop_
 _symmetry_equiv_pos_site_id
 _symmetry_equiv_pos_as_xyz
  1  'x, y, z'
loop_
 _atom_type_symbol
 _atom_type_oxidation_number
  La3+  3.0
  Ce3+  3.0
  Pr3+  3.0
  Nd3+  3.0
  Sm3+  3.0
  Bi2+  2.0
  S2-  -2.0
loop_
 _atom_site_type_symbol
 _atom_site_label
 _atom_site_symmetry_multiplicity
 _atom_site_fract_x
 _atom_site_fract_y
 _atom_site_fract_z
 _atom_site_occupancy
  La3+  La0  1  0.36672956  0.73458253  0.42744531  1
  La3+  La1  1  0.61236309  0.48669514  0.39123889  1
  La3+  La2  1  0.77161596  0.36523632  0.08464055  1
  La3+  La3  1  0.76302225  0.87178981  0.06801624  1
  La3+  La4  1  -0.01221823  0.35484883  0.59163827  1
  La3+  La5  1  -0.00997116  0.61593705  0.56966318  1
  Ce3+  Ce6  1  0.38898525  0.25174811  0.93766770  1
  Ce3+  Ce7  1  0.76500000  0.12384505  0.05558554  1
  Ce3+  Ce8  1  0.36666547  0.23635781  0.45414060  1
  Ce3+  Ce9  1  0.24212488  0.35045876  0.58104324  1
  Ce3+  Ce10  1  -0.00825507  0.85605679  0.55359890  1
  Ce3+  Ce11  1  0.62086145  0.24174389  0.43438982  1
  Pr3+  Pr12  1  0.12002608  -0.01435813  0.44061220  1
  Pr3+  Pr13  1  0.76967087  0.62178315  0.06921099  1
  Pr3+  Pr14  1  0.62051665  -0.01142539  0.43648359  1
  Pr3+  Pr15  1  0.26221196  0.87883276  0.07181620  1
  Pr3+  Pr16  1  0.49719683  0.10359927  0.56672929  1
  Pr3+  Pr17  1  0.11608206  0.73016683  0.42979795  1
  Pr3+  Pr18  1  0.14562644  0.26031331  0.91929351  1
  Pr3+  Pr19  1  0.49846448  0.36015779  0.56629781  1
  Pr3+  Pr20  1  0.64553019  0.74541625  0.92897331  1
  Pr3+  Pr21  1  0.26424526  0.12137755  0.05209425  1
  Pr3+  Pr22  1  0.49361179  0.84996591  0.55966645  1
  Pr3+  Pr23  1  0.01499961  0.12423793  0.04869503  1
  Pr3+  Pr24  1  0.87113120  0.47813524  0.43539730  1
  Pr3+  Pr25  1  -0.01429227  0.10410915  0.57918293  1
  Pr3+  Pr26  1  0.87765395  0.23380458  0.43905920  1
  Pr3+  Pr27  1  0.24474148  0.10018264  0.57531180  1
  Pr3+  Pr28  1  0.86523662  0.73071330  0.42354987  1
  Pr3+  Pr29  1  0.26194383  0.37008355  0.06403062  1
  Pr3+  Pr30  1  0.15462197  0.53929088  0.88630370  1
  Nd3+  Nd31  1  0.74178747  0.60577265  0.54449307  1
  Nd3+  Nd32  1  0.36641588  0.47845826  0.44236191  1
  Nd3+  Nd33  1  0.38838107  0.74851537  0.94975068  1
  Nd3+  Nd34  1  0.88167903  0.25394753  0.92347559  1
  Nd3+  Nd35  1  0.51616570  0.37179369  0.05994683  1
  Nd3+  Nd36  1  0.74060785  0.10807830  0.56481853  1
  Nd3+  Nd37  1  0.24077722  0.60641020  0.56003984  1
  Nd3+  Nd38  1  0.13750934  0.00394135  0.91918328  1
  Nd3+  Nd39  1  0.64371631  0.50179863  0.94207826  1
  Nd3+  Nd40  1  0.74303645  0.35836087  0.56165676  1
  Nd3+  Nd41  1  0.38838737  -0.00600585  0.92739757  1
  Nd3+  Nd42  1  0.49414671  0.60745146  0.55003504  1
  Nd3+  Nd43  1  0.01550123  0.61964173  0.05661249  1
  Nd3+  Nd44  1  0.87545804  -0.01308556  0.43467413  1
  Nd3+  Nd45  1  0.02029965  0.36797885  0.05716322  1
  Nd3+  Nd46  1  0.26441941  0.62220579  0.06734232  1
  Nd3+  Nd47  1  0.88962597  -0.00286604  0.93250303  1
  Nd3+  Nd48  1  0.51396691  0.87515331  0.06691817  1
  Nd3+  Nd49  1  0.11323317  0.47797755  0.45035425  1
  Nd3+  Nd50  1  0.74206152  0.85422328  0.55312924  1
  Sm3+  Sm51  1  0.11740592  0.23407052  0.45477692  1
  Sm3+  Sm52  1  0.14096502  0.75404418  0.95063476  1
  Sm3+  Sm53  1  0.24353601  0.85666401  0.56559076  1
  Sm3+  Sm54  1  0.61647779  0.73796807  0.42296715  1
  Sm3+  Sm55  1  0.51855633  0.62212181  0.06497821  1
  Sm3+  Sm56  1  0.36414271  -0.01266920  0.43883314  1
  Sm3+  Sm57  1  0.38521527  0.50054896  0.94843430  1
  Sm3+  Sm58  1  0.51598416  0.12123283  0.04579852  1
  Sm3+  Sm59  1  0.89307956  0.74715639  0.94291122  1
  Sm3+  Sm60  1  0.01321295  0.87792012  0.06684589  1
  Sm3+  Sm61  1  0.89328848  0.49601116  0.94338516  1
  Sm3+  Sm62  1  0.64508718  -0.00866666  0.92913579  1
  Sm3+  Sm63  1  0.64055961  0.25221465  0.93795715  1
  Bi2+  Bi64  1  -0.04930499  0.08891456  0.30196327  1
  Bi2+  Bi65  1  0.00731725  0.09839081  0.78551003  1
  Bi2+  Bi66  1  -0.04015351  0.34075556  0.30818806  1
  Bi2+  Bi67  1  -0.02457509  0.40246452  0.79773437  1
  Bi2+  Bi68  1  0.01044573  0.59913180  0.26330584  1
  Bi2+  Bi69  1  -0.06266103  0.69669485  0.78985029  1
  Bi2+  Bi70  1  0.00065544  0.79796688  0.26733863  1
  Bi2+  Bi71  1  0.06606025  0.84284311  0.79452573  1
  Bi2+  Bi72  1  0.27670717  0.13174173  0.29878503  1
  Bi2+  Bi73  1  0.27570292  0.10845932  0.79102305  1
  Bi2+  Bi74  1  0.21311473  0.41784467  0.32524915  1
  Bi2+  Bi75  1  0.27750437  0.39290275  0.78887826  1
  Bi2+  Bi76  1  0.19360723  0.61198796  0.31140677  1
  Bi2+  Bi77  1  0.29140465  0.66650983  0.78949063  1
  Bi2+  Bi78  1  0.17151745  0.89256121  0.29370201  1
  Bi2+  Bi79  1  0.26447391  0.92099276  0.74814400  1
  Bi2+  Bi80  1  0.47388197  0.09757665  0.28528964  1
  Bi2+  Bi81  1  0.47374195  0.09130715  0.81047591  1
  Bi2+  Bi82  1  0.39340497  0.34965515  0.27797517  1
  Bi2+  Bi83  1  0.53976466  0.36046395  0.80794949  1
  Bi2+  Bi84  1  0.38862178  0.61774532  0.29598898  1
  Bi2+  Bi85  1  0.49414471  0.63016851  0.79388209  1
  Bi2+  Bi86  1  0.43781961  0.89733954  0.30836279  1
  Bi2+  Bi87  1  0.47133640  0.89599731  0.79672506  1
  Bi2+  Bi88  1  0.73446317  0.14538739  0.23451921  1
  Bi2+  Bi89  1  0.67171291  0.12673763  0.80324703  1
  Bi2+  Bi90  1  0.72417728  0.36136532  0.28456547  1
  Bi2+  Bi91  1  0.72525713  0.40024240  0.78744922  1
  Bi2+  Bi92  1  0.77331692  0.62975731  0.28628355  1
  Bi2+  Bi93  1  0.68357925  0.61944913  0.76378394  1
  Bi2+  Bi94  1  0.73304166  0.91179732  0.28899890  1
  Bi2+  Bi95  1  0.74668251  0.87557391  0.79508290  1
  Bi2+  Bi96  1  0.12193847  0.01657390  0.20413638  1
  Bi2+  Bi97  1  0.06679594  -0.02454793  0.70146135  1
  Bi2+  Bi98  1  0.13212035  0.25771809  0.26617240  1
  Bi2+  Bi99  1  0.15080018  0.28293052  0.71768300  1
  Bi2+  Bi100  1  0.12601289  0.44205612  0.21796349  1
  Bi2+  Bi101  1  0.12015876  0.54057513  0.70754401  1
  Bi2+  Bi102  1  0.18599416  0.75635902  0.21309433  1
  Bi2+  Bi103  1  0.13120868  0.78574306  0.69240109  1
  Bi2+  Bi104  1  0.34281886  -0.00883654  0.21922245  1
  Bi2+  Bi105  1  0.37648740  0.08941804  0.69081486  1
  Bi2+  Bi106  1  0.28358396  0.27374076  0.18980784  1
  Bi2+  Bi107  1  0.44823278  0.26701282  0.71922841  1
  Bi2+  Bi108  1  0.32006209  0.48870491  0.21021686  1
  Bi2+  Bi109  1  0.43982385  0.46953366  0.72943605  1
  Bi2+  Bi110  1  0.39149665  0.76176292  0.21763338  1
  Bi2+  Bi111  1  0.40256817  0.77206336  0.71373813  1
  Bi2+  Bi112  1  0.60091270  0.01561585  0.19801050  1
  Bi2+  Bi113  1  0.58179414  0.01564285  0.72097972  1
  Bi2+  Bi114  1  0.52339938  0.24751898  0.21274764  1
  Bi2+  Bi115  1  0.64436618  0.24875898  0.71468837  1
  Bi2+  Bi116  1  0.59071694  0.53382725  0.20457723  1
  Bi2+  Bi117  1  0.60147556  0.52537410  0.67374812  1
  Bi2+  Bi118  1  0.58074971  0.82828295  0.23606494  1
  Bi2+  Bi119  1  0.60579507  0.77609842  0.69201052  1
  Bi2+  Bi120  1  0.87166379  0.00969292  0.20735739  1
  Bi2+  Bi121  1  0.87070894  -0.01136548  0.72790359  1
  Bi2+  Bi122  1  0.90611110  0.23041755  0.20424594  1
  Bi2+  Bi123  1  0.87665931  0.23005096  0.71041961  1
  Bi2+  Bi124  1  0.86948619  0.49776128  0.20107398  1
  Bi2+  Bi125  1  0.82404162  0.51294550  0.70722293  1
  Bi2+  Bi126  1  0.84263680  0.74005778  0.20270896  1
  Bi2+  Bi127  1  0.85657136  0.79515220  0.70737400  1
  S2-  S128  1  0.00033490  0.11061690  0.14989990  1
  S2-  S129  1  0.01791483  0.20818576  0.66148412  1
  S2-  S130  1  -0.07570692  0.36770912  0.14348247  1
  S2-  S131  1  0.03482012  0.39452550  0.69680956  1
  S2-  S132  1  -0.04436985  0.63026103  0.14957385  1
  S2-  S133  1  -0.03057083  0.56392560  0.66503176  1
  S2-  S134  1  0.12936993  0.88921512  0.14276422  1
  S2-  S135  1  -0.02006293  0.76535544  0.63535951  1
  S2-  S136  1  0.24951758  0.10050189  0.15183971  1
  S2-  S137  1  0.24932255  0.21213932  0.65312060  1
  S2-  S138  1  0.14177422  0.33567716  0.13642230  1
  S2-  S139  1  0.23531466  0.42191958  0.67158906  1
  S2-  S140  1  0.22450335  0.61226789  0.16360284  1
  S2-  S141  1  0.22517892  0.65832423  0.65405704  1
  S2-  S142  1  0.39034325  0.88735732  0.14255880  1
  S2-  S143  1  0.26761683  0.96487520  0.64346502  1
  S2-  S144  1  0.50019845  0.12240769  0.14338814  1
  S2-  S145  1  0.61779254  0.11357493  0.64075651  1
  S2-  S146  1  0.51353503  0.39189012  0.15843668  1
  S2-  S147  1  0.62229598  0.36432827  0.63926851  1
  S2-  S148  1  0.48228336  0.63329177  0.16078362  1
  S2-  S149  1  0.48970307  0.66696738  0.64351159  1
  S2-  S150  1  0.63585957  0.87185150  0.14030457  1
  S2-  S151  1  0.49559203  0.89868343  0.65553739  1
  S2-  S152  1  0.76075177  0.21034847  0.14054815  1
  S2-  S153  1  0.84294395  0.09657415  0.64745576  1
  S2-  S154  1  0.72803821  0.42279405  0.18105024  1
  S2-  S155  1  0.83901487  0.35288430  0.65019152  1
  S2-  S156  1  0.71316230  0.64612417  0.16374658  1
  S2-  S157  1  0.74761417  0.62274564  0.64398391  1
  S2-  S158  1  0.89072962  0.88069734  0.14110680  1
  S2-  S159  1  0.72123962  0.86930279  0.65176042  1
  S2-  S160  1  0.00781444  -0.02359750  0.36002997  1
  S2-  S161  1  0.13562521  0.13563872  0.84693806  1
  S2-  S162  1  0.02407438  0.21642702  0.37097873  1
  S2-  S163  1  0.13079414  0.38093461  0.84349955  1
  S2-  S164  1  0.00913945  0.45750311  0.36863316  1
  S2-  S165  1  0.05346223  0.56233565  0.80127972  1
  S2-  S166  1  0.23704398  0.76276713  0.35618983  1
  S2-  S167  1  0.17754178  0.71115020  0.85744485  1
  S2-  S168  1  0.24457121  0.00575858  0.36572937  1
  S2-  S169  1  0.27003149  -0.03499385  0.85357862  1
  S2-  S170  1  0.31212520  0.27016144  0.36391380  1
  S2-  S171  1  0.31459207  0.26508031  0.85033884  1
  S2-  S172  1  0.43857984  0.48521952  0.35125468  1
  S2-  S173  1  0.32341279  0.51886117  0.85647394  1
  S2-  S174  1  0.48958866  0.74301729  0.35348964  1
  S2-  S175  1  0.40416347  0.75419690  0.85095177  1
  S2-  S176  1  0.58874670  -0.01904765  0.33792954  1
  S2-  S177  1  0.77224039  0.00763480  0.85676463  1
  S2-  S178  1  0.60189716  0.32645235  0.34778018  1
  S2-  S179  1  0.73722638  0.26323960  0.85748322  1
  S2-  S180  1  0.61518358  0.57715439  0.29761631  1
  S2-  S181  1  0.62886405  0.60908041  0.86321850  1
  S2-  S182  1  0.73998593  0.75851068  0.34928286  1
  S2-  S183  1  0.61420949  0.86797960  0.85658317  1
  S2-  S184  1  0.80236415  0.02817421  0.34581751  1
  S2-  S185  1  1.00113301  -0.03658283  0.85547753  1
  S2-  S186  1  0.80977683  0.26457540  0.34277189  1
  S2-  S187  1  0.93752156  0.24079311  0.82485711  1
  S2-  S188  1  0.78203352  0.48555002  0.34476257  1
  S2-  S189  1  0.85031765  0.47537975  0.84914599  1
  S2-  S190  1  0.99252960  0.70482655  0.35292267  1
  S2-  S191  1  0.81561574  0.74595244  0.85549093  1
  S2-  S192  1  -0.00411101  0.10584052  0.47102889  1
  S2-  S193  1  0.00784681  0.12892143  0.94430327  1
  S2-  S194  1  -0.00467283  0.35391531  0.47487525  1
  S2-  S195  1  0.00872876  0.37120892  0.95038585  1
  S2-  S196  1  -0.00766096  0.60681303  0.46155217  1
  S2-  S197  1  0.01926695  0.62192370  0.94839812  1
  S2-  S198  1  -0.00776146  0.85343544  0.45163776  1
  S2-  S199  1  0.01472287  0.86894749  0.96088435  1
  S2-  S200  1  0.24273797  0.11238788  0.46837443  1
  S2-  S201  1  0.27028798  0.12198312  0.94750849  1
  S2-  S202  1  0.24042447  0.35844464  0.47226285  1
  S2-  S203  1  0.26791214  0.37787280  0.95833188  1
  S2-  S204  1  0.24210582  0.60285896  0.45373630  1
  S2-  S205  1  0.26194652  0.62386107  0.96196192  1
  S2-  S206  1  0.24487701  0.86151910  0.46231705  1
  S2-  S207  1  0.26430713  0.87164682  0.96217973  1
  S2-  S208  1  0.49063131  0.11090638  0.45211287  1
  S2-  S209  1  0.51840508  0.12294548  0.94215134  1
  S2-  S210  1  0.49261157  0.36017169  0.45898730  1
  S2-  S211  1  0.51487199  0.37856648  0.95302942  1
  S2-  S212  1  0.49517891  0.60558244  0.44730471  1
  S2-  S213  1  0.51026392  0.62184716  0.96079888  1
  S2-  S214  1  0.49096198  0.86519555  0.45272530  1
  S2-  S215  1  0.51264588  0.87353188  0.95934156  1
  S2-  S216  1  0.74378772  0.11337679  0.45595780  1
  S2-  S217  1  0.76050797  0.12558351  0.95338981  1
  S2-  S218  1  0.74409275  0.35922628  0.45541447  1
  S2-  S219  1  0.76239258  0.37785016  0.96035954  1
  S2-  S220  1  0.73486525  0.60680094  0.44109874  1
  S2-  S221  1  0.77177180  0.62105941  0.96136471  1
  S2-  S222  1  0.74387255  0.86348614  0.44883525  1
  S2-  S223  1  0.76738911  0.86948385  0.95908964  1
  S2-  S224  1  0.13756318  -0.00185328  0.03476463  1
  S2-  S225  1  0.11638200  -0.02096987  0.55063956  1
  S2-  S226  1  0.14237677  0.24478000  0.02952150  1
  S2-  S227  1  0.11602002  0.22895442  0.55596489  1
  S2-  S228  1  0.13976317  0.49941362  0.05312137  1
  S2-  S229  1  0.11542478  0.48144222  0.55736503  1
  S2-  S230  1  0.13804348  0.74661032  0.05263167  1
  S2-  S231  1  0.12323958  0.73554251  0.53911270  1
  S2-  S232  1  0.39192489  0.00004311  0.03570480  1
  S2-  S233  1  0.37297421  -0.01965280  0.54152616  1
  S2-  S234  1  0.39185047  0.24735706  0.04452364  1
  S2-  S235  1  0.37490277  0.23166591  0.55725095  1
  S2-  S236  1  0.39026041  0.49827701  0.05301414  1
  S2-  S237  1  0.36798973  0.48237285  0.55264473  1
  S2-  S238  1  0.39069608  0.74416524  0.05345917  1
  S2-  S239  1  0.36365994  0.73231830  0.54066430  1
  S2-  S240  1  0.63929000  0.00073282  0.03666729  1
  S2-  S241  1  0.61746100  -0.02143894  0.54221316  1
  S2-  S242  1  0.63684614  0.24870929  0.04191131  1
  S2-  S243  1  0.61612436  0.23211170  0.53907958  1
  S2-  S244  1  0.64158392  0.49684693  0.05034841  1
  S2-  S245  1  0.61720723  0.48597432  0.54043480  1
  S2-  S246  1  0.63879623  0.74166529  0.04223713  1
  S2-  S247  1  0.61789965  0.73199106  0.53182379  1
  S2-  S248  1  0.88904405  -0.00033670  0.03907266  1
  S2-  S249  1  0.86534575  -0.02113830  0.54325283  1
  S2-  S250  1  0.88835736  0.24740173  0.03584369  1
  S2-  S251  1  0.86643610  0.23079059  0.54742339  1
  S2-  S252  1  0.89033474  0.49546748  0.04645026  1
  S2-  S253  1  0.86772284  0.48416372  0.54569801  1
  S2-  S254  1  0.89295756  0.74688434  0.04485277  1
  S2-  S255  1  0.86326657  0.73363627  0.53244222  1
