# generated using pymatgen
data_La6Ce6Pr19Nd20Sm13(BiS2)64
_symmetry_space_group_name_H-M   'P 1'
_cell_length_a   16.12036633
_cell_length_b   16.08725094
_cell_length_c   27.37106947
_cell_angle_alpha   90.23762823
_cell_angle_beta   90.38188082
_cell_angle_gamma   90.01444130
_symmetry_Int_Tables_number   1
_chemical_formula_structural   La6Ce6Pr19Nd20Sm13(BiS2)64
_chemical_formula_sum   'La6 Ce6 Pr19 Nd20 Sm13 Bi64 S128'
_cell_volume   7097.98556282
_cell_formula_units_Z   1
loop_
 _symmetry_equiv_pos_site_id
 _symmetry_equiv_pos_as_xyz
  1  'x, y, z'
loop_
 _atom_type_symbol
 _atom_type_oxidation_number
  La3+  3.0
  Ce3+  3.0
  Pr3+  3.0
  Nd3+  3.0
  Sm3+  3.0
  Bi2+  2.0
  S2-  -2.0
loop_
 _atom_site_type_symbol
 _atom_site_label
 _atom_site_symmetry_multiplicity
 _atom_site_fract_x
 _atom_site_fract_y
 _atom_site_fract_z
 _atom_site_occupancy
  La3+  La0  1  0.73558608  0.11751346  0.07177893  1
  La3+  La1  1  0.35796106  0.48720152  0.92431967  1
  La3+  La2  1  0.74591596  0.60944571  0.07986061  1
  La3+  La3  1  0.51093229  0.90346787  0.56321889  1
  La3+  La4  1  0.63557711  0.53310220  0.40166217  1
  La3+  La5  1  0.23427512  0.37203254  0.08573293  1
  Ce3+  Ce6  1  0.13069955  0.28050280  0.44496345  1
  Ce3+  Ce7  1  0.48990370  0.11901038  0.06495930  1
  Ce3+  Ce8  1  -0.01543996  0.61886887  0.05425069  1
  Ce3+  Ce9  1  0.63361944  0.77691906  0.43382128  1
  Ce3+  Ce10  1  0.11370449  0.24203855  0.94524709  1
  Ce3+  Ce11  1  0.38227328  0.02984728  0.44261053  1
  Pr3+  Pr12  1  0.63344989  0.02885537  0.43983707  1
  Pr3+  Pr13  1  0.13293556  0.02954790  0.44680074  1
  Pr3+  Pr14  1  0.26137410  0.41305100  0.56209039  1
  Pr3+  Pr15  1  0.24078718  0.61762102  0.06804782  1
  Pr3+  Pr16  1  0.86013736  0.49134914  0.92677496  1
  Pr3+  Pr17  1  -0.01303181  0.36728295  0.06488463  1
  Pr3+  Pr18  1  0.02299376  0.90531820  0.58664584  1
  Pr3+  Pr19  1  0.86268091  0.23952649  0.93185560  1
  Pr3+  Pr20  1  0.75703266  0.40783231  0.56341429  1
  Pr3+  Pr21  1  0.75599022  0.65151400  0.56689293  1
  Pr3+  Pr22  1  0.88221398  0.53232853  0.43372986  1
  Pr3+  Pr23  1  0.23955509  0.87307083  0.07192779  1
  Pr3+  Pr24  1  0.26399309  0.16478507  0.56652028  1
  Pr3+  Pr25  1  0.36378277  -0.01117731  0.93590148  1
  Pr3+  Pr26  1  0.50912389  0.16240710  0.55449111  1
  Pr3+  Pr27  1  0.75815054  0.91403200  0.58094741  1
  Pr3+  Pr28  1  0.00645008  0.40695101  0.56659215  1
  Pr3+  Pr29  1  0.36819823  0.52997556  0.41352723  1
  Pr3+  Pr30  1  0.36120582  0.24706221  0.94639492  1
  Nd3+  Nd31  1  0.26851388  0.90479730  0.56500616  1
  Nd3+  Nd32  1  0.37813715  0.77755306  0.42575133  1
  Nd3+  Nd33  1  -0.01723804  0.11392693  0.05671148  1
  Nd3+  Nd34  1  0.11446782  -0.01683137  0.92870532  1
  Nd3+  Nd35  1  0.85083774  -0.01144290  0.92383333  1
  Nd3+  Nd36  1  0.27169600  0.65069095  0.56200833  1
  Nd3+  Nd37  1  0.88229093  0.02769981  0.44813754  1
  Nd3+  Nd38  1  0.49253704  0.87024069  0.06734357  1
  Nd3+  Nd39  1  0.88123685  0.78108088  0.45355715  1
  Nd3+  Nd40  1  0.75633741  0.16217237  0.57168501  1
  Nd3+  Nd41  1  0.61284032  0.74051446  0.94996170  1
  Nd3+  Nd42  1  0.63841594  0.27993832  0.42909340  1
  Nd3+  Nd43  1  0.74668141  0.86842042  0.06629683  1
  Nd3+  Nd44  1  0.00884902  0.65571791  0.56951514  1
  Nd3+  Nd45  1  0.48826728  0.37286466  0.07110474  1
  Nd3+  Nd46  1  -0.00530534  0.87401528  0.06852860  1
  Nd3+  Nd47  1  0.00833679  0.15790324  0.57053088  1
  Nd3+  Nd48  1  0.60609649  0.49576516  0.93206333  1
  Nd3+  Nd49  1  0.60978398  0.24482361  0.94327068  1
  Nd3+  Nd50  1  0.38125919  0.28314647  0.42815532  1
  Sm3+  Sm51  1  0.49160853  0.61674566  0.06376651  1
  Sm3+  Sm52  1  0.73872510  0.37172970  0.05441748  1
  Sm3+  Sm53  1  0.13078790  0.78160369  0.44852281  1
  Sm3+  Sm54  1  0.12828906  0.53207303  0.43847846  1
  Sm3+  Sm55  1  0.88129933  0.28081819  0.44328096  1
  Sm3+  Sm56  1  0.23924577  0.11759145  0.05519688  1
  Sm3+  Sm57  1  0.60890316  -0.00664252  0.93612257  1
  Sm3+  Sm58  1  0.11679669  0.48998487  0.94528366  1
  Sm3+  Sm59  1  0.50910147  0.65168958  0.54460418  1
  Sm3+  Sm60  1  0.85765058  0.73611902  0.93692261  1
  Sm3+  Sm61  1  0.50944261  0.40887958  0.53913669  1
  Sm3+  Sm62  1  0.11282655  0.74452857  0.94549869  1
  Sm3+  Sm63  1  0.36297259  0.74240845  0.95325766  1
  Bi2+  Bi64  1  0.02235583  0.13689813  0.25454691  1
  Bi2+  Bi65  1  0.00138680  0.12456484  0.79493906  1
  Bi2+  Bi66  1  -0.01329776  0.36555048  0.29745883  1
  Bi2+  Bi67  1  0.00107738  0.40858032  0.78698789  1
  Bi2+  Bi68  1  -0.00908959  0.55890201  0.31806330  1
  Bi2+  Bi69  1  -0.02195630  0.60527187  0.79800926  1
  Bi2+  Bi70  1  0.05047936  0.84975982  0.29980802  1
  Bi2+  Bi71  1  -0.02240439  0.92447023  0.80736060  1
  Bi2+  Bi72  1  0.20346500  0.09893461  0.29528019  1
  Bi2+  Bi73  1  0.20666926  0.09734230  0.77990756  1
  Bi2+  Bi74  1  0.25123967  0.36593373  0.30538228  1
  Bi2+  Bi75  1  0.25969331  0.36520398  0.79353830  1
  Bi2+  Bi76  1  0.23799585  0.64705076  0.28756265  1
  Bi2+  Bi77  1  0.28964062  0.57258392  0.78251447  1
  Bi2+  Bi78  1  0.34572074  0.87298170  0.29048186  1
  Bi2+  Bi79  1  0.24766868  0.84553146  0.80374735  1
  Bi2+  Bi80  1  0.48358213  0.04851194  0.28622634  1
  Bi2+  Bi81  1  0.47190010  0.11980944  0.78674676  1
  Bi2+  Bi82  1  0.49123617  0.33296431  0.27547175  1
  Bi2+  Bi83  1  0.51572940  0.40033548  0.80190622  1
  Bi2+  Bi84  1  0.43537867  0.70033907  0.25037025  1
  Bi2+  Bi85  1  0.55505577  0.61894852  0.70927592  1
  Bi2+  Bi86  1  0.53631371  0.83046561  0.31494947  1
  Bi2+  Bi87  1  0.50961087  0.85839021  0.79681912  1
  Bi2+  Bi88  1  0.76393062  0.12211142  0.29974461  1
  Bi2+  Bi89  1  0.76633224  0.07697332  0.77004689  1
  Bi2+  Bi90  1  0.72636420  0.36747668  0.29234940  1
  Bi2+  Bi91  1  0.77887073  0.36152025  0.77252912  1
  Bi2+  Bi92  1  0.80448409  0.65033559  0.30406508  1
  Bi2+  Bi93  1  0.70707576  0.63604501  0.78299691  1
  Bi2+  Bi94  1  0.80734107  0.88831065  0.29534786  1
  Bi2+  Bi95  1  0.72364711  0.85414067  0.79648865  1
  Bi2+  Bi96  1  0.12283851  -0.03057717  0.21576549  1
  Bi2+  Bi97  1  0.08859232  -0.03512529  0.72335406  1
  Bi2+  Bi98  1  0.17184072  0.23227991  0.20833067  1
  Bi2+  Bi99  1  0.11756099  0.26078146  0.74420997  1
  Bi2+  Bi100  1  0.07991865  0.47989707  0.21884017  1
  Bi2+  Bi101  1  0.12460765  0.51747998  0.71558777  1
  Bi2+  Bi102  1  0.06311198  0.68036560  0.23508025  1
  Bi2+  Bi103  1  0.13856170  0.69814934  0.76093964  1
  Bi2+  Bi104  1  0.38871963  -0.05990570  0.18255638  1
  Bi2+  Bi105  1  0.32554177  -0.03866047  0.70726093  1
  Bi2+  Bi106  1  0.36703590  0.12992063  0.20642546  1
  Bi2+  Bi107  1  0.38764290  0.21896055  0.70070820  1
  Bi2+  Bi108  1  0.37047939  0.47352986  0.19864943  1
  Bi2+  Bi109  1  0.38279387  0.47593992  0.68068400  1
  Bi2+  Bi110  1  0.27523242  0.77421535  0.19250179  1
  Bi2+  Bi111  1  0.40110316  0.72286757  0.74983215  1
  Bi2+  Bi112  1  0.61749301  0.01072726  0.20954571  1
  Bi2+  Bi113  1  0.54636899  -0.01150954  0.71466935  1
  Bi2+  Bi114  1  0.70179596  0.22399031  0.21068669  1
  Bi2+  Bi115  1  0.63730316  0.22631196  0.75143364  1
  Bi2+  Bi116  1  0.61699753  0.52608604  0.20379068  1
  Bi2+  Bi117  1  0.64795347  0.42255294  0.69050037  1
  Bi2+  Bi118  1  0.66825860  0.80351389  0.23283253  1
  Bi2+  Bi119  1  0.70603027  0.74442885  0.68530102  1
  Bi2+  Bi120  1  0.88052979  0.00043729  0.19455588  1
  Bi2+  Bi121  1  0.84334327  -0.08949009  0.70883358  1
  Bi2+  Bi122  1  0.89292777  0.27276347  0.20713836  1
  Bi2+  Bi123  1  0.89760302  0.15868763  0.69713602  1
  Bi2+  Bi124  1  0.88031708  0.47162120  0.20330307  1
  Bi2+  Bi125  1  0.89438813  0.42469704  0.68827423  1
  Bi2+  Bi126  1  0.87532506  0.73549792  0.21357278  1
  Bi2+  Bi127  1  0.89701416  0.71602306  0.71437867  1
  S2-  S128  1  0.01481368  0.01126647  0.13728576  1
  S2-  S129  1  0.00889379  0.04889269  0.64895561  1
  S2-  S130  1  0.08814556  0.35295786  0.14864731  1
  S2-  S131  1  -0.00869503  0.28401645  0.64453914  1
  S2-  S132  1  -0.09609501  0.60611870  0.13995211  1
  S2-  S133  1  0.00400240  0.52965343  0.64117336  1
  S2-  S134  1  -0.12449644  0.84746901  0.14133968  1
  S2-  S135  1  0.01055714  0.76377745  0.64972603  1
  S2-  S136  1  0.23071178  0.08312145  0.15138165  1
  S2-  S137  1  0.27062405  0.11527354  0.66302816  1
  S2-  S138  1  0.31677861  0.32579854  0.17389371  1
  S2-  S139  1  0.29356471  0.32917807  0.65105573  1
  S2-  S140  1  0.23891717  0.52318239  0.15245620  1
  S2-  S141  1  0.24345818  0.53973907  0.63800724  1
  S2-  S142  1  0.12652886  0.84453761  0.14690104  1
  S2-  S143  1  0.18473042  0.89934540  0.65203998  1
  S2-  S144  1  0.59100805  0.14099197  0.14534620  1
  S2-  S145  1  0.51774519  0.13280249  0.65302063  1
  S2-  S146  1  0.52037092  0.38595412  0.17078737  1
  S2-  S147  1  0.50688096  0.38526150  0.63752305  1
  S2-  S148  1  0.47745209  0.60572820  0.16180198  1
  S2-  S149  1  0.43111559  0.62969466  0.63135880  1
  S2-  S150  1  0.54362730  0.86510193  0.16266018  1
  S2-  S151  1  0.39511360  0.87743894  0.63845979  1
  S2-  S152  1  0.87217435  0.14686956  0.13675132  1
  S2-  S153  1  0.77437527  0.05327340  0.65047895  1
  S2-  S154  1  0.73761460  0.45531281  0.14243209  1
  S2-  S155  1  0.73393312  0.29192870  0.64037245  1
  S2-  S156  1  0.68825076  0.66553756  0.17256123  1
  S2-  S157  1  0.76853907  0.52638107  0.64171906  1
  S2-  S158  1  0.73443675  0.98473852  0.14282947  1
  S2-  S159  1  0.62049367  0.89054796  0.64468927  1
  S2-  S160  1  0.10071011  -0.00382067  0.34978717  1
  S2-  S161  1  0.24890352  -0.00171977  0.85683772  1
  S2-  S162  1  0.11140448  0.28227736  0.34816523  1
  S2-  S163  1  0.15779371  0.26275861  0.85228112  1
  S2-  S164  1  0.20948981  0.51723049  0.35270223  1
  S2-  S165  1  0.21105728  0.49195195  0.86260361  1
  S2-  S166  1  0.16764975  0.77217707  0.35225740  1
  S2-  S167  1  0.10718036  0.84103682  0.86441936  1
  S2-  S168  1  0.34100936  0.02189518  0.34860192  1
  S2-  S169  1  0.48512382  -0.01107157  0.86135329  1
  S2-  S170  1  0.36734568  0.25061318  0.33018031  1
  S2-  S171  1  0.37989497  0.33423281  0.85916787  1
  S2-  S172  1  0.39115253  0.44765872  0.32012544  1
  S2-  S173  1  0.48101081  0.52638767  0.85563573  1
  S2-  S174  1  0.37932405  0.66552574  0.34797001  1
  S2-  S175  1  0.37020031  0.76281510  0.85584550  1
  S2-  S176  1  0.63783143  0.03296515  0.33938131  1
  S2-  S177  1  0.70723649  -0.00837574  0.85405262  1
  S2-  S178  1  0.60266471  0.26007159  0.33158588  1
  S2-  S179  1  0.58447362  0.21255049  0.84541490  1
  S2-  S180  1  0.59276836  0.47324073  0.30377135  1
  S2-  S181  1  0.66117124  0.44029015  0.83964672  1
  S2-  S182  1  0.64751178  0.68798097  0.34918815  1
  S2-  S183  1  0.61593370  0.73820865  0.84970421  1
  S2-  S184  1  0.87199591  0.02078832  0.34797547  1
  S2-  S185  1  0.85956903  0.12526485  0.85343824  1
  S2-  S186  1  0.83676434  0.26615695  0.34884935  1
  S2-  S187  1  0.87962132  0.36011716  0.85769937  1
  S2-  S188  1  0.78578003  0.50182763  0.34973306  1
  S2-  S189  1  0.83358961  0.61993463  0.85720258  1
  S2-  S190  1  0.90332435  0.78055430  0.35389346  1
  S2-  S191  1  0.86053001  0.84458028  0.86077378  1
  S2-  S192  1  0.00458077  0.15526237  0.45767485  1
  S2-  S193  1  -0.00650697  0.11284692  0.95024516  1
  S2-  S194  1  0.00557954  0.40550497  0.45380549  1
  S2-  S195  1  -0.00523605  0.36894878  0.95774968  1
  S2-  S196  1  0.00884375  0.65795462  0.45854856  1
  S2-  S197  1  -0.00616259  0.61592797  0.94886323  1
  S2-  S198  1  0.00851726  0.90344570  0.46764059  1
  S2-  S199  1  -0.01422127  0.86161493  0.96215494  1
  S2-  S200  1  0.25844385  0.15737479  0.45477519  1
  S2-  S201  1  0.23952147  0.11893866  0.95326947  1
  S2-  S202  1  0.25434097  0.40370317  0.45305880  1
  S2-  S203  1  0.23541384  0.36754143  0.96923638  1
  S2-  S204  1  0.25199379  0.65560553  0.45522095  1
  S2-  S205  1  0.23805793  0.62095123  0.96066314  1
  S2-  S206  1  0.25797773  0.90252057  0.45588802  1
  S2-  S207  1  0.24120214  0.86314190  0.96474493  1
  S2-  S208  1  0.50746145  0.15762673  0.44602309  1
  S2-  S209  1  0.48512186  0.12099544  0.95968688  1
  S2-  S210  1  0.51103598  0.40616026  0.43478176  1
  S2-  S211  1  0.48891648  0.37077188  0.96311343  1
  S2-  S212  1  0.50809609  0.65117386  0.44276502  1
  S2-  S213  1  0.48397275  0.61990161  0.96114845  1
  S2-  S214  1  0.50613400  0.90316939  0.45060342  1
  S2-  S215  1  0.48744169  0.86350091  0.96153858  1
  S2-  S216  1  0.75919343  0.15451385  0.45761163  1
  S2-  S217  1  0.73026201  0.11972310  0.95848685  1
  S2-  S218  1  0.75636296  0.40412725  0.45351934  1
  S2-  S219  1  0.73370073  0.36841003  0.95239261  1
  S2-  S220  1  0.75757118  0.65411343  0.45732116  1
  S2-  S221  1  0.73220762  0.61309604  0.96142263  1
  S2-  S222  1  0.75649994  0.90424140  0.45976658  1
  S2-  S223  1  0.73138781  0.86592902  0.96001397  1
  S2-  S224  1  0.12062854  -0.00605314  0.03556730  1
  S2-  S225  1  0.14032898  0.03463149  0.55137266  1
  S2-  S226  1  0.11300215  0.23666562  0.05005374  1
  S2-  S227  1  0.13498309  0.28320617  0.55011269  1
  S2-  S228  1  0.11040774  0.49618424  0.04825229  1
  S2-  S229  1  0.13213791  0.53312210  0.53946537  1
  S2-  S230  1  0.11387533  0.73885961  0.04758150  1
  S2-  S231  1  0.14275507  0.77371720  0.55045163  1
  S2-  S232  1  0.36552055  -0.00517236  0.04651492  1
  S2-  S233  1  0.38502266  0.03569438  0.54656197  1
  S2-  S234  1  0.36380023  0.24293721  0.05390709  1
  S2-  S235  1  0.38519157  0.28510775  0.53504134  1
  S2-  S236  1  0.36660826  0.49468178  0.05001708  1
  S2-  S237  1  0.38569290  0.52750807  0.52507220  1
  S2-  S238  1  0.36672912  0.74336093  0.05804752  1
  S2-  S239  1  0.38558008  0.77566435  0.53150185  1
  S2-  S240  1  0.60962756  -0.00737090  0.04211540  1
  S2-  S241  1  0.63433282  0.03548931  0.54552434  1
  S2-  S242  1  0.61345915  0.25233551  0.04770546  1
  S2-  S243  1  0.63146707  0.28293249  0.53468712  1
  S2-  S244  1  0.61050698  0.49373630  0.04486661  1
  S2-  S245  1  0.62937658  0.53040048  0.54057149  1
  S2-  S246  1  0.61474429  0.74190068  0.05555783  1
  S2-  S247  1  0.63345062  0.77451480  0.54064783  1
  S2-  S248  1  0.86166234  -0.00778353  0.03457279  1
  S2-  S249  1  0.88463755  0.03059706  0.55062059  1
  S2-  S250  1  0.86105925  0.25022367  0.03788378  1
  S2-  S251  1  0.88184777  0.27901873  0.54419184  1
  S2-  S252  1  0.86626396  0.48847748  0.03554360  1
  S2-  S253  1  0.88418601  0.53323699  0.53866489  1
  S2-  S254  1  0.86048143  0.73773465  0.03997877  1
  S2-  S255  1  0.87688211  0.78320069  0.55713988  1
