# generated using pymatgen
data_La6Ce6Pr19Nd20Sm13(BiS2)64
_symmetry_space_group_name_H-M   'P 1'
_cell_length_a   16.07462165
_cell_length_b   16.03955295
_cell_length_c   27.35914160
_cell_angle_alpha   90.13381036
_cell_angle_beta   90.48729789
_cell_angle_gamma   90.11489960
_symmetry_Int_Tables_number   1
_chemical_formula_structural   La6Ce6Pr19Nd20Sm13(BiS2)64
_chemical_formula_sum   'La6 Ce6 Pr19 Nd20 Sm13 Bi64 S128'
_cell_volume   7053.71167986
_cell_formula_units_Z   1
loop_
 _symmetry_equiv_pos_site_id
 _symmetry_equiv_pos_as_xyz
  1  'x, y, z'
loop_
 _atom_type_symbol
 _atom_type_oxidation_number
  La3+  3.0
  Ce3+  3.0
  Pr3+  3.0
  Nd3+  3.0
  Sm3+  3.0
  Bi2+  2.0
  S2-  -2.0
loop_
 _atom_site_type_symbol
 _atom_site_label
 _atom_site_symmetry_multiplicity
 _atom_site_fract_x
 _atom_site_fract_y
 _atom_site_fract_z
 _atom_site_occupancy
  La3+  La0  1  0.26763780  0.62817108  0.59401494  1
  La3+  La1  1  0.62866854  0.24735777  0.89479480  1
  La3+  La2  1  0.49435193  0.63566425  0.10402689  1
  La3+  La3  1  0.38311074  0.49737376  0.43617320  1
  La3+  La4  1  0.13173028  0.50274636  0.39622610  1
  La3+  La5  1  0.50430747  0.38057561  0.06894887  1
  Ce3+  Ce6  1  0.39174918  -0.00221409  0.43101446  1
  Ce3+  Ce7  1  0.51171220  0.62761206  0.56078015  1
  Ce3+  Ce8  1  0.74723626  0.88381081  0.06625417  1
  Ce3+  Ce9  1  0.37158796  0.00828727  0.94545589  1
  Ce3+  Ce10  1  0.12367456  0.00225516  0.93645567  1
  Ce3+  Ce11  1  0.89142966  0.49436593  0.44138038  1
  Pr3+  Pr12  1  0.26105216  0.87596780  0.56449153  1
  Pr3+  Pr13  1  0.89100657  0.74806287  0.43882990  1
  Pr3+  Pr14  1  0.13822201  0.75407758  0.43414368  1
  Pr3+  Pr15  1  0.12326090  0.50969970  0.93484186  1
  Pr3+  Pr16  1  0.38292895  0.74388713  0.42805763  1
  Pr3+  Pr17  1  0.86920653  0.51042000  0.93573239  1
  Pr3+  Pr18  1  0.37217984  0.25703476  0.93968950  1
  Pr3+  Pr19  1  -0.00292201  0.63132837  0.06670427  1
  Pr3+  Pr20  1  0.75764718  0.13194074  0.07232974  1
  Pr3+  Pr21  1  0.24572023  0.13525458  0.06926339  1
  Pr3+  Pr22  1  0.63708595  0.74640360  0.43666240  1
  Pr3+  Pr23  1  0.27420439  0.12694082  0.56038349  1
  Pr3+  Pr24  1  0.88107300  0.00397543  0.43037593  1
  Pr3+  Pr25  1  0.51487691  0.87340587  0.55690475  1
  Pr3+  Pr26  1  0.50187448  0.13345655  0.06585775  1
  Pr3+  Pr27  1  0.39013136  0.25248038  0.42801759  1
  Pr3+  Pr28  1  -0.00106789  0.88065792  0.06048462  1
  Pr3+  Pr29  1  0.51210067  0.37739676  0.57008710  1
  Pr3+  Pr30  1  0.51979121  0.12552866  0.55948304  1
  Nd3+  Nd31  1  0.61753458  0.50490372  0.93618026  1
  Nd3+  Nd32  1  0.61953865  0.75538958  0.94136602  1
  Nd3+  Nd33  1  0.24749402  0.87798137  0.06275565  1
  Nd3+  Nd34  1  0.49864506  0.88165534  0.06636476  1
  Nd3+  Nd35  1  0.76228072  0.12381283  0.56219512  1
  Nd3+  Nd36  1  0.26358944  0.37665141  0.56746993  1
  Nd3+  Nd37  1  0.01773702  0.62428652  0.55842970  1
  Nd3+  Nd38  1  0.86944033  0.76001369  0.93373392  1
  Nd3+  Nd39  1  -0.00477267  0.38178566  0.05899289  1
  Nd3+  Nd40  1  0.13257462  -0.00011288  0.42491477  1
  Nd3+  Nd41  1  0.74392125  0.63710134  0.07198365  1
  Nd3+  Nd42  1  0.01728623  0.87885811  0.56087097  1
  Nd3+  Nd43  1  0.11849171  0.75239325  0.92363705  1
  Nd3+  Nd44  1  0.86798411  0.00837228  0.93688065  1
  Nd3+  Nd45  1  0.24377542  0.62619734  0.07764147  1
  Nd3+  Nd46  1  0.12470649  0.26349302  0.92711756  1
  Nd3+  Nd47  1  0.76757248  0.62704007  0.55492445  1
  Nd3+  Nd48  1  0.76716272  0.37498184  0.57375688  1
  Nd3+  Nd49  1  0.24701157  0.38203736  0.06731503  1
  Nd3+  Nd50  1  0.87135391  0.25728622  0.93098842  1
  Sm3+  Sm51  1  0.61960642  0.00048748  0.93772817  1
  Sm3+  Sm52  1  0.36988869  0.50832553  0.94832466  1
  Sm3+  Sm53  1  0.36910375  0.75230344  0.94808804  1
  Sm3+  Sm54  1  0.74510711  0.38157969  0.04817252  1
  Sm3+  Sm55  1  -0.00081932  0.13269247  0.04915302  1
  Sm3+  Sm56  1  0.63794562  0.49632090  0.45135150  1
  Sm3+  Sm57  1  0.63509694  0.25747264  0.43317034  1
  Sm3+  Sm58  1  0.13902424  0.25293457  0.44179317  1
  Sm3+  Sm59  1  0.01940376  0.12568579  0.55805825  1
  Sm3+  Sm60  1  0.01865929  0.37749440  0.56975573  1
  Sm3+  Sm61  1  0.63356711  0.00132077  0.42803168  1
  Sm3+  Sm62  1  0.76676393  0.87713156  0.55272022  1
  Sm3+  Sm63  1  0.88923791  0.25200296  0.44797960  1
  Bi2+  Bi64  1  -0.00811913  0.13544315  0.28115445  1
  Bi2+  Bi65  1  -0.05122911  0.07860556  0.80911142  1
  Bi2+  Bi66  1  -0.01906258  0.35576467  0.28951739  1
  Bi2+  Bi67  1  0.01040837  0.26729180  0.80637269  1
  Bi2+  Bi68  1  -0.03625622  0.64197593  0.29182846  1
  Bi2+  Bi69  1  -0.09501468  0.61147810  0.79386315  1
  Bi2+  Bi70  1  0.02514341  0.88499929  0.29145995  1
  Bi2+  Bi71  1  -0.00401568  0.86980456  0.79332056  1
  Bi2+  Bi72  1  0.19607555  0.13728190  0.31215745  1
  Bi2+  Bi73  1  0.15182502  0.10404468  0.81473608  1
  Bi2+  Bi74  1  0.24856145  0.34064012  0.28897766  1
  Bi2+  Bi75  1  0.23586543  0.36378533  0.79436501  1
  Bi2+  Bi76  1  0.26702417  0.68982810  0.30803495  1
  Bi2+  Bi77  1  0.27205171  0.60510413  0.79653570  1
  Bi2+  Bi78  1  0.20374854  0.97456522  0.24124641  1
  Bi2+  Bi79  1  0.24794954  0.82315173  0.79013792  1
  Bi2+  Bi80  1  0.39168899  0.14414908  0.29802020  1
  Bi2+  Bi81  1  0.50260958  0.09844938  0.79408513  1
  Bi2+  Bi82  1  0.50974362  0.35999775  0.29355205  1
  Bi2+  Bi83  1  0.48031053  0.36510665  0.79686881  1
  Bi2+  Bi84  1  0.56558576  0.59191108  0.32295901  1
  Bi2+  Bi85  1  0.55120626  0.61027675  0.79476260  1
  Bi2+  Bi86  1  0.59312711  0.95725506  0.27606906  1
  Bi2+  Bi87  1  0.52554107  0.86917290  0.77830165  1
  Bi2+  Bi88  1  0.73402330  0.21023070  0.29819830  1
  Bi2+  Bi89  1  0.76198183  0.02521630  0.77870185  1
  Bi2+  Bi90  1  0.78305538  0.40319141  0.27937146  1
  Bi2+  Bi91  1  0.83590355  0.32591698  0.76841392  1
  Bi2+  Bi92  1  0.76721840  0.60456744  0.27539776  1
  Bi2+  Bi93  1  0.73006219  0.63887425  0.84808366  1
  Bi2+  Bi94  1  0.77035459  0.88142282  0.28519840  1
  Bi2+  Bi95  1  0.71941179  0.80633625  0.78528076  1
  Bi2+  Bi96  1  0.05700052  0.05619657  0.17919054  1
  Bi2+  Bi97  1  0.07908653  0.00297396  0.71964408  1
  Bi2+  Bi98  1  0.11475495  0.23720261  0.21426010  1
  Bi2+  Bi99  1  0.11837093  0.23316914  0.71185299  1
  Bi2+  Bi100  1  0.11812341  0.51330107  0.21119959  1
  Bi2+  Bi101  1  0.08552993  0.50026862  0.70390623  1
  Bi2+  Bi102  1  0.11520130  0.78539429  0.20724697  1
  Bi2+  Bi103  1  0.14221286  0.75800794  0.70336121  1
  Bi2+  Bi104  1  0.34452047  0.07951515  0.18804365  1
  Bi2+  Bi105  1  0.29361520  0.00260385  0.75639043  1
  Bi2+  Bi106  1  0.37890328  0.27294105  0.21076524  1
  Bi2+  Bi107  1  0.31552976  0.18760252  0.71699626  1
  Bi2+  Bi108  1  0.36902147  0.52889328  0.21959083  1
  Bi2+  Bi109  1  0.43997686  0.48166033  0.71301595  1
  Bi2+  Bi110  1  0.38668299  0.79064318  0.22761294  1
  Bi2+  Bi111  1  0.42342368  0.75129281  0.71374684  1
  Bi2+  Bi112  1  0.52326580  0.00737456  0.17692621  1
  Bi2+  Bi113  1  0.61180526  -0.01487913  0.69908091  1
  Bi2+  Bi114  1  0.62330568  0.17181259  0.20616722  1
  Bi2+  Bi115  1  0.52507308  0.24095144  0.67987458  1
  Bi2+  Bi116  1  0.62683533  0.45244270  0.21338034  1
  Bi2+  Bi117  1  0.63927012  0.48696812  0.72038776  1
  Bi2+  Bi118  1  0.64612460  0.73637019  0.21505800  1
  Bi2+  Bi119  1  0.63125136  0.68400932  0.70036470  1
  Bi2+  Bi120  1  0.79599713  0.05038031  0.23097378  1
  Bi2+  Bi121  1  0.88189537  -0.05098199  0.67781632  1
  Bi2+  Bi122  1  0.81872602  0.25475836  0.19588814  1
  Bi2+  Bi123  1  0.84001066  0.14175902  0.69998206  1
  Bi2+  Bi124  1  0.89159057  0.53557646  0.19253871  1
  Bi2+  Bi125  1  0.83985030  0.49552749  0.70845791  1
  Bi2+  Bi126  1  0.90958404  0.73016605  0.19240984  1
  Bi2+  Bi127  1  0.88046644  0.76715502  0.72022227  1
  S2-  S128  1  -0.07742108  0.14968473  0.13547946  1
  S2-  S129  1  -0.01197724  0.16012225  0.65329094  1
  S2-  S130  1  0.00306097  0.41490806  0.15733508  1
  S2-  S131  1  -0.10071186  0.38561068  0.64462519  1
  S2-  S132  1  0.10961045  0.64875865  0.14729729  1
  S2-  S133  1  0.02831831  0.64011818  0.65853218  1
  S2-  S134  1  -0.01880345  0.88390137  0.16133125  1
  S2-  S135  1  0.11762534  0.89251580  0.64257860  1
  S2-  S136  1  0.23041686  0.25952395  0.14185297  1
  S2-  S137  1  0.19708009  0.11752566  0.65152338  1
  S2-  S138  1  0.24099426  0.48137678  0.15273676  1
  S2-  S139  1  0.13788159  0.37539837  0.64520723  1
  S2-  S140  1  0.34455262  0.65819257  0.16104468  1
  S2-  S141  1  0.22798280  0.56638603  0.69313600  1
  S2-  S142  1  0.26000429  0.86011832  0.16279371  1
  S2-  S143  1  0.28337877  0.77778942  0.65026240  1
  S2-  S144  1  0.50639914  0.25234196  0.14462309  1
  S2-  S145  1  0.40508169  0.12599513  0.63745154  1
  S2-  S146  1  0.47733917  0.47679699  0.15535202  1
  S2-  S147  1  0.38631169  0.36637915  0.64535563  1
  S2-  S148  1  0.48990417  0.65152059  0.24454677  1
  S2-  S149  1  0.42961104  0.61847112  0.64644401  1
  S2-  S150  1  0.51097584  0.79872285  0.15494541  1
  S2-  S151  1  0.48654001  0.88547261  0.65587164  1
  S2-  S152  1  0.74485013  0.00026230  0.14126871  1
  S2-  S153  1  0.64377663  0.12269469  0.63679905  1
  S2-  S154  1  0.72770212  0.37585834  0.14734173  1
  S2-  S155  1  0.64019783  0.35933492  0.64481157  1
  S2-  S156  1  0.64771123  0.60266039  0.15477152  1
  S2-  S157  1  0.77909004  0.64116438  0.65351548  1
  S2-  S158  1  0.75840427  0.77446877  0.14382945  1
  S2-  S159  1  0.72641255  0.88963568  0.64732820  1
  S2-  S160  1  0.14805969  -0.12727926  0.35446719  1
  S2-  S161  1  0.13350279  -0.10808730  0.85920390  1
  S2-  S162  1  0.11641454  0.33641733  0.35577677  1
  S2-  S163  1  0.25405973  0.24072022  0.85802262  1
  S2-  S164  1  0.21397174  0.51177489  0.29877039  1
  S2-  S165  1  0.11186812  0.39622983  0.85364964  1
  S2-  S166  1  0.10567203  0.66283727  0.34680801  1
  S2-  S167  1  0.14948425  0.62063336  0.85508474  1
  S2-  S168  1  0.50939588  0.00020627  0.35647682  1
  S2-  S169  1  0.38227688  0.00047198  0.84778058  1
  S2-  S170  1  0.37399811  0.38099742  0.35630284  1
  S2-  S171  1  0.46388020  0.23011194  0.85527538  1
  S2-  S172  1  0.39844653  0.61150102  0.35547341  1
  S2-  S173  1  0.34467475  0.47508808  0.84988136  1
  S2-  S174  1  0.36731179  0.81457600  0.33068493  1
  S2-  S175  1  0.35476233  0.73030143  0.84855888  1
  S2-  S176  1  0.75429506  0.00256649  0.35658788  1
  S2-  S177  1  0.63547472  0.08267743  0.85083641  1
  S2-  S178  1  0.52448499  0.22982232  0.35560524  1
  S2-  S179  1  0.59423307  0.24040467  0.76404537  1
  S2-  S180  1  0.62349454  0.43202726  0.36076085  1
  S2-  S181  1  0.61098123  0.41020680  0.85081582  1
  S2-  S182  1  0.62267695  0.74910620  0.33673893  1
  S2-  S183  1  0.61120204  0.86817579  0.86395418  1
  S2-  S184  1  0.99532144  0.01334438  0.35436973  1
  S2-  S185  1  0.84990717  -0.07737984  0.85024902  1
  S2-  S186  1  0.89319815  0.23735488  0.34942532  1
  S2-  S187  1  0.78700386  0.23879411  0.84475782  1
  S2-  S188  1  0.96522764  0.49118828  0.35201189  1
  S2-  S189  1  0.88071068  0.45844960  0.83854173  1
  S2-  S190  1  0.89259471  0.79315653  0.34173169  1
  S2-  S191  1  0.97714401  0.73700162  0.85663748  1
  S2-  S192  1  0.01310034  0.13022566  0.45420538  1
  S2-  S193  1  -0.00054388  0.13215958  0.94560930  1
  S2-  S194  1  0.01374192  0.37323573  0.46356065  1
  S2-  S195  1  -0.00748479  0.38245909  0.95359064  1
  S2-  S196  1  0.01333937  0.62075743  0.45445421  1
  S2-  S197  1  -0.00512771  0.63082019  0.95985611  1
  S2-  S198  1  0.00815355  0.87828777  0.45623092  1
  S2-  S199  1  -0.00460351  0.88261890  0.95534037  1
  S2-  S200  1  0.26374838  0.12557744  0.44808247  1
  S2-  S201  1  0.24442820  0.12776509  0.96180476  1
  S2-  S202  1  0.25385485  0.37686479  0.45873096  1
  S2-  S203  1  0.24713967  0.38419970  0.96108056  1
  S2-  S204  1  0.25252745  0.62029032  0.44324852  1
  S2-  S205  1  0.24792587  0.63225535  0.96416786  1
  S2-  S206  1  0.26699137  0.87879815  0.45554918  1
  S2-  S207  1  0.25010490  0.87847947  0.95809060  1
  S2-  S208  1  0.51598529  0.12568386  0.45582233  1
  S2-  S209  1  0.49986215  0.12674044  0.95918610  1
  S2-  S210  1  0.51501789  0.37546507  0.46313349  1
  S2-  S211  1  0.49279986  0.38563393  0.95957734  1
  S2-  S212  1  0.51660371  0.62120371  0.45712404  1
  S2-  S213  1  0.49419699  0.63109181  0.94563703  1
  S2-  S214  1  0.51316599  0.86900023  0.45028347  1
  S2-  S215  1  0.49002893  0.87892845  0.96054065  1
  S2-  S216  1  0.75904235  0.13327490  0.45532239  1
  S2-  S217  1  0.74734148  0.13020766  0.95632622  1
  S2-  S218  1  0.76448910  0.37343108  0.45891729  1
  S2-  S219  1  0.74646277  0.38022112  0.94679582  1
  S2-  S220  1  0.76481777  0.62032974  0.44813373  1
  S2-  S221  1  0.74589549  0.63310809  0.96290832  1
  S2-  S222  1  0.76216968  0.87120992  0.45041918  1
  S2-  S223  1  0.74738772  0.88102202  0.95988012  1
  S2-  S224  1  0.12375026  0.00719151  0.04594591  1
  S2-  S225  1  0.14057671  0.00493398  0.53562379  1
  S2-  S226  1  0.11699933  0.25776315  0.03861625  1
  S2-  S227  1  0.13920777  0.24770454  0.54516487  1
  S2-  S228  1  0.11887319  0.50440942  0.04417330  1
  S2-  S229  1  0.14300070  0.50722631  0.55653560  1
  S2-  S230  1  0.12360229  0.75723291  0.04317909  1
  S2-  S231  1  0.13956196  0.74868438  0.54347562  1
  S2-  S232  1  0.37040595  0.00644022  0.05190717  1
  S2-  S233  1  0.39063063  -0.00448105  0.53820147  1
  S2-  S234  1  0.37157572  0.25617994  0.04594503  1
  S2-  S235  1  0.38975297  0.25435564  0.53591621  1
  S2-  S236  1  0.37411209  0.51093265  0.05047275  1
  S2-  S237  1  0.38364339  0.50543058  0.54515493  1
  S2-  S238  1  0.37332736  0.75514560  0.05109985  1
  S2-  S239  1  0.38621416  0.74866870  0.53967540  1
  S2-  S240  1  0.62188222  0.00656423  0.04290611  1
  S2-  S241  1  0.64202299  -0.00462760  0.53411117  1
  S2-  S242  1  0.63221474  0.25303446  0.04799212  1
  S2-  S243  1  0.64334022  0.25344672  0.53743945  1
  S2-  S244  1  0.62443116  0.50828126  0.04301206  1
  S2-  S245  1  0.64124812  0.50528906  0.55398960  1
  S2-  S246  1  0.61676250  0.75479399  0.04580954  1
  S2-  S247  1  0.64290920  0.75047155  0.54455733  1
  S2-  S248  1  0.87732403  0.00636363  0.04146932  1
  S2-  S249  1  0.89002351  0.00358131  0.54131505  1
  S2-  S250  1  0.87248720  0.25958708  0.03721828  1
  S2-  S251  1  0.88923456  0.24726419  0.54973327  1
  S2-  S252  1  0.86926359  0.50813578  0.04586007  1
  S2-  S253  1  0.88945438  0.50073856  0.54600108  1
  S2-  S254  1  0.87441000  0.75623614  0.04186986  1
  S2-  S255  1  0.89189643  0.75386488  0.54729997  1
