# generated using pymatgen
data_La6Ce6Pr19Nd20Sm13(BiS2)64
_symmetry_space_group_name_H-M   'P 1'
_cell_length_a   16.11371577
_cell_length_b   16.06640857
_cell_length_c   27.19218485
_cell_angle_alpha   90.05594073
_cell_angle_beta   90.04419483
_cell_angle_gamma   90.12401349
_symmetry_Int_Tables_number   1
_chemical_formula_structural   La6Ce6Pr19Nd20Sm13(BiS2)64
_chemical_formula_sum   'La6 Ce6 Pr19 Nd20 Sm13 Bi64 S128'
_cell_volume   7039.75030861
_cell_formula_units_Z   1
loop_
 _symmetry_equiv_pos_site_id
 _symmetry_equiv_pos_as_xyz
  1  'x, y, z'
loop_
 _atom_type_symbol
 _atom_type_oxidation_number
  La3+  3.0
  Ce3+  3.0
  Pr3+  3.0
  Nd3+  3.0
  Sm3+  3.0
  Bi2+  2.0
  S2-  -2.0
loop_
 _atom_site_type_symbol
 _atom_site_label
 _atom_site_symmetry_multiplicity
 _atom_site_fract_x
 _atom_site_fract_y
 _atom_site_fract_z
 _atom_site_occupancy
  La3+  La0  1  0.87736747  0.26759970  0.89726542  1
  La3+  La1  1  0.50644441  0.88671764  0.09099629  1
  La3+  La2  1  0.11426654  0.74635784  0.40750190  1
  La3+  La3  1  0.50115652  0.63500553  0.07618177  1
  La3+  La4  1  0.86195858  0.74131420  0.40076511  1
  La3+  La5  1  0.88045096  0.00470758  0.91875624  1
  Ce3+  Ce6  1  0.37953162  0.25906589  0.93658408  1
  Ce3+  Ce7  1  0.75434427  0.14017961  0.05706751  1
  Ce3+  Ce8  1  0.24517347  0.86573771  0.55378772  1
  Ce3+  Ce9  1  0.37970551  0.51176761  0.94122216  1
  Ce3+  Ce10  1  0.11961556  0.24340959  0.42883818  1
  Ce3+  Ce11  1  0.74668703  0.62536674  0.55381977  1
  Pr3+  Pr12  1  0.37814382  0.76574746  0.94572937  1
  Pr3+  Pr13  1  0.75578314  0.89572181  0.07455944  1
  Pr3+  Pr14  1  0.86659928  0.51246129  0.93033731  1
  Pr3+  Pr15  1  0.50068645  0.13734373  0.07049940  1
  Pr3+  Pr16  1  -0.00205502  0.86131214  0.55812774  1
  Pr3+  Pr17  1  -0.00415476  0.61973311  0.54731402  1
  Pr3+  Pr18  1  0.61838398  0.24027599  0.43298480  1
  Pr3+  Pr19  1  0.74119376  0.10746440  0.57919787  1
  Pr3+  Pr20  1  0.75111664  0.36134280  0.57348711  1
  Pr3+  Pr21  1  0.12512731  0.50979725  0.93975099  1
  Pr3+  Pr22  1  0.49494401  0.86626292  0.56819994  1
  Pr3+  Pr23  1  0.75245831  0.38234692  0.06679746  1
  Pr3+  Pr24  1  -0.00107139  0.11718800  0.56675834  1
  Pr3+  Pr25  1  0.62153559  0.50956874  0.93842269  1
  Pr3+  Pr26  1  0.61654228  0.74999764  0.42140280  1
  Pr3+  Pr27  1  0.50230346  0.37062065  0.57155672  1
  Pr3+  Pr28  1  -0.00407834  0.37221072  0.56230140  1
  Pr3+  Pr29  1  0.00043517  0.38645374  0.05718614  1
  Pr3+  Pr30  1  0.24332900  0.88566174  0.08923263  1
  Nd3+  Nd31  1  0.12632805  0.01087024  0.94015427  1
  Nd3+  Nd32  1  0.25219288  0.38340392  0.06401881  1
  Nd3+  Nd33  1  0.37316761  0.24543021  0.43591789  1
  Nd3+  Nd34  1  0.24003896  0.36911633  0.56347169  1
  Nd3+  Nd35  1  0.12044270  -0.00464520  0.43113423  1
  Nd3+  Nd36  1  0.12651556  0.76106822  0.94203963  1
  Nd3+  Nd37  1  0.25138539  0.63979949  0.06726138  1
  Nd3+  Nd38  1  0.86927304  0.23983003  0.44060667  1
  Nd3+  Nd39  1  0.24989747  0.13836639  0.06726303  1
  Nd3+  Nd40  1  0.37651575  0.01012419  0.95099127  1
  Nd3+  Nd41  1  0.62256413  -0.00534384  0.44100959  1
  Nd3+  Nd42  1  0.87376751  0.76298879  0.94006791  1
  Nd3+  Nd43  1  -0.00086435  0.13413653  0.05404364  1
  Nd3+  Nd44  1  0.12113792  0.49191207  0.42502310  1
  Nd3+  Nd45  1  0.62403030  0.26085128  0.93475897  1
  Nd3+  Nd46  1  0.74742072  0.86226488  0.56467600  1
  Nd3+  Nd47  1  0.75274122  0.63766159  0.06498555  1
  Nd3+  Nd48  1  0.62412670  0.76520012  0.94730255  1
  Nd3+  Nd49  1  0.86851001  -0.00640958  0.43909322  1
  Nd3+  Nd50  1  0.49488665  0.12540546  0.57076156  1
  Sm3+  Sm51  1  0.24382043  0.61775803  0.54870924  1
  Sm3+  Sm52  1  -0.00312531  0.88789435  0.06696559  1
  Sm3+  Sm53  1  0.37235924  0.49157037  0.44241915  1
  Sm3+  Sm54  1  0.24382958  0.12155070  0.55378128  1
  Sm3+  Sm55  1  0.62836253  0.01433028  0.94389967  1
  Sm3+  Sm56  1  0.00098451  0.63759000  0.05593547  1
  Sm3+  Sm57  1  0.37511359  0.74382383  0.43867968  1
  Sm3+  Sm58  1  0.62367495  0.49178262  0.44375807  1
  Sm3+  Sm59  1  0.50219878  0.38484479  0.07056125  1
  Sm3+  Sm60  1  0.49660888  0.61787654  0.55548677  1
  Sm3+  Sm61  1  0.37470309  -0.00591613  0.44956245  1
  Sm3+  Sm62  1  0.12633207  0.25999652  0.93834281  1
  Sm3+  Sm63  1  0.86893921  0.49146608  0.43310223  1
  Bi2+  Bi64  1  -0.00524669  0.17671218  0.29598772  1
  Bi2+  Bi65  1  0.00128277  0.12247149  0.78993591  1
  Bi2+  Bi66  1  -0.09782449  0.35124357  0.32212796  1
  Bi2+  Bi67  1  0.04848703  0.39836940  0.78828421  1
  Bi2+  Bi68  1  -0.00240067  0.51560801  0.28796891  1
  Bi2+  Bi69  1  0.03698428  0.59844107  0.78869503  1
  Bi2+  Bi70  1  -0.00790791  0.90919404  0.29296808  1
  Bi2+  Bi71  1  0.00413241  0.85805773  0.79042087  1
  Bi2+  Bi72  1  0.26093392  0.16227450  0.28272696  1
  Bi2+  Bi73  1  0.26359185  0.20761886  0.82421419  1
  Bi2+  Bi74  1  0.27795361  0.35376930  0.31202687  1
  Bi2+  Bi75  1  0.27773149  0.39813413  0.78775732  1
  Bi2+  Bi76  1  0.25115914  0.56611943  0.28060432  1
  Bi2+  Bi77  1  0.31030590  0.64527908  0.74290754  1
  Bi2+  Bi78  1  0.24414513  0.88727250  0.26724792  1
  Bi2+  Bi79  1  0.28200397  0.88471012  0.81866105  1
  Bi2+  Bi80  1  0.49635426  0.13134971  0.30122075  1
  Bi2+  Bi81  1  0.46450867  0.12624481  0.79632097  1
  Bi2+  Bi82  1  0.53191917  0.38484919  0.28196119  1
  Bi2+  Bi83  1  0.48268439  0.38857322  0.78739048  1
  Bi2+  Bi84  1  0.45761988  0.55328924  0.23782234  1
  Bi2+  Bi85  1  0.49391981  0.63977497  0.79384201  1
  Bi2+  Bi86  1  0.48917660  0.88007987  0.29531973  1
  Bi2+  Bi87  1  0.48811008  0.83864542  0.80493674  1
  Bi2+  Bi88  1  0.75926786  0.11047878  0.28654425  1
  Bi2+  Bi89  1  0.71953553  0.14310405  0.79468886  1
  Bi2+  Bi90  1  0.71533619  0.30724698  0.30642346  1
  Bi2+  Bi91  1  0.76224753  0.42415275  0.78534931  1
  Bi2+  Bi92  1  0.73561288  0.56527446  0.27849402  1
  Bi2+  Bi93  1  0.84312650  0.64663292  0.80566091  1
  Bi2+  Bi94  1  0.73639437  0.85092088  0.28075213  1
  Bi2+  Bi95  1  0.75711900  0.81293757  0.77248193  1
  Bi2+  Bi96  1  0.12492555  0.02881017  0.21122861  1
  Bi2+  Bi97  1  0.19698374  0.04292060  0.77663750  1
  Bi2+  Bi98  1  0.13743695  0.28746296  0.22598448  1
  Bi2+  Bi99  1  0.15104772  0.27493581  0.71556379  1
  Bi2+  Bi100  1  0.11212830  0.47686141  0.19735164  1
  Bi2+  Bi101  1  0.10072877  0.54367385  0.68670967  1
  Bi2+  Bi102  1  0.12400014  0.75389579  0.21114373  1
  Bi2+  Bi103  1  0.16933422  0.78875141  0.74237072  1
  Bi2+  Bi104  1  0.37526745  0.02710218  0.22892155  1
  Bi2+  Bi105  1  0.36533165  0.01145030  0.71443246  1
  Bi2+  Bi106  1  0.36326574  0.30370223  0.21138809  1
  Bi2+  Bi107  1  0.34130708  0.22030847  0.71122844  1
  Bi2+  Bi108  1  0.30076668  0.50314908  0.17288827  1
  Bi2+  Bi109  1  0.38893401  0.47868926  0.70244745  1
  Bi2+  Bi110  1  0.35934605  0.73103173  0.27560210  1
  Bi2+  Bi111  1  0.37808763  0.81509507  0.69368386  1
  Bi2+  Bi112  1  0.63963382  0.01015918  0.21435928  1
  Bi2+  Bi113  1  0.56178002  -0.00987194  0.73055328  1
  Bi2+  Bi114  1  0.62346681  0.23214510  0.21066633  1
  Bi2+  Bi115  1  0.60514261  0.24981972  0.70051107  1
  Bi2+  Bi116  1  0.66917960  0.43227792  0.19352251  1
  Bi2+  Bi117  1  0.60869520  0.51022200  0.72436213  1
  Bi2+  Bi118  1  0.61072804  0.72254248  0.21009737  1
  Bi2+  Bi119  1  0.62984832  0.70733003  0.70974594  1
  Bi2+  Bi120  1  0.88684320  0.00203668  0.20629281  1
  Bi2+  Bi121  1  0.87513927  0.00260054  0.70797184  1
  Bi2+  Bi122  1  0.87719439  0.25551729  0.21261894  1
  Bi2+  Bi123  1  0.90533495  0.27418515  0.69581619  1
  Bi2+  Bi124  1  0.85990183  0.45541271  0.20827097  1
  Bi2+  Bi125  1  0.86921446  0.53951764  0.71134137  1
  Bi2+  Bi126  1  0.88913118  0.73195828  0.21349715  1
  Bi2+  Bi127  1  0.90328537  0.75477896  0.69348825  1
  S2-  S128  1  0.00281420  0.10526472  0.15398132  1
  S2-  S129  1  -0.01741808  0.12566132  0.66858830  1
  S2-  S130  1  0.00411699  0.35276519  0.15669066  1
  S2-  S131  1  -0.11797278  0.41415709  0.64060235  1
  S2-  S132  1  0.00438763  0.65752648  0.15492152  1
  S2-  S133  1  0.02879811  0.68293894  0.64057784  1
  S2-  S134  1  -0.11555580  0.86320851  0.14731402  1
  S2-  S135  1  -0.02045949  0.89883670  0.65903954  1
  S2-  S136  1  0.25415336  0.03328060  0.14955962  1
  S2-  S137  1  0.21089142  0.15567384  0.64769247  1
  S2-  S138  1  0.24033019  0.26673783  0.14014294  1
  S2-  S139  1  0.12055268  0.38282370  0.63781276  1
  S2-  S140  1  0.24705361  0.73988190  0.15088183  1
  S2-  S141  1  0.24873561  0.58664884  0.64621163  1
  S2-  S142  1  0.09484448  0.88810958  0.15102380  1
  S2-  S143  1  0.22500171  0.85507053  0.65046344  1
  S2-  S144  1  0.50183168  0.02778157  0.15391550  1
  S2-  S145  1  0.59568580  0.09604612  0.65309431  1
  S2-  S146  1  0.48852140  0.26555641  0.14478960  1
  S2-  S147  1  0.46406782  0.25230671  0.64399498  1
  S2-  S148  1  0.52427254  0.50250725  0.14693273  1
  S2-  S149  1  0.50990110  0.60761043  0.65359147  1
  S2-  S150  1  0.48207876  0.74684423  0.15699230  1
  S2-  S151  1  0.55028992  0.85131403  0.66393859  1
  S2-  S152  1  0.76414245  0.04259718  0.14047473  1
  S2-  S153  1  0.76338386  0.22533937  0.65625199  1
  S2-  S154  1  0.75338392  0.25397499  0.14023910  1
  S2-  S155  1  0.62993238  0.38627215  0.64746394  1
  S2-  S156  1  0.76259720  0.66280828  0.16535678  1
  S2-  S157  1  0.75233242  0.72461741  0.63572243  1
  S2-  S158  1  0.65147419  0.86485050  0.15911538  1
  S2-  S159  1  0.76217496  0.96775824  0.64629748  1
  S2-  S160  1  0.11964782  0.11809882  0.35465121  1
  S2-  S161  1  0.04214650  -0.00860872  0.85306044  1
  S2-  S162  1  0.12349240  0.36248489  0.35583378  1
  S2-  S163  1  0.04926936  0.25557777  0.84980687  1
  S2-  S164  1  0.12614328  0.60198172  0.34476262  1
  S2-  S165  1  0.16525181  0.50636289  0.84164094  1
  S2-  S166  1  0.14162337  0.89392554  0.34841826  1
  S2-  S167  1  0.09984059  0.74492273  0.84314895  1
  S2-  S168  1  0.40157883  0.00083676  0.35267783  1
  S2-  S169  1  0.41174577  -0.01511179  0.85359730  1
  S2-  S170  1  0.48547298  0.26202139  0.35873847  1
  S2-  S171  1  0.49363736  0.26108699  0.86086726  1
  S2-  S172  1  0.37901560  0.49507785  0.34444798  1
  S2-  S173  1  0.49091752  0.51099405  0.86455920  1
  S2-  S174  1  0.47184872  0.73635151  0.35674512  1
  S2-  S175  1  0.36095490  0.71790579  0.84868487  1
  S2-  S176  1  0.61865780  -0.10540424  0.35441234  1
  S2-  S177  1  0.63138060  0.03856510  0.84427333  1
  S2-  S178  1  0.63230692  0.10870168  0.36173530  1
  S2-  S179  1  0.71419151  0.29089597  0.84988061  1
  S2-  S180  1  0.63544934  0.48468528  0.34462945  1
  S2-  S181  1  0.72959901  0.53422894  0.85816591  1
  S2-  S182  1  0.71814603  0.71559686  0.33597614  1
  S2-  S183  1  0.63105518  0.78058967  0.84674357  1
  S2-  S184  1  0.84756057  -0.09285472  0.34898649  1
  S2-  S185  1  0.84726649  0.04803522  0.81808297  1
  S2-  S186  1  0.87338017  0.12288871  0.36425360  1
  S2-  S187  1  0.87401732  0.23215966  0.78944223  1
  S2-  S188  1  0.86714000  0.57488358  0.34483123  1
  S2-  S189  1  0.90570523  0.42067294  0.84620845  1
  S2-  S190  1  0.98669394  0.75929821  0.32710872  1
  S2-  S191  1  0.86924604  0.85192038  0.85438169  1
  S2-  S192  1  -0.00124669  0.11714578  0.45992320  1
  S2-  S193  1  0.00031590  0.13709379  0.94864183  1
  S2-  S194  1  -0.00897495  0.36880152  0.45469566  1
  S2-  S195  1  0.00166751  0.38475316  0.95179288  1
  S2-  S196  1  -0.00784760  0.61823750  0.44231479  1
  S2-  S197  1  -0.00219272  0.63553890  0.95016787  1
  S2-  S198  1  -0.00360911  0.87015729  0.44919095  1
  S2-  S199  1  0.00317142  0.88235209  0.95998480  1
  S2-  S200  1  0.25231471  0.11882080  0.44991992  1
  S2-  S201  1  0.24954272  0.13492635  0.95767405  1
  S2-  S202  1  0.24948426  0.36988495  0.45631884  1
  S2-  S203  1  0.25119950  0.38443510  0.95301623  1
  S2-  S204  1  0.25323358  0.61992385  0.44449057  1
  S2-  S205  1  0.25072693  0.63651498  0.95784984  1
  S2-  S206  1  0.25360394  0.86792203  0.44798370  1
  S2-  S207  1  0.24842321  0.88655593  0.95667462  1
  S2-  S208  1  0.49185095  0.11932714  0.46352766  1
  S2-  S209  1  0.50178582  0.13269077  0.96110619  1
  S2-  S210  1  0.49743810  0.37347371  0.46119981  1
  S2-  S211  1  0.49805851  0.38510746  0.96523506  1
  S2-  S212  1  0.49745261  0.61270280  0.45180952  1
  S2-  S213  1  0.50106593  0.63957863  0.96433658  1
  S2-  S214  1  0.49196037  0.86951888  0.46072992  1
  S2-  S215  1  0.50444698  0.89039003  0.96197946  1
  S2-  S216  1  0.74491564  0.11803687  0.46731592  1
  S2-  S217  1  0.75514618  0.13750123  0.94699127  1
  S2-  S218  1  0.74608259  0.36695370  0.45518247  1
  S2-  S219  1  0.75240161  0.38483549  0.95853804  1
  S2-  S220  1  0.74416511  0.61695232  0.44930083  1
  S2-  S221  1  0.74941025  0.64193071  0.95980246  1
  S2-  S222  1  0.74481114  0.86498080  0.45668322  1
  S2-  S223  1  0.74858410  0.88936117  0.95766310  1
  S2-  S224  1  0.12507963  0.00975264  0.04484289  1
  S2-  S225  1  0.12380271  -0.00686279  0.54441594  1
  S2-  S226  1  0.12344196  0.26008337  0.04198374  1
  S2-  S227  1  0.12057462  0.24367857  0.53835133  1
  S2-  S228  1  0.12713763  0.51302097  0.04778688  1
  S2-  S229  1  0.12282521  0.49668876  0.53233273  1
  S2-  S230  1  0.12224590  0.76076538  0.04660821  1
  S2-  S231  1  0.12583570  0.74142082  0.52940621  1
  S2-  S232  1  0.37410769  0.00615285  0.05381567  1
  S2-  S233  1  0.36880025  -0.00365876  0.55549738  1
  S2-  S234  1  0.37461170  0.26148646  0.04183158  1
  S2-  S235  1  0.36399867  0.24767917  0.54174398  1
  S2-  S236  1  0.37411407  0.51041012  0.04676838  1
  S2-  S237  1  0.37089231  0.49248410  0.54786578  1
  S2-  S238  1  0.37363263  0.76693408  0.05139042  1
  S2-  S239  1  0.37090283  0.73834099  0.54451829  1
  S2-  S240  1  0.62540200  0.01358111  0.04736821  1
  S2-  S241  1  0.61678390  -0.01260372  0.54652657  1
  S2-  S242  1  0.62365381  0.26383316  0.04265368  1
  S2-  S243  1  0.62151276  0.24265706  0.54396238  1
  S2-  S244  1  0.63136510  0.51067915  0.04597144  1
  S2-  S245  1  0.62496391  0.49887444  0.54709182  1
  S2-  S246  1  0.62915864  0.76066273  0.05239977  1
  S2-  S247  1  0.61424587  0.74177817  0.53885713  1
  S2-  S248  1  0.87965496  0.01097615  0.03572768  1
  S2-  S249  1  0.87668021  -0.00877218  0.54578514  1
  S2-  S250  1  0.88112157  0.26144301  0.04321395  1
  S2-  S251  1  0.87522211  0.24004043  0.54621810  1
  S2-  S252  1  0.87656171  0.51333180  0.04732945  1
  S2-  S253  1  0.86726495  0.49843730  0.53642742  1
  S2-  S254  1  0.87786792  0.75846914  0.04472136  1
  S2-  S255  1  0.87294162  0.74364560  0.53525815  1
