# generated using pymatgen
data_La6Ce6Pr19Nd20Sm13(BiS2)64
_symmetry_space_group_name_H-M   'P 1'
_cell_length_a   16.04965398
_cell_length_b   16.04264727
_cell_length_c   27.38963588
_cell_angle_alpha   90.13684009
_cell_angle_beta   89.71087180
_cell_angle_gamma   89.96460445
_symmetry_Int_Tables_number   1
_chemical_formula_structural   La6Ce6Pr19Nd20Sm13(BiS2)64
_chemical_formula_sum   'La6 Ce6 Pr19 Nd20 Sm13 Bi64 S128'
_cell_volume   7052.14304763
_cell_formula_units_Z   1
loop_
 _symmetry_equiv_pos_site_id
 _symmetry_equiv_pos_as_xyz
  1  'x, y, z'
loop_
 _atom_type_symbol
 _atom_type_oxidation_number
  La3+  3.0
  Ce3+  3.0
  Pr3+  3.0
  Nd3+  3.0
  Sm3+  3.0
  Bi2+  2.0
  S2-  -2.0
loop_
 _atom_site_type_symbol
 _atom_site_label
 _atom_site_symmetry_multiplicity
 _atom_site_fract_x
 _atom_site_fract_y
 _atom_site_fract_z
 _atom_site_occupancy
  La3+  La0  1  0.87218583  0.50346691  0.88593123  1
  La3+  La1  1  0.12854213  0.24152119  0.90919010  1
  La3+  La2  1  0.75905473  0.11607266  0.57666361  1
  La3+  La3  1  -0.01622044  0.87617661  0.10267084  1
  La3+  La4  1  0.38417887  0.48900129  0.42070024  1
  La3+  La5  1  0.25093690  0.87365641  0.11231725  1
  Ce3+  Ce6  1  0.74187520  0.87268343  0.05769437  1
  Ce3+  Ce7  1  0.74412290  0.62106367  0.05586939  1
  Ce3+  Ce8  1  0.88830933  0.24643891  0.45222342  1
  Ce3+  Ce9  1  0.36480891  0.24932222  0.95205000  1
  Ce3+  Ce10  1  0.75945364  0.87452612  0.56032057  1
  Ce3+  Ce11  1  0.36023561  0.49566136  0.94634232  1
  Pr3+  Pr12  1  0.51193431  0.12508557  0.55631121  1
  Pr3+  Pr13  1  0.63880495  0.74998707  0.43122396  1
  Pr3+  Pr14  1  0.11453476  -0.00313284  0.95074606  1
  Pr3+  Pr15  1  0.61657994  -0.00553209  0.93629215  1
  Pr3+  Pr16  1  0.23612513  0.37326291  0.07310938  1
  Pr3+  Pr17  1  0.25906460  0.62154549  0.55599315  1
  Pr3+  Pr18  1  0.12092494  0.50621929  0.93256099  1
  Pr3+  Pr19  1  0.13457690  0.24946015  0.44264945  1
  Pr3+  Pr20  1  0.61832356  0.50354081  0.92374063  1
  Pr3+  Pr21  1  0.13901145  0.75427720  0.41778180  1
  Pr3+  Pr22  1  0.36258782  -0.00342797  0.94262196  1
  Pr3+  Pr23  1  0.01931227  0.87555744  0.57483982  1
  Pr3+  Pr24  1  0.11316892  0.74692006  0.95951550  1
  Pr3+  Pr25  1  0.64219551  0.48690841  0.41973941  1
  Pr3+  Pr26  1  0.01185601  0.62753791  0.56536758  1
  Pr3+  Pr27  1  0.63764304  -0.00376332  0.43214897  1
  Pr3+  Pr28  1  0.00924427  0.37492004  0.59538323  1
  Pr3+  Pr29  1  0.25869633  0.37758531  0.56737304  1
  Pr3+  Pr30  1  -0.01638540  0.61830673  0.07248417  1
  Nd3+  Nd31  1  0.14498387  -0.00151189  0.43233073  1
  Nd3+  Nd32  1  0.86740847  0.24645124  0.92230703  1
  Nd3+  Nd33  1  0.76055226  0.37417250  0.57132418  1
  Nd3+  Nd34  1  0.38491750  0.74574663  0.43323440  1
  Nd3+  Nd35  1  0.89077256  -0.00092722  0.43597316  1
  Nd3+  Nd36  1  0.61806805  0.74554272  0.93698671  1
  Nd3+  Nd37  1  0.75881961  0.62298549  0.55340838  1
  Nd3+  Nd38  1  0.89244056  0.75001195  0.44079510  1
  Nd3+  Nd39  1  0.23691697  0.12042512  0.06868914  1
  Nd3+  Nd40  1  0.49143308  0.12010562  0.05924430  1
  Nd3+  Nd41  1  0.51399382  0.38419429  0.56828005  1
  Nd3+  Nd42  1  -0.01314988  0.12323131  0.06944093  1
  Nd3+  Nd43  1  -0.00930208  0.37287699  0.04415582  1
  Nd3+  Nd44  1  0.64215445  0.24279620  0.43650829  1
  Nd3+  Nd45  1  0.89049847  0.49540206  0.43618015  1
  Nd3+  Nd46  1  0.38755051  -0.00173809  0.43727971  1
  Nd3+  Nd47  1  0.74488674  0.12208396  0.05841508  1
  Nd3+  Nd48  1  0.49054799  0.62129177  0.06357675  1
  Nd3+  Nd49  1  0.49611794  0.37146943  0.05310521  1
  Nd3+  Nd50  1  0.13340115  0.49834090  0.43459806  1
  Sm3+  Sm51  1  0.61897697  0.24011634  0.92638328  1
  Sm3+  Sm52  1  0.26529083  0.87083498  0.56201118  1
  Sm3+  Sm53  1  0.36235318  0.74665844  0.95127971  1
  Sm3+  Sm54  1  0.23545722  0.62071615  0.07948694  1
  Sm3+  Sm55  1  0.01341375  0.12156787  0.56640339  1
  Sm3+  Sm56  1  0.86994378  0.74411193  0.94465774  1
  Sm3+  Sm57  1  0.50654259  0.87128093  0.56182625  1
  Sm3+  Sm58  1  0.38837831  0.25421153  0.44977413  1
  Sm3+  Sm59  1  0.51276563  0.61895981  0.54757404  1
  Sm3+  Sm60  1  0.74223801  0.37179770  0.04405141  1
  Sm3+  Sm61  1  0.26079242  0.12434826  0.56045244  1
  Sm3+  Sm62  1  0.86953606  0.00054534  0.93635164  1
  Sm3+  Sm63  1  0.49234691  0.87132154  0.06250666  1
  Bi2+  Bi64  1  0.01578138  0.19257592  0.27584059  1
  Bi2+  Bi65  1  0.01222287  0.06083923  0.78710139  1
  Bi2+  Bi66  1  -0.08642709  0.35463979  0.30559509  1
  Bi2+  Bi67  1  0.00605015  0.39549924  0.76644802  1
  Bi2+  Bi68  1  -0.05817323  0.59953684  0.30465367  1
  Bi2+  Bi69  1  0.00785108  0.64641344  0.79576670  1
  Bi2+  Bi70  1  -0.02707192  0.84955493  0.30014853  1
  Bi2+  Bi71  1  0.08620388  0.87158981  0.79343083  1
  Bi2+  Bi72  1  0.29252327  0.14398131  0.28924554  1
  Bi2+  Bi73  1  0.27440110  0.10371156  0.80106443  1
  Bi2+  Bi74  1  0.23518414  0.35103791  0.30384386  1
  Bi2+  Bi75  1  0.27741475  0.37549376  0.79249406  1
  Bi2+  Bi76  1  0.33010363  0.60734382  0.28832552  1
  Bi2+  Bi77  1  0.26015619  0.63855921  0.80052248  1
  Bi2+  Bi78  1  0.25394613  0.88411528  0.29514329  1
  Bi2+  Bi79  1  0.28738341  0.85507961  0.78870312  1
  Bi2+  Bi80  1  0.53897114  0.18186635  0.30394022  1
  Bi2+  Bi81  1  0.46929426  0.11623054  0.78808514  1
  Bi2+  Bi82  1  0.50862367  0.37637829  0.29137971  1
  Bi2+  Bi83  1  0.48265460  0.39798068  0.78509064  1
  Bi2+  Bi84  1  0.51727536  0.66746417  0.29666119  1
  Bi2+  Bi85  1  0.44441275  0.59228822  0.76370138  1
  Bi2+  Bi86  1  0.50795757  0.98407419  0.31168019  1
  Bi2+  Bi87  1  0.60721194  0.86961584  0.82478608  1
  Bi2+  Bi88  1  0.72573194  0.16478417  0.26258780  1
  Bi2+  Bi89  1  0.74040225  0.11053449  0.79638987  1
  Bi2+  Bi90  1  0.70770220  0.44361629  0.23305330  1
  Bi2+  Bi91  1  0.76340513  0.37112983  0.77528069  1
  Bi2+  Bi92  1  0.70987844  0.61660739  0.29121083  1
  Bi2+  Bi93  1  0.70076133  0.70724789  0.79134316  1
  Bi2+  Bi94  1  0.73028443  0.89641653  0.27708407  1
  Bi2+  Bi95  1  0.79889465  0.89603606  0.80992992  1
  Bi2+  Bi96  1  0.13887990  0.05573505  0.22693018  1
  Bi2+  Bi97  1  0.18793174  -0.01012269  0.72077896  1
  Bi2+  Bi98  1  0.13342244  0.23345758  0.17059462  1
  Bi2+  Bi99  1  0.14231232  0.22781058  0.70857018  1
  Bi2+  Bi100  1  0.12958101  0.41308582  0.21428853  1
  Bi2+  Bi101  1  0.18417163  0.52123633  0.70602301  1
  Bi2+  Bi102  1  0.12562085  0.71040938  0.22242267  1
  Bi2+  Bi103  1  0.12155499  0.75044250  0.70253551  1
  Bi2+  Bi104  1  0.40505201  0.02805269  0.21551478  1
  Bi2+  Bi105  1  0.45266655  -0.02395188  0.70606465  1
  Bi2+  Bi106  1  0.31434662  0.27979841  0.20651247  1
  Bi2+  Bi107  1  0.39639082  0.25380658  0.71508922  1
  Bi2+  Bi108  1  0.38500327  0.48401172  0.20843784  1
  Bi2+  Bi109  1  0.36345403  0.44080984  0.68402178  1
  Bi2+  Bi110  1  0.45667614  0.82898146  0.24577816  1
  Bi2+  Bi111  1  0.45702499  0.77829615  0.72203492  1
  Bi2+  Bi112  1  0.63830464  0.01724722  0.20306166  1
  Bi2+  Bi113  1  0.65098077  -0.03884940  0.72410704  1
  Bi2+  Bi114  1  0.60900199  0.27276984  0.19204363  1
  Bi2+  Bi115  1  0.59532136  0.23876554  0.70571951  1
  Bi2+  Bi116  1  0.60619333  0.59613615  0.19099443  1
  Bi2+  Bi117  1  0.59755186  0.50386037  0.70883843  1
  Bi2+  Bi118  1  0.63146725  0.81938557  0.18267819  1
  Bi2+  Bi119  1  0.64509078  0.77244130  0.68296761  1
  Bi2+  Bi120  1  0.86942854  0.02703773  0.21066160  1
  Bi2+  Bi121  1  0.90233568  -0.04523375  0.71048367  1
  Bi2+  Bi122  1  0.87239054  0.27981109  0.20260199  1
  Bi2+  Bi123  1  0.88514457  0.16967086  0.72480927  1
  Bi2+  Bi124  1  0.91635278  0.51432507  0.20561862  1
  Bi2+  Bi125  1  0.86541031  0.55530283  0.67824001  1
  Bi2+  Bi126  1  0.81335989  0.74739204  0.21033259  1
  Bi2+  Bi127  1  0.84323645  0.76689241  0.71448008  1
  S2-  S128  1  0.00759838  0.02578778  0.15700419  1
  S2-  S129  1  0.00365805  0.01073961  0.64279439  1
  S2-  S130  1  -0.01489367  0.38338515  0.14615758  1
  S2-  S131  1  0.01040303  0.22182123  0.65291088  1
  S2-  S132  1  0.05480165  0.59969233  0.16583192  1
  S2-  S133  1  0.02804593  0.52903674  0.65156411  1
  S2-  S134  1  -0.02821524  0.79565821  0.19699116  1
  S2-  S135  1  -0.01822881  0.74484996  0.64658966  1
  S2-  S136  1  0.26620728  0.04166528  0.15516312  1
  S2-  S137  1  0.24998207  0.12218498  0.65831280  1
  S2-  S138  1  0.23959319  0.48951349  0.14964511  1
  S2-  S139  1  0.16361911  0.36363430  0.65327879  1
  S2-  S140  1  0.24796241  0.71669876  0.16099245  1
  S2-  S141  1  0.24944328  0.64975725  0.65643825  1
  S2-  S142  1  0.16537091  0.88480456  0.20673183  1
  S2-  S143  1  0.16419188  0.87430084  0.64197793  1
  S2-  S144  1  0.51868979  0.12559229  0.15669045  1
  S2-  S145  1  0.54711781  0.10343825  0.65275812  1
  S2-  S146  1  0.50076451  0.38227362  0.15166107  1
  S2-  S147  1  0.63094682  0.37426602  0.64403420  1
  S2-  S148  1  0.44662546  0.62220896  0.16020355  1
  S2-  S149  1  0.48750048  0.53557200  0.63213803  1
  S2-  S150  1  0.41718648  0.88058891  0.15147781  1
  S2-  S151  1  0.39085596  0.86375745  0.63611326  1
  S2-  S152  1  0.84857040  0.14698916  0.13724024  1
  S2-  S153  1  0.75672891  0.19741207  0.66876554  1
  S2-  S154  1  0.74233730  0.36486946  0.14355672  1
  S2-  S155  1  0.86086033  0.39644825  0.65539043  1
  S2-  S156  1  0.83359727  0.62056598  0.14058082  1
  S2-  S157  1  0.70271424  0.60995926  0.64854131  1
  S2-  S158  1  0.81761362  0.90960939  0.14251605  1
  S2-  S159  1  0.75699143  0.97299389  0.64131117  1
  S2-  S160  1  0.10665749  -0.10178217  0.35193719  1
  S2-  S161  1  0.13366658  0.08009688  0.86132874  1
  S2-  S162  1  0.14762348  0.20601010  0.34453630  1
  S2-  S163  1  0.10646089  0.28970853  0.80684581  1
  S2-  S164  1  0.01410364  0.47293669  0.35954808  1
  S2-  S165  1  0.03767593  0.49509342  0.84273913  1
  S2-  S166  1  0.07289105  0.69125736  0.32578451  1
  S2-  S167  1  0.12806307  0.67730149  0.86639076  1
  S2-  S168  1  0.28100913  0.01108627  0.35902294  1
  S2-  S169  1  0.38069625  -0.01574539  0.84251059  1
  S2-  S170  1  0.38094029  0.32985937  0.36177975  1
  S2-  S171  1  0.29730465  0.24764676  0.86325495  1
  S2-  S172  1  0.24665874  0.50776574  0.35233756  1
  S2-  S173  1  0.26319218  0.49380801  0.86513363  1
  S2-  S174  1  0.28760523  0.75140153  0.35008927  1
  S2-  S175  1  0.36346699  0.74069390  0.85249698  1
  S2-  S176  1  0.66759335  0.11771229  0.36027618  1
  S2-  S177  1  0.60037128  0.10096577  0.85683899  1
  S2-  S178  1  0.63391835  0.34255010  0.35451830  1
  S2-  S179  1  0.70411011  0.26202828  0.83856746  1
  S2-  S180  1  0.51172012  0.51384665  0.34896564  1
  S2-  S181  1  0.71499493  0.47999248  0.83844988  1
  S2-  S182  1  0.62869755  0.86890854  0.35593771  1
  S2-  S183  1  0.59291317  0.64521548  0.85697532  1
  S2-  S184  1  0.87840516  -0.03252630  0.33600232  1
  S2-  S185  1  0.88454881  0.10735406  0.85788157  1
  S2-  S186  1  0.89516532  0.20795704  0.35619221  1
  S2-  S187  1  0.89257126  0.34071439  0.83597796  1
  S2-  S188  1  0.78372601  0.50272151  0.35426576  1
  S2-  S189  1  0.88120931  0.52528195  0.77125290  1
  S2-  S190  1  0.85734968  0.74159384  0.34311421  1
  S2-  S191  1  0.88042489  0.67786418  0.85428205  1
  S2-  S192  1  0.01638270  0.11805325  0.45791196  1
  S2-  S193  1  -0.00506708  0.12646845  0.96022254  1
  S2-  S194  1  0.01077758  0.36976068  0.46203677  1
  S2-  S195  1  0.00309491  0.36441389  0.94191402  1
  S2-  S196  1  0.01380431  0.62655213  0.45544368  1
  S2-  S197  1  -0.01229443  0.61928240  0.96292671  1
  S2-  S198  1  0.01406000  0.87462553  0.45778322  1
  S2-  S199  1  -0.01107809  0.87252361  0.94109617  1
  S2-  S200  1  0.26659839  0.12941716  0.45717139  1
  S2-  S201  1  0.24198399  0.12349005  0.96445257  1
  S2-  S202  1  0.25729110  0.37184380  0.46092745  1
  S2-  S203  1  0.23736629  0.36880522  0.96524047  1
  S2-  S204  1  0.25875354  0.62532384  0.45109127  1
  S2-  S205  1  0.24425277  0.62463743  0.97226181  1
  S2-  S206  1  0.26536657  0.87191221  0.45763758  1
  S2-  S207  1  0.24000224  0.86984072  0.94952189  1
  S2-  S208  1  0.50762007  0.12515636  0.45072730  1
  S2-  S209  1  0.48844340  0.12324988  0.95491744  1
  S2-  S210  1  0.51482196  0.37042145  0.46120969  1
  S2-  S211  1  0.49527333  0.37140256  0.94548811  1
  S2-  S212  1  0.51364585  0.62540762  0.44646684  1
  S2-  S213  1  0.48549715  0.62099902  0.95825078  1
  S2-  S214  1  0.50650821  0.87081853  0.45688792  1
  S2-  S215  1  0.48991186  0.86939912  0.95704397  1
  S2-  S216  1  0.76508888  0.11782140  0.46560267  1
  S2-  S217  1  0.74151143  0.12045760  0.95411926  1
  S2-  S218  1  0.76640929  0.36999653  0.46043596  1
  S2-  S219  1  0.73973152  0.37036237  0.94364177  1
  S2-  S220  1  0.76194100  0.62741459  0.45009457  1
  S2-  S221  1  0.74489612  0.62205560  0.95205097  1
  S2-  S222  1  0.76538679  0.87368049  0.45402046  1
  S2-  S223  1  0.74584593  0.87189168  0.95155504  1
  S2-  S224  1  0.11734682  -0.01010680  0.05578407  1
  S2-  S225  1  0.14459744  0.00140405  0.54032246  1
  S2-  S226  1  0.11410024  0.24525263  0.05170903  1
  S2-  S227  1  0.13712915  0.24559100  0.54859739  1
  S2-  S228  1  0.11436609  0.49900468  0.04572447  1
  S2-  S229  1  0.13311297  0.49719710  0.54347548  1
  S2-  S230  1  0.11066291  0.75451602  0.06499876  1
  S2-  S231  1  0.13951837  0.74928562  0.53989648  1
  S2-  S232  1  0.36785073  -0.00556369  0.04804850  1
  S2-  S233  1  0.38552981  0.00065775  0.54278774  1
  S2-  S234  1  0.36692952  0.24709097  0.05761427  1
  S2-  S235  1  0.38606278  0.25221194  0.55473637  1
  S2-  S236  1  0.36830356  0.49481789  0.04985940  1
  S2-  S237  1  0.38384774  0.49788175  0.53265362  1
  S2-  S238  1  0.36609256  0.74875420  0.05416943  1
  S2-  S239  1  0.38937355  0.74190570  0.53898324  1
  S2-  S240  1  0.61678861  -0.00324007  0.04546197  1
  S2-  S241  1  0.62807840  -0.00766142  0.54108838  1
  S2-  S242  1  0.61827317  0.24377872  0.03702090  1
  S2-  S243  1  0.63697780  0.24744338  0.54518039  1
  S2-  S244  1  0.61763523  0.49775259  0.03922313  1
  S2-  S245  1  0.63833835  0.49941306  0.53393833  1
  S2-  S246  1  0.61588448  0.74625619  0.04452841  1
  S2-  S247  1  0.63102148  0.74925900  0.53964738  1
  S2-  S248  1  0.87084954  -0.00382636  0.03857007  1
  S2-  S249  1  0.88839899  -0.00537665  0.54238329  1
  S2-  S250  1  0.86452957  0.24973906  0.03246812  1
  S2-  S251  1  0.88587465  0.24514890  0.55536292  1
  S2-  S252  1  0.86304424  0.49202088  0.04324763  1
  S2-  S253  1  0.88506612  0.50124574  0.54444612  1
  S2-  S254  1  0.87175374  0.75522658  0.04797537  1
  S2-  S255  1  0.88105646  0.75071259  0.54513208  1
