# generated using pymatgen
data_La6Ce6Pr19Nd20Sm13(BiS2)64
_symmetry_space_group_name_H-M   'P 1'
_cell_length_a   16.05775567
_cell_length_b   16.07896223
_cell_length_c   27.31835297
_cell_angle_alpha   90.14571344
_cell_angle_beta   89.64002531
_cell_angle_gamma   90.14901082
_symmetry_Int_Tables_number   1
_chemical_formula_structural   La6Ce6Pr19Nd20Sm13(BiS2)64
_chemical_formula_sum   'La6 Ce6 Pr19 Nd20 Sm13 Bi64 S128'
_cell_volume   7053.19589493
_cell_formula_units_Z   1
loop_
 _symmetry_equiv_pos_site_id
 _symmetry_equiv_pos_as_xyz
  1  'x, y, z'
loop_
 _atom_type_symbol
 _atom_type_oxidation_number
  La3+  3.0
  Ce3+  3.0
  Pr3+  3.0
  Nd3+  3.0
  Sm3+  3.0
  Bi2+  2.0
  S2-  -2.0
loop_
 _atom_site_type_symbol
 _atom_site_label
 _atom_site_symmetry_multiplicity
 _atom_site_fract_x
 _atom_site_fract_y
 _atom_site_fract_z
 _atom_site_occupancy
  La3+  La0  1  0.62556848  0.01909698  0.88002678  1
  La3+  La1  1  0.38157969  0.46675754  0.41862556  1
  La3+  La2  1  0.49069226  0.35774157  0.59152194  1
  La3+  La3  1  0.24914908  0.88622127  0.09581529  1
  La3+  La4  1  0.62932528  0.46750224  0.42725382  1
  La3+  La5  1  0.25076174  0.37189483  0.10761323  1
  Ce3+  Ce6  1  0.50568382  0.85149346  0.55641067  1
  Ce3+  Ce7  1  0.25118309  0.84505637  0.55438987  1
  Ce3+  Ce8  1  0.13208882  0.25250631  0.94279101  1
  Ce3+  Ce9  1  0.12772249  -0.02487912  0.43610185  1
  Ce3+  Ce10  1  0.12782038  0.21862412  0.42794932  1
  Ce3+  Ce11  1  0.50469492  0.10209075  0.56020077  1
  Pr3+  Pr12  1  0.87753374  0.47404529  0.43412479  1
  Pr3+  Pr13  1  0.75649020  0.88254903  0.07141556  1
  Pr3+  Pr14  1  0.87909917  -0.02874281  0.44071383  1
  Pr3+  Pr15  1  0.63057472  0.22254729  0.43956445  1
  Pr3+  Pr16  1  0.00153387  0.88113327  0.07278329  1
  Pr3+  Pr17  1  0.00319602  0.84572296  0.56797844  1
  Pr3+  Pr18  1  0.00716418  0.37630815  0.06403755  1
  Pr3+  Pr19  1  0.50271400  0.88179112  0.06940710  1
  Pr3+  Pr20  1  0.13262693  0.46753493  0.41201042  1
  Pr3+  Pr21  1  0.87669680  0.72323802  0.44384123  1
  Pr3+  Pr22  1  0.26388647  0.62751175  0.09576260  1
  Pr3+  Pr23  1  0.74463098  0.84887839  0.57631286  1
  Pr3+  Pr24  1  0.37912449  0.72396542  0.43488222  1
  Pr3+  Pr25  1  0.38204064  0.22430290  0.43434773  1
  Pr3+  Pr26  1  0.75289446  0.62685885  0.05550715  1
  Pr3+  Pr27  1  0.75038465  0.37569254  0.06365298  1
  Pr3+  Pr28  1  0.00540509  0.34785913  0.54801533  1
  Pr3+  Pr29  1  0.50312889  0.62832918  0.06043291  1
  Pr3+  Pr30  1  0.37951494  0.25142484  0.93840991  1
  Nd3+  Nd31  1  0.75195023  0.59444953  0.57111979  1
  Nd3+  Nd32  1  0.88072772  0.50428373  0.94666654  1
  Nd3+  Nd33  1  0.75641674  0.09616725  0.56950344  1
  Nd3+  Nd34  1  0.38197122  -0.00775935  0.93038289  1
  Nd3+  Nd35  1  0.87881891  0.21924670  0.44413920  1
  Nd3+  Nd36  1  0.74916119  0.34685638  0.56825332  1
  Nd3+  Nd37  1  0.01138996  0.62581248  0.06710440  1
  Nd3+  Nd38  1  0.37969311  -0.02827225  0.44275554  1
  Nd3+  Nd39  1  0.01163194  0.09341698  0.57527570  1
  Nd3+  Nd40  1  0.63164280  0.72192529  0.44585151  1
  Nd3+  Nd41  1  0.50234635  0.12857021  0.05118613  1
  Nd3+  Nd42  1  0.11865886  0.72522598  0.42013667  1
  Nd3+  Nd43  1  0.87920580  0.25391050  0.93581569  1
  Nd3+  Nd44  1  0.75208668  0.12862182  0.04716325  1
  Nd3+  Nd45  1  0.00771899  0.59757210  0.56430273  1
  Nd3+  Nd46  1  0.12764418  -0.00822242  0.93393334  1
  Nd3+  Nd47  1  0.50181986  0.37845555  0.06287207  1
  Nd3+  Nd48  1  0.88108930  -0.00457990  0.93100116  1
  Nd3+  Nd49  1  0.63553539  -0.02433831  0.42822703  1
  Nd3+  Nd50  1  0.62733514  0.26017507  0.92517931  1
  Sm3+  Sm51  1  0.00503299  0.12842515  0.05603379  1
  Sm3+  Sm52  1  0.13359964  0.50441625  0.94658141  1
  Sm3+  Sm53  1  0.25507131  0.10005214  0.55465376  1
  Sm3+  Sm54  1  0.37848397  0.50564393  0.94421272  1
  Sm3+  Sm55  1  0.88192913  0.75344539  0.94892717  1
  Sm3+  Sm56  1  0.37883551  0.75646653  0.95048739  1
  Sm3+  Sm57  1  0.50030130  0.59306419  0.55370211  1
  Sm3+  Sm58  1  0.62684399  0.50441027  0.93290563  1
  Sm3+  Sm59  1  0.13330308  0.75306668  0.95498315  1
  Sm3+  Sm60  1  0.63108300  0.76352083  0.94713301  1
  Sm3+  Sm61  1  0.25411387  0.12299149  0.05286832  1
  Sm3+  Sm62  1  0.25337504  0.59692554  0.54504807  1
  Sm3+  Sm63  1  0.25193008  0.34921698  0.55160189  1
  Bi2+  Bi64  1  -0.04733014  0.12420502  0.29671661  1
  Bi2+  Bi65  1  0.05979577  0.11645941  0.78140241  1
  Bi2+  Bi66  1  -0.04181290  0.43569764  0.29375446  1
  Bi2+  Bi67  1  0.09165613  0.39431747  0.80610185  1
  Bi2+  Bi68  1  -0.05743467  0.64686206  0.29399930  1
  Bi2+  Bi69  1  0.00195323  0.60885714  0.79436443  1
  Bi2+  Bi70  1  -0.07753081  0.92637289  0.29824844  1
  Bi2+  Bi71  1  0.00791515  0.86455779  0.80033835  1
  Bi2+  Bi72  1  0.22366301  0.16241354  0.27496885  1
  Bi2+  Bi73  1  0.25762907  0.11342796  0.79175960  1
  Bi2+  Bi74  1  0.25543807  0.35764767  0.28119111  1
  Bi2+  Bi75  1  0.23940246  0.36977813  0.73262927  1
  Bi2+  Bi76  1  0.22971576  0.64254751  0.29659114  1
  Bi2+  Bi77  1  0.25734773  0.64649061  0.78765741  1
  Bi2+  Bi78  1  0.20668802  0.97037836  0.30403633  1
  Bi2+  Bi79  1  0.23902332  0.92291059  0.81545602  1
  Bi2+  Bi80  1  0.47656564  0.11323108  0.29527755  1
  Bi2+  Bi81  1  0.49966966  0.15711837  0.78121147  1
  Bi2+  Bi82  1  0.52234770  0.36860744  0.28748538  1
  Bi2+  Bi83  1  0.49282393  0.39053590  0.78718957  1
  Bi2+  Bi84  1  0.52100618  0.63625882  0.28513384  1
  Bi2+  Bi85  1  0.53619005  0.59128745  0.81112222  1
  Bi2+  Bi86  1  0.51260897  0.91177765  0.28470861  1
  Bi2+  Bi87  1  0.49437274  0.77815681  0.80158326  1
  Bi2+  Bi88  1  0.67856555  0.09755721  0.26419571  1
  Bi2+  Bi89  1  0.78756513  0.14657263  0.77797921  1
  Bi2+  Bi90  1  0.78018405  0.34741868  0.30058133  1
  Bi2+  Bi91  1  0.76358733  0.44875953  0.79653631  1
  Bi2+  Bi92  1  0.74935121  0.61989390  0.28837095  1
  Bi2+  Bi93  1  0.73141765  0.64661853  0.78907024  1
  Bi2+  Bi94  1  0.71425105  0.85454458  0.28601593  1
  Bi2+  Bi95  1  0.75668506  0.87497199  0.78913685  1
  Bi2+  Bi96  1  0.11148118  0.03707520  0.21296817  1
  Bi2+  Bi97  1  0.14279276  -0.02558611  0.71109882  1
  Bi2+  Bi98  1  0.01316598  0.27032764  0.22864966  1
  Bi2+  Bi99  1  0.08824586  0.24694368  0.69532897  1
  Bi2+  Bi100  1  0.08219997  0.51109460  0.21448082  1
  Bi2+  Bi101  1  0.11722529  0.51697840  0.69333740  1
  Bi2+  Bi102  1  0.11507324  0.77486000  0.22647210  1
  Bi2+  Bi103  1  0.11549868  0.71831962  0.72368059  1
  Bi2+  Bi104  1  0.37644139  0.03340923  0.20801896  1
  Bi2+  Bi105  1  0.34394394  -0.03654955  0.72117390  1
  Bi2+  Bi106  1  0.43094882  0.24541802  0.20879248  1
  Bi2+  Bi107  1  0.32457421  0.20062254  0.69448912  1
  Bi2+  Bi108  1  0.39874765  0.51665817  0.21929226  1
  Bi2+  Bi109  1  0.37694741  0.56745615  0.71395778  1
  Bi2+  Bi110  1  0.38061653  0.78786053  0.23311330  1
  Bi2+  Bi111  1  0.36474969  0.76352791  0.71432976  1
  Bi2+  Bi112  1  0.64506009  -0.05034633  0.18755222  1
  Bi2+  Bi113  1  0.62685552  0.03821997  0.68238234  1
  Bi2+  Bi114  1  0.66348138  0.26639215  0.20821531  1
  Bi2+  Bi115  1  0.70048519  0.32402955  0.71345946  1
  Bi2+  Bi116  1  0.64353898  0.50657518  0.21244812  1
  Bi2+  Bi117  1  0.63225296  0.54605717  0.70530011  1
  Bi2+  Bi118  1  0.57133736  0.77251457  0.20006391  1
  Bi2+  Bi119  1  0.61335204  0.74180713  0.70848449  1
  Bi2+  Bi120  1  0.84810706  0.04916722  0.20784848  1
  Bi2+  Bi121  1  0.89612018  0.03241293  0.71431221  1
  Bi2+  Bi122  1  0.84912543  0.32753368  0.17883094  1
  Bi2+  Bi123  1  0.92746540  0.33542561  0.75231258  1
  Bi2+  Bi124  1  0.84691348  0.51910833  0.19763568  1
  Bi2+  Bi125  1  0.90872037  0.51660205  0.70048483  1
  Bi2+  Bi126  1  0.86549812  0.78541022  0.22342895  1
  Bi2+  Bi127  1  0.88638325  0.71012969  0.71705820  1
  S2-  S128  1  0.01338171  0.13620979  0.15430421  1
  S2-  S129  1  -0.05180062  0.16390583  0.66103555  1
  S2-  S130  1  0.08546489  0.37310549  0.15355730  1
  S2-  S131  1  0.00816502  0.40181509  0.64262015  1
  S2-  S132  1  0.03682944  0.65232933  0.16446709  1
  S2-  S133  1  0.01538732  0.71756571  0.64094018  1
  S2-  S134  1  0.09898780  0.89027036  0.15725323  1
  S2-  S135  1  0.00732291  0.95899705  0.64770548  1
  S2-  S136  1  0.24899626  0.04908938  0.14183474  1
  S2-  S137  1  0.18443037  0.12035160  0.64362137  1
  S2-  S138  1  0.25661628  0.25480386  0.18996038  1
  S2-  S139  1  0.32884151  0.34970705  0.64022638  1
  S2-  S140  1  0.23955983  0.51317072  0.17229805  1
  S2-  S141  1  0.24553839  0.59442796  0.64359874  1
  S2-  S142  1  0.24904345  0.75044206  0.17004608  1
  S2-  S143  1  0.24766759  0.85973062  0.65190214  1
  S2-  S144  1  0.49839888  0.12387517  0.15134884  1
  S2-  S145  1  0.46621722  0.11056970  0.65730351  1
  S2-  S146  1  0.41306265  0.38726847  0.15011101  1
  S2-  S147  1  0.54011231  0.32392031  0.69211665  1
  S2-  S148  1  0.42559462  0.62398698  0.15067336  1
  S2-  S149  1  0.49207284  0.51949326  0.64233753  1
  S2-  S150  1  0.40033966  0.89365178  0.15168345  1
  S2-  S151  1  0.58157941  0.87564534  0.64294225  1
  S2-  S152  1  0.76360687  0.15831214  0.14555443  1
  S2-  S153  1  0.72122371  0.19086403  0.65571315  1
  S2-  S154  1  0.62672239  0.38690682  0.13656471  1
  S2-  S155  1  0.75525145  0.46639576  0.64338364  1
  S2-  S156  1  0.72750823  0.62656315  0.15440458  1
  S2-  S157  1  0.75796475  0.71791627  0.64684157  1
  S2-  S158  1  0.87361502  0.89909610  0.14689244  1
  S2-  S159  1  0.77271545  0.97262022  0.64814487  1
  S2-  S160  1  0.10521178  0.08697006  0.36058362  1
  S2-  S161  1  0.01168056  0.00421177  0.85812945  1
  S2-  S162  1  0.13642143  0.32167185  0.34533194  1
  S2-  S163  1  0.14459305  0.23567064  0.84539753  1
  S2-  S164  1  0.09571519  0.60075582  0.34801557  1
  S2-  S165  1  0.14519719  0.54378134  0.84966762  1
  S2-  S166  1  0.16874284  0.80153314  0.32862222  1
  S2-  S167  1  0.12198018  0.81074733  0.86150924  1
  S2-  S168  1  0.37308606  -0.02474281  0.34347693  1
  S2-  S169  1  0.46018116  0.04096214  0.84200011  1
  S2-  S170  1  0.38685797  0.31466585  0.34685431  1
  S2-  S171  1  0.42145887  0.26930461  0.83906217  1
  S2-  S172  1  0.26755246  0.49245523  0.33951246  1
  S2-  S173  1  0.39732747  0.49829981  0.84538090  1
  S2-  S174  1  0.37764641  0.71611660  0.33393551  1
  S2-  S175  1  0.37448110  0.84474849  0.86606321  1
  S2-  S176  1  0.61256259  0.10586428  0.35921842  1
  S2-  S177  1  0.62841363  -0.01678229  0.76985507  1
  S2-  S178  1  0.63387364  0.32746646  0.35548588  1
  S2-  S179  1  0.64175092  0.17964005  0.83366883  1
  S2-  S180  1  0.51101676  0.50668026  0.34939814  1
  S2-  S181  1  0.62402261  0.39398838  0.85647289  1
  S2-  S182  1  0.64056939  0.72350268  0.34711881  1
  S2-  S183  1  0.63428699  0.84168624  0.86036072  1
  S2-  S184  1  0.77175376  -0.04323224  0.36077355  1
  S2-  S185  1  0.79386731  0.00895264  0.84321439  1
  S2-  S186  1  0.82955356  0.20329404  0.34916070  1
  S2-  S187  1  0.88139017  0.24481638  0.83563824  1
  S2-  S188  1  0.76321137  0.49564464  0.35795720  1
  S2-  S189  1  0.90240295  0.50182840  0.84932643  1
  S2-  S190  1  0.94744282  0.78077092  0.35730851  1
  S2-  S191  1  0.87980761  0.80662349  0.85514297  1
  S2-  S192  1  0.00096800  0.09644574  0.46480705  1
  S2-  S193  1  0.00412977  0.13055327  0.95210308  1
  S2-  S194  1  0.00166841  0.34750319  0.44277386  1
  S2-  S195  1  0.00672911  0.37994221  0.95570252  1
  S2-  S196  1  0.00198401  0.59768599  0.45617545  1
  S2-  S197  1  0.00703861  0.62842078  0.95930914  1
  S2-  S198  1  0.00692721  0.85100535  0.46056259  1
  S2-  S199  1  0.00458366  0.87291487  0.96561393  1
  S2-  S200  1  0.25718635  0.09705883  0.45052736  1
  S2-  S201  1  0.25472122  0.12122283  0.94782607  1
  S2-  S202  1  0.25140280  0.34434810  0.44959898  1
  S2-  S203  1  0.25598603  0.38177504  0.94267844  1
  S2-  S204  1  0.25088490  0.60245620  0.44308670  1
  S2-  S205  1  0.25678760  0.63073051  0.95262663  1
  S2-  S206  1  0.25232758  0.84773262  0.44791776  1
  S2-  S207  1  0.25159543  0.87699005  0.96516110  1
  S2-  S208  1  0.50076499  0.09627771  0.45589114  1
  S2-  S209  1  0.50958252  0.12813551  0.94677338  1
  S2-  S210  1  0.50309526  0.34650984  0.45575859  1
  S2-  S211  1  0.50032263  0.38239755  0.95596930  1
  S2-  S212  1  0.50343610  0.60098854  0.45185709  1
  S2-  S213  1  0.50606919  0.63246292  0.95333553  1
  S2-  S214  1  0.50830045  0.84993567  0.44798495  1
  S2-  S215  1  0.50536630  0.87713558  0.96336055  1
  S2-  S216  1  0.75499897  0.09816959  0.46321863  1
  S2-  S217  1  0.75339267  0.12960287  0.94344218  1
  S2-  S218  1  0.75904294  0.34610358  0.46224128  1
  S2-  S219  1  0.75574914  0.38087756  0.95522409  1
  S2-  S220  1  0.75324388  0.59893365  0.46248331  1
  S2-  S221  1  0.75264631  0.63024995  0.94792490  1
  S2-  S222  1  0.75199569  0.84668184  0.46435051  1
  S2-  S223  1  0.76184832  0.87383226  0.96504776  1
  S2-  S224  1  0.12480838  0.00514846  0.04178775  1
  S2-  S225  1  0.13387505  -0.02688423  0.54241839  1
  S2-  S226  1  0.13430753  0.25073143  0.04961826  1
  S2-  S227  1  0.13059274  0.22306427  0.53741018  1
  S2-  S228  1  0.13674428  0.50213465  0.05106108  1
  S2-  S229  1  0.13119094  0.47396367  0.53546804  1
  S2-  S230  1  0.13394883  0.74993474  0.05651761  1
  S2-  S231  1  0.13099073  0.72022486  0.53534448  1
  S2-  S232  1  0.37938220  0.00477785  0.03935794  1
  S2-  S233  1  0.37673024  -0.02652034  0.54941841  1
  S2-  S234  1  0.37263654  0.25236530  0.04605842  1
  S2-  S235  1  0.37733650  0.22452079  0.54233676  1
  S2-  S236  1  0.37412746  0.50367931  0.04706934  1
  S2-  S237  1  0.37449385  0.47278255  0.53424951  1
  S2-  S238  1  0.37598478  0.75401874  0.05232019  1
  S2-  S239  1  0.37994597  0.72217907  0.54414977  1
  S2-  S240  1  0.62956054  0.00527379  0.05406703  1
  S2-  S241  1  0.62666528  -0.02168235  0.53784210  1
  S2-  S242  1  0.62761102  0.25323223  0.03570661  1
  S2-  S243  1  0.62079963  0.23114224  0.54939666  1
  S2-  S244  1  0.62776283  0.50499985  0.03717172  1
  S2-  S245  1  0.62350696  0.47126232  0.54306947  1
  S2-  S246  1  0.62946248  0.75601382  0.05221827  1
  S2-  S247  1  0.62175034  0.71765819  0.55021056  1
  S2-  S248  1  0.88041080  0.00902794  0.04081227  1
  S2-  S249  1  0.88060986  -0.02782710  0.54590656  1
  S2-  S250  1  0.88137991  0.25344304  0.04174885  1
  S2-  S251  1  0.87704093  0.22601898  0.55024287  1
  S2-  S252  1  0.88072299  0.50250815  0.05238570  1
  S2-  S253  1  0.88125379  0.47483554  0.54131062  1
  S2-  S254  1  0.88156707  0.74773912  0.05368746  1
  S2-  S255  1  0.87722796  0.72034039  0.54754798  1
