# generated using pymatgen
data_La6Ce6Pr19Nd20Sm13(BiS2)64
_symmetry_space_group_name_H-M   'P 1'
_cell_length_a   16.10375635
_cell_length_b   16.03983674
_cell_length_c   27.43842362
_cell_angle_alpha   90.25588060
_cell_angle_beta   90.07189804
_cell_angle_gamma   89.98166304
_symmetry_Int_Tables_number   1
_chemical_formula_structural   La6Ce6Pr19Nd20Sm13(BiS2)64
_chemical_formula_sum   'La6 Ce6 Pr19 Nd20 Sm13 Bi64 S128'
_cell_volume   7087.31274036
_cell_formula_units_Z   1
loop_
 _symmetry_equiv_pos_site_id
 _symmetry_equiv_pos_as_xyz
  1  'x, y, z'
loop_
 _atom_type_symbol
 _atom_type_oxidation_number
  La3+  3.0
  Ce3+  3.0
  Pr3+  3.0
  Nd3+  3.0
  Sm3+  3.0
  Bi2+  2.0
  S2-  -2.0
loop_
 _atom_site_type_symbol
 _atom_site_label
 _atom_site_symmetry_multiplicity
 _atom_site_fract_x
 _atom_site_fract_y
 _atom_site_fract_z
 _atom_site_occupancy
  La3+  La0  1  0.37855800  0.23938877  0.44235347  1
  La3+  La1  1  0.12824391  0.71608432  0.38315535  1
  La3+  La2  1  0.74072281  0.39525578  0.09150758  1
  La3+  La3  1  0.37753926  0.74971341  0.43046912  1
  La3+  La4  1  0.87267111  -0.01008410  0.42717007  1
  La3+  La5  1  0.37772091  0.75793928  0.88790352  1
  Ce3+  Ce6  1  0.50275569  0.62430420  0.56448516  1
  Ce3+  Ce7  1  0.48512470  0.39003763  0.07577491  1
  Ce3+  Ce8  1  0.86757967  0.27145891  0.95172019  1
  Ce3+  Ce9  1  0.37764231  0.49427925  0.45271606  1
  Ce3+  Ce10  1  0.11897086  0.27014420  0.94129499  1
  Ce3+  Ce11  1  0.00144159  0.86552350  0.54330660  1
  Pr3+  Pr12  1  0.86813502  0.02010546  0.93685661  1
  Pr3+  Pr13  1  -0.00700246  0.64987552  0.07350729  1
  Pr3+  Pr14  1  0.11924798  0.76781321  0.93252511  1
  Pr3+  Pr15  1  0.50928222  0.37090369  0.58025148  1
  Pr3+  Pr16  1  0.86763680  0.51864353  0.94927704  1
  Pr3+  Pr17  1  0.12501574  0.47997591  0.43170665  1
  Pr3+  Pr18  1  0.49331749  0.64499136  0.06329385  1
  Pr3+  Pr19  1  0.76192612  0.10570970  0.59606368  1
  Pr3+  Pr20  1  -0.00783625  0.89482972  0.06236712  1
  Pr3+  Pr21  1  0.00375303  0.37904265  0.57829468  1
  Pr3+  Pr22  1  0.74303760  0.64893608  0.06815358  1
  Pr3+  Pr23  1  0.62114003  0.27636886  0.93918517  1
  Pr3+  Pr24  1  0.87347201  0.48545235  0.43491690  1
  Pr3+  Pr25  1  0.87104299  0.76657750  0.93132797  1
  Pr3+  Pr26  1  0.49358028  0.89472626  0.05036323  1
  Pr3+  Pr27  1  0.87668564  0.73577582  0.42758411  1
  Pr3+  Pr28  1  0.24546004  0.86254361  0.56731878  1
  Pr3+  Pr29  1  0.49200023  0.11980071  0.58571413  1
  Pr3+  Pr30  1  0.49909239  0.86895516  0.57857581  1
  Nd3+  Nd31  1  0.12466049  0.23934150  0.44316029  1
  Nd3+  Nd32  1  0.87221435  0.24123345  0.44676666  1
  Nd3+  Nd33  1  0.24614680  0.64671710  0.06180922  1
  Nd3+  Nd34  1  0.73994388  0.14248812  0.06943256  1
  Nd3+  Nd35  1  0.12475458  -0.01485046  0.42317267  1
  Nd3+  Nd36  1  0.24307715  0.10565608  0.56838690  1
  Nd3+  Nd37  1  0.36850654  0.52003820  0.93910739  1
  Nd3+  Nd38  1  -0.00480160  0.13874912  0.06618620  1
  Nd3+  Nd39  1  0.12023817  0.52021199  0.95077823  1
  Nd3+  Nd40  1  0.75292803  0.36748857  0.56982131  1
  Nd3+  Nd41  1  0.12052330  0.01781377  0.93399597  1
  Nd3+  Nd42  1  0.61927369  0.76751615  0.93486909  1
  Nd3+  Nd43  1  0.24641342  0.89393814  0.05301448  1
  Nd3+  Nd44  1  0.61286508  0.47731423  0.42624866  1
  Nd3+  Nd45  1  0.24950337  0.36664559  0.56477301  1
  Nd3+  Nd46  1  0.62698531  0.02778159  0.91990970  1
  Nd3+  Nd47  1  0.62332721  0.74066698  0.43655138  1
  Nd3+  Nd48  1  0.74175554  0.89595380  0.06270046  1
  Nd3+  Nd49  1  0.37405194  0.01704034  0.92957247  1
  Nd3+  Nd50  1  0.62415008  -0.00882793  0.44616240  1
  Sm3+  Sm51  1  0.62524089  0.23983521  0.45631002  1
  Sm3+  Sm52  1  0.75455757  0.86668869  0.56167240  1
  Sm3+  Sm53  1  0.61837213  0.51411440  0.94980632  1
  Sm3+  Sm54  1  0.24723039  0.62255049  0.55686148  1
  Sm3+  Sm55  1  0.00060960  0.61823903  0.54860059  1
  Sm3+  Sm56  1  0.37068546  0.26909558  0.94154574  1
  Sm3+  Sm57  1  0.24478553  0.39232345  0.06207256  1
  Sm3+  Sm58  1  0.37587524  -0.00930858  0.44739331  1
  Sm3+  Sm59  1  0.74991887  0.61659741  0.54807330  1
  Sm3+  Sm60  1  0.24334210  0.14369569  0.05129860  1
  Sm3+  Sm61  1  -0.00155443  0.11375168  0.55669012  1
  Sm3+  Sm62  1  0.49442999  0.14310402  0.05506852  1
  Sm3+  Sm63  1  -0.00716552  0.39427022  0.06920698  1
  Bi2+  Bi64  1  0.09338051  0.19755783  0.30577154  1
  Bi2+  Bi65  1  -0.03598349  0.13904361  0.74907309  1
  Bi2+  Bi66  1  -0.01371974  0.32527786  0.23012840  1
  Bi2+  Bi67  1  0.06684800  0.38500088  0.78053377  1
  Bi2+  Bi68  1  0.01987207  0.57414108  0.27596406  1
  Bi2+  Bi69  1  -0.04445377  0.62123344  0.78443212  1
  Bi2+  Bi70  1  0.02997419  0.92570563  0.27045425  1
  Bi2+  Bi71  1  -0.01610570  0.86717474  0.78797180  1
  Bi2+  Bi72  1  0.26217595  0.10185523  0.32677991  1
  Bi2+  Bi73  1  0.25219240  0.20817782  0.79337268  1
  Bi2+  Bi74  1  0.25243804  0.31546269  0.28944825  1
  Bi2+  Bi75  1  0.26342553  0.40959522  0.80380601  1
  Bi2+  Bi76  1  0.26391861  0.59545638  0.26695933  1
  Bi2+  Bi77  1  0.22958094  0.61640500  0.79001289  1
  Bi2+  Bi78  1  0.28244348  0.84052283  0.28588909  1
  Bi2+  Bi79  1  0.22853892  0.90491476  0.79361957  1
  Bi2+  Bi80  1  0.49836794  0.13783305  0.26017326  1
  Bi2+  Bi81  1  0.48124545  0.11935627  0.79998094  1
  Bi2+  Bi82  1  0.54758743  0.32603748  0.27251047  1
  Bi2+  Bi83  1  0.48787932  0.43404855  0.78259540  1
  Bi2+  Bi84  1  0.52684561  0.59579731  0.29276071  1
  Bi2+  Bi85  1  0.60275491  0.60495961  0.77963105  1
  Bi2+  Bi86  1  0.52272198  0.87693256  0.30256911  1
  Bi2+  Bi87  1  0.55378961  0.84708978  0.76952306  1
  Bi2+  Bi88  1  0.84569543  0.09057909  0.30337701  1
  Bi2+  Bi89  1  0.74835683  0.15664970  0.79472946  1
  Bi2+  Bi90  1  0.77300445  0.37849264  0.31894102  1
  Bi2+  Bi91  1  0.75528927  0.42221635  0.81083815  1
  Bi2+  Bi92  1  0.71820964  0.68462988  0.28272688  1
  Bi2+  Bi93  1  0.77252453  0.66244117  0.82794530  1
  Bi2+  Bi94  1  0.75457355  0.84997047  0.34473482  1
  Bi2+  Bi95  1  0.79054160  0.85569457  0.81142148  1
  Bi2+  Bi96  1  0.17238320  0.03666063  0.23043845  1
  Bi2+  Bi97  1  0.14418872  0.05146830  0.72658171  1
  Bi2+  Bi98  1  0.11160065  0.20532256  0.17405676  1
  Bi2+  Bi99  1  0.11460713  0.23925761  0.70147463  1
  Bi2+  Bi100  1  0.17098385  0.38720792  0.19288552  1
  Bi2+  Bi101  1  0.12717153  0.52408406  0.70494004  1
  Bi2+  Bi102  1  0.13272286  0.73919301  0.17455451  1
  Bi2+  Bi103  1  0.12575136  0.84217375  0.69771937  1
  Bi2+  Bi104  1  0.37135869  -0.00646772  0.24598946  1
  Bi2+  Bi105  1  0.39236290  0.01269673  0.71387748  1
  Bi2+  Bi106  1  0.36236023  0.22589840  0.19087993  1
  Bi2+  Bi107  1  0.35996994  0.32396279  0.71447492  1
  Bi2+  Bi108  1  0.39729548  0.45244799  0.26732470  1
  Bi2+  Bi109  1  0.33420829  0.51910675  0.70012729  1
  Bi2+  Bi110  1  0.39077030  0.76108689  0.18061255  1
  Bi2+  Bi111  1  0.36332844  0.73987287  0.69594659  1
  Bi2+  Bi112  1  0.68382879  -0.01851072  0.26716912  1
  Bi2+  Bi113  1  0.65496139  0.02643428  0.72429238  1
  Bi2+  Bi114  1  0.72235692  0.18606224  0.23714045  1
  Bi2+  Bi115  1  0.60423243  0.30729835  0.72536676  1
  Bi2+  Bi116  1  0.68368086  0.43353974  0.22318959  1
  Bi2+  Bi117  1  0.53162281  0.52885824  0.68408232  1
  Bi2+  Bi118  1  0.62039407  0.77951344  0.20083079  1
  Bi2+  Bi119  1  0.71219075  0.75481589  0.72190716  1
  Bi2+  Bi120  1  0.85381287  -0.05132746  0.19355758  1
  Bi2+  Bi121  1  0.89011181  -0.02688972  0.70896936  1
  Bi2+  Bi122  1  0.91262427  0.14475215  0.19700902  1
  Bi2+  Bi123  1  0.88601404  0.32751529  0.74321322  1
  Bi2+  Bi124  1  0.87557445  0.53568151  0.21060272  1
  Bi2+  Bi125  1  0.85843787  0.51614009  0.70270392  1
  Bi2+  Bi126  1  0.88553768  0.78969797  0.26282451  1
  Bi2+  Bi127  1  0.90341723  0.72383425  0.69446965  1
  S2-  S128  1  -0.00482667  0.01567493  0.13923728  1
  S2-  S129  1  -0.07731789  0.10617926  0.64566107  1
  S2-  S130  1  -0.10093746  0.39177667  0.15276114  1
  S2-  S131  1  -0.12720725  0.36292485  0.64566974  1
  S2-  S132  1  0.02058718  0.57879960  0.16809625  1
  S2-  S133  1  0.00090989  0.54620225  0.63885764  1
  S2-  S134  1  -0.01309213  0.78427489  0.14153754  1
  S2-  S135  1  -0.02333017  0.85228537  0.64105481  1
  S2-  S136  1  0.26210243  0.10543062  0.14590009  1
  S2-  S137  1  0.34246727  0.11830132  0.65148169  1
  S2-  S138  1  0.33929230  0.38190464  0.14297829  1
  S2-  S139  1  0.14423119  0.37768727  0.64389058  1
  S2-  S140  1  0.27144947  0.62649949  0.16096135  1
  S2-  S141  1  0.22077239  0.72004768  0.64081004  1
  S2-  S142  1  0.24504690  0.85841402  0.15046589  1
  S2-  S143  1  0.17027571  0.98105921  0.63693318  1
  S2-  S144  1  0.49399863  0.14516068  0.15284270  1
  S2-  S145  1  0.53157246  -0.00532131  0.65628949  1
  S2-  S146  1  0.56267571  0.38860118  0.16336654  1
  S2-  S147  1  0.49427028  0.25475071  0.65705087  1
  S2-  S148  1  0.50910475  0.64974549  0.16459419  1
  S2-  S149  1  0.50747796  0.72796421  0.64440857  1
  S2-  S150  1  0.49519092  0.88041553  0.15158000  1
  S2-  S151  1  0.36097987  0.88101986  0.64883112  1
  S2-  S152  1  0.73049679  0.01263165  0.13938623  1
  S2-  S153  1  0.70708136  0.17248567  0.68676143  1
  S2-  S154  1  0.73160974  0.24877798  0.15004438  1
  S2-  S155  1  0.64745582  0.40324600  0.64846402  1
  S2-  S156  1  0.73734392  0.54782463  0.15117733  1
  S2-  S157  1  0.76439301  0.63479856  0.64593655  1
  S2-  S158  1  0.74575769  0.77932363  0.14021717  1
  S2-  S159  1  0.75302501  0.95007434  0.64868886  1
  S2-  S160  1  0.15027142  -0.12104145  0.34315181  1
  S2-  S161  1  0.08832070  -0.01352152  0.83932709  1
  S2-  S162  1  0.11966574  0.34004131  0.36165636  1
  S2-  S163  1  0.10885155  0.24668065  0.84508943  1
  S2-  S164  1  0.14761538  0.55074010  0.34004620  1
  S2-  S165  1  0.13365969  0.50802648  0.85249363  1
  S2-  S166  1  0.13145770  0.70989288  0.26891660  1
  S2-  S167  1  0.21364222  0.76201023  0.84709711  1
  S2-  S168  1  0.38490521  -0.09677794  0.36198697  1
  S2-  S169  1  0.33651343  0.03286330  0.83268396  1
  S2-  S170  1  0.40488426  0.19016446  0.34690374  1
  S2-  S171  1  0.40226395  0.25464802  0.84602520  1
  S2-  S172  1  0.45430048  0.48440863  0.36577788  1
  S2-  S173  1  0.36775070  0.59434393  0.84913540  1
  S2-  S174  1  0.29693673  0.70135035  0.34377699  1
  S2-  S175  1  0.38424628  0.82260828  0.78723184  1
  S2-  S176  1  0.58627023  0.02087789  0.34882394  1
  S2-  S177  1  0.54972858  -0.02809033  0.83395948  1
  S2-  S178  1  0.62063171  0.31767268  0.36754333  1
  S2-  S179  1  0.61830924  0.17407462  0.85474347  1
  S2-  S180  1  0.66837421  0.54044508  0.33685183  1
  S2-  S181  1  0.62228932  0.41201422  0.86856010  1
  S2-  S182  1  0.51645252  0.72862759  0.35727844  1
  S2-  S183  1  0.54470292  0.73547251  0.84666749  1
  S2-  S184  1  0.98611242  0.01122249  0.34955767  1
  S2-  S185  1  0.77190317  0.02355486  0.85332253  1
  S2-  S186  1  0.87192535  0.25403560  0.34677501  1
  S2-  S187  1  0.82819601  0.27503774  0.85693226  1
  S2-  S188  1  0.90647955  0.47718215  0.33589147  1
  S2-  S189  1  0.89369740  0.50034131  0.85059343  1
  S2-  S190  1  0.96317820  0.70646089  0.34089586  1
  S2-  S191  1  0.99563473  0.74222365  0.85946828  1
  S2-  S192  1  -0.00081468  0.11907151  0.45257837  1
  S2-  S193  1  -0.00509931  0.14300692  0.95485194  1
  S2-  S194  1  -0.00274103  0.36312260  0.46489912  1
  S2-  S195  1  -0.00409438  0.39459685  0.96254814  1
  S2-  S196  1  0.00340884  0.60992541  0.44637454  1
  S2-  S197  1  -0.00506543  0.64084051  0.96401399  1
  S2-  S198  1  -0.00060488  0.85982132  0.44054982  1
  S2-  S199  1  -0.00645571  0.89676656  0.95318265  1
  S2-  S200  1  0.24919989  0.11392088  0.45777637  1
  S2-  S201  1  0.24608608  0.14421196  0.94690307  1
  S2-  S202  1  0.25477694  0.36509611  0.45976929  1
  S2-  S203  1  0.24563001  0.39244504  0.95674496  1
  S2-  S204  1  0.24933624  0.61326889  0.45380263  1
  S2-  S205  1  0.24581341  0.64442593  0.95605646  1
  S2-  S206  1  0.25140923  0.87181282  0.45817561  1
  S2-  S207  1  0.24791897  0.89553657  0.94660211  1
  S2-  S208  1  0.50239341  0.11588947  0.46459595  1
  S2-  S209  1  0.49279899  0.14415641  0.95113805  1
  S2-  S210  1  0.49901543  0.36237653  0.47269420  1
  S2-  S211  1  0.48735747  0.39474052  0.96302903  1
  S2-  S212  1  0.50452758  0.61498484  0.46090942  1
  S2-  S213  1  0.49552140  0.63982258  0.95572790  1
  S2-  S214  1  0.50483674  0.86928611  0.46573522  1
  S2-  S215  1  0.48805616  0.88575475  0.94398834  1
  S2-  S216  1  0.74674899  0.11801438  0.44420731  1
  S2-  S217  1  0.74533071  0.14717083  0.96215734  1
  S2-  S218  1  0.74817898  0.36664502  0.46283768  1
  S2-  S219  1  0.74600850  0.39575725  0.97181125  1
  S2-  S220  1  0.74734224  0.61354430  0.44471849  1
  S2-  S221  1  0.73997993  0.64141138  0.95887625  1
  S2-  S222  1  0.74969976  0.86410068  0.45831512  1
  S2-  S223  1  0.74238589  0.89145109  0.95267709  1
  S2-  S224  1  0.12345434  0.01893442  0.04013602  1
  S2-  S225  1  0.11651357  -0.00661665  0.52907437  1
  S2-  S226  1  0.11883539  0.26898022  0.04726310  1
  S2-  S227  1  0.12241374  0.23763139  0.54853079  1
  S2-  S228  1  0.12082905  0.51633503  0.05586329  1
  S2-  S229  1  0.12798097  0.49560170  0.53946780  1
  S2-  S230  1  0.12121221  0.77027738  0.04052763  1
  S2-  S231  1  0.11966570  0.73872687  0.54001044  1
  S2-  S232  1  0.36876719  0.02130407  0.03812483  1
  S2-  S233  1  0.37572049  -0.00715890  0.54784750  1
  S2-  S234  1  0.36653977  0.26348238  0.04414242  1
  S2-  S235  1  0.36870297  0.24116854  0.55009072  1
  S2-  S236  1  0.36647933  0.51930483  0.04635634  1
  S2-  S237  1  0.37308333  0.49431752  0.55798092  1
  S2-  S238  1  0.36894990  0.76859674  0.04718115  1
  S2-  S239  1  0.37447530  0.73963077  0.54119821  1
  S2-  S240  1  0.61490366  0.02120502  0.03458722  1
  S2-  S241  1  0.63514244  -0.00484932  0.54982874  1
  S2-  S242  1  0.61150911  0.26930767  0.04703651  1
  S2-  S243  1  0.63358841  0.23345622  0.55785311  1
  S2-  S244  1  0.61403665  0.51630169  0.05153554  1
  S2-  S245  1  0.62662875  0.49685122  0.54062468  1
  S2-  S246  1  0.61607695  0.76914127  0.04019410  1
  S2-  S247  1  0.63208028  0.74565555  0.54406561  1
  S2-  S248  1  0.86742896  0.02134704  0.04055200  1
  S2-  S249  1  0.87387385  -0.00880592  0.53708071  1
  S2-  S250  1  0.87505288  0.26488760  0.05405344  1
  S2-  S251  1  0.87247429  0.23381374  0.54977118  1
  S2-  S252  1  0.87281870  0.52106832  0.05360789  1
  S2-  S253  1  0.87357967  0.49515654  0.54097812  1
  S2-  S254  1  0.86744417  0.77105390  0.03704590  1
  S2-  S255  1  0.87424552  0.73977825  0.53599461  1
