# generated using pymatgen
data_La6Ce6Pr19Nd20Sm13(BiS2)64
_symmetry_space_group_name_H-M   'P 1'
_cell_length_a   16.12190604
_cell_length_b   16.04662625
_cell_length_c   27.22746642
_cell_angle_alpha   89.92779051
_cell_angle_beta   89.99861855
_cell_angle_gamma   89.94983290
_symmetry_Int_Tables_number   1
_chemical_formula_structural   La6Ce6Pr19Nd20Sm13(BiS2)64
_chemical_formula_sum   'La6 Ce6 Pr19 Nd20 Sm13 Bi64 S128'
_cell_volume   7043.79718394
_cell_formula_units_Z   1
loop_
 _symmetry_equiv_pos_site_id
 _symmetry_equiv_pos_as_xyz
  1  'x, y, z'
loop_
 _atom_type_symbol
 _atom_type_oxidation_number
  La3+  3.0
  Ce3+  3.0
  Pr3+  3.0
  Nd3+  3.0
  Sm3+  3.0
  Bi2+  2.0
  S2-  -2.0
loop_
 _atom_site_type_symbol
 _atom_site_label
 _atom_site_symmetry_multiplicity
 _atom_site_fract_x
 _atom_site_fract_y
 _atom_site_fract_z
 _atom_site_occupancy
  La3+  La0  1  0.01115491  0.38990828  0.09255711  1
  La3+  La1  1  0.62350807  0.24122581  0.42657224  1
  La3+  La2  1  0.37187527  -0.02065450  0.40154515  1
  La3+  La3  1  0.13656975  0.01798673  0.92080885  1
  La3+  La4  1  0.62874477  0.01555467  0.93284860  1
  La3+  La5  1  0.00812612  0.12831235  0.07724185  1
  Ce3+  Ce6  1  0.25645145  0.88483610  0.04891277  1
  Ce3+  Ce7  1  0.24871508  0.61135796  0.55212506  1
  Ce3+  Ce8  1  -0.00034208  0.11075114  0.56650597  1
  Ce3+  Ce9  1  0.62650461  0.49081192  0.42379013  1
  Ce3+  Ce10  1  0.25685164  0.63595655  0.05481362  1
  Ce3+  Ce11  1  0.24801966  0.11221317  0.55757726  1
  Pr3+  Pr12  1  0.12553161  0.76182299  0.92351752  1
  Pr3+  Pr13  1  0.12451310  -0.01150918  0.43829606  1
  Pr3+  Pr14  1  0.12492227  0.74450607  0.43812678  1
  Pr3+  Pr15  1  0.38601722  0.01355122  0.92335806  1
  Pr3+  Pr16  1  0.88344843  0.49612830  0.42504373  1
  Pr3+  Pr17  1  0.12953691  0.50723987  0.94530323  1
  Pr3+  Pr18  1  0.75158089  0.36381330  0.55100856  1
  Pr3+  Pr19  1  0.87442532  -0.01050266  0.44382722  1
  Pr3+  Pr20  1  0.75723861  0.38280841  0.07017317  1
  Pr3+  Pr21  1  0.26134579  0.38363348  0.07110535  1
  Pr3+  Pr22  1  0.12909509  0.47950495  0.42157168  1
  Pr3+  Pr23  1  0.37385824  0.49106825  0.43010503  1
  Pr3+  Pr24  1  0.63157925  0.25980889  0.94227426  1
  Pr3+  Pr25  1  0.25797944  0.12242733  0.07147153  1
  Pr3+  Pr26  1  0.88170610  0.01557469  0.93428889  1
  Pr3+  Pr27  1  0.50444831  0.63621830  0.06786573  1
  Pr3+  Pr28  1  0.87659740  0.23248708  0.42647858  1
  Pr3+  Pr29  1  0.00290041  0.60715409  0.56831502  1
  Pr3+  Pr30  1  0.88310879  0.50494099  0.93821709  1
  Nd3+  Nd31  1  0.50126925  0.11186037  0.55727615  1
  Nd3+  Nd32  1  0.37825518  0.74498224  0.44802400  1
  Nd3+  Nd33  1  0.62930311  0.50470643  0.94125996  1
  Nd3+  Nd34  1  0.38060139  0.50344994  0.93235449  1
  Nd3+  Nd35  1  0.75744422  0.13198617  0.07306043  1
  Nd3+  Nd36  1  0.12583044  0.23375694  0.43005212  1
  Nd3+  Nd37  1  0.25073193  0.86550100  0.57214647  1
  Nd3+  Nd38  1  0.50045685  0.61190188  0.55998890  1
  Nd3+  Nd39  1  0.87378791  0.74348311  0.44182474  1
  Nd3+  Nd40  1  0.88374885  0.25999484  0.94244718  1
  Nd3+  Nd41  1  0.37679806  0.75633228  0.92601438  1
  Nd3+  Nd42  1  0.75736705  0.88176972  0.05440180  1
  Nd3+  Nd43  1  0.50604450  0.88215317  0.06189696  1
  Nd3+  Nd44  1  0.62673357  -0.01042738  0.40327165  1
  Nd3+  Nd45  1  0.62797283  0.75628164  0.93721265  1
  Nd3+  Nd46  1  0.88048746  0.76480695  0.92083117  1
  Nd3+  Nd47  1  0.50063417  0.36487848  0.55497561  1
  Nd3+  Nd48  1  -0.00136837  0.85625465  0.57402816  1
  Nd3+  Nd49  1  0.75073558  0.61083955  0.55397361  1
  Nd3+  Nd50  1  0.37915442  0.23193023  0.44356347  1
  Sm3+  Sm51  1  0.75024185  0.11400061  0.55772998  1
  Sm3+  Sm52  1  0.00614783  0.63735124  0.06284712  1
  Sm3+  Sm53  1  0.50744946  0.12724733  0.07450111  1
  Sm3+  Sm54  1  0.00129795  0.36379812  0.55365566  1
  Sm3+  Sm55  1  0.50406923  0.38164809  0.06735495  1
  Sm3+  Sm56  1  0.50217384  0.86730722  0.56188287  1
  Sm3+  Sm57  1  0.13182918  0.25704730  0.95312097  1
  Sm3+  Sm58  1  0.38194323  0.25907721  0.94214716  1
  Sm3+  Sm59  1  0.74826073  0.86504585  0.56185826  1
  Sm3+  Sm60  1  0.00595369  0.88438024  0.05145320  1
  Sm3+  Sm61  1  0.75996145  0.63246970  0.05401146  1
  Sm3+  Sm62  1  0.62355601  0.74651738  0.44425811  1
  Sm3+  Sm63  1  0.24921808  0.36376851  0.55447516  1
  Bi2+  Bi64  1  -0.00831360  0.16500546  0.29627078  1
  Bi2+  Bi65  1  0.00784069  0.10572303  0.79547414  1
  Bi2+  Bi66  1  -0.03801519  0.40717857  0.29276101  1
  Bi2+  Bi67  1  0.02893251  0.38478016  0.80314581  1
  Bi2+  Bi68  1  0.03639584  0.69093049  0.30631730  1
  Bi2+  Bi69  1  -0.02549474  0.57721871  0.78492628  1
  Bi2+  Bi70  1  0.01760840  0.90857823  0.29344104  1
  Bi2+  Bi71  1  -0.01252076  0.84438800  0.78317667  1
  Bi2+  Bi72  1  0.24281042  0.17040212  0.29311956  1
  Bi2+  Bi73  1  0.31016437  0.10729299  0.77428211  1
  Bi2+  Bi74  1  0.22857099  0.43326365  0.25316093  1
  Bi2+  Bi75  1  0.30702677  0.37439617  0.76795173  1
  Bi2+  Bi76  1  0.29607551  0.62047660  0.28825173  1
  Bi2+  Bi77  1  0.26620479  0.58142278  0.79108187  1
  Bi2+  Bi78  1  0.26318801  0.83511033  0.28646759  1
  Bi2+  Bi79  1  0.24665844  0.85775317  0.78660044  1
  Bi2+  Bi80  1  0.51143465  0.15012863  0.28654984  1
  Bi2+  Bi81  1  0.52608558  0.12958626  0.79415922  1
  Bi2+  Bi82  1  0.48445859  0.40423365  0.28570793  1
  Bi2+  Bi83  1  0.51587595  0.34860820  0.79601783  1
  Bi2+  Bi84  1  0.47835123  0.58939575  0.33032157  1
  Bi2+  Bi85  1  0.46590454  0.59238180  0.82056577  1
  Bi2+  Bi86  1  0.55265210  0.85471826  0.27041814  1
  Bi2+  Bi87  1  0.50950144  0.87955298  0.77553777  1
  Bi2+  Bi88  1  0.76507256  0.04183569  0.28806841  1
  Bi2+  Bi89  1  0.71941647  0.10250738  0.76154372  1
  Bi2+  Bi90  1  0.69728187  0.45018904  0.26921156  1
  Bi2+  Bi91  1  0.81515868  0.27477675  0.79574348  1
  Bi2+  Bi92  1  0.64723097  0.65738983  0.29616201  1
  Bi2+  Bi93  1  0.79576745  0.64427045  0.81569235  1
  Bi2+  Bi94  1  0.82933494  0.86139688  0.31054283  1
  Bi2+  Bi95  1  0.75295617  0.84212270  0.78406036  1
  Bi2+  Bi96  1  0.13192880  0.00891895  0.20673193  1
  Bi2+  Bi97  1  0.13271892  0.01437993  0.69426113  1
  Bi2+  Bi98  1  0.10278718  0.27031005  0.22163221  1
  Bi2+  Bi99  1  0.15320474  0.23812175  0.76969410  1
  Bi2+  Bi100  1  0.10877216  0.58074667  0.22137236  1
  Bi2+  Bi101  1  0.14183054  0.47430168  0.69700508  1
  Bi2+  Bi102  1  0.11829543  0.78662744  0.20992818  1
  Bi2+  Bi103  1  0.10725591  0.67449655  0.72079774  1
  Bi2+  Bi104  1  0.37230876  0.01827681  0.20566278  1
  Bi2+  Bi105  1  0.38619365  -0.00138262  0.68435859  1
  Bi2+  Bi106  1  0.35967178  0.28567728  0.21608245  1
  Bi2+  Bi107  1  0.42179911  0.25110078  0.70343494  1
  Bi2+  Bi108  1  0.36176029  0.57808564  0.17878878  1
  Bi2+  Bi109  1  0.42504651  0.46280002  0.68852521  1
  Bi2+  Bi110  1  0.40566267  0.76626464  0.21561005  1
  Bi2+  Bi111  1  0.39647949  0.65258589  0.71553703  1
  Bi2+  Bi112  1  0.62440669  0.01312410  0.21188003  1
  Bi2+  Bi113  1  0.64714812  -0.05724318  0.70332328  1
  Bi2+  Bi114  1  0.55844565  0.27546246  0.20521837  1
  Bi2+  Bi115  1  0.66813041  0.30979690  0.72340272  1
  Bi2+  Bi116  1  0.54718107  0.55255697  0.21221543  1
  Bi2+  Bi117  1  0.65176258  0.51547790  0.79553202  1
  Bi2+  Bi118  1  0.71518521  0.77016483  0.21020017  1
  Bi2+  Bi119  1  0.58903763  0.67359825  0.73835158  1
  Bi2+  Bi120  1  0.88882975  -0.03863181  0.20851833  1
  Bi2+  Bi121  1  0.88723215  0.05428810  0.70989536  1
  Bi2+  Bi122  1  0.81625558  0.25154994  0.21163995  1
  Bi2+  Bi123  1  0.95838391  0.26585032  0.71752403  1
  Bi2+  Bi124  1  0.88375850  0.62737629  0.21714709  1
  Bi2+  Bi125  1  0.86659761  0.47827975  0.70329584  1
  Bi2+  Bi126  1  0.94011440  0.77959787  0.16155887  1
  Bi2+  Bi127  1  0.85417633  0.71846024  0.71001385  1
  S2-  S128  1  -0.12646241  0.13787310  0.15138721  1
  S2-  S129  1  0.04918326  0.16006983  0.65593709  1
  S2-  S130  1  -0.05495243  0.33866961  0.18804166  1
  S2-  S131  1  -0.00073852  0.46766438  0.63452357  1
  S2-  S132  1  -0.00999617  0.54703711  0.14890239  1
  S2-  S133  1  0.00221712  0.72223216  0.64578311  1
  S2-  S134  1  0.02179287  0.97561998  0.13715555  1
  S2-  S135  1  0.00182425  0.93759385  0.66368929  1
  S2-  S136  1  0.13953635  0.14665785  0.15177538  1
  S2-  S137  1  0.26493699  0.11293495  0.65555380  1
  S2-  S138  1  0.15753424  0.38860563  0.15565734  1
  S2-  S139  1  0.23175004  0.36146141  0.65236534  1
  S2-  S140  1  0.21996116  0.66852324  0.14870017  1
  S2-  S141  1  0.21435531  0.61421460  0.64728267  1
  S2-  S142  1  0.26304001  0.95444072  0.14014504  1
  S2-  S143  1  0.24468529  0.88002228  0.67415434  1
  S2-  S144  1  0.37791604  0.14785894  0.14766160  1
  S2-  S145  1  0.50031825  0.10976821  0.65903030  1
  S2-  S146  1  0.39075055  0.40220496  0.14204062  1
  S2-  S147  1  0.54412948  0.34593075  0.65080669  1
  S2-  S148  1  0.51247890  0.76221934  0.13946388  1
  S2-  S149  1  0.54550176  0.58274268  0.65402776  1
  S2-  S150  1  0.50016986  0.99021269  0.14221796  1
  S2-  S151  1  0.49823121  0.86377310  0.66138546  1
  S2-  S152  1  0.63839360  0.15019978  0.14996982  1
  S2-  S153  1  0.76376899  0.12393508  0.65610942  1
  S2-  S154  1  0.73210432  0.38018944  0.17081102  1
  S2-  S155  1  0.77777624  0.36491929  0.65160231  1
  S2-  S156  1  0.75009565  0.63011728  0.15262483  1
  S2-  S157  1  0.78226928  0.59708951  0.65249579  1
  S2-  S158  1  0.74141516  0.91811187  0.15210834  1
  S2-  S159  1  0.77169798  0.85571776  0.65938916  1
  S2-  S160  1  0.11763321  0.10763548  0.35791526  1
  S2-  S161  1  0.10251841  -0.09812268  0.84039794  1
  S2-  S162  1  0.09222232  0.33320509  0.34747663  1
  S2-  S163  1  0.12685180  0.17591902  0.86394240  1
  S2-  S164  1  0.01533943  0.53224684  0.35279208  1
  S2-  S165  1  0.14993373  0.48369774  0.84593177  1
  S2-  S166  1  0.13685185  0.86490443  0.36291040  1
  S2-  S167  1  0.23195800  0.72638006  0.84396918  1
  S2-  S168  1  0.29517656  0.01580746  0.30490635  1
  S2-  S169  1  0.26788151  0.00134870  0.84437106  1
  S2-  S170  1  0.38060366  0.22828131  0.34448754  1
  S2-  S171  1  0.39368069  0.16167839  0.85891458  1
  S2-  S172  1  0.26178999  0.48013514  0.35067687  1
  S2-  S173  1  0.37762142  0.37627455  0.86255684  1
  S2-  S174  1  0.37560798  0.81602672  0.35763429  1
  S2-  S175  1  0.39295033  0.82706353  0.83330702  1
  S2-  S176  1  0.50034725  -0.00234575  0.33316544  1
  S2-  S177  1  0.51951647  -0.01096528  0.85252887  1
  S2-  S178  1  0.65136538  0.13928498  0.34565383  1
  S2-  S179  1  0.65089298  0.14922209  0.86110681  1
  S2-  S180  1  0.62167074  0.37127594  0.35066747  1
  S2-  S181  1  0.63504270  0.38570417  0.86709970  1
  S2-  S182  1  0.63480821  0.82847898  0.35756229  1
  S2-  S183  1  0.61906308  0.78338015  0.83801139  1
  S2-  S184  1  0.89087707  0.08764763  0.36007914  1
  S2-  S185  1  0.87020034  -0.09678099  0.85074023  1
  S2-  S186  1  0.86680410  0.27961891  0.32493272  1
  S2-  S187  1  0.88672486  0.14608737  0.86242408  1
  S2-  S188  1  0.81672453  0.48768793  0.32874880  1
  S2-  S189  1  0.88023600  0.38299327  0.86393115  1
  S2-  S190  1  0.87577029  0.70715321  0.34407263  1
  S2-  S191  1  1.00206641  0.72220364  0.85045596  1
  S2-  S192  1  0.00096954  0.11423428  0.46229494  1
  S2-  S193  1  0.00730024  0.13588881  0.96570736  1
  S2-  S194  1  -0.00346992  0.36021146  0.45177739  1
  S2-  S195  1  0.01031436  0.38166804  0.96417385  1
  S2-  S196  1  0.00055520  0.62289864  0.46017700  1
  S2-  S197  1  0.00320953  0.63164709  0.95724748  1
  S2-  S198  1  -0.00327925  0.86527610  0.46231048  1
  S2-  S199  1  0.00336573  0.88643427  0.95019714  1
  S2-  S200  1  0.25960048  0.10500919  0.45126584  1
  S2-  S201  1  0.25921760  0.13782782  0.96231877  1
  S2-  S202  1  0.25435931  0.35536075  0.45034928  1
  S2-  S203  1  0.25424974  0.38222661  0.96250430  1
  S2-  S204  1  0.25158988  0.62072491  0.44662053  1
  S2-  S205  1  0.25780552  0.62956669  0.94981133  1
  S2-  S206  1  0.25603053  0.86897873  0.46418147  1
  S2-  S207  1  0.25661362  0.88090104  0.94590384  1
  S2-  S208  1  0.50161873  0.10441675  0.45003597  1
  S2-  S209  1  0.50673410  0.13787581  0.96525620  1
  S2-  S210  1  0.49601887  0.36662658  0.44945865  1
  S2-  S211  1  0.50448687  0.38562470  0.96500026  1
  S2-  S212  1  0.50259054  0.61792219  0.45370161  1
  S2-  S213  1  0.50538283  0.63087413  0.95545709  1
  S2-  S214  1  0.50273585  0.87213712  0.45762687  1
  S2-  S215  1  0.50467456  0.87639659  0.95456943  1
  S2-  S216  1  0.74475268  0.10977271  0.45437599  1
  S2-  S217  1  0.75832947  0.13744650  0.96716589  1
  S2-  S218  1  0.75642719  0.36406032  0.44546890  1
  S2-  S219  1  0.75681658  0.38556949  0.96508148  1
  S2-  S220  1  0.74645374  0.61957924  0.44723917  1
  S2-  S221  1  0.75580670  0.63082784  0.94921703  1
  S2-  S222  1  0.74669720  0.86919649  0.45770963  1
  S2-  S223  1  0.75071078  0.88293333  0.94871117  1
  S2-  S224  1  0.13192336  0.00442892  0.03359933  1
  S2-  S225  1  0.12384599  -0.01513779  0.54930050  1
  S2-  S226  1  0.13174770  0.26195351  0.05422342  1
  S2-  S227  1  0.12595333  0.24114661  0.54081049  1
  S2-  S228  1  0.13148678  0.51291343  0.05101838  1
  S2-  S229  1  0.12799938  0.48432453  0.53281844  1
  S2-  S230  1  0.12783454  0.75935786  0.03866367  1
  S2-  S231  1  0.12924535  0.74160069  0.54504915  1
  S2-  S232  1  0.38313901  0.00517808  0.03579106  1
  S2-  S233  1  0.37685885  -0.01277704  0.55532092  1
  S2-  S234  1  0.38514875  0.25846781  0.04701480  1
  S2-  S235  1  0.37539501  0.23928230  0.54959642  1
  S2-  S236  1  0.38355497  0.51235966  0.03983725  1
  S2-  S237  1  0.37463610  0.48794886  0.54112958  1
  S2-  S238  1  0.37944764  0.75793761  0.03779543  1
  S2-  S239  1  0.37776835  0.74028171  0.55564173  1
  S2-  S240  1  0.63321806  0.00675133  0.04243907  1
  S2-  S241  1  0.62745007  -0.01053341  0.55716183  1
  S2-  S242  1  0.62779362  0.26315440  0.05050528  1
  S2-  S243  1  0.62572599  0.23749728  0.54048420  1
  S2-  S244  1  0.62997556  0.51038793  0.05111117  1
  S2-  S245  1  0.62508282  0.48841951  0.53638181  1
  S2-  S246  1  0.63645976  0.75384790  0.04230738  1
  S2-  S247  1  0.62480883  0.73981267  0.55046061  1
  S2-  S248  1  0.87887074  0.00461354  0.04224561  1
  S2-  S249  1  0.87228461  -0.01289904  0.55123932  1
  S2-  S250  1  0.88436179  0.26367542  0.05333015  1
  S2-  S251  1  0.87675603  0.23741328  0.54372487  1
  S2-  S252  1  0.88127583  0.50874724  0.04686471  1
  S2-  S253  1  0.87511259  0.48912233  0.53438933  1
  S2-  S254  1  0.88011565  0.75642546  0.03362883  1
  S2-  S255  1  0.86955769  0.73937112  0.54761196  1
