# generated using pymatgen
data_La6Ce6Pr19Nd20Sm13(BiS2)64
_symmetry_space_group_name_H-M   'P 1'
_cell_length_a   16.05181285
_cell_length_b   16.08610079
_cell_length_c   27.23860328
_cell_angle_alpha   89.94662007
_cell_angle_beta   89.68709411
_cell_angle_gamma   89.97152803
_symmetry_Int_Tables_number   1
_chemical_formula_structural   La6Ce6Pr19Nd20Sm13(BiS2)64
_chemical_formula_sum   'La6 Ce6 Pr19 Nd20 Sm13 Bi64 S128'
_cell_volume   7033.20036655
_cell_formula_units_Z   1
loop_
 _symmetry_equiv_pos_site_id
 _symmetry_equiv_pos_as_xyz
  1  'x, y, z'
loop_
 _atom_type_symbol
 _atom_type_oxidation_number
  La3+  3.0
  Ce3+  3.0
  Pr3+  3.0
  Nd3+  3.0
  Sm3+  3.0
  Bi2+  2.0
  S2-  -2.0
loop_
 _atom_site_type_symbol
 _atom_site_label
 _atom_site_symmetry_multiplicity
 _atom_site_fract_x
 _atom_site_fract_y
 _atom_site_fract_z
 _atom_site_occupancy
  La3+  La0  1  0.73995066  0.14032335  0.07646420  1
  La3+  La1  1  0.11613253  0.51248530  0.92711734  1
  La3+  La2  1  0.62979758  0.49810219  0.42976133  1
  La3+  La3  1  0.50374791  0.60603400  0.59577120  1
  La3+  La4  1  0.37212894  0.24172400  0.42516941  1
  La3+  La5  1  0.12304986  0.74051274  0.41107665  1
  Ce3+  Ce6  1  0.50202382  0.36548066  0.55332339  1
  Ce3+  Ce7  1  0.86754819  0.75865102  0.94355393  1
  Ce3+  Ce8  1  0.87999782  0.74161061  0.44633154  1
  Ce3+  Ce9  1  0.24489516  0.13105831  0.04943922  1
  Ce3+  Ce10  1  0.62310548  0.25814130  0.93409563  1
  Ce3+  Ce11  1  -0.00317039  0.62987042  0.05781277  1
  Pr3+  Pr12  1  0.74437614  0.86923781  0.56173704  1
  Pr3+  Pr13  1  0.48702986  0.38559738  0.06957323  1
  Pr3+  Pr14  1  0.37643107  0.25733428  0.92839668  1
  Pr3+  Pr15  1  0.38052624  0.74038271  0.45374957  1
  Pr3+  Pr16  1  0.75137369  0.61687629  0.57120210  1
  Pr3+  Pr17  1  0.12997631  0.26421342  0.89557278  1
  Pr3+  Pr18  1  -0.00474867  0.88177955  0.07111667  1
  Pr3+  Pr19  1  0.25266505  0.11225817  0.55709304  1
  Pr3+  Pr20  1  0.36612399  0.50616305  0.93307049  1
  Pr3+  Pr21  1  0.63468528  -0.00966557  0.42342900  1
  Pr3+  Pr22  1  0.88334233  -0.00832803  0.43240087  1
  Pr3+  Pr23  1  0.75003778  0.36429274  0.55704399  1
  Pr3+  Pr24  1  0.01141041  0.36104884  0.59759036  1
  Pr3+  Pr25  1  0.48700051  0.87093169  0.61161435  1
  Pr3+  Pr26  1  0.87219953  0.25715124  0.93016848  1
  Pr3+  Pr27  1  0.73704803  0.38452394  0.07547134  1
  Pr3+  Pr28  1  0.62597804  0.00845350  0.93363785  1
  Pr3+  Pr29  1  0.37817842  -0.01372559  0.43733368  1
  Pr3+  Pr30  1  0.74393345  0.88383483  0.07033762  1
  Nd3+  Nd31  1  0.49022897  0.13131040  0.05985925  1
  Nd3+  Nd32  1  0.62861342  0.75085809  0.93076642  1
  Nd3+  Nd33  1  0.37763738  0.75831743  0.92814625  1
  Nd3+  Nd34  1  0.75010811  0.11714976  0.54939519  1
  Nd3+  Nd35  1  0.37632467  0.49338203  0.44640267  1
  Nd3+  Nd36  1  0.24430260  0.63478299  0.06280320  1
  Nd3+  Nd37  1  0.87750590  0.24230914  0.43818777  1
  Nd3+  Nd38  1  0.12493949  0.00443744  0.93076247  1
  Nd3+  Nd39  1  0.12715206  0.49377533  0.44086497  1
  Nd3+  Nd40  1  0.50242947  0.11239524  0.55353360  1
  Nd3+  Nd41  1  0.12637890  0.24033219  0.43985757  1
  Nd3+  Nd42  1  0.37807942  0.00366166  0.93201368  1
  Nd3+  Nd43  1  0.61730933  0.24434559  0.39486995  1
  Nd3+  Nd44  1  0.62567576  0.73894696  0.44704544  1
  Nd3+  Nd45  1  0.74226016  0.62996543  0.06851749  1
  Nd3+  Nd46  1  0.86915979  0.00707850  0.93915744  1
  Nd3+  Nd47  1  0.24407039  0.38549542  0.06532624  1
  Nd3+  Nd48  1  0.24635911  0.61684846  0.56462373  1
  Nd3+  Nd49  1  -0.00454843  0.13249525  0.05428902  1
  Nd3+  Nd50  1  0.12027408  0.75863159  0.93471715  1
  Sm3+  Sm51  1  0.86964995  0.50485744  0.94566025  1
  Sm3+  Sm52  1  0.49847722  0.88086362  0.05911294  1
  Sm3+  Sm53  1  0.49155733  0.63258907  0.05510003  1
  Sm3+  Sm54  1  0.87843737  0.48992364  0.45275872  1
  Sm3+  Sm55  1  0.24276926  0.87665591  0.06638613  1
  Sm3+  Sm56  1  0.12492769  -0.01485085  0.43194947  1
  Sm3+  Sm57  1  0.00196211  0.86996147  0.56652724  1
  Sm3+  Sm58  1  0.00210547  0.61651375  0.56171422  1
  Sm3+  Sm59  1  0.00133788  0.11520523  0.56759072  1
  Sm3+  Sm60  1  0.25200500  0.36456382  0.56308417  1
  Sm3+  Sm61  1  0.25017398  0.86374923  0.56128917  1
  Sm3+  Sm62  1  -0.00331150  0.37776393  0.05291103  1
  Sm3+  Sm63  1  0.62139224  0.50548141  0.94253101  1
  Bi2+  Bi64  1  0.07100775  0.16700618  0.25884590  1
  Bi2+  Bi65  1  -0.02822944  0.04019392  0.79408303  1
  Bi2+  Bi66  1  0.05272921  0.36450536  0.28305959  1
  Bi2+  Bi67  1  0.01046733  0.41765485  0.78625594  1
  Bi2+  Bi68  1  0.03919092  0.66197670  0.28483907  1
  Bi2+  Bi69  1  0.00873371  0.70186421  0.78820301  1
  Bi2+  Bi70  1  0.02238014  0.89168682  0.29343217  1
  Bi2+  Bi71  1  -0.01608267  0.87049683  0.85090367  1
  Bi2+  Bi72  1  0.26253551  0.14524322  0.28782020  1
  Bi2+  Bi73  1  0.25860021  0.10797195  0.79360471  1
  Bi2+  Bi74  1  0.24376911  0.41403890  0.29748586  1
  Bi2+  Bi75  1  0.25451628  0.30930660  0.73939580  1
  Bi2+  Bi76  1  0.26033750  0.65207447  0.28313406  1
  Bi2+  Bi77  1  0.25188637  0.56158189  0.80310418  1
  Bi2+  Bi78  1  0.30925064  0.88017251  0.28893121  1
  Bi2+  Bi79  1  0.16730415  0.85954862  0.80184206  1
  Bi2+  Bi80  1  0.50296743  0.05364962  0.26735999  1
  Bi2+  Bi81  1  0.47597498  0.13706727  0.79148633  1
  Bi2+  Bi82  1  0.48307118  0.38430482  0.28132606  1
  Bi2+  Bi83  1  0.53511211  0.38209171  0.74525977  1
  Bi2+  Bi84  1  0.49427286  0.67206009  0.28831193  1
  Bi2+  Bi85  1  0.48728943  0.62670519  0.79586274  1
  Bi2+  Bi86  1  0.55176664  0.86078875  0.28966582  1
  Bi2+  Bi87  1  0.43397881  0.87869114  0.79832105  1
  Bi2+  Bi88  1  0.78546068  0.10963395  0.30270705  1
  Bi2+  Bi89  1  0.68164191  0.14712946  0.79728550  1
  Bi2+  Bi90  1  0.77467768  0.40329629  0.29283705  1
  Bi2+  Bi91  1  0.78163236  0.34847846  0.76510683  1
  Bi2+  Bi92  1  0.76276216  0.65533081  0.30284394  1
  Bi2+  Bi93  1  0.78628484  0.60261617  0.80991275  1
  Bi2+  Bi94  1  0.75322549  0.84913293  0.27733049  1
  Bi2+  Bi95  1  0.74015695  0.88872721  0.79328032  1
  Bi2+  Bi96  1  0.20530591  0.00040486  0.21403665  1
  Bi2+  Bi97  1  0.11670058  0.00623419  0.71262307  1
  Bi2+  Bi98  1  0.20363885  0.30330319  0.20543294  1
  Bi2+  Bi99  1  0.06396965  0.24023871  0.74718454  1
  Bi2+  Bi100  1  0.09350974  0.52179557  0.19669522  1
  Bi2+  Bi101  1  0.11930818  0.51708797  0.70197124  1
  Bi2+  Bi102  1  0.15112266  0.76775283  0.20314467  1
  Bi2+  Bi103  1  0.06774810  0.81456796  0.69675272  1
  Bi2+  Bi104  1  0.39468623  -0.01829383  0.17812325  1
  Bi2+  Bi105  1  0.34522719  0.03112737  0.70402678  1
  Bi2+  Bi106  1  0.39183928  0.24535869  0.21845190  1
  Bi2+  Bi107  1  0.42324622  0.24176244  0.69562201  1
  Bi2+  Bi108  1  0.35759947  0.53876981  0.21479682  1
  Bi2+  Bi109  1  0.37220999  0.47298148  0.70416089  1
  Bi2+  Bi110  1  0.42591138  0.79483851  0.20550856  1
  Bi2+  Bi111  1  0.25470642  0.76141339  0.72007028  1
  Bi2+  Bi112  1  0.65710755  -0.01619924  0.20429366  1
  Bi2+  Bi113  1  0.62294969  0.01514064  0.71416194  1
  Bi2+  Bi114  1  0.64470801  0.24168585  0.20521716  1
  Bi2+  Bi115  1  0.64390120  0.24100686  0.69604315  1
  Bi2+  Bi116  1  0.61578024  0.51209389  0.20650464  1
  Bi2+  Bi117  1  0.69388845  0.50622174  0.72144105  1
  Bi2+  Bi118  1  0.69529565  0.68871371  0.19408240  1
  Bi2+  Bi119  1  0.65299943  0.76523571  0.72378229  1
  Bi2+  Bi120  1  0.92900758  0.00761437  0.20769155  1
  Bi2+  Bi121  1  0.84631022  -0.00735231  0.70632934  1
  Bi2+  Bi122  1  0.92653892  0.27016339  0.20883983  1
  Bi2+  Bi123  1  0.87840944  0.18706878  0.73255200  1
  Bi2+  Bi124  1  0.90197214  0.52547375  0.25222550  1
  Bi2+  Bi125  1  0.87306189  0.59721714  0.70237881  1
  Bi2+  Bi126  1  0.88308862  0.74434085  0.20967782  1
  Bi2+  Bi127  1  0.85580344  0.79477093  0.70992171  1
  S2-  S128  1  0.01313161  0.12891086  0.15558764  1
  S2-  S129  1  -0.00598772  0.21435003  0.65113936  1
  S2-  S130  1  0.00349398  0.39779057  0.15185607  1
  S2-  S131  1  -0.03528304  0.44415356  0.68294224  1
  S2-  S132  1  0.01928519  0.67492184  0.15116743  1
  S2-  S133  1  0.03067260  0.64070542  0.65752105  1
  S2-  S134  1  0.12145733  0.90308579  0.14225441  1
  S2-  S135  1  -0.00614662  0.99126738  0.63804277  1
  S2-  S136  1  0.28690055  0.11132065  0.14381454  1
  S2-  S137  1  0.21802642  0.11088531  0.65599914  1
  S2-  S138  1  0.35985349  0.34501401  0.14126663  1
  S2-  S139  1  0.17063347  0.37074913  0.64992934  1
  S2-  S140  1  0.23242657  0.51868373  0.13995972  1
  S2-  S141  1  0.24834111  0.61206847  0.66427159  1
  S2-  S142  1  0.27202889  0.75196719  0.13908167  1
  S2-  S143  1  0.31730761  0.87357875  0.65234488  1
  S2-  S144  1  0.58918202  0.13316574  0.14277654  1
  S2-  S145  1  0.49803067  0.03752237  0.64507120  1
  S2-  S146  1  0.59746828  0.36836043  0.15067805  1
  S2-  S147  1  0.50942628  0.43855494  0.64236387  1
  S2-  S148  1  0.47711488  0.55514958  0.14490305  1
  S2-  S149  1  0.44795886  0.61839220  0.69848162  1
  S2-  S150  1  0.60701179  0.87740424  0.13770722  1
  S2-  S151  1  0.49539457  0.82468604  0.71509981  1
  S2-  S152  1  0.79668536  0.07904739  0.17267675  1
  S2-  S153  1  0.73935353  0.10169955  0.64900502  1
  S2-  S154  1  0.78953240  0.28086848  0.15416076  1
  S2-  S155  1  0.75119043  0.36767453  0.65802586  1
  S2-  S156  1  0.75087611  0.51959078  0.14757428  1
  S2-  S157  1  0.65029309  0.63000997  0.65309694  1
  S2-  S158  1  0.87016151  0.88267593  0.14629875  1
  S2-  S159  1  0.65418990  0.88276219  0.64766067  1
  S2-  S160  1  0.00746081  0.00813960  0.35744626  1
  S2-  S161  1  0.11423074  0.10533024  0.84779985  1
  S2-  S162  1  0.23267191  0.26124715  0.35986290  1
  S2-  S163  1  -0.02234028  0.27569650  0.84390525  1
  S2-  S164  1  0.13503396  0.58924057  0.35618415  1
  S2-  S165  1  0.15592280  0.42464133  0.84249090  1
  S2-  S166  1  0.16571456  0.87825186  0.35033674  1
  S2-  S167  1  0.12244615  0.64699205  0.85371765  1
  S2-  S168  1  0.36957447  0.02437951  0.33892869  1
  S2-  S169  1  0.29203012  -0.04670361  0.84811960  1
  S2-  S170  1  0.47015147  0.25446339  0.34036262  1
  S2-  S171  1  0.28325070  0.25686041  0.83994409  1
  S2-  S172  1  0.37667063  0.47752454  0.34690866  1
  S2-  S173  1  0.39592788  0.49000876  0.83278298  1
  S2-  S174  1  0.36181444  0.72591196  0.35213673  1
  S2-  S175  1  0.34114768  0.69965355  0.83340337  1
  S2-  S176  1  0.61666163  0.09020826  0.33992527  1
  S2-  S177  1  0.50538866  0.00164478  0.85600467  1
  S2-  S178  1  0.70340313  0.25727293  0.30455747  1
  S2-  S179  1  0.51097302  0.26053389  0.85767554  1
  S2-  S180  1  0.62115527  0.42649379  0.33721674  1
  S2-  S181  1  0.62983469  0.56564383  0.84933357  1
  S2-  S182  1  0.62118006  0.64345327  0.36182631  1
  S2-  S183  1  0.52476400  0.77266180  0.85017341  1
  S2-  S184  1  0.77609769  -0.03856770  0.35358261  1
  S2-  S185  1  0.75531563  0.01883379  0.86010920  1
  S2-  S186  1  0.89762966  0.20473321  0.34142698  1
  S2-  S187  1  0.74266050  0.27546579  0.85817433  1
  S2-  S188  1  0.85535489  0.51886029  0.35721174  1
  S2-  S189  1  0.92624677  0.51565768  0.85229049  1
  S2-  S190  1  0.96142101  0.76125326  0.35943041  1
  S2-  S191  1  0.76595854  0.75033573  0.86252181  1
  S2-  S192  1  0.00533944  0.11876835  0.46116066  1
  S2-  S193  1  -0.00366589  0.13008257  0.94946329  1
  S2-  S194  1  0.00360601  0.36814766  0.44382518  1
  S2-  S195  1  -0.00211753  0.38078972  0.95064881  1
  S2-  S196  1  0.00136297  0.61524002  0.45837560  1
  S2-  S197  1  -0.01028792  0.63581735  0.95427830  1
  S2-  S198  1  0.00645328  0.86434061  0.46293792  1
  S2-  S199  1  -0.00477442  0.88361169  0.96306903  1
  S2-  S200  1  0.24742089  0.10938704  0.45110825  1
  S2-  S201  1  0.24914186  0.12901792  0.94574677  1
  S2-  S202  1  0.25004468  0.37033115  0.46007454  1
  S2-  S203  1  0.24379087  0.37872032  0.95323641  1
  S2-  S204  1  0.24979212  0.61939184  0.45935154  1
  S2-  S205  1  0.24816909  0.63709131  0.95505956  1
  S2-  S206  1  0.25021430  0.86236683  0.45800145  1
  S2-  S207  1  0.24618006  0.87757069  0.95788038  1
  S2-  S208  1  0.50031659  0.11812019  0.44784398  1
  S2-  S209  1  0.49738889  0.13023736  0.95622873  1
  S2-  S210  1  0.50267617  0.36624600  0.44933777  1
  S2-  S211  1  0.49600035  0.38839897  0.95618042  1
  S2-  S212  1  0.50010240  0.61315566  0.46337559  1
  S2-  S213  1  0.49550812  0.62935541  0.95154886  1
  S2-  S214  1  0.50597657  0.86463933  0.43859795  1
  S2-  S215  1  0.50145042  0.87757764  0.95710045  1
  S2-  S216  1  0.74919528  0.12541297  0.44477483  1
  S2-  S217  1  0.74809294  0.13575703  0.96263960  1
  S2-  S218  1  0.75170491  0.36509564  0.44916245  1
  S2-  S219  1  0.74584501  0.38772617  0.96109225  1
  S2-  S220  1  0.75737338  0.61712147  0.46461546  1
  S2-  S221  1  0.74711700  0.62492222  0.96299888  1
  S2-  S222  1  0.75325860  0.86063812  0.45598077  1
  S2-  S223  1  0.74526410  0.88099656  0.96241925  1
  S2-  S224  1  0.12130351  0.00733132  0.03815745  1
  S2-  S225  1  0.12915633  -0.01207590  0.54170041  1
  S2-  S226  1  0.12233286  0.25744319  0.05371042  1
  S2-  S227  1  0.12751251  0.24091470  0.54544187  1
  S2-  S228  1  0.11738427  0.50591831  0.03763721  1
  S2-  S229  1  0.12199866  0.48890249  0.54801512  1
  S2-  S230  1  0.11901995  0.75737832  0.04086020  1
  S2-  S231  1  0.12405971  0.74400123  0.55456624  1
  S2-  S232  1  0.37009564  -0.00097662  0.04009351  1
  S2-  S233  1  0.37821696  -0.01651334  0.54412314  1
  S2-  S234  1  0.36932789  0.25419683  0.03658039  1
  S2-  S235  1  0.37441169  0.24085482  0.54234145  1
  S2-  S236  1  0.36766270  0.51107965  0.03904972  1
  S2-  S237  1  0.37132052  0.49203241  0.55266979  1
  S2-  S238  1  0.37597755  0.75973548  0.03767308  1
  S2-  S239  1  0.37916061  0.73798293  0.56111874  1
  S2-  S240  1  0.61873252  0.00827751  0.04111121  1
  S2-  S241  1  0.62704682  -0.00592763  0.53412770  1
  S2-  S242  1  0.61364480  0.25938745  0.04218662  1
  S2-  S243  1  0.62374796  0.24005166  0.55009847  1
  S2-  S244  1  0.61462660  0.51007819  0.04510249  1
  S2-  S245  1  0.62936139  0.49289052  0.54315593  1
  S2-  S246  1  0.61873023  0.75010613  0.04137847  1
  S2-  S247  1  0.61656040  0.74394874  0.55147765  1
  S2-  S248  1  0.86903833  0.01065202  0.04547010  1
  S2-  S249  1  0.87332975  -0.00875617  0.54032916  1
  S2-  S250  1  0.87317574  0.25783880  0.04171788  1
  S2-  S251  1  0.88004254  0.24237809  0.54640540  1
  S2-  S252  1  0.87370721  0.50338985  0.04874489  1
  S2-  S253  1  0.88099552  0.48857461  0.55719089  1
  S2-  S254  1  0.86777055  0.75213283  0.04916706  1
  S2-  S255  1  0.87809929  0.74383954  0.55613968  1
