# generated using pymatgen
data_La6Ce6Pr19Nd20Sm13(BiS2)64
_symmetry_space_group_name_H-M   'P 1'
_cell_length_a   16.06863248
_cell_length_b   16.06562153
_cell_length_c   27.31934014
_cell_angle_alpha   90.36218218
_cell_angle_beta   90.20608056
_cell_angle_gamma   89.82443128
_symmetry_Int_Tables_number   1
_chemical_formula_structural   La6Ce6Pr19Nd20Sm13(BiS2)64
_chemical_formula_sum   'La6 Ce6 Pr19 Nd20 Sm13 Bi64 S128'
_cell_volume   7052.33866859
_cell_formula_units_Z   1
loop_
 _symmetry_equiv_pos_site_id
 _symmetry_equiv_pos_as_xyz
  1  'x, y, z'
loop_
 _atom_type_symbol
 _atom_type_oxidation_number
  La3+  3.0
  Ce3+  3.0
  Pr3+  3.0
  Nd3+  3.0
  Sm3+  3.0
  Bi2+  2.0
  S2-  -2.0
loop_
 _atom_site_type_symbol
 _atom_site_label
 _atom_site_symmetry_multiplicity
 _atom_site_fract_x
 _atom_site_fract_y
 _atom_site_fract_z
 _atom_site_occupancy
  La3+  La0  1  0.00020172  0.88594211  0.07824063  1
  La3+  La1  1  0.38208517  0.50280502  0.38631873  1
  La3+  La2  1  0.50828645  0.63184091  0.10146867  1
  La3+  La3  1  0.74111763  0.36789124  0.60282119  1
  La3+  La4  1  0.75652631  0.62274803  0.57438050  1
  La3+  La5  1  0.12354994  0.24143612  0.43631879  1
  Ce3+  Ce6  1  0.37887070  0.75381782  0.94951132  1
  Ce3+  Ce7  1  -0.00304544  0.36536020  0.56497137  1
  Ce3+  Ce8  1  0.37422843  -0.01279472  0.44223037  1
  Ce3+  Ce9  1  0.62935056  -0.00773845  0.44760493  1
  Ce3+  Ce10  1  0.00077619  0.13630857  0.07591568  1
  Ce3+  Ce11  1  0.50021372  0.11944091  0.55863034  1
  Pr3+  Pr12  1  0.62429530  0.25806782  0.92715814  1
  Pr3+  Pr13  1  0.75582173  0.12013283  0.56314715  1
  Pr3+  Pr14  1  0.12388181  -0.01561714  0.43645179  1
  Pr3+  Pr15  1  0.87657975  0.00895034  0.94111561  1
  Pr3+  Pr16  1  0.13256840  0.51358339  0.93563095  1
  Pr3+  Pr17  1  0.36966322  0.25668769  0.92432839  1
  Pr3+  Pr18  1  0.12725733  0.00718898  0.94316775  1
  Pr3+  Pr19  1  0.12620748  0.25854779  0.93816517  1
  Pr3+  Pr20  1  0.00210498  0.38309019  0.06744162  1
  Pr3+  Pr21  1  0.00072881  0.61370820  0.56201833  1
  Pr3+  Pr22  1  0.75131485  0.38592198  0.05550944  1
  Pr3+  Pr23  1  0.25344437  0.61536559  0.55856349  1
  Pr3+  Pr24  1  0.37817628  0.00764398  0.92697310  1
  Pr3+  Pr25  1  0.25328048  0.63545671  0.08129139  1
  Pr3+  Pr26  1  0.37377134  0.74575285  0.43167115  1
  Pr3+  Pr27  1  0.25789193  0.88991102  0.06649780  1
  Pr3+  Pr28  1  0.87368943  0.73700799  0.43451621  1
  Pr3+  Pr29  1  0.75763319  0.63439690  0.07003572  1
  Pr3+  Pr30  1  0.62357292  0.24274160  0.43953449  1
  Nd3+  Nd31  1  0.62598406  0.00844706  0.94595511  1
  Nd3+  Nd32  1  0.24870133  0.86727205  0.57235844  1
  Nd3+  Nd33  1  0.37057767  0.24648308  0.43119883  1
  Nd3+  Nd34  1  0.25077536  0.11821327  0.56058201  1
  Nd3+  Nd35  1  0.63086332  0.48568722  0.43696855  1
  Nd3+  Nd36  1  0.13013260  0.48923448  0.43800203  1
  Nd3+  Nd37  1  0.87878875  0.24156447  0.43303905  1
  Nd3+  Nd38  1  0.88384812  0.50978952  0.92972220  1
  Nd3+  Nd39  1  0.50122030  0.61268635  0.55525476  1
  Nd3+  Nd40  1  0.75703878  0.86593417  0.56977881  1
  Nd3+  Nd41  1  0.50161357  0.86624612  0.55831978  1
  Nd3+  Nd42  1  0.37787363  0.50323920  0.93657971  1
  Nd3+  Nd43  1  0.62593980  0.73640681  0.44004995  1
  Nd3+  Nd44  1  0.25031569  0.38451038  0.06374159  1
  Nd3+  Nd45  1  0.49610206  0.36758932  0.56459480  1
  Nd3+  Nd46  1  0.50138995  0.38126517  0.06308318  1
  Nd3+  Nd47  1  0.87586617  0.75753399  0.93632260  1
  Nd3+  Nd48  1  0.12966809  0.75647177  0.94672652  1
  Nd3+  Nd49  1  0.86569487  -0.01669143  0.42119748  1
  Nd3+  Nd50  1  0.25238461  0.36667300  0.56558679  1
  Sm3+  Sm51  1  0.00125131  0.87009353  0.56097153  1
  Sm3+  Sm52  1  0.62743024  0.51060573  0.94261228  1
  Sm3+  Sm53  1  0.50342016  0.88333661  0.06340925  1
  Sm3+  Sm54  1  0.74990894  0.13593819  0.05684437  1
  Sm3+  Sm55  1  0.00039896  0.63814106  0.06551352  1
  Sm3+  Sm56  1  0.25547876  0.13758616  0.06430086  1
  Sm3+  Sm57  1  0.87690268  0.25836088  0.94230917  1
  Sm3+  Sm58  1  0.50022489  0.13800135  0.05737681  1
  Sm3+  Sm59  1  0.75057649  0.88292217  0.05578028  1
  Sm3+  Sm60  1  0.12530831  0.73807219  0.44702766  1
  Sm3+  Sm61  1  0.62658404  0.75416804  0.94532115  1
  Sm3+  Sm62  1  0.87211402  0.48930935  0.44415689  1
  Sm3+  Sm63  1  -0.00120714  0.11584002  0.55177541  1
  Bi2+  Bi64  1  0.01949811  0.16803126  0.27574792  1
  Bi2+  Bi65  1  0.05829299  0.16824128  0.74059444  1
  Bi2+  Bi66  1  0.01273557  0.42804234  0.30964925  1
  Bi2+  Bi67  1  0.02744724  0.35305749  0.77755066  1
  Bi2+  Bi68  1  -0.02969553  0.62199255  0.30422909  1
  Bi2+  Bi69  1  0.02338520  0.62139521  0.79512308  1
  Bi2+  Bi70  1  0.01036720  0.92252259  0.30118518  1
  Bi2+  Bi71  1  -0.02318095  0.89074932  0.77072928  1
  Bi2+  Bi72  1  0.27693471  0.10805920  0.28603486  1
  Bi2+  Bi73  1  0.26052310  0.13050315  0.79277092  1
  Bi2+  Bi74  1  0.25813350  0.34978622  0.28973246  1
  Bi2+  Bi75  1  0.26737789  0.39576179  0.79420545  1
  Bi2+  Bi76  1  0.17391820  0.65004780  0.28664221  1
  Bi2+  Bi77  1  0.26398496  0.65259902  0.79242404  1
  Bi2+  Bi78  1  0.26903077  0.90425425  0.27764614  1
  Bi2+  Bi79  1  0.25927149  0.92876671  0.80806434  1
  Bi2+  Bi80  1  0.47480446  0.11654735  0.30246648  1
  Bi2+  Bi81  1  0.50908807  0.06319053  0.77755369  1
  Bi2+  Bi82  1  0.52894808  0.37609626  0.28270831  1
  Bi2+  Bi83  1  0.46380529  0.50036413  0.79160768  1
  Bi2+  Bi84  1  0.50781563  0.63655911  0.28774960  1
  Bi2+  Bi85  1  0.45924315  0.69058947  0.75273484  1
  Bi2+  Bi86  1  0.47956647  0.92079421  0.27817917  1
  Bi2+  Bi87  1  0.45156143  0.89095646  0.81460523  1
  Bi2+  Bi88  1  0.67115462  0.14345103  0.30864539  1
  Bi2+  Bi89  1  0.78277755  0.11282740  0.79726590  1
  Bi2+  Bi90  1  0.82524722  0.37936854  0.29382148  1
  Bi2+  Bi91  1  0.73836225  0.36315870  0.82551111  1
  Bi2+  Bi92  1  0.77054672  0.65097715  0.30712424  1
  Bi2+  Bi93  1  0.75015429  0.63514349  0.80775271  1
  Bi2+  Bi94  1  0.75069320  0.88121748  0.28690613  1
  Bi2+  Bi95  1  0.73385936  0.89828643  0.80059721  1
  Bi2+  Bi96  1  0.14138864  0.07836147  0.20212031  1
  Bi2+  Bi97  1  0.12521141  -0.01409172  0.71495180  1
  Bi2+  Bi98  1  0.13535790  0.28390666  0.20908587  1
  Bi2+  Bi99  1  0.15775341  0.31614058  0.68566779  1
  Bi2+  Bi100  1  0.08438425  0.52817506  0.21413919  1
  Bi2+  Bi101  1  0.09396588  0.49953810  0.71199027  1
  Bi2+  Bi102  1  0.11977211  0.80767737  0.22452110  1
  Bi2+  Bi103  1  0.10986703  0.76916096  0.72495952  1
  Bi2+  Bi104  1  0.43720118  0.02000044  0.17299552  1
  Bi2+  Bi105  1  0.37105473  -0.05544377  0.71004535  1
  Bi2+  Bi106  1  0.39636856  0.20791891  0.20651663  1
  Bi2+  Bi107  1  0.33054150  0.21634429  0.69630655  1
  Bi2+  Bi108  1  0.36185072  0.45538451  0.18140186  1
  Bi2+  Bi109  1  0.35435661  0.51552921  0.69254007  1
  Bi2+  Bi110  1  0.37674487  0.78111413  0.21069223  1
  Bi2+  Bi111  1  0.29976097  0.76206192  0.69290747  1
  Bi2+  Bi112  1  0.61578110  0.02755685  0.21644007  1
  Bi2+  Bi113  1  0.65951576  0.00321515  0.70846898  1
  Bi2+  Bi114  1  0.65990826  0.23535853  0.19410880  1
  Bi2+  Bi115  1  0.60237712  0.22898236  0.71669074  1
  Bi2+  Bi116  1  0.73343321  0.51116321  0.22656720  1
  Bi2+  Bi117  1  0.60549440  0.49315200  0.71687877  1
  Bi2+  Bi118  1  0.65552093  0.76796393  0.21232249  1
  Bi2+  Bi119  1  0.61444341  0.80989434  0.72441274  1
  Bi2+  Bi120  1  0.88499179  -0.06233939  0.21438819  1
  Bi2+  Bi121  1  0.85654364  0.01004113  0.70517370  1
  Bi2+  Bi122  1  0.83306850  0.19665338  0.24589334  1
  Bi2+  Bi123  1  0.87426516  0.23378236  0.71158524  1
  Bi2+  Bi124  1  0.91195542  0.44339950  0.19200069  1
  Bi2+  Bi125  1  0.86644223  0.50011293  0.71424779  1
  Bi2+  Bi126  1  0.89278099  0.72093945  0.21419068  1
  Bi2+  Bi127  1  0.86263926  0.76062243  0.70806406  1
  S2-  S128  1  -0.00108610  0.01516620  0.14904784  1
  S2-  S129  1  -0.03224552  0.12130092  0.64848449  1
  S2-  S130  1  0.00278656  0.26342338  0.14421988  1
  S2-  S131  1  -0.09391753  0.37000201  0.64911836  1
  S2-  S132  1  -0.11490712  0.60210641  0.14021179  1
  S2-  S133  1  -0.08138197  0.62913493  0.65085489  1
  S2-  S134  1  0.01410604  0.75472847  0.14701765  1
  S2-  S135  1  -0.10938710  0.88017619  0.63843156  1
  S2-  S136  1  0.26588396  0.01971919  0.13913438  1
  S2-  S137  1  0.24669222  0.08069241  0.65771137  1
  S2-  S138  1  0.26966113  0.26125034  0.13823154  1
  S2-  S139  1  0.36802427  0.37064472  0.64402738  1
  S2-  S140  1  0.20520044  0.49400197  0.14181152  1
  S2-  S141  1  0.20284435  0.58532384  0.65400985  1
  S2-  S142  1  0.23965743  0.78775854  0.14934014  1
  S2-  S143  1  0.11617488  0.87258934  0.63901148  1
  S2-  S144  1  0.51242294  0.24771458  0.13396325  1
  S2-  S145  1  0.48677061  0.15664483  0.65494166  1
  S2-  S146  1  0.51285720  0.47036845  0.15058224  1
  S2-  S147  1  0.58273280  0.35987924  0.65430503  1
  S2-  S148  1  0.36740618  0.62805673  0.16233996  1
  S2-  S149  1  0.50207052  0.59623777  0.65564876  1
  S2-  S150  1  0.51716996  0.79860235  0.15029018  1
  S2-  S151  1  0.49652463  0.86607371  0.65706259  1
  S2-  S152  1  0.77441796  0.12355487  0.15331710  1
  S2-  S153  1  0.73648021  0.20622496  0.65155938  1
  S2-  S154  1  0.74574022  0.37675800  0.15592285  1
  S2-  S155  1  0.74434780  0.38161932  0.73213212  1
  S2-  S156  1  0.66290990  0.63043625  0.15759956  1
  S2-  S157  1  0.73244109  0.52475183  0.65574635  1
  S2-  S158  1  0.77659421  0.84483302  0.15011819  1
  S2-  S159  1  0.72692565  0.75332186  0.64840475  1
  S2-  S160  1  0.15415444  0.00391847  0.33837911  1
  S2-  S161  1  0.13516377  0.03467396  0.84433410  1
  S2-  S162  1  0.23536974  0.23314530  0.35731553  1
  S2-  S163  1  0.21983049  0.26821197  0.85311130  1
  S2-  S164  1  0.21325597  0.48323824  0.34975575  1
  S2-  S165  1  0.04661620  0.47712270  0.84944865  1
  S2-  S166  1  0.13396113  0.76664920  0.35106962  1
  S2-  S167  1  0.13193306  0.71289458  0.84972995  1
  S2-  S168  1  0.36777774  -0.11559027  0.36252007  1
  S2-  S169  1  0.39676417  0.12721829  0.85213486  1
  S2-  S170  1  0.40593772  0.33771384  0.34646253  1
  S2-  S171  1  0.40544865  0.37535103  0.85132318  1
  S2-  S172  1  0.39898327  0.50044737  0.27032525  1
  S2-  S173  1  0.25957661  0.52750314  0.86158993  1
  S2-  S174  1  0.37544399  0.66465809  0.34174730  1
  S2-  S175  1  0.38534191  0.73674731  0.85170525  1
  S2-  S176  1  0.70818417  -0.01165930  0.36115560  1
  S2-  S177  1  0.64269411  0.02969127  0.84818770  1
  S2-  S178  1  0.63037847  0.30821911  0.34472027  1
  S2-  S179  1  0.61055937  0.25724765  0.82439691  1
  S2-  S180  1  0.55017514  0.51017015  0.34801107  1
  S2-  S181  1  0.63522219  0.51294607  0.84329865  1
  S2-  S182  1  0.61950159  0.73997579  0.34010337  1
  S2-  S183  1  0.66122356  0.75555709  0.84914474  1
  S2-  S184  1  0.92328571  0.05554526  0.33512536  1
  S2-  S185  1  0.88501414  -0.01567568  0.84214868  1
  S2-  S186  1  1.00222633  0.26736086  0.36005061  1
  S2-  S187  1  0.86676864  0.23989179  0.84448614  1
  S2-  S188  1  0.76951924  0.50405562  0.36349484  1
  S2-  S189  1  0.84871755  0.49963235  0.83122337  1
  S2-  S190  1  0.88008861  0.84332430  0.35499968  1
  S2-  S191  1  0.88682422  0.71077152  0.84035586  1
  S2-  S192  1  -0.00097844  0.10996385  0.44944481  1
  S2-  S193  1  -0.00010642  0.13457781  0.95233268  1
  S2-  S194  1  -0.00107975  0.37242249  0.46053910  1
  S2-  S195  1  -0.00115913  0.37972915  0.95707499  1
  S2-  S196  1  0.00077975  0.61266792  0.45316801  1
  S2-  S197  1  0.00062213  0.63605071  0.95768236  1
  S2-  S198  1  0.00114099  0.86232035  0.45649756  1
  S2-  S199  1  0.00160683  0.88067268  0.95368448  1
  S2-  S200  1  0.25088963  0.11029221  0.45487190  1
  S2-  S201  1  0.25169218  0.13019997  0.95727836  1
  S2-  S202  1  0.24866800  0.36595014  0.45994473  1
  S2-  S203  1  0.24950084  0.38404578  0.95899295  1
  S2-  S204  1  0.25092868  0.61752089  0.45245012  1
  S2-  S205  1  0.25404786  0.63487901  0.96750046  1
  S2-  S206  1  0.24635136  0.86295239  0.46506335  1
  S2-  S207  1  0.25488847  0.88315937  0.95472429  1
  S2-  S208  1  0.49799155  0.11481406  0.45087008  1
  S2-  S209  1  0.50492809  0.13401304  0.95361647  1
  S2-  S210  1  0.49987781  0.36789779  0.45653273  1
  S2-  S211  1  0.50789603  0.38542312  0.95512218  1
  S2-  S212  1  0.49774433  0.61557183  0.45074499  1
  S2-  S213  1  0.50475954  0.63075964  0.94658827  1
  S2-  S214  1  0.50652580  0.86647618  0.45347899  1
  S2-  S215  1  0.50518879  0.88187239  0.95685448  1
  S2-  S216  1  0.75478736  0.12009389  0.45537718  1
  S2-  S217  1  0.75096698  0.13518285  0.95181034  1
  S2-  S218  1  0.75548558  0.36094667  0.45299253  1
  S2-  S219  1  0.75322155  0.38440600  0.94842936  1
  S2-  S220  1  0.75095141  0.61719930  0.46314139  1
  S2-  S221  1  0.75395204  0.63190483  0.95661293  1
  S2-  S222  1  0.74831106  0.86105395  0.46171647  1
  S2-  S223  1  0.74995559  0.88218113  0.95206684  1
  S2-  S224  1  0.12529374  0.01084440  0.04712233  1
  S2-  S225  1  0.12521809  -0.00449472  0.54342956  1
  S2-  S226  1  0.12626862  0.25539648  0.04291170  1
  S2-  S227  1  0.12366214  0.23987338  0.54711682  1
  S2-  S228  1  0.11593033  0.51149924  0.04224419  1
  S2-  S229  1  0.12534249  0.48796857  0.54581442  1
  S2-  S230  1  0.12670794  0.76097279  0.04823281  1
  S2-  S231  1  0.12442576  0.73894130  0.55008311  1
  S2-  S232  1  0.38539332  0.01034891  0.03557747  1
  S2-  S233  1  0.37410736  -0.00986296  0.55002085  1
  S2-  S234  1  0.37753911  0.25703415  0.03375308  1
  S2-  S235  1  0.37399937  0.23946486  0.53989410  1
  S2-  S236  1  0.37731932  0.50796392  0.04590041  1
  S2-  S237  1  0.37471755  0.49266396  0.54709330  1
  S2-  S238  1  0.38222503  0.75891621  0.05233928  1
  S2-  S239  1  0.37563094  0.74357033  0.54639147  1
  S2-  S240  1  0.62643515  0.01003546  0.05242829  1
  S2-  S241  1  0.62865230  -0.00777886  0.55427472  1
  S2-  S242  1  0.63021834  0.25828777  0.03511266  1
  S2-  S243  1  0.62539681  0.24170036  0.54556281  1
  S2-  S244  1  0.62887324  0.51292742  0.04629067  1
  S2-  S245  1  0.62613348  0.48882119  0.54563849  1
  S2-  S246  1  0.62771514  0.75866499  0.04748895  1
  S2-  S247  1  0.62252333  0.74180229  0.54620835  1
  S2-  S248  1  0.87163381  0.00944908  0.04656792  1
  S2-  S249  1  0.87649242  -0.00638006  0.53688643  1
  S2-  S250  1  0.87353965  0.25693746  0.04575841  1
  S2-  S251  1  0.87825692  0.24107424  0.54066205  1
  S2-  S252  1  0.87954085  0.50433420  0.03762773  1
  S2-  S253  1  0.87329438  0.48973627  0.54670572  1
  S2-  S254  1  0.87559292  0.76255323  0.04274682  1
  S2-  S255  1  0.88211538  0.74333713  0.54053137  1
