# generated using pymatgen
data_La6Ce6Pr19Nd20Sm13(BiS2)64
_symmetry_space_group_name_H-M   'P 1'
_cell_length_a   16.11223170
_cell_length_b   16.11126780
_cell_length_c   27.42357674
_cell_angle_alpha   89.76457457
_cell_angle_beta   90.08029076
_cell_angle_gamma   89.99253514
_symmetry_Int_Tables_number   1
_chemical_formula_structural   La6Ce6Pr19Nd20Sm13(BiS2)64
_chemical_formula_sum   'La6 Ce6 Pr19 Nd20 Sm13 Bi64 S128'
_cell_volume   7118.77744684
_cell_formula_units_Z   1
loop_
 _symmetry_equiv_pos_site_id
 _symmetry_equiv_pos_as_xyz
  1  'x, y, z'
loop_
 _atom_type_symbol
 _atom_type_oxidation_number
  La3+  3.0
  Ce3+  3.0
  Pr3+  3.0
  Nd3+  3.0
  Sm3+  3.0
  Bi2+  2.0
  S2-  -2.0
loop_
 _atom_site_type_symbol
 _atom_site_label
 _atom_site_symmetry_multiplicity
 _atom_site_fract_x
 _atom_site_fract_y
 _atom_site_fract_z
 _atom_site_occupancy
  La3+  La0  1  -0.02292897  0.87348131  0.56920093  1
  La3+  La1  1  0.74381432  0.61839036  0.09774300  1
  La3+  La2  1  0.61851401  0.23886503  0.87924566  1
  La3+  La3  1  0.37133776  0.51442934  0.90230899  1
  La3+  La4  1  0.74109546  0.38846771  0.57957385  1
  La3+  La5  1  0.85573096  0.49354871  0.41471567  1
  Ce3+  Ce6  1  0.37317201  0.75365077  0.94537918  1
  Ce3+  Ce7  1  -0.01462392  0.62768480  0.54406494  1
  Ce3+  Ce8  1  0.24751367  0.12845372  0.06004974  1
  Ce3+  Ce9  1  0.11279762  0.25713436  0.44799977  1
  Ce3+  Ce10  1  0.48841240  0.13443218  0.56128601  1
  Ce3+  Ce11  1  0.48775092  0.62902540  0.55852778  1
  Pr3+  Pr12  1  0.00765447  0.61020036  0.08777381  1
  Pr3+  Pr13  1  0.12347614  -0.00053426  0.94287751  1
  Pr3+  Pr14  1  0.48277103  0.37482249  0.58522271  1
  Pr3+  Pr15  1  0.61458004  0.75699735  0.43919692  1
  Pr3+  Pr16  1  0.74036236  0.62850521  0.55212426  1
  Pr3+  Pr17  1  0.74964853  0.13118595  0.05610614  1
  Pr3+  Pr18  1  0.86975486  0.26073410  0.92784022  1
  Pr3+  Pr19  1  0.24825565  0.87957832  0.08419397  1
  Pr3+  Pr20  1  0.50004060  0.12787091  0.05231708  1
  Pr3+  Pr21  1  0.23599576  0.88075270  0.55894096  1
  Pr3+  Pr22  1  0.49972104  0.37726134  0.05270392  1
  Pr3+  Pr23  1  0.62644905  -0.00170205  0.93769509  1
  Pr3+  Pr24  1  0.11364373  0.50349573  0.43305812  1
  Pr3+  Pr25  1  0.11171093  0.75555754  0.43656712  1
  Pr3+  Pr26  1  0.74841307  0.37146702  0.06023269  1
  Pr3+  Pr27  1  0.75226347  0.87650187  0.07607194  1
  Pr3+  Pr28  1  0.61117224  0.25995109  0.43975465  1
  Pr3+  Pr29  1  0.87070919  0.51565961  0.93962257  1
  Pr3+  Pr30  1  0.12799441  0.25661237  0.93333527  1
  Nd3+  Nd31  1  0.36339279  0.00712056  0.44191693  1
  Nd3+  Nd32  1  0.37055385  0.25552792  0.93029491  1
  Nd3+  Nd33  1  0.60628672  0.50196574  0.43767292  1
  Nd3+  Nd34  1  0.00019492  0.12703361  0.05183808  1
  Nd3+  Nd35  1  0.24950694  0.38046921  0.05504720  1
  Nd3+  Nd36  1  0.86358660  0.76358131  0.42051300  1
  Nd3+  Nd37  1  0.87319920  -0.00182562  0.93535288  1
  Nd3+  Nd38  1  0.10908570  0.00804506  0.44301171  1
  Nd3+  Nd39  1  0.12294042  0.51699735  0.92977097  1
  Nd3+  Nd40  1  0.50075645  0.87688653  0.06344773  1
  Nd3+  Nd41  1  -0.02038637  0.12804688  0.56547740  1
  Nd3+  Nd42  1  0.49888549  0.62634262  0.06274721  1
  Nd3+  Nd43  1  0.62488279  0.74544956  0.94300476  1
  Nd3+  Nd44  1  0.23532521  0.12855666  0.56130306  1
  Nd3+  Nd45  1  0.23772788  0.38349860  0.56803637  1
  Nd3+  Nd46  1  0.86146511  0.01139646  0.43359908  1
  Nd3+  Nd47  1  0.36151863  0.25810687  0.44381186  1
  Nd3+  Nd48  1  0.36285685  0.75869184  0.43872442  1
  Nd3+  Nd49  1  -0.00094399  0.87422870  0.07586195  1
  Nd3+  Nd50  1  -0.01161974  0.38480974  0.56315149  1
  Sm3+  Sm51  1  0.61372679  0.00917440  0.44736581  1
  Sm3+  Sm52  1  0.73671485  0.13923071  0.56478136  1
  Sm3+  Sm53  1  0.87251339  0.74722259  0.96130976  1
  Sm3+  Sm54  1  0.12396865  0.75049867  0.95255754  1
  Sm3+  Sm55  1  0.73979799  0.88283844  0.55636347  1
  Sm3+  Sm56  1  0.48925691  0.88157438  0.55615180  1
  Sm3+  Sm57  1  0.62327890  0.49967211  0.93693736  1
  Sm3+  Sm58  1  0.23927664  0.63024431  0.55417417  1
  Sm3+  Sm59  1  -0.00101801  0.38136372  0.04629059  1
  Sm3+  Sm60  1  0.86056699  0.25687696  0.44373590  1
  Sm3+  Sm61  1  0.36723104  0.50446515  0.43940196  1
  Sm3+  Sm62  1  0.37368626  0.00031167  0.94655145  1
  Sm3+  Sm63  1  0.25041938  0.62684510  0.06376015  1
  Bi2+  Bi64  1  0.00250431  0.11428553  0.30112194  1
  Bi2+  Bi65  1  -0.00130456  0.15420877  0.77008856  1
  Bi2+  Bi66  1  0.11854002  0.38452327  0.30724483  1
  Bi2+  Bi67  1  0.02733385  0.34339356  0.78033465  1
  Bi2+  Bi68  1  0.01758268  0.64046086  0.28087038  1
  Bi2+  Bi69  1  0.03411427  0.58816930  0.77654601  1
  Bi2+  Bi70  1  0.01083750  0.89392470  0.29320771  1
  Bi2+  Bi71  1  -0.01443270  0.90324012  0.80914826  1
  Bi2+  Bi72  1  0.25775889  0.14757347  0.29685945  1
  Bi2+  Bi73  1  0.19323921  0.12538189  0.78339397  1
  Bi2+  Bi74  1  0.30704150  0.43208505  0.32218294  1
  Bi2+  Bi75  1  0.21791292  0.36542924  0.77343452  1
  Bi2+  Bi76  1  0.28924292  0.61151473  0.26341676  1
  Bi2+  Bi77  1  0.24498513  0.63060100  0.79456385  1
  Bi2+  Bi78  1  0.28156198  0.88136627  0.28789170  1
  Bi2+  Bi79  1  0.26573027  0.89596040  0.79978088  1
  Bi2+  Bi80  1  0.48751656  0.02470027  0.27245118  1
  Bi2+  Bi81  1  0.48284778  0.05482253  0.78179192  1
  Bi2+  Bi82  1  0.48655970  0.35465359  0.29923071  1
  Bi2+  Bi83  1  0.50441330  0.36633941  0.77329481  1
  Bi2+  Bi84  1  0.48686946  0.61529971  0.23993320  1
  Bi2+  Bi85  1  0.53962769  0.68204365  0.78340861  1
  Bi2+  Bi86  1  0.46591081  0.81230757  0.30555806  1
  Bi2+  Bi87  1  0.52315366  0.86854908  0.82127165  1
  Bi2+  Bi88  1  0.80445225  0.11302487  0.31553085  1
  Bi2+  Bi89  1  0.75423788  0.01378340  0.78207720  1
  Bi2+  Bi90  1  0.72970095  0.34367642  0.29692583  1
  Bi2+  Bi91  1  0.75553138  0.36775524  0.78517814  1
  Bi2+  Bi92  1  0.74987189  0.62103706  0.30132516  1
  Bi2+  Bi93  1  0.77182366  0.58656584  0.81128940  1
  Bi2+  Bi94  1  0.71934437  0.92157198  0.30027723  1
  Bi2+  Bi95  1  0.71774412  0.85303443  0.84210060  1
  Bi2+  Bi96  1  0.13509482  0.04674325  0.20616864  1
  Bi2+  Bi97  1  0.13787553  0.00856319  0.69185676  1
  Bi2+  Bi98  1  0.16834535  0.26199836  0.22068865  1
  Bi2+  Bi99  1  0.11351953  0.37371396  0.67811345  1
  Bi2+  Bi100  1  0.13544675  0.46134273  0.20036845  1
  Bi2+  Bi101  1  0.12048494  0.56639588  0.67659842  1
  Bi2+  Bi102  1  0.18839648  0.77562983  0.21205497  1
  Bi2+  Bi103  1  0.11826973  0.77111256  0.77368640  1
  Bi2+  Bi104  1  0.38926331  -0.09518915  0.19262478  1
  Bi2+  Bi105  1  0.37028912  -0.00697853  0.69364056  1
  Bi2+  Bi106  1  0.38803448  0.16279311  0.21534100  1
  Bi2+  Bi107  1  0.36081732  0.18175590  0.72586901  1
  Bi2+  Bi108  1  0.37624221  0.45028466  0.21455519  1
  Bi2+  Bi109  1  0.38244440  0.53178816  0.69751143  1
  Bi2+  Bi110  1  0.35828979  0.71395736  0.16736879  1
  Bi2+  Bi111  1  0.39987152  0.79928904  0.74021461  1
  Bi2+  Bi112  1  0.69787028  0.05549099  0.21869504  1
  Bi2+  Bi113  1  0.62767146  -0.06143154  0.70429129  1
  Bi2+  Bi114  1  0.63843002  0.23551182  0.19778740  1
  Bi2+  Bi115  1  0.61506150  0.13706962  0.69235503  1
  Bi2+  Bi116  1  0.62296609  0.47596123  0.20894020  1
  Bi2+  Bi117  1  0.63103220  0.54992255  0.71106752  1
  Bi2+  Bi118  1  0.61027868  0.79778028  0.22977798  1
  Bi2+  Bi119  1  0.69212103  0.75737513  0.72227143  1
  Bi2+  Bi120  1  0.89462392  0.05551263  0.20693686  1
  Bi2+  Bi121  1  0.89275734  -0.04907402  0.70297595  1
  Bi2+  Bi122  1  0.89329443  0.26288324  0.25725305  1
  Bi2+  Bi123  1  0.86765938  0.21767553  0.69104976  1
  Bi2+  Bi124  1  0.88363333  0.47441592  0.21658129  1
  Bi2+  Bi125  1  0.89894077  0.52968747  0.69712496  1
  Bi2+  Bi126  1  0.85940303  0.78098972  0.21338764  1
  Bi2+  Bi127  1  0.86149648  0.75751340  0.78059612  1
  S2-  S128  1  0.01580221  0.13656262  0.15025408  1
  S2-  S129  1  0.01806031  0.13912123  0.66301491  1
  S2-  S130  1  -0.00055981  0.43699014  0.13974162  1
  S2-  S131  1  -0.10811857  0.38031075  0.64659172  1
  S2-  S132  1  -0.01607946  0.69598960  0.17950510  1
  S2-  S133  1  -0.03012407  0.64966044  0.64052002  1
  S2-  S134  1  -0.11801914  0.90846764  0.14752288  1
  S2-  S135  1  0.03962746  0.88822726  0.66365262  1
  S2-  S136  1  0.26716359  0.07565975  0.15259147  1
  S2-  S137  1  0.24011259  0.15103079  0.65901724  1
  S2-  S138  1  0.26622686  0.35100405  0.15402155  1
  S2-  S139  1  0.34181223  0.40071678  0.64829164  1
  S2-  S140  1  0.16050929  0.59270965  0.14491057  1
  S2-  S141  1  0.27257624  0.63580918  0.65113714  1
  S2-  S142  1  0.11679346  0.89239781  0.15320830  1
  S2-  S143  1  0.24670555  0.89002750  0.65823226  1
  S2-  S144  1  0.51222835  0.13400333  0.15289050  1
  S2-  S145  1  0.48131774  0.21798975  0.64610375  1
  S2-  S146  1  0.54361394  0.36471244  0.15257639  1
  S2-  S147  1  0.56382017  0.41757869  0.67472147  1
  S2-  S148  1  0.58457751  0.60457845  0.14947216  1
  S2-  S149  1  0.50458432  0.63201259  0.65477433  1
  S2-  S150  1  0.55374043  0.89892073  0.15713926  1
  S2-  S151  1  0.48362340  0.87425398  0.65341871  1
  S2-  S152  1  0.76321115  0.23722992  0.13612748  1
  S2-  S153  1  0.82041630  0.07733508  0.64469960  1
  S2-  S154  1  0.75986269  0.45687879  0.14824016  1
  S2-  S155  1  0.71888557  0.25364602  0.64374245  1
  S2-  S156  1  0.80053047  0.61614608  0.20581611  1
  S2-  S157  1  0.75255138  0.54046283  0.63935854  1
  S2-  S158  1  0.72338281  0.77029201  0.15445630  1
  S2-  S159  1  0.83534238  0.84674046  0.63361171  1
  S2-  S160  1  0.10905346  -0.01112168  0.34428832  1
  S2-  S161  1  0.13112439  -0.01378098  0.84363234  1
  S2-  S162  1  0.11863321  0.22226774  0.35352244  1
  S2-  S163  1  0.23182946  0.24526396  0.85253983  1
  S2-  S164  1  0.11919206  0.55939317  0.33730538  1
  S2-  S165  1  0.22157770  0.48535248  0.84812990  1
  S2-  S166  1  0.08701939  0.77092355  0.33733941  1
  S2-  S167  1  0.10569675  0.66610125  0.86679366  1
  S2-  S168  1  0.35235685  0.01370404  0.34360634  1
  S2-  S169  1  0.35453081  0.01458150  0.85008736  1
  S2-  S170  1  0.37178612  0.24750335  0.34498452  1
  S2-  S171  1  0.45290470  0.26256433  0.84330457  1
  S2-  S172  1  0.48055021  0.49221723  0.36386181  1
  S2-  S173  1  0.42238383  0.49597429  0.80042492  1
  S2-  S174  1  0.32863124  0.72955114  0.34310924  1
  S2-  S175  1  0.35616461  0.68039403  0.85825362  1
  S2-  S176  1  0.59561724  0.00361030  0.34995497  1
  S2-  S177  1  0.62423685  0.07102323  0.84640965  1
  S2-  S178  1  0.60275087  0.25074918  0.33878992  1
  S2-  S179  1  0.62999739  0.23904169  0.76622224  1
  S2-  S180  1  0.70359736  0.48287787  0.35538330  1
  S2-  S181  1  0.62308171  0.40917732  0.84730827  1
  S2-  S182  1  0.63991279  0.74502428  0.34027698  1
  S2-  S183  1  0.62689231  0.62933629  0.86575324  1
  S2-  S184  1  0.87094735  -0.09255402  0.35527925  1
  S2-  S185  1  0.89947957  0.04761066  0.84030885  1
  S2-  S186  1  0.87085335  0.33216834  0.35634861  1
  S2-  S187  1  0.78595209  0.24416534  0.84221016  1
  S2-  S188  1  0.90204836  0.52738631  0.31464418  1
  S2-  S189  1  0.85971545  0.44697712  0.84336664  1
  S2-  S190  1  0.87415848  0.72080700  0.32154694  1
  S2-  S191  1  0.87554451  0.66331798  0.87453086  1
  S2-  S192  1  -0.01501999  0.13325530  0.45600413  1
  S2-  S193  1  0.00015725  0.13028899  0.94559821  1
  S2-  S194  1  -0.01097167  0.37978355  0.45566216  1
  S2-  S195  1  0.00308830  0.38352768  0.94238548  1
  S2-  S196  1  -0.01553063  0.62981975  0.43913511  1
  S2-  S197  1  0.00215769  0.63056125  0.97402079  1
  S2-  S198  1  -0.01103961  0.88155214  0.45672380  1
  S2-  S199  1  -0.00213125  0.87200135  0.96093822  1
  S2-  S200  1  0.23777343  0.12928868  0.45527059  1
  S2-  S201  1  0.24966761  0.12435530  0.95503607  1
  S2-  S202  1  0.23937073  0.38275088  0.45812022  1
  S2-  S203  1  0.25135465  0.38459580  0.95147252  1
  S2-  S204  1  0.24098680  0.62943223  0.44969164  1
  S2-  S205  1  0.25117051  0.62728372  0.96156855  1
  S2-  S206  1  0.23658599  0.88298649  0.45146090  1
  S2-  S207  1  0.24817434  0.87607424  0.95922147  1
  S2-  S208  1  0.48741997  0.13088577  0.45396934  1
  S2-  S209  1  0.49595866  0.12506243  0.94708018  1
  S2-  S210  1  0.48332523  0.37741350  0.46471112  1
  S2-  S211  1  0.48293369  0.39266025  0.94878262  1
  S2-  S212  1  0.48592171  0.63599314  0.45265128  1
  S2-  S213  1  0.49244768  0.62494113  0.95829545  1
  S2-  S214  1  0.48945700  0.88370881  0.45177279  1
  S2-  S215  1  0.49901714  0.87644773  0.95716146  1
  S2-  S216  1  0.73597028  0.13316050  0.45636630  1
  S2-  S217  1  0.75260941  0.12444531  0.94973694  1
  S2-  S218  1  0.73641539  0.37717291  0.46156364  1
  S2-  S219  1  0.75128283  0.38436357  0.95388350  1
  S2-  S220  1  0.73852770  0.63118652  0.44607965  1
  S2-  S221  1  0.74524172  0.62956053  0.97057655  1
  S2-  S222  1  0.73564427  0.88558004  0.45289510  1
  S2-  S223  1  0.75250325  0.87440586  0.96573788  1
  S2-  S224  1  0.12419978  0.00074547  0.04771326  1
  S2-  S225  1  0.10796279  0.00494532  0.54881570  1
  S2-  S226  1  0.12336041  0.25567087  0.04157978  1
  S2-  S227  1  0.11108381  0.25457882  0.55226350  1
  S2-  S228  1  0.12712059  0.49941362  0.03690096  1
  S2-  S229  1  0.11560446  0.50701399  0.54078708  1
  S2-  S230  1  0.12769503  0.75303226  0.05495639  1
  S2-  S231  1  0.11415085  0.75334499  0.54431960  1
  S2-  S232  1  0.37257512  -0.00036772  0.05026294  1
  S2-  S233  1  0.36450979  0.00537771  0.54778733  1
  S2-  S234  1  0.37231768  0.25144474  0.04198383  1
  S2-  S235  1  0.35612831  0.25489063  0.54800337  1
  S2-  S236  1  0.37266864  0.50427397  0.06111729  1
  S2-  S237  1  0.36248719  0.50769040  0.54268438  1
  S2-  S238  1  0.37162061  0.75574834  0.04949650  1
  S2-  S239  1  0.36401766  0.75819280  0.54552106  1
  S2-  S240  1  0.62738463  0.00185271  0.04646297  1
  S2-  S241  1  0.61500505  0.00641414  0.55173116  1
  S2-  S242  1  0.62082707  0.25104767  0.03929776  1
  S2-  S243  1  0.60956574  0.25846709  0.54525886  1
  S2-  S244  1  0.62278495  0.50144602  0.04252433  1
  S2-  S245  1  0.60892394  0.50466426  0.54429628  1
  S2-  S246  1  0.62099923  0.75275139  0.04802255  1
  S2-  S247  1  0.61528532  0.75912395  0.54758102  1
  S2-  S248  1  0.87656942  0.00495830  0.04213934  1
  S2-  S249  1  0.85955549  0.00663791  0.53731020  1
  S2-  S250  1  0.88215149  0.25407952  0.03479260  1
  S2-  S251  1  0.86487155  0.25625674  0.54564349  1
  S2-  S252  1  0.87517496  0.50253157  0.04668680  1
  S2-  S253  1  0.86539065  0.50404081  0.53243456  1
  S2-  S254  1  0.87763498  0.74386988  0.06203805  1
  S2-  S255  1  0.85948805  0.75274529  0.52795452  1
