# generated using pymatgen
data_La6Ce6Pr19Nd20Sm13(BiS2)64
_symmetry_space_group_name_H-M   'P 1'
_cell_length_a   16.11394252
_cell_length_b   16.14798936
_cell_length_c   27.33498509
_cell_angle_alpha   90.08899312
_cell_angle_beta   89.89461752
_cell_angle_gamma   90.06012375
_symmetry_Int_Tables_number   1
_chemical_formula_structural   La6Ce6Pr19Nd20Sm13(BiS2)64
_chemical_formula_sum   'La6 Ce6 Pr19 Nd20 Sm13 Bi64 S128'
_cell_volume   7112.75107337
_cell_formula_units_Z   1
loop_
 _symmetry_equiv_pos_site_id
 _symmetry_equiv_pos_as_xyz
  1  'x, y, z'
loop_
 _atom_type_symbol
 _atom_type_oxidation_number
  La3+  3.0
  Ce3+  3.0
  Pr3+  3.0
  Nd3+  3.0
  Sm3+  3.0
  Bi2+  2.0
  S2-  -2.0
loop_
 _atom_site_type_symbol
 _atom_site_label
 _atom_site_symmetry_multiplicity
 _atom_site_fract_x
 _atom_site_fract_y
 _atom_site_fract_z
 _atom_site_occupancy
  La3+  La0  1  0.49136938  0.36904293  0.56154024  1
  La3+  La1  1  0.48350770  0.86678027  0.58361678  1
  La3+  La2  1  0.23659370  0.12994147  0.59812289  1
  La3+  La3  1  0.75914835  0.63130179  0.09593877  1
  La3+  La4  1  -0.00111353  0.63432447  0.57304537  1
  La3+  La5  1  0.62668186  0.75176652  0.93021397  1
  Ce3+  Ce6  1  0.25836754  0.37133292  0.05799509  1
  Ce3+  Ce7  1  0.00671162  0.62879107  0.07187374  1
  Ce3+  Ce8  1  0.36779706  0.25005916  0.43905642  1
  Ce3+  Ce9  1  0.12705378  0.25229065  0.93831795  1
  Ce3+  Ce10  1  -0.00651288  0.87537534  0.55298586  1
  Ce3+  Ce11  1  0.75231482  0.87458683  0.06252947  1
  Pr3+  Pr12  1  0.61562626  -0.00220411  0.45008314  1
  Pr3+  Pr13  1  0.11749358  0.00283401  0.44431183  1
  Pr3+  Pr14  1  0.36821376  0.00039166  0.44406639  1
  Pr3+  Pr15  1  0.24103463  0.37242007  0.55672579  1
  Pr3+  Pr16  1  0.61572812  0.75105719  0.43681728  1
  Pr3+  Pr17  1  0.75321688  0.12578845  0.05915344  1
  Pr3+  Pr18  1  0.38363765  0.00471528  0.91278132  1
  Pr3+  Pr19  1  0.13026539  0.50226628  0.94882849  1
  Pr3+  Pr20  1  0.01407163  0.37316447  0.07843203  1
  Pr3+  Pr21  1  0.50684192  0.88842981  0.06151445  1
  Pr3+  Pr22  1  -0.01432777  0.12896500  0.56638127  1
  Pr3+  Pr23  1  0.74618629  0.62649321  0.56040456  1
  Pr3+  Pr24  1  0.38289510  0.25081068  0.92606484  1
  Pr3+  Pr25  1  0.86392410  0.74946209  0.42829662  1
  Pr3+  Pr26  1  0.86077320  0.24394805  0.40275043  1
  Pr3+  Pr27  1  0.36879251  0.49858611  0.43403460  1
  Pr3+  Pr28  1  0.50460291  0.37586227  0.06365388  1
  Pr3+  Pr29  1  -0.01088003  0.37236017  0.54780849  1
  Pr3+  Pr30  1  0.36867119  0.74665666  0.42241791  1
  Nd3+  Nd31  1  0.25823807  0.62977794  0.05958320  1
  Nd3+  Nd32  1  0.74803031  0.37584206  0.07545203  1
  Nd3+  Nd33  1  0.86765442  0.50724344  0.41992283  1
  Nd3+  Nd34  1  0.24367517  0.62510640  0.55603558  1
  Nd3+  Nd35  1  0.24318631  0.87362305  0.55729724  1
  Nd3+  Nd36  1  0.00723401  0.87712600  0.05588124  1
  Nd3+  Nd37  1  0.13414335  0.00090331  0.92989159  1
  Nd3+  Nd38  1  0.74801277  0.37506925  0.55243295  1
  Nd3+  Nd39  1  0.25816094  0.12485589  0.05388018  1
  Nd3+  Nd40  1  0.11936133  0.74881924  0.42633964  1
  Nd3+  Nd41  1  0.11360362  0.49997386  0.44060109  1
  Nd3+  Nd42  1  0.62217535  0.24999449  0.43860423  1
  Nd3+  Nd43  1  0.86781020  0.00083516  0.44208902  1
  Nd3+  Nd44  1  0.87869433  0.25326925  0.94888115  1
  Nd3+  Nd45  1  0.88115566  0.00146823  0.94493877  1
  Nd3+  Nd46  1  0.63477296  -0.00376047  0.92141336  1
  Nd3+  Nd47  1  0.11515701  0.24823303  0.43582459  1
  Nd3+  Nd48  1  0.00741452  0.12494584  0.06304961  1
  Nd3+  Nd49  1  0.49164460  0.62436184  0.56003560  1
  Nd3+  Nd50  1  0.87933669  0.74615864  0.94594145  1
  Sm3+  Sm51  1  0.87896051  0.50176329  0.95691959  1
  Sm3+  Sm52  1  0.62030922  0.49929560  0.44276827  1
  Sm3+  Sm53  1  0.12896710  0.74788101  0.94540877  1
  Sm3+  Sm54  1  0.62983496  0.25828037  0.93315406  1
  Sm3+  Sm55  1  0.74433629  0.12545760  0.55988591  1
  Sm3+  Sm56  1  0.63534139  0.50731551  0.94394175  1
  Sm3+  Sm57  1  0.38196915  0.50238250  0.94660110  1
  Sm3+  Sm58  1  0.49189351  0.12242736  0.55570471  1
  Sm3+  Sm59  1  0.74172815  0.87230252  0.56159630  1
  Sm3+  Sm60  1  0.25913557  0.87991905  0.05008097  1
  Sm3+  Sm61  1  0.50588465  0.12481986  0.04466827  1
  Sm3+  Sm62  1  0.50738259  0.63084211  0.06094422  1
  Sm3+  Sm63  1  0.38271948  0.75339438  0.94064161  1
  Bi2+  Bi64  1  0.01428487  0.12090708  0.30050162  1
  Bi2+  Bi65  1  -0.03035445  0.12967718  0.81672817  1
  Bi2+  Bi66  1  0.02299972  0.37517382  0.30325644  1
  Bi2+  Bi67  1  0.03393460  0.39922347  0.77484905  1
  Bi2+  Bi68  1  0.02204257  0.72112688  0.29520350  1
  Bi2+  Bi69  1  -0.00438645  0.60562655  0.81649631  1
  Bi2+  Bi70  1  -0.01989614  0.90964206  0.29426237  1
  Bi2+  Bi71  1  -0.05328347  0.88564074  0.79197499  1
  Bi2+  Bi72  1  0.24759026  0.03392786  0.27564777  1
  Bi2+  Bi73  1  0.21468911  0.07439261  0.79357254  1
  Bi2+  Bi74  1  0.27543166  0.33901126  0.28138631  1
  Bi2+  Bi75  1  0.23196144  0.34515985  0.75431630  1
  Bi2+  Bi76  1  0.24892873  0.61957114  0.29826159  1
  Bi2+  Bi77  1  0.24798519  0.61729477  0.79087595  1
  Bi2+  Bi78  1  0.23491767  0.83524969  0.25189677  1
  Bi2+  Bi79  1  0.29339649  0.85132181  0.74418018  1
  Bi2+  Bi80  1  0.43350978  0.11818711  0.26857064  1
  Bi2+  Bi81  1  0.48842022  0.14927330  0.78661221  1
  Bi2+  Bi82  1  0.44893074  0.40442745  0.31580468  1
  Bi2+  Bi83  1  0.49193419  0.41173293  0.79523690  1
  Bi2+  Bi84  1  0.51726880  0.66184287  0.29311311  1
  Bi2+  Bi85  1  0.49373843  0.62153038  0.80091940  1
  Bi2+  Bi86  1  0.50997488  0.92896948  0.29069492  1
  Bi2+  Bi87  1  0.53886388  0.87315200  0.78637791  1
  Bi2+  Bi88  1  0.72962817  0.09108774  0.28794666  1
  Bi2+  Bi89  1  0.72401168  0.19541894  0.81822784  1
  Bi2+  Bi90  1  0.63418348  0.36624452  0.29484581  1
  Bi2+  Bi91  1  0.68179527  0.38854644  0.82569465  1
  Bi2+  Bi92  1  0.74721377  0.63960196  0.29566026  1
  Bi2+  Bi93  1  0.78089719  0.63161169  0.79735712  1
  Bi2+  Bi94  1  0.78128188  0.88706788  0.28794886  1
  Bi2+  Bi95  1  0.75070812  0.90035020  0.76086460  1
  Bi2+  Bi96  1  0.10438113  -0.03773174  0.20526632  1
  Bi2+  Bi97  1  0.03696681  -0.06185948  0.69135270  1
  Bi2+  Bi98  1  0.17422888  0.22823344  0.20531706  1
  Bi2+  Bi99  1  0.06899665  0.23918297  0.71492557  1
  Bi2+  Bi100  1  0.15653485  0.48632237  0.23512504  1
  Bi2+  Bi101  1  0.15814470  0.51542073  0.70742788  1
  Bi2+  Bi102  1  0.12690736  0.67422762  0.20109217  1
  Bi2+  Bi103  1  0.11084633  0.78893327  0.75228490  1
  Bi2+  Bi104  1  0.38813765  -0.01893795  0.18597635  1
  Bi2+  Bi105  1  0.41490389  0.00560414  0.70424948  1
  Bi2+  Bi106  1  0.37891568  0.29942873  0.16786921  1
  Bi2+  Bi107  1  0.38583497  0.26197693  0.70070548  1
  Bi2+  Bi108  1  0.37059268  0.47577126  0.21544944  1
  Bi2+  Bi109  1  0.35589789  0.48614085  0.70458659  1
  Bi2+  Bi110  1  0.39821487  0.72770420  0.21781780  1
  Bi2+  Bi111  1  0.31957098  0.67591117  0.68888206  1
  Bi2+  Bi112  1  0.65634238  0.00186184  0.19240013  1
  Bi2+  Bi113  1  0.67060253  0.07655017  0.73021788  1
  Bi2+  Bi114  1  0.54566598  0.25047229  0.21630273  1
  Bi2+  Bi115  1  0.64806573  0.27246548  0.71940339  1
  Bi2+  Bi116  1  0.57637213  0.49690806  0.21049534  1
  Bi2+  Bi117  1  0.63313957  0.52732216  0.74812238  1
  Bi2+  Bi118  1  0.62469420  0.81470727  0.22312267  1
  Bi2+  Bi119  1  0.62929952  0.74990242  0.69366062  1
  Bi2+  Bi120  1  0.85053433  0.01410577  0.20646044  1
  Bi2+  Bi121  1  0.87055854  0.03573714  0.71186836  1
  Bi2+  Bi122  1  0.90214359  0.24748851  0.19430935  1
  Bi2+  Bi123  1  0.84516347  0.26048455  0.71459729  1
  Bi2+  Bi124  1  0.87214300  0.49357839  0.22184476  1
  Bi2+  Bi125  1  0.87555837  0.44724382  0.70989928  1
  Bi2+  Bi126  1  0.88943010  0.76757296  0.21061656  1
  Bi2+  Bi127  1  0.87094585  0.71335002  0.69805887  1
  S2-  S128  1  0.03813449  0.14590027  0.16002909  1
  S2-  S129  1  0.08140398  0.11610400  0.65071381  1
  S2-  S130  1  -0.01368357  0.39400840  0.17953876  1
  S2-  S131  1  -0.01287575  0.34997276  0.64764198  1
  S2-  S132  1  -0.08397743  0.62224977  0.15519945  1
  S2-  S133  1  -0.05245912  0.58013471  0.66538788  1
  S2-  S134  1  0.00108529  0.85985287  0.15422339  1
  S2-  S135  1  -0.01081060  0.79178703  0.63705331  1
  S2-  S136  1  0.29279877  0.14193787  0.15116075  1
  S2-  S137  1  0.27374396  0.08033633  0.69582829  1
  S2-  S138  1  0.16956959  0.35403889  0.13971513  1
  S2-  S139  1  0.24487301  0.28893787  0.64471811  1
  S2-  S140  1  0.28014190  0.64512162  0.15641507  1
  S2-  S141  1  0.16038907  0.65170530  0.64087618  1
  S2-  S142  1  0.24482246  0.90802465  0.14581940  1
  S2-  S143  1  0.33093211  0.87533315  0.64384219  1
  S2-  S144  1  0.51829480  0.03926146  0.12887047  1
  S2-  S145  1  0.48316636  0.14150714  0.65215056  1
  S2-  S146  1  0.60915821  0.36257379  0.14206123  1
  S2-  S147  1  0.48309574  0.39166723  0.66006310  1
  S2-  S148  1  0.52322195  0.62287174  0.15809782  1
  S2-  S149  1  0.48908916  0.70532578  0.64722769  1
  S2-  S150  1  0.47436766  0.83685224  0.15698873  1
  S2-  S151  1  0.55460056  0.90104239  0.67565440  1
  S2-  S152  1  0.76955826  0.14961038  0.15839996  1
  S2-  S153  1  0.85074264  0.15002548  0.63538867  1
  S2-  S154  1  0.79946682  0.36727302  0.17293871  1
  S2-  S155  1  0.73888677  0.37465449  0.65195657  1
  S2-  S156  1  0.72736816  0.57484845  0.19374007  1
  S2-  S157  1  0.73187911  0.62582534  0.66050655  1
  S2-  S158  1  0.74337590  0.78554669  0.14809587  1
  S2-  S159  1  0.76660337  0.84476904  0.65747991  1
  S2-  S160  1  0.11518946  -0.00321567  0.34438293  1
  S2-  S161  1  0.07443018  -0.00781078  0.83683897  1
  S2-  S162  1  0.12236927  0.23723984  0.33642241  1
  S2-  S163  1  0.12111616  0.20174878  0.84563695  1
  S2-  S164  1  0.12414945  0.50886455  0.34157124  1
  S2-  S165  1  0.10626305  0.48514408  0.85069194  1
  S2-  S166  1  0.23371105  0.76641578  0.35096165  1
  S2-  S167  1  0.13002672  0.71646135  0.84916411  1
  S2-  S168  1  0.37007732  -0.01980153  0.34375512  1
  S2-  S169  1  0.27744432  -0.05353954  0.83744297  1
  S2-  S170  1  0.39547436  0.23715833  0.34319482  1
  S2-  S171  1  0.34990934  0.14527045  0.84392833  1
  S2-  S172  1  0.38569198  0.60408689  0.35423022  1
  S2-  S173  1  0.36869665  0.52227902  0.84929746  1
  S2-  S174  1  0.50361584  0.78629808  0.35878594  1
  S2-  S175  1  0.46005035  0.75942294  0.85312896  1
  S2-  S176  1  0.61849232  0.01688201  0.34937658  1
  S2-  S177  1  0.51795098  0.00582926  0.84320632  1
  S2-  S178  1  0.70419114  0.24464199  0.35147320  1
  S2-  S179  1  0.51213362  0.27539310  0.85725140  1
  S2-  S180  1  0.65792648  0.53115608  0.34810454  1
  S2-  S181  1  0.64144539  0.61640892  0.86481952  1
  S2-  S182  1  0.73095022  0.76433075  0.35900227  1
  S2-  S183  1  0.66409744  0.86243674  0.85170662  1
  S2-  S184  1  0.87060840  0.08498742  0.35618336  1
  S2-  S185  1  0.85263827  0.01340107  0.84837568  1
  S2-  S186  1  0.91156480  0.25059187  0.29900373  1
  S2-  S187  1  0.88976661  0.26002144  0.85027693  1
  S2-  S188  1  0.87960817  0.43969022  0.32541735  1
  S2-  S189  1  0.87542832  0.52063226  0.85745776  1
  S2-  S190  1  0.89318684  0.63774798  0.35080779  1
  S2-  S191  1  0.88618815  0.74262792  0.84579267  1
  S2-  S192  1  -0.00930020  0.12719093  0.45599512  1
  S2-  S193  1  0.00479020  0.12557148  0.95630388  1
  S2-  S194  1  -0.01284286  0.37331223  0.44072803  1
  S2-  S195  1  0.00363824  0.37743921  0.96378554  1
  S2-  S196  1  -0.00472777  0.62684959  0.45499443  1
  S2-  S197  1  0.00536154  0.62507439  0.96426479  1
  S2-  S198  1  -0.00719277  0.87380788  0.44574000  1
  S2-  S199  1  0.00710112  0.87380637  0.95026467  1
  S2-  S200  1  0.24284299  0.12688129  0.44319018  1
  S2-  S201  1  0.25267350  0.12671337  0.94945610  1
  S2-  S202  1  0.24145801  0.37537868  0.44859930  1
  S2-  S203  1  0.25768298  0.37656653  0.94960521  1
  S2-  S204  1  0.23983463  0.62177732  0.45126674  1
  S2-  S205  1  0.25832724  0.62877125  0.95404940  1
  S2-  S206  1  0.24300780  0.87621894  0.45259752  1
  S2-  S207  1  0.25306275  0.86967047  0.94748184  1
  S2-  S208  1  0.49530265  0.12751482  0.45117339  1
  S2-  S209  1  0.51269358  0.12726351  0.94450524  1
  S2-  S210  1  0.49702633  0.37458762  0.45378754  1
  S2-  S211  1  0.50894085  0.38558651  0.95779963  1
  S2-  S212  1  0.49683438  0.62020713  0.45566237  1
  S2-  S213  1  0.50125706  0.62476456  0.95787549  1
  S2-  S214  1  0.48993152  0.87730328  0.46859056  1
  S2-  S215  1  0.50263904  0.88150959  0.95318978  1
  S2-  S216  1  0.74213929  0.12319092  0.45743106  1
  S2-  S217  1  0.75376410  0.12827680  0.95232401  1
  S2-  S218  1  0.74638740  0.37877797  0.44687344  1
  S2-  S219  1  0.75388858  0.37892571  0.96389547  1
  S2-  S220  1  0.74202908  0.62238174  0.45523495  1
  S2-  S221  1  0.75909529  0.62495210  0.96631501  1
  S2-  S222  1  0.74296166  0.87875075  0.45791609  1
  S2-  S223  1  0.76069901  0.87514690  0.95708435  1
  S2-  S224  1  0.13187794  0.00129786  0.04001255  1
  S2-  S225  1  0.12152654  0.00085817  0.54944943  1
  S2-  S226  1  0.13087398  0.24655255  0.04228403  1
  S2-  S227  1  0.11728544  0.24692862  0.54178644  1
  S2-  S228  1  0.13265025  0.50498943  0.05485864  1
  S2-  S229  1  0.11623659  0.49730754  0.54642744  1
  S2-  S230  1  0.13405125  0.75484629  0.05004567  1
  S2-  S231  1  0.12032387  0.75368625  0.53325706  1
  S2-  S232  1  0.37850912  0.00366388  0.03037558  1
  S2-  S233  1  0.36186107  0.00946776  0.55049422  1
  S2-  S234  1  0.38354657  0.24809566  0.03416212  1
  S2-  S235  1  0.36556715  0.24258537  0.54455013  1
  S2-  S236  1  0.38150172  0.50367228  0.05175921  1
  S2-  S237  1  0.36715593  0.49878018  0.54482702  1
  S2-  S238  1  0.38178679  0.75517566  0.04478954  1
  S2-  S239  1  0.36559536  0.74598060  0.53792855  1
  S2-  S240  1  0.63519011  0.00240451  0.03115319  1
  S2-  S241  1  0.62024424  0.00111004  0.55716524  1
  S2-  S242  1  0.62790356  0.24771793  0.03893805  1
  S2-  S243  1  0.62077530  0.24676013  0.54684885  1
  S2-  S244  1  0.63223920  0.50975525  0.04967175  1
  S2-  S245  1  0.61785182  0.49902065  0.54941672  1
  S2-  S246  1  0.62585617  0.75346318  0.04452112  1
  S2-  S247  1  0.61881657  0.75064196  0.54581414  1
  S2-  S248  1  0.88083488  0.00088949  0.05168302  1
  S2-  S249  1  0.86513705  -0.00417254  0.54790463  1
  S2-  S250  1  0.88167476  0.25236461  0.05505242  1
  S2-  S251  1  0.86331867  0.25085846  0.53205491  1
  S2-  S252  1  0.87981316  0.49644993  0.05987293  1
  S2-  S253  1  0.87035612  0.50239213  0.54175707  1
  S2-  S254  1  0.88249159  0.75209867  0.05052750  1
  S2-  S255  1  0.86553605  0.75268652  0.53798913  1
