# generated using pymatgen
data_La6Ce6Pr19Nd20Sm13(BiS2)64
_symmetry_space_group_name_H-M   'P 1'
_cell_length_a   16.11044052
_cell_length_b   16.06681767
_cell_length_c   27.23996619
_cell_angle_alpha   89.68864706
_cell_angle_beta   90.10460903
_cell_angle_gamma   90.05272652
_symmetry_Int_Tables_number   1
_chemical_formula_structural   La6Ce6Pr19Nd20Sm13(BiS2)64
_chemical_formula_sum   'La6 Ce6 Pr19 Nd20 Sm13 Bi64 S128'
_cell_volume   7050.76969436
_cell_formula_units_Z   1
loop_
 _symmetry_equiv_pos_site_id
 _symmetry_equiv_pos_as_xyz
  1  'x, y, z'
loop_
 _atom_type_symbol
 _atom_type_oxidation_number
  La3+  3.0
  Ce3+  3.0
  Pr3+  3.0
  Nd3+  3.0
  Sm3+  3.0
  Bi2+  2.0
  S2-  -2.0
loop_
 _atom_site_type_symbol
 _atom_site_label
 _atom_site_symmetry_multiplicity
 _atom_site_fract_x
 _atom_site_fract_y
 _atom_site_fract_z
 _atom_site_occupancy
  La3+  La0  1  0.75920682  0.36254498  0.56585734  1
  La3+  La1  1  0.01207946  0.60190850  0.58410674  1
  La3+  La2  1  0.37215751  0.50453900  0.91804846  1
  La3+  La3  1  0.86204536  0.76462627  0.91443941  1
  La3+  La4  1  0.11329865  0.49845956  0.90344148  1
  La3+  La5  1  0.13463409  0.50035093  0.42262900  1
  Ce3+  Ce6  1  0.88565168  0.48422561  0.43190582  1
  Ce3+  Ce7  1  0.11970231  0.00918909  0.93723585  1
  Ce3+  Ce8  1  0.13571336  0.23909175  0.43877956  1
  Ce3+  Ce9  1  0.24721823  0.13246736  0.05599440  1
  Ce3+  Ce10  1  0.63322473  0.23308619  0.44337776  1
  Ce3+  Ce11  1  0.62511646  0.50682951  0.94100480  1
  Pr3+  Pr12  1  0.24031778  0.87825901  0.06303816  1
  Pr3+  Pr13  1  0.88330522  0.73369487  0.44939281  1
  Pr3+  Pr14  1  0.49223839  0.38168900  0.05817777  1
  Pr3+  Pr15  1  0.38393892  0.23846361  0.43721195  1
  Pr3+  Pr16  1  0.75917742  0.85370385  0.57292478  1
  Pr3+  Pr17  1  0.75142386  0.63104636  0.05879016  1
  Pr3+  Pr18  1  0.76898170  0.11387607  0.57685674  1
  Pr3+  Pr19  1  0.50094361  0.60464359  0.57631601  1
  Pr3+  Pr20  1  0.26011835  0.60410504  0.57944343  1
  Pr3+  Pr21  1  0.62684918  0.25746929  0.93792925  1
  Pr3+  Pr22  1  0.25628376  0.86549828  0.58074216  1
  Pr3+  Pr23  1  0.88194438  -0.00934141  0.42989299  1
  Pr3+  Pr24  1  0.49166377  0.88356082  0.06736800  1
  Pr3+  Pr25  1  0.25654629  0.11222306  0.56807928  1
  Pr3+  Pr26  1  0.50701493  0.86543534  0.57748419  1
  Pr3+  Pr27  1  0.86222346  0.00976543  0.92657643  1
  Pr3+  Pr28  1  0.50627353  0.35525169  0.56640059  1
  Pr3+  Pr29  1  0.37031500  0.75547467  0.93247397  1
  Pr3+  Pr30  1  0.74387490  0.37383950  0.07261010  1
  Nd3+  Nd31  1  0.38336028  0.73958862  0.44474176  1
  Nd3+  Nd32  1  0.01024705  0.36353034  0.55577292  1
  Nd3+  Nd33  1  0.12683313  0.76768957  0.90905644  1
  Nd3+  Nd34  1  0.88201225  0.23921835  0.43070885  1
  Nd3+  Nd35  1  -0.00337816  0.12981740  0.06157603  1
  Nd3+  Nd36  1  0.00563135  0.86069712  0.55975430  1
  Nd3+  Nd37  1  0.63197820  0.73786176  0.45076832  1
  Nd3+  Nd38  1  -0.00436355  0.62917519  0.03624931  1
  Nd3+  Nd39  1  0.13519170  -0.01502042  0.44503881  1
  Nd3+  Nd40  1  0.38475321  -0.01620349  0.44255289  1
  Nd3+  Nd41  1  0.86280114  0.50761417  0.91494129  1
  Nd3+  Nd42  1  0.49401615  0.63113161  0.05683961  1
  Nd3+  Nd43  1  0.75560862  0.88374990  0.06762563  1
  Nd3+  Nd44  1  0.63489714  -0.01257502  0.45155484  1
  Nd3+  Nd45  1  -0.00373002  0.38743518  0.06263516  1
  Nd3+  Nd46  1  0.50853743  0.11018040  0.57274057  1
  Nd3+  Nd47  1  0.37161537  0.00669830  0.93225491  1
  Nd3+  Nd48  1  0.38686721  0.49393758  0.42948132  1
  Nd3+  Nd49  1  0.75683380  0.60676482  0.56924842  1
  Nd3+  Nd50  1  0.24271148  0.62865997  0.04497104  1
  Sm3+  Sm51  1  0.25836660  0.36287055  0.55748583  1
  Sm3+  Sm52  1  0.24640568  0.38313365  0.05022157  1
  Sm3+  Sm53  1  0.61450794  0.00396698  0.93581147  1
  Sm3+  Sm54  1  0.00527423  0.11300920  0.55403510  1
  Sm3+  Sm55  1  0.49323483  0.13161250  0.05030232  1
  Sm3+  Sm56  1  0.62119479  0.75929137  0.94782037  1
  Sm3+  Sm57  1  0.62902820  0.48730928  0.44129420  1
  Sm3+  Sm58  1  0.13590992  0.73394219  0.45272682  1
  Sm3+  Sm59  1  0.36910627  0.25930652  0.92792450  1
  Sm3+  Sm60  1  -0.00031579  0.87556577  0.05317127  1
  Sm3+  Sm61  1  0.74691037  0.12447662  0.06893740  1
  Sm3+  Sm62  1  0.11681984  0.25802010  0.93967285  1
  Sm3+  Sm63  1  0.87070116  0.25920199  0.95014448  1
  Bi2+  Bi64  1  0.00578355  0.05979922  0.28847376  1
  Bi2+  Bi65  1  0.05304452  0.12524479  0.82644604  1
  Bi2+  Bi66  1  -0.00109889  0.38259823  0.29234976  1
  Bi2+  Bi67  1  0.00008012  0.32979213  0.78643099  1
  Bi2+  Bi68  1  -0.02217627  0.63928433  0.27599985  1
  Bi2+  Bi69  1  -0.00159090  0.60962833  0.77900856  1
  Bi2+  Bi70  1  -0.02724107  0.86409321  0.29170223  1
  Bi2+  Bi71  1  -0.02879097  0.96174057  0.77834188  1
  Bi2+  Bi72  1  0.27379390  0.05659658  0.29949461  1
  Bi2+  Bi73  1  0.25844730  0.12016946  0.83585293  1
  Bi2+  Bi74  1  0.24985704  0.33763566  0.29100384  1
  Bi2+  Bi75  1  0.25748557  0.30064267  0.77894605  1
  Bi2+  Bi76  1  0.24898076  0.60728217  0.29623963  1
  Bi2+  Bi77  1  0.26330908  0.67930312  0.77090820  1
  Bi2+  Bi78  1  0.28755054  0.85383477  0.28226896  1
  Bi2+  Bi79  1  0.25945595  0.93378103  0.79601015  1
  Bi2+  Bi80  1  0.44625219  0.07343787  0.24838006  1
  Bi2+  Bi81  1  0.45203763  0.11965817  0.80868854  1
  Bi2+  Bi82  1  0.49773410  0.35229225  0.29145483  1
  Bi2+  Bi83  1  0.46825562  0.30734872  0.77234567  1
  Bi2+  Bi84  1  0.49450394  0.65908126  0.28621532  1
  Bi2+  Bi85  1  0.54451192  0.57769375  0.80648709  1
  Bi2+  Bi86  1  0.53480597  0.90034352  0.31472611  1
  Bi2+  Bi87  1  0.51616312  0.80094007  0.81552505  1
  Bi2+  Bi88  1  0.74253255  0.08565899  0.29302739  1
  Bi2+  Bi89  1  0.85405599  0.13859348  0.81302186  1
  Bi2+  Bi90  1  0.74653426  0.36142221  0.28199787  1
  Bi2+  Bi91  1  0.72781154  0.34406033  0.78447683  1
  Bi2+  Bi92  1  0.77524479  0.61679537  0.29529623  1
  Bi2+  Bi93  1  0.73642095  0.60390601  0.77976339  1
  Bi2+  Bi94  1  0.78856599  0.90166157  0.32125174  1
  Bi2+  Bi95  1  0.68556998  0.85721523  0.76764767  1
  Bi2+  Bi96  1  0.15196094  -0.02406015  0.19715813  1
  Bi2+  Bi97  1  0.12407937  0.05017893  0.72515010  1
  Bi2+  Bi98  1  0.14844438  0.16622699  0.23793729  1
  Bi2+  Bi99  1  0.12697211  0.24043857  0.69367275  1
  Bi2+  Bi100  1  0.13004821  0.48954072  0.16693922  1
  Bi2+  Bi101  1  0.14036286  0.48416380  0.70916770  1
  Bi2+  Bi102  1  0.12466881  0.78666949  0.23307931  1
  Bi2+  Bi103  1  0.11824731  0.78437720  0.71305957  1
  Bi2+  Bi104  1  0.34517325  -0.06095484  0.17681935  1
  Bi2+  Bi105  1  0.37255915  0.04509682  0.71017248  1
  Bi2+  Bi106  1  0.38284425  0.24969427  0.18391517  1
  Bi2+  Bi107  1  0.32631835  0.23121625  0.67885375  1
  Bi2+  Bi108  1  0.38139258  0.50167681  0.18749787  1
  Bi2+  Bi109  1  0.38488765  0.49949007  0.71225847  1
  Bi2+  Bi110  1  0.39931192  0.75530636  0.20416630  1
  Bi2+  Bi111  1  0.44429137  0.85398209  0.71098071  1
  Bi2+  Bi112  1  0.61199703  -0.02248932  0.21716939  1
  Bi2+  Bi113  1  0.62807707  0.05069275  0.77213412  1
  Bi2+  Bi114  1  0.63097808  0.22193981  0.24197930  1
  Bi2+  Bi115  1  0.63421521  0.21942237  0.71251601  1
  Bi2+  Bi116  1  0.61719938  0.50893507  0.26893080  1
  Bi2+  Bi117  1  0.62791058  0.47218691  0.71978689  1
  Bi2+  Bi118  1  0.69081577  0.78604758  0.25058846  1
  Bi2+  Bi119  1  0.57334842  0.70740357  0.71434105  1
  Bi2+  Bi120  1  0.86683345  -0.00893963  0.20639960  1
  Bi2+  Bi121  1  0.80635539  0.04991101  0.71727163  1
  Bi2+  Bi122  1  0.86875903  0.26128260  0.19321225  1
  Bi2+  Bi123  1  0.92042017  0.23521503  0.69933441  1
  Bi2+  Bi124  1  0.88051407  0.52869449  0.19675850  1
  Bi2+  Bi125  1  0.87714936  0.47416122  0.71013878  1
  Bi2+  Bi126  1  0.86232406  0.74158369  0.19841076  1
  Bi2+  Bi127  1  0.85698962  0.78163587  0.70203643  1
  S2-  S128  1  -0.05505968  0.12540068  0.15724822  1
  S2-  S129  1  -0.08166506  0.09561554  0.63754575  1
  S2-  S130  1  0.01090100  0.35589404  0.16177254  1
  S2-  S131  1  0.00594938  0.44436659  0.64507013  1
  S2-  S132  1  0.01161883  0.59933291  0.13575995  1
  S2-  S133  1  -0.07107301  0.63595313  0.67793793  1
  S2-  S134  1  -0.10580680  0.87259096  0.13346261  1
  S2-  S135  1  -0.00350742  0.86618481  0.65937674  1
  S2-  S136  1  0.24098607  0.15824458  0.15236095  1
  S2-  S137  1  0.23712070  0.00455043  0.64782126  1
  S2-  S138  1  0.26956506  0.37942545  0.14929508  1
  S2-  S139  1  0.26359179  0.44789273  0.64496063  1
  S2-  S140  1  0.25820867  0.60301702  0.14462885  1
  S2-  S141  1  0.14083798  0.62402370  0.65828391  1
  S2-  S142  1  0.11376846  0.84385859  0.13206896  1
  S2-  S143  1  0.26782197  0.80252999  0.67924415  1
  S2-  S144  1  0.48573505  0.13723721  0.14846701  1
  S2-  S145  1  0.50304104  0.23334926  0.64508655  1
  S2-  S146  1  0.49482912  0.37745447  0.15925564  1
  S2-  S147  1  0.50703215  0.46469355  0.64633434  1
  S2-  S148  1  0.48774058  0.61081751  0.15615617  1
  S2-  S149  1  0.38402790  0.62464328  0.65569560  1
  S2-  S150  1  0.52865496  0.85171050  0.16428307  1
  S2-  S151  1  0.50768222  0.99041823  0.64972896  1
  S2-  S152  1  0.72683918  0.22588407  0.14850774  1
  S2-  S153  1  0.76640395  0.25115437  0.64680175  1
  S2-  S154  1  0.77593179  0.41258720  0.17035977  1
  S2-  S155  1  0.75776910  0.48202371  0.64379195  1
  S2-  S156  1  0.74908214  0.63043841  0.15935347  1
  S2-  S157  1  0.74102491  0.71496748  0.64909863  1
  S2-  S158  1  0.73142321  1.00334089  0.14162018  1
  S2-  S159  1  0.74516524  0.91680356  0.66752170  1
  S2-  S160  1  0.13474154  -0.01259875  0.34585437  1
  S2-  S161  1  0.12477848  -0.07636487  0.85340873  1
  S2-  S162  1  0.11175639  0.27316935  0.34248050  1
  S2-  S163  1  0.13071193  0.33801975  0.85157347  1
  S2-  S164  1  0.14235233  0.46834983  0.26147607  1
  S2-  S165  1  0.16615617  0.55293255  0.80577037  1
  S2-  S166  1  0.15100256  0.66581290  0.36124305  1
  S2-  S167  1  0.06026247  0.74472035  0.81249982  1
  S2-  S168  1  0.38520972  -0.13374730  0.36894437  1
  S2-  S169  1  0.49255875  -0.02749499  0.86107184  1
  S2-  S170  1  0.38036180  0.25331912  0.33602221  1
  S2-  S171  1  0.37469420  0.36821587  0.84951705  1
  S2-  S172  1  0.26698182  0.46363153  0.35473262  1
  S2-  S173  1  0.37937990  0.59445456  0.82890615  1
  S2-  S174  1  0.37992783  0.63895454  0.36047209  1
  S2-  S175  1  0.27752491  0.78057773  0.84677599  1
  S2-  S176  1  0.60156410  0.03508560  0.35686508  1
  S2-  S177  1  0.71798929  0.04569170  0.86088802  1
  S2-  S178  1  0.62973796  0.26847501  0.34647665  1
  S2-  S179  1  0.60548581  0.27340491  0.83817505  1
  S2-  S180  1  0.52423331  0.47997460  0.36198930  1
  S2-  S181  1  0.71579249  0.48443570  0.85797814  1
  S2-  S182  1  0.59821671  0.74221579  0.35256935  1
  S2-  S183  1  0.68684863  0.78072762  0.85752324  1
  S2-  S184  1  0.87884027  0.11895581  0.35539779  1
  S2-  S185  1  0.87817770  -0.10221508  0.84597124  1
  S2-  S186  1  0.86462221  0.35713960  0.35483397  1
  S2-  S187  1  0.84997298  0.29744190  0.85486976  1
  S2-  S188  1  0.99753216  0.50735746  0.35343078  1
  S2-  S189  1  0.97220752  0.47329980  0.83937555  1
  S2-  S190  1  0.88833967  0.71764089  0.34941583  1
  S2-  S191  1  0.86020319  0.64399847  0.83909233  1
  S2-  S192  1  0.01190139  0.11204859  0.45095052  1
  S2-  S193  1  -0.00680361  0.13457566  0.95427574  1
  S2-  S194  1  0.01279782  0.36233109  0.45190912  1
  S2-  S195  1  -0.00678867  0.38124224  0.95482911  1
  S2-  S196  1  0.01004458  0.61428970  0.46408093  1
  S2-  S197  1  -0.00180956  0.63333580  0.93304402  1
  S2-  S198  1  0.00913831  0.86076477  0.45169072  1
  S2-  S199  1  -0.00490739  0.88442824  0.94942061  1
  S2-  S200  1  0.25941967  0.11002703  0.45444944  1
  S2-  S201  1  0.24635167  0.13621574  0.95135603  1
  S2-  S202  1  0.25923281  0.36021725  0.45535933  1
  S2-  S203  1  0.24454588  0.38090300  0.94804777  1
  S2-  S204  1  0.26048370  0.61495071  0.46760611  1
  S2-  S205  1  0.24201892  0.62746541  0.93812316  1
  S2-  S206  1  0.25479577  0.86147987  0.46648385  1
  S2-  S207  1  0.25008651  0.88584022  0.95590898  1
  S2-  S208  1  0.50515685  0.11041926  0.46194788  1
  S2-  S209  1  0.49439302  0.13710683  0.94673019  1
  S2-  S210  1  0.50956199  0.35786382  0.45894672  1
  S2-  S211  1  0.49887235  0.38132684  0.95036922  1
  S2-  S212  1  0.51079248  0.61421439  0.46545738  1
  S2-  S213  1  0.49798848  0.63359931  0.94997129  1
  S2-  S214  1  0.51132307  0.86417869  0.46941323  1
  S2-  S215  1  0.49372335  0.87597100  0.96158516  1
  S2-  S216  1  0.75933054  0.11287682  0.46062868  1
  S2-  S217  1  0.74627262  0.13603115  0.96405523  1
  S2-  S218  1  0.75188982  0.36395785  0.45665479  1
  S2-  S219  1  0.74754482  0.38086636  0.96393546  1
  S2-  S220  1  0.75458386  0.60943211  0.45651460  1
  S2-  S221  1  0.74426967  0.63353410  0.95293493  1
  S2-  S222  1  0.75911763  0.86194746  0.46185686  1
  S2-  S223  1  0.73961304  0.88713071  0.96085582  1
  S2-  S224  1  0.12095838  0.00827247  0.04432960  1
  S2-  S225  1  0.12586718  -0.01118291  0.54934140  1
  S2-  S226  1  0.12085202  0.25908968  0.04532550  1
  S2-  S227  1  0.13258264  0.23593715  0.54671332  1
  S2-  S228  1  0.12245529  0.50282423  0.03198283  1
  S2-  S229  1  0.13580871  0.48447130  0.54154405  1
  S2-  S230  1  0.12101485  0.75229528  0.02478253  1
  S2-  S231  1  0.13316261  0.74028240  0.55551340  1
  S2-  S232  1  0.36931216  0.00756124  0.04034953  1
  S2-  S233  1  0.38079991  -0.01224612  0.54801717  1
  S2-  S234  1  0.36983919  0.25745080  0.03563837  1
  S2-  S235  1  0.37812946  0.23435634  0.54342043  1
  S2-  S236  1  0.37074451  0.50655149  0.03286572  1
  S2-  S237  1  0.38304476  0.48117748  0.53971841  1
  S2-  S238  1  0.36854203  0.75484233  0.04407054  1
  S2-  S239  1  0.38223987  0.74343467  0.55452323  1
  S2-  S240  1  0.61428313  0.00847973  0.04196307  1
  S2-  S241  1  0.64108950  -0.01080630  0.55593721  1
  S2-  S242  1  0.61587683  0.25368317  0.04509604  1
  S2-  S243  1  0.63617819  0.23056476  0.54754901  1
  S2-  S244  1  0.62138535  0.50619150  0.05008417  1
  S2-  S245  1  0.62953107  0.48667324  0.54411992  1
  S2-  S246  1  0.62251819  0.75764648  0.05293655  1
  S2-  S247  1  0.62522885  0.73501390  0.55519521  1
  S2-  S248  1  0.87499794  0.00928570  0.03818401  1
  S2-  S249  1  0.88316029  -0.01600920  0.53890814  1
  S2-  S250  1  0.87425459  0.25631358  0.05271518  1
  S2-  S251  1  0.88756610  0.23929062  0.53795998  1
  S2-  S252  1  0.86910625  0.50310785  0.04270578  1
  S2-  S253  1  0.88454992  0.48747983  0.54038247  1
  S2-  S254  1  0.87315437  0.75472195  0.03202417  1
  S2-  S255  1  0.88662822  0.73079018  0.55399972  1
