# generated using pymatgen
data_La6Ce6Pr19Nd20Sm13(BiS2)64
_symmetry_space_group_name_H-M   'P 1'
_cell_length_a   16.06999742
_cell_length_b   16.13200750
_cell_length_c   27.34229761
_cell_angle_alpha   89.67528940
_cell_angle_beta   89.78857586
_cell_angle_gamma   89.97226084
_symmetry_Int_Tables_number   1
_chemical_formula_structural   La6Ce6Pr19Nd20Sm13(BiS2)64
_chemical_formula_sum   'La6 Ce6 Pr19 Nd20 Sm13 Bi64 S128'
_cell_volume   7088.09044646
_cell_formula_units_Z   1
loop_
 _symmetry_equiv_pos_site_id
 _symmetry_equiv_pos_as_xyz
  1  'x, y, z'
loop_
 _atom_type_symbol
 _atom_type_oxidation_number
  La3+  3.0
  Ce3+  3.0
  Pr3+  3.0
  Nd3+  3.0
  Sm3+  3.0
  Bi2+  2.0
  S2-  -2.0
loop_
 _atom_site_type_symbol
 _atom_site_label
 _atom_site_symmetry_multiplicity
 _atom_site_fract_x
 _atom_site_fract_y
 _atom_site_fract_z
 _atom_site_occupancy
  La3+  La0  1  0.73810186  0.87455529  0.57995564  1
  La3+  La1  1  0.49556114  0.36789702  0.60747105  1
  La3+  La2  1  0.25955361  0.37063155  0.08162433  1
  La3+  La3  1  0.24859197  0.87579695  0.08081774  1
  La3+  La4  1  0.10751434  0.24602045  0.40953763  1
  La3+  La5  1  0.12875042  0.51073080  0.39356601  1
  Ce3+  Ce6  1  0.49950261  0.62137896  0.56635159  1
  Ce3+  Ce7  1  0.37246570  0.25313133  0.43356651  1
  Ce3+  Ce8  1  0.37204234  0.51156861  0.92411096  1
  Ce3+  Ce9  1  0.13249399  -0.00050406  0.42856262  1
  Ce3+  Ce10  1  0.75082466  0.12626740  0.06065471  1
  Ce3+  Ce11  1  0.37146836  -0.00197583  0.93801844  1
  Pr3+  Pr12  1  0.74346155  0.62343152  0.05517971  1
  Pr3+  Pr13  1  0.74399162  0.86630855  0.07455006  1
  Pr3+  Pr14  1  0.49837326  0.87306620  0.06755931  1
  Pr3+  Pr15  1  0.25063594  0.62430677  0.06105129  1
  Pr3+  Pr16  1  -0.00269541  0.86962095  0.07335197  1
  Pr3+  Pr17  1  0.49654139  0.12659022  0.05433804  1
  Pr3+  Pr18  1  0.00327184  0.87363309  0.55885462  1
  Pr3+  Pr19  1  0.75061278  0.12406120  0.56679013  1
  Pr3+  Pr20  1  0.12406537  0.76430195  0.93349455  1
  Pr3+  Pr21  1  0.00175518  0.11924031  0.56936964  1
  Pr3+  Pr22  1  0.62497405  0.00058682  0.93997196  1
  Pr3+  Pr23  1  -0.00145819  0.37213699  0.56988483  1
  Pr3+  Pr24  1  0.87600077  0.49545560  0.93088323  1
  Pr3+  Pr25  1  0.38273678  0.00211321  0.42538102  1
  Pr3+  Pr26  1  0.74516275  0.37774961  0.06224103  1
  Pr3+  Pr27  1  0.24641275  0.12397481  0.06658887  1
  Pr3+  Pr28  1  -0.00818216  0.37662941  0.07958920  1
  Pr3+  Pr29  1  0.62632170  0.49508477  0.91496008  1
  Pr3+  Pr30  1  0.62748576  0.75790994  0.92473487  1
  Nd3+  Nd31  1  0.74832413  0.62211386  0.56076350  1
  Nd3+  Nd32  1  0.87281929  0.24948889  0.44198154  1
  Nd3+  Nd33  1  0.62354201  0.25146920  0.93679456  1
  Nd3+  Nd34  1  0.49049195  0.12478329  0.56636472  1
  Nd3+  Nd35  1  0.87435268  0.75124488  0.44772015  1
  Nd3+  Nd36  1  0.37248892  0.75610814  0.93348539  1
  Nd3+  Nd37  1  0.62564801  0.49748079  0.44868107  1
  Nd3+  Nd38  1  0.12512384  0.49881500  0.95101575  1
  Nd3+  Nd39  1  0.12607212  0.75072880  0.43877059  1
  Nd3+  Nd40  1  0.24909117  0.37155228  0.55369301  1
  Nd3+  Nd41  1  0.62616655  0.74793674  0.44177989  1
  Nd3+  Nd42  1  0.00136538  0.62379294  0.55817448  1
  Nd3+  Nd43  1  0.36653129  0.26060268  0.92788787  1
  Nd3+  Nd44  1  0.49148185  0.87575606  0.56105808  1
  Nd3+  Nd45  1  -0.00133409  0.62422697  0.05533090  1
  Nd3+  Nd46  1  0.87398900  0.75569443  0.93634707  1
  Nd3+  Nd47  1  -0.01108945  0.12583764  0.07399742  1
  Nd3+  Nd48  1  0.37112356  0.49679350  0.44380536  1
  Nd3+  Nd49  1  0.74896041  0.37204164  0.57144875  1
  Nd3+  Nd50  1  0.24911593  0.61919870  0.56154660  1
  Sm3+  Sm51  1  0.25433050  0.87639728  0.56105869  1
  Sm3+  Sm52  1  0.87122729  0.00004469  0.44530867  1
  Sm3+  Sm53  1  0.87608694  0.25267526  0.93827963  1
  Sm3+  Sm54  1  0.37370399  0.74625288  0.44424299  1
  Sm3+  Sm55  1  0.49908619  0.62407885  0.04436229  1
  Sm3+  Sm56  1  0.25050142  0.12624671  0.54895768  1
  Sm3+  Sm57  1  0.49841065  0.37758582  0.04939347  1
  Sm3+  Sm58  1  0.88257632  0.49606241  0.44408022  1
  Sm3+  Sm59  1  0.12246735  0.25254282  0.95435476  1
  Sm3+  Sm60  1  0.62795424  -0.00025293  0.43753337  1
  Sm3+  Sm61  1  0.12172870  0.00412275  0.95130232  1
  Sm3+  Sm62  1  0.62332173  0.25272574  0.44840347  1
  Sm3+  Sm63  1  0.87384503  0.00014655  0.94742646  1
  Bi2+  Bi64  1  -0.03653703  0.07224065  0.28381749  1
  Bi2+  Bi65  1  0.05385939  0.13350857  0.79644670  1
  Bi2+  Bi66  1  -0.01722420  0.38010137  0.28330219  1
  Bi2+  Bi67  1  0.04257220  0.41306939  0.79647186  1
  Bi2+  Bi68  1  -0.10407096  0.62335030  0.28147957  1
  Bi2+  Bi69  1  0.04042073  0.61571412  0.75488985  1
  Bi2+  Bi70  1  0.00137594  0.88350414  0.30246095  1
  Bi2+  Bi71  1  0.03860997  0.86254756  0.79179259  1
  Bi2+  Bi72  1  0.36081545  0.11895616  0.29343781  1
  Bi2+  Bi73  1  0.24159434  0.07104047  0.77561753  1
  Bi2+  Bi74  1  0.28872731  0.38085445  0.28480459  1
  Bi2+  Bi75  1  0.26022205  0.28654515  0.79258432  1
  Bi2+  Bi76  1  0.26570241  0.64905647  0.29392783  1
  Bi2+  Bi77  1  0.22835523  0.61332060  0.79001349  1
  Bi2+  Bi78  1  0.19861947  0.86296821  0.30027083  1
  Bi2+  Bi79  1  0.24516660  0.87178881  0.78944525  1
  Bi2+  Bi80  1  0.56337697  0.14205415  0.28899034  1
  Bi2+  Bi81  1  0.51903993  0.08807553  0.79656343  1
  Bi2+  Bi82  1  0.55082331  0.42005384  0.26911547  1
  Bi2+  Bi83  1  0.49039313  0.36465182  0.79540377  1
  Bi2+  Bi84  1  0.50762213  0.60944155  0.25161492  1
  Bi2+  Bi85  1  0.46137754  0.62993934  0.77006011  1
  Bi2+  Bi86  1  0.53985437  0.89206430  0.28200151  1
  Bi2+  Bi87  1  0.49443579  0.88354155  0.78677930  1
  Bi2+  Bi88  1  0.77152461  0.12537624  0.29911951  1
  Bi2+  Bi89  1  0.77970116  0.16781341  0.80801703  1
  Bi2+  Bi90  1  0.73912067  0.37840130  0.29549855  1
  Bi2+  Bi91  1  0.78084981  0.36302719  0.79573538  1
  Bi2+  Bi92  1  0.69997353  0.63977754  0.29042630  1
  Bi2+  Bi93  1  0.78086934  0.62132343  0.77907599  1
  Bi2+  Bi94  1  0.78133822  0.86836463  0.29825025  1
  Bi2+  Bi95  1  0.76631175  0.84312275  0.80637827  1
  Bi2+  Bi96  1  0.13613012  -0.01412103  0.21742789  1
  Bi2+  Bi97  1  0.13278044  0.05179336  0.67992951  1
  Bi2+  Bi98  1  0.14404998  0.23207291  0.21658118  1
  Bi2+  Bi99  1  0.10940343  0.24083714  0.70015848  1
  Bi2+  Bi100  1  0.11657372  0.52231497  0.19661063  1
  Bi2+  Bi101  1  0.10328493  0.43386846  0.68410617  1
  Bi2+  Bi102  1  0.05216367  0.74420543  0.22319085  1
  Bi2+  Bi103  1  0.15725970  0.85512712  0.68407109  1
  Bi2+  Bi104  1  0.39294898  -0.01383871  0.20978968  1
  Bi2+  Bi105  1  0.40221404  0.00277470  0.71233443  1
  Bi2+  Bi106  1  0.41515328  0.23353055  0.20160042  1
  Bi2+  Bi107  1  0.36566125  0.22062905  0.70470914  1
  Bi2+  Bi108  1  0.37540442  0.53547083  0.17801127  1
  Bi2+  Bi109  1  0.28412985  0.47063813  0.71975251  1
  Bi2+  Bi110  1  0.36559008  0.79653962  0.24367097  1
  Bi2+  Bi111  1  0.32694537  0.75469866  0.70883959  1
  Bi2+  Bi112  1  0.66573447  0.01141708  0.22329358  1
  Bi2+  Bi113  1  0.62566896  -0.01461741  0.72364816  1
  Bi2+  Bi114  1  0.62178313  0.28499937  0.19379022  1
  Bi2+  Bi115  1  0.64296584  0.21075795  0.72356434  1
  Bi2+  Bi116  1  0.62328328  0.47542614  0.16114392  1
  Bi2+  Bi117  1  0.64050374  0.49717400  0.71293697  1
  Bi2+  Bi118  1  0.61582249  0.75721535  0.20504664  1
  Bi2+  Bi119  1  0.63910777  0.74325184  0.69786537  1
  Bi2+  Bi120  1  0.86265755  -0.01773099  0.19784721  1
  Bi2+  Bi121  1  0.90013687  0.03767585  0.75800160  1
  Bi2+  Bi122  1  0.81259705  0.25831931  0.21389308  1
  Bi2+  Bi123  1  0.90283917  0.23509187  0.71774134  1
  Bi2+  Bi124  1  0.79319434  0.51284707  0.21035230  1
  Bi2+  Bi125  1  0.91128928  0.47780545  0.71647247  1
  Bi2+  Bi126  1  0.87118232  0.79220726  0.19356809  1
  Bi2+  Bi127  1  0.90589458  0.75323971  0.70172093  1
  S2-  S128  1  0.07068059  0.12296447  0.16349901  1
  S2-  S129  1  -0.09263696  0.10618429  0.65540548  1
  S2-  S130  1  0.04649694  0.36232066  0.17919077  1
  S2-  S131  1  -0.12459369  0.36588410  0.64469738  1
  S2-  S132  1  -0.01172825  0.62128199  0.15398698  1
  S2-  S133  1  0.02144949  0.64620859  0.65549073  1
  S2-  S134  1  0.11111658  0.85293901  0.15101142  1
  S2-  S135  1  -0.01348228  0.87699222  0.65909692  1
  S2-  S136  1  0.26303606  0.22875484  0.14842015  1
  S2-  S137  1  0.34320937  0.10669027  0.63116354  1
  S2-  S138  1  0.24411030  0.42676598  0.18136972  1
  S2-  S139  1  0.32542857  0.35700162  0.64376792  1
  S2-  S140  1  0.24224422  0.63606079  0.16234309  1
  S2-  S141  1  0.27244236  0.61252005  0.66044736  1
  S2-  S142  1  0.25723801  1.01494048  0.14882072  1
  S2-  S143  1  0.36783410  0.87993693  0.63634580  1
  S2-  S144  1  0.48640064  0.10648118  0.15381565  1
  S2-  S145  1  0.51062903  0.21151100  0.65535968  1
  S2-  S146  1  0.42278112  0.37782262  0.13738155  1
  S2-  S147  1  0.48644917  0.45075667  0.70323454  1
  S2-  S148  1  0.51076935  0.63634377  0.14289443  1
  S2-  S149  1  0.51226969  0.65669022  0.66421485  1
  S2-  S150  1  0.38519479  0.84664413  0.14514416  1
  S2-  S151  1  0.59092431  0.87188918  0.64283677  1
  S2-  S152  1  0.85009956  0.13478961  0.14092054  1
  S2-  S153  1  0.69243202  0.09235829  0.65980217  1
  S2-  S154  1  0.84917644  0.38486932  0.14291216  1
  S2-  S155  1  0.65780725  0.36541667  0.65817150  1
  S2-  S156  1  0.74697340  0.72005816  0.13923211  1
  S2-  S157  1  0.74478308  0.61374280  0.66045748  1
  S2-  S158  1  0.61548157  0.89189491  0.14486282  1
  S2-  S159  1  0.78161638  0.85067325  0.68001849  1
  S2-  S160  1  0.07596632  0.09319046  0.35449725  1
  S2-  S161  1  0.12152694  -0.08005001  0.86596260  1
  S2-  S162  1  0.18671490  0.27271497  0.31832482  1
  S2-  S163  1  0.12740957  0.25676532  0.85529669  1
  S2-  S164  1  0.12471822  0.47034199  0.29125806  1
  S2-  S165  1  0.14970002  0.49267206  0.85267473  1
  S2-  S166  1  0.13187923  0.67128398  0.35058689  1
  S2-  S167  1  0.10284990  0.71950391  0.83595013  1
  S2-  S168  1  0.26563279  -0.00604658  0.35130596  1
  S2-  S169  1  0.37263780  -0.11526172  0.86258660  1
  S2-  S170  1  0.39833703  0.27460757  0.33650036  1
  S2-  S171  1  0.40796524  0.19726627  0.83586397  1
  S2-  S172  1  0.30459590  0.51099815  0.35198708  1
  S2-  S173  1  0.35312804  0.39402034  0.85533117  1
  S2-  S174  1  0.38024630  0.73985857  0.34681367  1
  S2-  S175  1  0.36208639  0.64706792  0.85129194  1
  S2-  S176  1  0.52123441  0.00422555  0.35843524  1
  S2-  S177  1  0.63018733  -0.09921457  0.85850486  1
  S2-  S178  1  0.66386046  0.24379448  0.35248208  1
  S2-  S179  1  0.62348870  0.33548975  0.84925533  1
  S2-  S180  1  0.64578196  0.50116601  0.35032589  1
  S2-  S181  1  0.52599657  0.52115508  0.82886332  1
  S2-  S182  1  0.64321645  0.78431956  0.34517642  1
  S2-  S183  1  0.66000062  0.70486257  0.82411588  1
  S2-  S184  1  0.76062524  -0.00976745  0.36822938  1
  S2-  S185  1  0.87474785  -0.05138723  0.85352652  1
  S2-  S186  1  0.95489184  0.27709521  0.35399977  1
  S2-  S187  1  0.90870533  0.35952430  0.86251821  1
  S2-  S188  1  0.95263355  0.50391046  0.35414534  1
  S2-  S189  1  0.76437670  0.51143418  0.85091507  1
  S2-  S190  1  0.89165130  0.75785704  0.34910710  1
  S2-  S191  1  0.87820830  0.72947089  0.83724589  1
  S2-  S192  1  -0.00710690  0.12143850  0.46214550  1
  S2-  S193  1  -0.00388067  0.12615780  0.95691940  1
  S2-  S194  1  0.00005200  0.37307178  0.46168973  1
  S2-  S195  1  0.00165427  0.37450053  0.96736597  1
  S2-  S196  1  0.00093629  0.62502649  0.45410579  1
  S2-  S197  1  -0.00108931  0.62643190  0.94851584  1
  S2-  S198  1  -0.00082584  0.87767741  0.45170135  1
  S2-  S199  1  -0.00398109  0.87926941  0.96473156  1
  S2-  S200  1  0.24581797  0.13345690  0.44654220  1
  S2-  S201  1  0.24629521  0.12620290  0.95264038  1
  S2-  S202  1  0.23832030  0.37579284  0.44698353  1
  S2-  S203  1  0.24403905  0.37424917  0.96405396  1
  S2-  S204  1  0.24726854  0.62320056  0.45649749  1
  S2-  S205  1  0.24229873  0.63115673  0.95440897  1
  S2-  S206  1  0.25370466  0.86967527  0.45613966  1
  S2-  S207  1  0.24682550  0.88087838  0.96660189  1
  S2-  S208  1  0.50217221  0.13113491  0.45529675  1
  S2-  S209  1  0.49834382  0.12621011  0.94800015  1
  S2-  S210  1  0.50135379  0.37680769  0.44342282  1
  S2-  S211  1  0.49767766  0.37693584  0.94787985  1
  S2-  S212  1  0.49916534  0.62211546  0.45451923  1
  S2-  S213  1  0.50552384  0.63068412  0.94231461  1
  S2-  S214  1  0.49987753  0.86814537  0.45430735  1
  S2-  S215  1  0.49994219  0.87759103  0.95976239  1
  S2-  S216  1  0.74796628  0.12727770  0.46022675  1
  S2-  S217  1  0.75183415  0.12758139  0.95306769  1
  S2-  S218  1  0.75267445  0.37602877  0.46028146  1
  S2-  S219  1  0.75025646  0.37067284  0.95554345  1
  S2-  S220  1  0.75428115  0.62174419  0.45377003  1
  S2-  S221  1  0.75072373  0.63063043  0.94968740  1
  S2-  S222  1  0.74742133  0.87129421  0.46682623  1
  S2-  S223  1  0.75230241  0.87716362  0.96232645  1
  S2-  S224  1  0.11434056  0.00275144  0.05192170  1
  S2-  S225  1  0.13061321  -0.00209940  0.54109754  1
  S2-  S226  1  0.11721182  0.25055817  0.05637356  1
  S2-  S227  1  0.12514507  0.24608913  0.55421060  1
  S2-  S228  1  0.12421605  0.49626981  0.05742095  1
  S2-  S229  1  0.12393061  0.49793694  0.55409344  1
  S2-  S230  1  0.12265786  0.74804708  0.04370788  1
  S2-  S231  1  0.12998984  0.74964768  0.54596400  1
  S2-  S232  1  0.37540280  0.00085413  0.04268811  1
  S2-  S233  1  0.37238987  -0.00005900  0.53082894  1
  S2-  S234  1  0.37571197  0.25058825  0.03593954  1
  S2-  S235  1  0.37588406  0.25208650  0.53834198  1
  S2-  S236  1  0.37526584  0.50269117  0.03545742  1
  S2-  S237  1  0.37871181  0.49577246  0.54998257  1
  S2-  S238  1  0.37517423  0.74575362  0.03962848  1
  S2-  S239  1  0.37335024  0.74247748  0.54729658  1
  S2-  S240  1  0.62748699  0.00444242  0.04504818  1
  S2-  S241  1  0.61853318  0.00324328  0.54291155  1
  S2-  S242  1  0.62305460  0.25144545  0.04410145  1
  S2-  S243  1  0.62220622  0.25040883  0.55043866  1
  S2-  S244  1  0.62181432  0.49946451  0.02989938  1
  S2-  S245  1  0.62117933  0.49564518  0.55444903  1
  S2-  S246  1  0.62040509  0.74908277  0.03601352  1
  S2-  S247  1  0.62184148  0.74391018  0.54691340  1
  S2-  S248  1  0.87101675  -0.00638941  0.05060330  1
  S2-  S249  1  0.87093038  -0.00637279  0.54921570  1
  S2-  S250  1  0.87309201  0.25254296  0.04116269  1
  S2-  S251  1  0.87456101  0.24609044  0.54736850  1
  S2-  S252  1  0.87224513  0.50322626  0.04008474  1
  S2-  S253  1  0.87463410  0.50091978  0.54864080  1
  S2-  S254  1  0.87531513  0.74840983  0.04311334  1
  S2-  S255  1  0.87319017  0.74889190  0.55358719  1
