# generated using pymatgen
data_La6Ce6Pr19Nd20Sm13(BiS2)64
_symmetry_space_group_name_H-M   'P 1'
_cell_length_a   16.12389609
_cell_length_b   16.09521908
_cell_length_c   27.33625440
_cell_angle_alpha   90.05686790
_cell_angle_beta   90.19780452
_cell_angle_gamma   90.11686913
_symmetry_Int_Tables_number   1
_chemical_formula_structural   La6Ce6Pr19Nd20Sm13(BiS2)64
_chemical_formula_sum   'La6 Ce6 Pr19 Nd20 Sm13 Bi64 S128'
_cell_volume   7094.17965044
_cell_formula_units_Z   1
loop_
 _symmetry_equiv_pos_site_id
 _symmetry_equiv_pos_as_xyz
  1  'x, y, z'
loop_
 _atom_type_symbol
 _atom_type_oxidation_number
  La3+  3.0
  Ce3+  3.0
  Pr3+  3.0
  Nd3+  3.0
  Sm3+  3.0
  Bi2+  2.0
  S2-  -2.0
loop_
 _atom_site_type_symbol
 _atom_site_label
 _atom_site_symmetry_multiplicity
 _atom_site_fract_x
 _atom_site_fract_y
 _atom_site_fract_z
 _atom_site_occupancy
  La3+  La0  1  0.27022073  0.88641758  0.10258500  1
  La3+  La1  1  0.23662139  0.87648385  0.60767814  1
  La3+  La2  1  0.51928916  0.87204054  0.07784456  1
  La3+  La3  1  0.11506530  0.74734329  0.39485951  1
  La3+  La4  1  0.63728192  -0.00118583  0.93265740  1
  La3+  La5  1  0.51195548  0.37450528  0.07074637  1
  Ce3+  Ce6  1  0.74336746  0.12486292  0.55619005  1
  Ce3+  Ce7  1  -0.00598860  0.37727454  0.55560511  1
  Ce3+  Ce8  1  0.38747583  0.50009982  0.93756247  1
  Ce3+  Ce9  1  0.11846205  0.24964936  0.43527473  1
  Ce3+  Ce10  1  0.76201931  0.87676588  0.05715940  1
  Ce3+  Ce11  1  0.11803162  0.50393494  0.44233487  1
  Pr3+  Pr12  1  0.88951042  0.49976609  0.94369231  1
  Pr3+  Pr13  1  0.89158891  0.24335281  0.91941352  1
  Pr3+  Pr14  1  0.49744912  0.37930634  0.56551103  1
  Pr3+  Pr15  1  0.49580062  0.86936287  0.58156880  1
  Pr3+  Pr16  1  0.76430402  0.62772144  0.05452466  1
  Pr3+  Pr17  1  0.24315287  0.12583112  0.56584994  1
  Pr3+  Pr18  1  0.63915406  0.25380143  0.92905575  1
  Pr3+  Pr19  1  0.01547824  0.62900809  0.06286369  1
  Pr3+  Pr20  1  0.24445703  0.37379256  0.56835468  1
  Pr3+  Pr21  1  0.01639061  0.88239127  0.06949091  1
  Pr3+  Pr22  1  0.63827299  0.50051166  0.93955993  1
  Pr3+  Pr23  1  0.61366428  0.75241380  0.43588792  1
  Pr3+  Pr24  1  0.86744153  0.00166252  0.43800504  1
  Pr3+  Pr25  1  0.00644515  0.13340959  0.07681638  1
  Pr3+  Pr26  1  0.27258542  0.13687517  0.07252744  1
  Pr3+  Pr27  1  0.76070012  0.12796130  0.05863124  1
  Pr3+  Pr28  1  0.01402276  0.37351562  0.05889879  1
  Pr3+  Pr29  1  0.89178889  0.75454584  0.93187742  1
  Pr3+  Pr30  1  0.74607940  0.63216271  0.55544455  1
  Nd3+  Nd31  1  0.61335294  0.00102041  0.44384262  1
  Nd3+  Nd32  1  0.39142245  0.25975535  0.91897163  1
  Nd3+  Nd33  1  0.76155588  0.37554310  0.06520806  1
  Nd3+  Nd34  1  0.50996005  0.62290094  0.06292285  1
  Nd3+  Nd35  1  0.14187626  0.24687594  0.93103066  1
  Nd3+  Nd36  1  0.36201804  -0.00190653  0.44579671  1
  Nd3+  Nd37  1  0.74647262  0.37712986  0.55943152  1
  Nd3+  Nd38  1  0.89153862  -0.00034262  0.93600932  1
  Nd3+  Nd39  1  0.36723253  0.25204041  0.44113191  1
  Nd3+  Nd40  1  0.24203639  0.63357632  0.56154407  1
  Nd3+  Nd41  1  0.38506097  0.00048649  0.94028794  1
  Nd3+  Nd42  1  0.86570184  0.25300914  0.43901719  1
  Nd3+  Nd43  1  0.13942652  0.00530234  0.95016638  1
  Nd3+  Nd44  1  0.26409319  0.62750353  0.06348045  1
  Nd3+  Nd45  1  -0.00374347  0.12337272  0.55803585  1
  Nd3+  Nd46  1  0.63372323  0.75092669  0.93662466  1
  Nd3+  Nd47  1  0.14000809  0.75261823  0.95042457  1
  Nd3+  Nd48  1  0.11478059  0.00412507  0.42374767  1
  Nd3+  Nd49  1  0.38609411  0.75305701  0.94490895  1
  Nd3+  Nd50  1  0.86861627  0.75335552  0.43246921  1
  Sm3+  Sm51  1  0.36481209  0.50385355  0.44954236  1
  Sm3+  Sm52  1  0.61529011  0.50350492  0.44330644  1
  Sm3+  Sm53  1  0.61414897  0.25299570  0.44778228  1
  Sm3+  Sm54  1  0.74309940  0.87670316  0.56243290  1
  Sm3+  Sm55  1  0.13687358  0.50140145  0.94380164  1
  Sm3+  Sm56  1  0.50885055  0.12634853  0.04761770  1
  Sm3+  Sm57  1  0.36278394  0.75365165  0.44232029  1
  Sm3+  Sm58  1  0.26172389  0.37121131  0.05232464  1
  Sm3+  Sm59  1  0.49128220  0.12409000  0.56289887  1
  Sm3+  Sm60  1  0.00160572  0.87833093  0.55207901  1
  Sm3+  Sm61  1  0.86729558  0.50330997  0.44466408  1
  Sm3+  Sm62  1  0.49324423  0.63027074  0.55903877  1
  Sm3+  Sm63  1  -0.00300570  0.63356087  0.55408448  1
  Bi2+  Bi64  1  -0.01840242  0.16237919  0.29452699  1
  Bi2+  Bi65  1  -0.06637254  0.11032196  0.75196763  1
  Bi2+  Bi66  1  0.04461839  0.35000592  0.29050110  1
  Bi2+  Bi67  1  0.00955325  0.37987653  0.79043308  1
  Bi2+  Bi68  1  -0.02862957  0.60368456  0.28718219  1
  Bi2+  Bi69  1  -0.05945161  0.64703021  0.81442324  1
  Bi2+  Bi70  1  -0.03173934  0.89028615  0.28500632  1
  Bi2+  Bi71  1  -0.03383400  0.82319239  0.76869334  1
  Bi2+  Bi72  1  0.26166232  0.14182000  0.29383830  1
  Bi2+  Bi73  1  0.15401777  0.15024916  0.79751985  1
  Bi2+  Bi74  1  0.24277784  0.34708705  0.29313120  1
  Bi2+  Bi75  1  0.25787906  0.39939186  0.78637772  1
  Bi2+  Bi76  1  0.24831549  0.54977913  0.28771898  1
  Bi2+  Bi77  1  0.23773674  0.60838236  0.80693006  1
  Bi2+  Bi78  1  0.28706406  0.86911947  0.30966568  1
  Bi2+  Bi79  1  0.25413504  0.87156953  0.83554640  1
  Bi2+  Bi80  1  0.49740791  0.13307543  0.31160509  1
  Bi2+  Bi81  1  0.53126179  0.14263849  0.75958570  1
  Bi2+  Bi82  1  0.56772633  0.37941241  0.28427930  1
  Bi2+  Bi83  1  0.52673497  0.37773703  0.79183552  1
  Bi2+  Bi84  1  0.49277440  0.62942130  0.30241214  1
  Bi2+  Bi85  1  0.52742328  0.60366425  0.78092889  1
  Bi2+  Bi86  1  0.57723902  0.88867097  0.27487899  1
  Bi2+  Bi87  1  0.51259067  0.88548268  0.81126992  1
  Bi2+  Bi88  1  0.75581885  0.12555172  0.27788757  1
  Bi2+  Bi89  1  0.74874004  0.13784791  0.79577996  1
  Bi2+  Bi90  1  0.77838433  0.40833552  0.26998510  1
  Bi2+  Bi91  1  0.75861432  0.41172487  0.78423496  1
  Bi2+  Bi92  1  0.74891841  0.60079068  0.29100955  1
  Bi2+  Bi93  1  0.79105193  0.60157528  0.74913823  1
  Bi2+  Bi94  1  0.77243001  0.84335620  0.29248814  1
  Bi2+  Bi95  1  0.77454130  0.87002338  0.78563181  1
  Bi2+  Bi96  1  0.13547305  -0.02152693  0.22371964  1
  Bi2+  Bi97  1  0.09554492  0.00885618  0.70844616  1
  Bi2+  Bi98  1  0.13586156  0.22540071  0.20463006  1
  Bi2+  Bi99  1  0.13669894  0.29258157  0.71623474  1
  Bi2+  Bi100  1  0.12035231  0.47363288  0.20937638  1
  Bi2+  Bi101  1  0.19140184  0.47692367  0.68097714  1
  Bi2+  Bi102  1  0.13739853  0.72319204  0.20885966  1
  Bi2+  Bi103  1  0.11606510  0.64845605  0.72382858  1
  Bi2+  Bi104  1  0.39495140  0.04924531  0.21530787  1
  Bi2+  Bi105  1  0.34222900  0.00477508  0.73206039  1
  Bi2+  Bi106  1  0.39399825  0.27794750  0.20473685  1
  Bi2+  Bi107  1  0.37592748  0.23804792  0.71404566  1
  Bi2+  Bi108  1  0.40732986  0.46465125  0.22741547  1
  Bi2+  Bi109  1  0.36748528  0.54561789  0.72052469  1
  Bi2+  Bi110  1  0.39840813  0.75003973  0.20747825  1
  Bi2+  Bi111  1  0.36449819  0.75630436  0.71763855  1
  Bi2+  Bi112  1  0.63836059  0.03040827  0.20101897  1
  Bi2+  Bi113  1  0.67888781  -0.00546452  0.71294738  1
  Bi2+  Bi114  1  0.60358865  0.22494152  0.21123502  1
  Bi2+  Bi115  1  0.65785417  0.26316077  0.70755806  1
  Bi2+  Bi116  1  0.63460099  0.49890352  0.20043887  1
  Bi2+  Bi117  1  0.55193966  0.47961446  0.69222851  1
  Bi2+  Bi118  1  0.65835338  0.75050418  0.20757152  1
  Bi2+  Bi119  1  0.60873529  0.73816946  0.71098315  1
  Bi2+  Bi120  1  0.83149319  -0.01833079  0.21464476  1
  Bi2+  Bi121  1  0.86795121  -0.04754244  0.68921490  1
  Bi2+  Bi122  1  0.80144571  0.25782969  0.19241138  1
  Bi2+  Bi123  1  0.86380554  0.28675235  0.72088983  1
  Bi2+  Bi124  1  0.93060421  0.41073991  0.19528310  1
  Bi2+  Bi125  1  0.97019690  0.51849775  0.70854533  1
  Bi2+  Bi126  1  0.85065498  0.70107266  0.21245978  1
  Bi2+  Bi127  1  0.84359846  0.75897601  0.68208205  1
  S2-  S128  1  0.04949953  0.08175053  0.17482186  1
  S2-  S129  1  0.01762604  0.13132097  0.65629313  1
  S2-  S130  1  0.02085491  0.27774846  0.14187836  1
  S2-  S131  1  -0.05487281  0.37301525  0.64861246  1
  S2-  S132  1  0.03694209  0.60660952  0.16093506  1
  S2-  S133  1  -0.01254617  0.66506351  0.65013321  1
  S2-  S134  1  0.05047770  0.85810831  0.16766500  1
  S2-  S135  1  0.07055869  0.88952595  0.64354021  1
  S2-  S136  1  0.25828312  0.04016696  0.15869234  1
  S2-  S137  1  0.23776327  0.03654941  0.65447903  1
  S2-  S138  1  0.26380809  0.28213462  0.13671889  1
  S2-  S139  1  0.24653595  0.25042583  0.64197208  1
  S2-  S140  1  0.27901220  0.65462390  0.16122775  1
  S2-  S141  1  0.24446885  0.71453543  0.65093467  1
  S2-  S142  1  0.25098420  0.84846370  0.20584791  1
  S2-  S143  1  0.24000963  0.87125589  0.73886983  1
  S2-  S144  1  0.44343896  0.15579456  0.13689036  1
  S2-  S145  1  0.47031307  0.11784434  0.66010765  1
  S2-  S146  1  0.48993675  0.50649669  0.14096680  1
  S2-  S147  1  0.43698544  0.35594207  0.65879287  1
  S2-  S148  1  0.51985887  0.72107416  0.14634565  1
  S2-  S149  1  0.49038676  0.71330481  0.64515060  1
  S2-  S150  1  0.42343252  0.90484630  0.15971641  1
  S2-  S151  1  0.39496519  0.89720155  0.66249573  1
  S2-  S152  1  0.85449167  0.11505990  0.14303515  1
  S2-  S153  1  0.73738377  0.13032204  0.65247569  1
  S2-  S154  1  0.64705294  0.35523462  0.14032680  1
  S2-  S155  1  0.69868151  0.40125297  0.65268236  1
  S2-  S156  1  0.76526050  0.58608409  0.15170455  1
  S2-  S157  1  0.71833072  0.63665267  0.65387846  1
  S2-  S158  1  0.67079437  0.88240546  0.13954203  1
  S2-  S159  1  0.64141518  0.87355579  0.64350676  1
  S2-  S160  1  0.12125079  -0.09300398  0.33835920  1
  S2-  S161  1  0.13463656  -0.00332499  0.84928399  1
  S2-  S162  1  0.12821854  0.14154626  0.35686384  1
  S2-  S163  1  0.02961328  0.25167736  0.85261697  1
  S2-  S164  1  0.10376907  0.56783273  0.35279350  1
  S2-  S165  1  0.13411756  0.48324404  0.84564572  1
  S2-  S166  1  0.19824159  0.72460211  0.30393529  1
  S2-  S167  1  0.14570991  0.74137726  0.85146681  1
  S2-  S168  1  0.36345721  0.01862194  0.34546849  1
  S2-  S169  1  0.38115215  -0.00261843  0.83813048  1
  S2-  S170  1  0.37444556  0.25753973  0.34205902  1
  S2-  S171  1  0.26058820  0.23349957  0.85249013  1
  S2-  S172  1  0.37562416  0.52011730  0.35240225  1
  S2-  S173  1  0.39412698  0.41252868  0.85360406  1
  S2-  S174  1  0.39179454  0.75904854  0.34378046  1
  S2-  S175  1  0.39827015  0.76582337  0.84525431  1
  S2-  S176  1  0.60225813  0.01251519  0.34537409  1
  S2-  S177  1  0.60583387  0.01460551  0.83412220  1
  S2-  S178  1  0.60271341  0.24571003  0.35103582  1
  S2-  S179  1  0.52407708  0.24336244  0.84880827  1
  S2-  S180  1  0.60831446  0.52131753  0.34647811  1
  S2-  S181  1  0.63462938  0.50540382  0.83926717  1
  S2-  S182  1  0.59503021  0.74218883  0.33662780  1
  S2-  S183  1  0.64233867  0.78742115  0.83995684  1
  S2-  S184  1  0.93573665  0.01539434  0.34609877  1
  S2-  S185  1  0.88282072  0.09898752  0.85360802  1
  S2-  S186  1  0.85536080  0.23446748  0.34060972  1
  S2-  S187  1  0.75759390  0.27865028  0.85336214  1
  S2-  S188  1  0.86644294  0.50512035  0.34695066  1
  S2-  S189  1  0.88886374  0.47919586  0.84504321  1
  S2-  S190  1  0.95769348  0.74183861  0.34692593  1
  S2-  S191  1  0.89746716  0.87814635  0.86009921  1
  S2-  S192  1  -0.01081039  0.12961172  0.45329350  1
  S2-  S193  1  0.01279522  0.12404129  0.96073220  1
  S2-  S194  1  -0.00931843  0.37808982  0.44801424  1
  S2-  S195  1  0.01543384  0.37727622  0.95345813  1
  S2-  S196  1  -0.01014235  0.62760534  0.45226179  1
  S2-  S197  1  0.01459103  0.62743702  0.95592205  1
  S2-  S198  1  -0.00633401  0.87596518  0.44862944  1
  S2-  S199  1  0.01715839  0.87544934  0.96217801  1
  S2-  S200  1  0.24539853  0.12847531  0.45777317  1
  S2-  S201  1  0.26737306  0.12473686  0.95868257  1
  S2-  S202  1  0.24353190  0.37763054  0.45641787  1
  S2-  S203  1  0.25895557  0.37971384  0.95069458  1
  S2-  S204  1  0.24251520  0.62918864  0.45333008  1
  S2-  S205  1  0.26200397  0.62438434  0.95640003  1
  S2-  S206  1  0.23972623  0.87236360  0.43913761  1
  S2-  S207  1  0.26204192  0.87656769  0.95593921  1
  S2-  S208  1  0.49133311  0.12711360  0.45746126  1
  S2-  S209  1  0.51009653  0.12453876  0.94617322  1
  S2-  S210  1  0.49235652  0.38045948  0.45618216  1
  S2-  S211  1  0.51512278  0.37940722  0.95772828  1
  S2-  S212  1  0.49018179  0.62679844  0.45547513  1
  S2-  S213  1  0.51075839  0.62605490  0.95250346  1
  S2-  S214  1  0.48998209  0.87604894  0.45251345  1
  S2-  S215  1  0.51197514  0.87482851  0.95690624  1
  S2-  S216  1  0.73908344  0.12789973  0.44940967  1
  S2-  S217  1  0.76049339  0.12405130  0.95279816  1
  S2-  S218  1  0.73978084  0.37916931  0.45169701  1
  S2-  S219  1  0.76345797  0.37873523  0.95918671  1
  S2-  S220  1  0.74286529  0.62724248  0.44836642  1
  S2-  S221  1  0.76506990  0.63000348  0.94635766  1
  S2-  S222  1  0.74142455  0.87652275  0.45324244  1
  S2-  S223  1  0.76112722  0.87324797  0.95325325  1
  S2-  S224  1  0.14163215  0.00436730  0.05588032  1
  S2-  S225  1  0.11918104  0.00321975  0.53613996  1
  S2-  S226  1  0.13850522  0.24887622  0.03738349  1
  S2-  S227  1  0.11575556  0.25293048  0.54228185  1
  S2-  S228  1  0.14034409  0.49964200  0.04932452  1
  S2-  S229  1  0.11742048  0.50478807  0.54845244  1
  S2-  S230  1  0.14358599  0.75674732  0.05660360  1
  S2-  S231  1  0.11908307  0.75406825  0.54599322  1
  S2-  S232  1  0.38834835  -0.00033689  0.04609786  1
  S2-  S233  1  0.37076136  -0.00093403  0.55013857  1
  S2-  S234  1  0.39070540  0.25731437  0.03128472  1
  S2-  S235  1  0.37429373  0.25190410  0.54560518  1
  S2-  S236  1  0.38072404  0.49847334  0.04270399  1
  S2-  S237  1  0.36852236  0.50575836  0.55445411  1
  S2-  S238  1  0.38308952  0.75517443  0.05057337  1
  S2-  S239  1  0.36828957  0.75454780  0.54513512  1
  S2-  S240  1  0.63414797  0.00495934  0.04108007  1
  S2-  S241  1  0.61592382  0.00147742  0.54862798  1
  S2-  S242  1  0.63473719  0.24779874  0.03815589  1
  S2-  S243  1  0.61760515  0.25062260  0.55188158  1
  S2-  S244  1  0.63921797  0.50302354  0.04428889  1
  S2-  S245  1  0.61919347  0.50702317  0.54664912  1
  S2-  S246  1  0.63876040  0.74717451  0.04145603  1
  S2-  S247  1  0.61902011  0.75243729  0.54124840  1
  S2-  S248  1  0.88752240  -0.00125872  0.04407277  1
  S2-  S249  1  0.86873187  -0.00179726  0.54531332  1
  S2-  S250  1  0.88341254  0.25441766  0.03959909  1
  S2-  S251  1  0.86811616  0.25013144  0.54562469  1
  S2-  S252  1  0.88950289  0.50048914  0.05015780  1
  S2-  S253  1  0.87009074  0.50575280  0.54898499  1
  S2-  S254  1  0.89081411  0.75399280  0.04765377  1
  S2-  S255  1  0.87060573  0.75832015  0.53964921  1
