# generated using pymatgen
data_La6Ce6Pr19Nd20Sm13(BiS2)64
_symmetry_space_group_name_H-M   'P 1'
_cell_length_a   16.09695051
_cell_length_b   16.11169565
_cell_length_c   27.44118964
_cell_angle_alpha   90.21245734
_cell_angle_beta   89.68958629
_cell_angle_gamma   89.91778442
_symmetry_Int_Tables_number   1
_chemical_formula_structural   La6Ce6Pr19Nd20Sm13(BiS2)64
_chemical_formula_sum   'La6 Ce6 Pr19 Nd20 Sm13 Bi64 S128'
_cell_volume   7116.68878217
_cell_formula_units_Z   1
loop_
 _symmetry_equiv_pos_site_id
 _symmetry_equiv_pos_as_xyz
  1  'x, y, z'
loop_
 _atom_type_symbol
 _atom_type_oxidation_number
  La3+  3.0
  Ce3+  3.0
  Pr3+  3.0
  Nd3+  3.0
  Sm3+  3.0
  Bi2+  2.0
  S2-  -2.0
loop_
 _atom_site_type_symbol
 _atom_site_label
 _atom_site_symmetry_multiplicity
 _atom_site_fract_x
 _atom_site_fract_y
 _atom_site_fract_z
 _atom_site_occupancy
  La3+  La0  1  0.50398577  0.63610941  0.07387785  1
  La3+  La1  1  0.38789077  0.00409344  0.42879030  1
  La3+  La2  1  0.01390094  0.62750086  0.60792024  1
  La3+  La3  1  0.00662859  0.13174294  0.07182593  1
  La3+  La4  1  0.89765969  0.74841814  0.42467991  1
  La3+  La5  1  0.50873145  0.13807211  0.10161978  1
  Ce3+  Ce6  1  0.88757261  0.75703464  0.94296592  1
  Ce3+  Ce7  1  0.26128908  0.13342174  0.05717435  1
  Ce3+  Ce8  1  0.13674497  0.75109013  0.44762276  1
  Ce3+  Ce9  1  0.13187604  0.00688547  0.94405366  1
  Ce3+  Ce10  1  0.75072774  0.13418291  0.05608123  1
  Ce3+  Ce11  1  0.63075287  0.76495324  0.92611250  1
  Pr3+  Pr12  1  0.63146266  0.50624369  0.93138830  1
  Pr3+  Pr13  1  0.38694320  0.75677339  0.93496932  1
  Pr3+  Pr14  1  0.51130565  0.13103889  0.55830413  1
  Pr3+  Pr15  1  0.00984084  0.87856361  0.56626758  1
  Pr3+  Pr16  1  0.88675838  0.00680192  0.93942956  1
  Pr3+  Pr17  1  0.38854566  0.75244643  0.44256040  1
  Pr3+  Pr18  1  0.64089106  0.25616606  0.43530929  1
  Pr3+  Pr19  1  0.39162317  0.26321657  0.40992333  1
  Pr3+  Pr20  1  0.26072671  0.88539294  0.56549175  1
  Pr3+  Pr21  1  0.38263962  0.51017686  0.93927417  1
  Pr3+  Pr22  1  0.89985511  0.50132281  0.42713700  1
  Pr3+  Pr23  1  0.38675812  0.00998151  0.93891948  1
  Pr3+  Pr24  1  0.75083405  0.88393190  0.05670677  1
  Pr3+  Pr25  1  0.00992080  0.63570188  0.07495514  1
  Pr3+  Pr26  1  0.38444888  0.25766791  0.93895482  1
  Pr3+  Pr27  1  0.12558079  0.51877115  0.92772579  1
  Pr3+  Pr28  1  0.76821837  0.62978858  0.55744705  1
  Pr3+  Pr29  1  0.50678344  0.88291015  0.06275173  1
  Pr3+  Pr30  1  0.51053159  0.38208748  0.55692498  1
  Nd3+  Nd31  1  0.76229357  0.12997163  0.55661269  1
  Nd3+  Nd32  1  0.14079718  0.50234168  0.44138421  1
  Nd3+  Nd33  1  0.39466099  0.50722387  0.42905718  1
  Nd3+  Nd34  1  0.01212307  0.38294123  0.56247856  1
  Nd3+  Nd35  1  0.63347567  0.25652884  0.93143568  1
  Nd3+  Nd36  1  0.50957034  0.87906796  0.55901117  1
  Nd3+  Nd37  1  0.00623322  0.88273558  0.07118711  1
  Nd3+  Nd38  1  0.26419167  0.62310968  0.58316741  1
  Nd3+  Nd39  1  0.01154741  0.12866527  0.56939921  1
  Nd3+  Nd40  1  0.88874110  0.00051465  0.43815766  1
  Nd3+  Nd41  1  0.88736775  0.26049654  0.93934066  1
  Nd3+  Nd42  1  0.75301123  0.38238403  0.05560198  1
  Nd3+  Nd43  1  0.50672765  0.38326490  0.06234597  1
  Nd3+  Nd44  1  0.63546950  0.00509248  0.43885884  1
  Nd3+  Nd45  1  0.26395089  0.13089474  0.55599854  1
  Nd3+  Nd46  1  0.00702250  0.37997894  0.06858962  1
  Nd3+  Nd47  1  0.25699853  0.38285566  0.05246084  1
  Nd3+  Nd48  1  0.13131208  0.25989265  0.93918071  1
  Nd3+  Nd49  1  0.13638790  0.00678539  0.43839827  1
  Nd3+  Nd50  1  0.88537250  0.50890344  0.94831860  1
  Sm3+  Sm51  1  0.63735022  0.50517930  0.44031485  1
  Sm3+  Sm52  1  0.76378953  0.87776823  0.55321888  1
  Sm3+  Sm53  1  0.26085727  0.88401443  0.05643052  1
  Sm3+  Sm54  1  0.13972574  0.76355404  0.93667476  1
  Sm3+  Sm55  1  0.25235890  0.63305804  0.06320024  1
  Sm3+  Sm56  1  0.63970478  0.75404177  0.44387903  1
  Sm3+  Sm57  1  0.50861746  0.62773401  0.56819330  1
  Sm3+  Sm58  1  0.88969811  0.25202320  0.44544336  1
  Sm3+  Sm59  1  0.76418771  0.38300122  0.55259225  1
  Sm3+  Sm60  1  0.75429818  0.63344004  0.04887876  1
  Sm3+  Sm61  1  0.26221998  0.38241001  0.55705501  1
  Sm3+  Sm62  1  0.63330080  0.01249501  0.93163915  1
  Sm3+  Sm63  1  0.13822297  0.25168351  0.44625527  1
  Bi2+  Bi64  1  -0.03591546  0.15253952  0.29547296  1
  Bi2+  Bi65  1  -0.02228316  0.13144878  0.80700881  1
  Bi2+  Bi66  1  -0.11481403  0.39447350  0.29652175  1
  Bi2+  Bi67  1  -0.00390795  0.32907229  0.79488306  1
  Bi2+  Bi68  1  0.02263520  0.61935570  0.29942838  1
  Bi2+  Bi69  1  -0.06665693  0.61929041  0.82040492  1
  Bi2+  Bi70  1  -0.02549072  0.88050500  0.30006729  1
  Bi2+  Bi71  1  -0.02813672  0.88683245  0.79947140  1
  Bi2+  Bi72  1  0.20425997  0.12089308  0.28712175  1
  Bi2+  Bi73  1  0.22464961  0.13130742  0.73057867  1
  Bi2+  Bi74  1  0.19836000  0.43127056  0.29570024  1
  Bi2+  Bi75  1  0.24725042  0.31461994  0.69812186  1
  Bi2+  Bi76  1  0.23098733  0.62166944  0.27732081  1
  Bi2+  Bi77  1  0.22613726  0.61712143  0.80566473  1
  Bi2+  Bi78  1  0.24258949  0.82156004  0.27629436  1
  Bi2+  Bi79  1  0.24685060  0.88803384  0.79335787  1
  Bi2+  Bi80  1  0.49409743  0.12250402  0.30104181  1
  Bi2+  Bi81  1  0.46991045  0.13202713  0.80048934  1
  Bi2+  Bi82  1  0.49016397  0.41265184  0.29002612  1
  Bi2+  Bi83  1  0.46817685  0.38027284  0.80030500  1
  Bi2+  Bi84  1  0.42425142  0.62345742  0.30099107  1
  Bi2+  Bi85  1  0.51989294  0.58302351  0.79706094  1
  Bi2+  Bi86  1  0.50134185  0.88487289  0.30676034  1
  Bi2+  Bi87  1  0.45860482  0.87022667  0.80806630  1
  Bi2+  Bi88  1  0.78340513  0.13891713  0.22951328  1
  Bi2+  Bi89  1  0.72036660  0.13249558  0.77148489  1
  Bi2+  Bi90  1  0.68569805  0.36926306  0.31220681  1
  Bi2+  Bi91  1  0.74534554  0.41821435  0.79112173  1
  Bi2+  Bi92  1  0.75781885  0.54877227  0.28918494  1
  Bi2+  Bi93  1  0.71798417  0.61204642  0.79685853  1
  Bi2+  Bi94  1  0.72219961  0.81182901  0.26985296  1
  Bi2+  Bi95  1  0.69727482  0.80737222  0.76737518  1
  Bi2+  Bi96  1  0.10142344  -0.02395994  0.23671609  1
  Bi2+  Bi97  1  0.07783097  0.00451434  0.72977661  1
  Bi2+  Bi98  1  0.09809982  0.28077808  0.24959381  1
  Bi2+  Bi99  1  0.06627513  0.23150890  0.68377726  1
  Bi2+  Bi100  1  0.11975015  0.45145135  0.18970035  1
  Bi2+  Bi101  1  0.12792968  0.50432356  0.72527477  1
  Bi2+  Bi102  1  0.10817013  0.73836751  0.20968086  1
  Bi2+  Bi103  1  0.14696799  0.79520161  0.71651877  1
  Bi2+  Bi104  1  0.35347037  0.01021587  0.19693957  1
  Bi2+  Bi105  1  0.39340809  -0.02922347  0.68761571  1
  Bi2+  Bi106  1  0.34629919  0.27315289  0.20461529  1
  Bi2+  Bi107  1  0.42680155  0.22878587  0.70372472  1
  Bi2+  Bi108  1  0.45292563  0.51871569  0.19856262  1
  Bi2+  Bi109  1  0.38570774  0.50550404  0.71391958  1
  Bi2+  Bi110  1  0.37820770  0.77183261  0.19598145  1
  Bi2+  Bi111  1  0.44360588  0.73740031  0.72548304  1
  Bi2+  Bi112  1  0.64615668  -0.00550127  0.20953567  1
  Bi2+  Bi113  1  0.60080940  -0.02226140  0.76167506  1
  Bi2+  Bi114  1  0.63147148  0.28756579  0.21463932  1
  Bi2+  Bi115  1  0.60746390  0.28207819  0.73844310  1
  Bi2+  Bi116  1  0.64554963  0.53295067  0.19636214  1
  Bi2+  Bi117  1  0.64068243  0.47179995  0.69745068  1
  Bi2+  Bi118  1  0.56600409  0.70733195  0.23631329  1
  Bi2+  Bi119  1  0.62222115  0.66923067  0.69325180  1
  Bi2+  Bi120  1  0.88398701  -0.03065783  0.20907939  1
  Bi2+  Bi121  1  0.85073163  0.01475901  0.69979086  1
  Bi2+  Bi122  1  0.87240022  0.30765063  0.19453382  1
  Bi2+  Bi123  1  0.87659268  0.20954088  0.70353967  1
  Bi2+  Bi124  1  0.93533375  0.51449507  0.20230857  1
  Bi2+  Bi125  1  0.87357820  0.48692046  0.70759292  1
  Bi2+  Bi126  1  0.85724127  0.69529767  0.21171120  1
  Bi2+  Bi127  1  0.86367963  0.76939483  0.70724021  1
  S2-  S128  1  0.01070714  0.00707769  0.14617874  1
  S2-  S129  1  0.00031160  0.00706852  0.64008091  1
  S2-  S130  1  0.00912282  0.25896287  0.14305575  1
  S2-  S131  1  0.01541024  0.46122377  0.65051979  1
  S2-  S132  1  0.14187117  0.61258786  0.14122520  1
  S2-  S133  1  -0.00303509  0.60875550  0.73363622  1
  S2-  S134  1  -0.01949279  0.76752396  0.14576230  1
  S2-  S135  1  -0.00052361  0.78736538  0.65303081  1
  S2-  S136  1  0.26305426  0.14212581  0.15554787  1
  S2-  S137  1  0.26066117  0.04609631  0.64159150  1
  S2-  S138  1  0.27563474  0.38630794  0.15173261  1
  S2-  S139  1  0.26604399  0.46522683  0.64273400  1
  S2-  S140  1  0.36057596  0.62934115  0.14086594  1
  S2-  S141  1  0.16305708  0.64126792  0.66431532  1
  S2-  S142  1  0.25389924  0.88130487  0.15366807  1
  S2-  S143  1  0.27497718  0.83974556  0.66279729  1
  S2-  S144  1  0.45630564  0.13723650  0.20589828  1
  S2-  S145  1  0.49636662  0.08828600  0.65465272  1
  S2-  S146  1  0.49739881  0.30271399  0.15030959  1
  S2-  S147  1  0.49217338  0.43861549  0.65104765  1
  S2-  S148  1  0.52349379  0.76833866  0.14117487  1
  S2-  S149  1  0.40147365  0.63614937  0.64603109  1
  S2-  S150  1  0.50202807  0.97812903  0.14880867  1
  S2-  S151  1  0.50931635  0.86130651  0.65693775  1
  S2-  S152  1  0.67080563  0.13637130  0.14399019  1
  S2-  S153  1  0.74121687  0.12952302  0.65396968  1
  S2-  S154  1  0.72416276  0.38594778  0.15353260  1
  S2-  S155  1  0.78037036  0.38650515  0.64910541  1
  S2-  S156  1  0.73658036  0.65500232  0.14504981  1
  S2-  S157  1  0.84595302  0.62662062  0.64690146  1
  S2-  S158  1  0.74208048  0.89593147  0.15776513  1
  S2-  S159  1  0.77785767  0.88541593  0.65082885  1
  S2-  S160  1  0.14598409  -0.01528386  0.34075269  1
  S2-  S161  1  0.11802307  -0.06362367  0.85544903  1
  S2-  S162  1  0.10201068  0.22311493  0.35263336  1
  S2-  S163  1  0.11066442  0.23793935  0.84167560  1
  S2-  S164  1  0.05347938  0.47802449  0.35610831  1
  S2-  S165  1  0.15013363  0.47577572  0.82893093  1
  S2-  S166  1  0.05582939  0.75809728  0.36078314  1
  S2-  S167  1  0.08685336  0.66558357  0.86268692  1
  S2-  S168  1  0.38660302  -0.00580071  0.32791597  1
  S2-  S169  1  0.35790510  0.01163606  0.83907706  1
  S2-  S170  1  0.33931118  0.19738660  0.32023173  1
  S2-  S171  1  0.36960891  0.25829614  0.83874395  1
  S2-  S172  1  0.35122617  0.40510810  0.35058403  1
  S2-  S173  1  0.36342376  0.52352027  0.83975556  1
  S2-  S174  1  0.36954343  0.78705062  0.34476033  1
  S2-  S175  1  0.26925385  0.76047189  0.85892041  1
  S2-  S176  1  0.61412173  0.00874120  0.34083921  1
  S2-  S177  1  0.64205479  -0.10054167  0.85524193  1
  S2-  S178  1  0.54416005  0.25613672  0.35247510  1
  S2-  S179  1  0.62813832  0.13475877  0.85630053  1
  S2-  S180  1  0.53332750  0.53030792  0.36357606  1
  S2-  S181  1  0.62320599  0.38004890  0.85821769  1
  S2-  S182  1  0.61248441  0.76079217  0.34812200  1
  S2-  S183  1  0.50575092  0.72818665  0.85924211  1
  S2-  S184  1  0.89554146  0.02386056  0.34030293  1
  S2-  S185  1  0.86829048  0.00396188  0.83922321  1
  S2-  S186  1  0.85341353  0.24604519  0.35074429  1
  S2-  S187  1  0.86188481  0.24387334  0.84210822  1
  S2-  S188  1  0.87673065  0.61684517  0.35300862  1
  S2-  S189  1  0.91548682  0.45896660  0.85439787  1
  S2-  S190  1  0.83108254  0.82474175  0.34019882  1
  S2-  S191  1  0.87024556  0.77953103  0.84611620  1
  S2-  S192  1  0.01082530  0.12962261  0.46048305  1
  S2-  S193  1  0.00865608  0.13379680  0.95896240  1
  S2-  S194  1  0.01416240  0.37115543  0.45746634  1
  S2-  S195  1  0.00983871  0.38392186  0.96057665  1
  S2-  S196  1  0.01822547  0.62395833  0.45626644  1
  S2-  S197  1  0.00567915  0.63448024  0.96807052  1
  S2-  S198  1  0.01430831  0.88333589  0.45815488  1
  S2-  S199  1  0.00970449  0.88065555  0.96241530  1
  S2-  S200  1  0.26517471  0.13322432  0.44925838  1
  S2-  S201  1  0.25620393  0.13402907  0.94960130  1
  S2-  S202  1  0.26237233  0.37262638  0.45464645  1
  S2-  S203  1  0.25471544  0.38484510  0.94628766  1
  S2-  S204  1  0.26374385  0.62702631  0.44032453  1
  S2-  S205  1  0.25534974  0.63174516  0.95766650  1
  S2-  S206  1  0.26089662  0.88119859  0.45418738  1
  S2-  S207  1  0.26058821  0.88748929  0.95424126  1
  S2-  S208  1  0.50996469  0.13301662  0.45219122  1
  S2-  S209  1  0.50765875  0.13419494  0.95042195  1
  S2-  S210  1  0.51418392  0.37906437  0.45350020  1
  S2-  S211  1  0.50584170  0.38342470  0.95692368  1
  S2-  S212  1  0.51670943  0.63351459  0.46379759  1
  S2-  S213  1  0.51033249  0.62781638  0.96078277  1
  S2-  S214  1  0.51417580  0.87848744  0.45295960  1
  S2-  S215  1  0.50923386  0.88689355  0.95564785  1
  S2-  S216  1  0.76308327  0.12813656  0.45072397  1
  S2-  S217  1  0.76253493  0.13345259  0.95187657  1
  S2-  S218  1  0.76568341  0.38246833  0.44911642  1
  S2-  S219  1  0.76076386  0.38327227  0.95207828  1
  S2-  S220  1  0.75805059  0.62790402  0.45179347  1
  S2-  S221  1  0.75704622  0.63186376  0.94476706  1
  S2-  S222  1  0.75941130  0.88054095  0.45043336  1
  S2-  S223  1  0.76110625  0.88444394  0.95253559  1
  S2-  S224  1  0.13620175  0.00690509  0.04810653  1
  S2-  S225  1  0.13622734  0.00836690  0.54304559  1
  S2-  S226  1  0.13462190  0.25753954  0.04487497  1
  S2-  S227  1  0.13845024  0.25567192  0.55033808  1
  S2-  S228  1  0.13039236  0.50269217  0.03994693  1
  S2-  S229  1  0.13785190  0.50647061  0.54580536  1
  S2-  S230  1  0.13616883  0.76280563  0.04446842  1
  S2-  S231  1  0.14247884  0.75115324  0.55213688  1
  S2-  S232  1  0.38347257  0.01141600  0.04555951  1
  S2-  S233  1  0.38878053  0.00505989  0.53754028  1
  S2-  S234  1  0.38511485  0.25628637  0.04537049  1
  S2-  S235  1  0.38493853  0.25746034  0.55282050  1
  S2-  S236  1  0.38107408  0.50541267  0.04441059  1
  S2-  S237  1  0.38617325  0.50763799  0.53695284  1
  S2-  S238  1  0.37743505  0.75863852  0.04089426  1
  S2-  S239  1  0.38499712  0.75432820  0.54732143  1
  S2-  S240  1  0.62830200  0.01214750  0.03941584  1
  S2-  S241  1  0.63776555  0.00315268  0.54630894  1
  S2-  S242  1  0.62848788  0.25918476  0.04048274  1
  S2-  S243  1  0.63893219  0.25755283  0.54534817  1
  S2-  S244  1  0.63060540  0.50906926  0.04269881  1
  S2-  S245  1  0.63773962  0.50686990  0.54490702  1
  S2-  S246  1  0.63335223  0.75628620  0.03528825  1
  S2-  S247  1  0.63651163  0.75390952  0.54954534  1
  S2-  S248  1  0.87751751  0.00846635  0.04701144  1
  S2-  S249  1  0.88245701  0.00553573  0.54266305  1
  S2-  S250  1  0.87809983  0.25831879  0.04552582  1
  S2-  S251  1  0.88739591  0.25527582  0.54985010  1
  S2-  S252  1  0.88004188  0.50709347  0.05439424  1
  S2-  S253  1  0.88819066  0.50111985  0.53872316  1
  S2-  S254  1  0.87580015  0.75760479  0.04609899  1
  S2-  S255  1  0.88572562  0.75768840  0.53908532  1
