# generated using pymatgen
data_La6Ce6Pr19Nd20Sm13(BiS2)64
_symmetry_space_group_name_H-M   'P 1'
_cell_length_a   16.06530206
_cell_length_b   16.02432648
_cell_length_c   27.58176814
_cell_angle_alpha   90.06348980
_cell_angle_beta   89.92689916
_cell_angle_gamma   89.93986509
_symmetry_Int_Tables_number   1
_chemical_formula_structural   La6Ce6Pr19Nd20Sm13(BiS2)64
_chemical_formula_sum   'La6 Ce6 Pr19 Nd20 Sm13 Bi64 S128'
_cell_volume   7100.51621821
_cell_formula_units_Z   1
loop_
 _symmetry_equiv_pos_site_id
 _symmetry_equiv_pos_as_xyz
  1  'x, y, z'
loop_
 _atom_type_symbol
 _atom_type_oxidation_number
  La3+  3.0
  Ce3+  3.0
  Pr3+  3.0
  Nd3+  3.0
  Sm3+  3.0
  Bi2+  2.0
  S2-  -2.0
loop_
 _atom_site_type_symbol
 _atom_site_label
 _atom_site_symmetry_multiplicity
 _atom_site_fract_x
 _atom_site_fract_y
 _atom_site_fract_z
 _atom_site_occupancy
  La3+  La0  1  0.51928201  0.37266647  0.07341532  1
  La3+  La1  1  0.13932046  0.50072349  0.92522007  1
  La3+  La2  1  0.35604276  0.70871967  0.41888981  1
  La3+  La3  1  0.39155929  -0.00718166  0.93008452  1
  La3+  La4  1  0.73716900  0.59284821  0.57397593  1
  La3+  La5  1  0.74117693  0.08171673  0.60425708  1
  Ce3+  Ce6  1  0.85646507  0.22165862  0.44539077  1
  Ce3+  Ce7  1  -0.01640901  0.59498825  0.56711727  1
  Ce3+  Ce8  1  -0.01675491  0.34081581  0.56579524  1
  Ce3+  Ce9  1  0.01579067  0.62548577  0.06314386  1
  Ce3+  Ce10  1  0.85695146  -0.03129980  0.43530852  1
  Ce3+  Ce11  1  0.01314175  0.86675931  0.07749842  1
  Pr3+  Pr12  1  0.73323285  0.84340362  0.55282953  1
  Pr3+  Pr13  1  0.89089420  0.75603554  0.93260897  1
  Pr3+  Pr14  1  0.23929517  0.08440144  0.57252751  1
  Pr3+  Pr15  1  0.14046186  0.24378581  0.93639170  1
  Pr3+  Pr16  1  0.48458278  0.34168860  0.57139808  1
  Pr3+  Pr17  1  0.63929710  0.49823257  0.92924316  1
  Pr3+  Pr18  1  0.76522126  0.12020720  0.06712738  1
  Pr3+  Pr19  1  0.39156849  0.74857237  0.93370749  1
  Pr3+  Pr20  1  -0.01760252  0.84291515  0.54917984  1
  Pr3+  Pr21  1  0.88808600  0.24599045  0.94345187  1
  Pr3+  Pr22  1  -0.01376747  0.09111938  0.56269717  1
  Pr3+  Pr23  1  0.11097671  0.46423779  0.44562310  1
  Pr3+  Pr24  1  0.10939264  -0.03452155  0.43637039  1
  Pr3+  Pr25  1  0.11198567  0.21488863  0.44422068  1
  Pr3+  Pr26  1  0.61026090  0.71337671  0.42997979  1
  Pr3+  Pr27  1  0.48735684  0.59952291  0.56884058  1
  Pr3+  Pr28  1  0.73043065  0.33962319  0.58032531  1
  Pr3+  Pr29  1  0.61007660  -0.03501619  0.41515122  1
  Pr3+  Pr30  1  0.11082777  0.71003687  0.43425334  1
  Nd3+  Nd31  1  0.51131405  0.11996872  0.07063899  1
  Nd3+  Nd32  1  0.27011445  0.87170231  0.06439117  1
  Nd3+  Nd33  1  0.01797800  0.37564596  0.05663771  1
  Nd3+  Nd34  1  0.13886105  -0.00694051  0.94250568  1
  Nd3+  Nd35  1  0.85881668  0.46320959  0.44096120  1
  Nd3+  Nd36  1  0.24079697  0.83835920  0.56179459  1
  Nd3+  Nd37  1  0.61099408  0.46834575  0.44233324  1
  Nd3+  Nd38  1  0.63975187  -0.00717040  0.95015394  1
  Nd3+  Nd39  1  0.61151365  0.22294402  0.44123302  1
  Nd3+  Nd40  1  0.39508087  0.24059931  0.93120968  1
  Nd3+  Nd41  1  0.35210705  -0.03257841  0.42701143  1
  Nd3+  Nd42  1  0.23074866  0.59660317  0.57211585  1
  Nd3+  Nd43  1  0.64048040  0.24466347  0.94236886  1
  Nd3+  Nd44  1  0.36355602  0.21661049  0.44742020  1
  Nd3+  Nd45  1  0.39125600  0.49324157  0.92720724  1
  Nd3+  Nd46  1  0.88836306  0.50103305  0.92895406  1
  Nd3+  Nd47  1  0.76483594  0.62206733  0.05776818  1
  Nd3+  Nd48  1  0.36216602  0.46359640  0.44484222  1
  Nd3+  Nd49  1  0.85798195  0.70733700  0.42848487  1
  Nd3+  Nd50  1  0.76784663  0.86175479  0.08243917  1
  Sm3+  Sm51  1  0.26733482  0.12130203  0.05510876  1
  Sm3+  Sm52  1  0.48777836  0.84365620  0.54179687  1
  Sm3+  Sm53  1  0.26957352  0.61910674  0.05517208  1
  Sm3+  Sm54  1  0.51927645  0.87333859  0.08497543  1
  Sm3+  Sm55  1  0.64064252  0.74917734  0.94781135  1
  Sm3+  Sm56  1  0.01745681  0.12138449  0.05598589  1
  Sm3+  Sm57  1  0.88872796  -0.00858029  0.94797697  1
  Sm3+  Sm58  1  0.51212289  0.62405770  0.06334449  1
  Sm3+  Sm59  1  0.26796597  0.37313472  0.05188062  1
  Sm3+  Sm60  1  0.49579999  0.08805231  0.55477790  1
  Sm3+  Sm61  1  0.76550829  0.37397871  0.05619584  1
  Sm3+  Sm62  1  0.13920265  0.74897963  0.94890917  1
  Sm3+  Sm63  1  0.23656498  0.34009035  0.56606373  1
  Bi2+  Bi64  1  -0.01102345  0.18469894  0.28513209  1
  Bi2+  Bi65  1  -0.02659888  0.11455299  0.74342154  1
  Bi2+  Bi66  1  0.01224113  0.37650276  0.31371737  1
  Bi2+  Bi67  1  0.02062633  0.39564026  0.78477826  1
  Bi2+  Bi68  1  -0.00714852  0.59209904  0.28220041  1
  Bi2+  Bi69  1  0.04256949  0.60221967  0.74093117  1
  Bi2+  Bi70  1  0.04788961  0.98282099  0.29869670  1
  Bi2+  Bi71  1  -0.02167959  0.90028493  0.76584156  1
  Bi2+  Bi72  1  0.25841748  0.19271707  0.25088474  1
  Bi2+  Bi73  1  0.26995983  0.16340241  0.80979066  1
  Bi2+  Bi74  1  0.25783491  0.49064427  0.29379700  1
  Bi2+  Bi75  1  0.22656236  0.40041953  0.79172750  1
  Bi2+  Bi76  1  0.21290028  0.67126474  0.25359097  1
  Bi2+  Bi77  1  0.28657199  0.67871017  0.80331191  1
  Bi2+  Bi78  1  0.26998517  0.86964036  0.29897129  1
  Bi2+  Bi79  1  0.24669309  0.89534567  0.81517717  1
  Bi2+  Bi80  1  0.49496330  0.21225848  0.30358527  1
  Bi2+  Bi81  1  0.43543159  0.13748219  0.69285112  1
  Bi2+  Bi82  1  0.47326211  0.40860782  0.31604180  1
  Bi2+  Bi83  1  0.46501134  0.39416282  0.77731039  1
  Bi2+  Bi84  1  0.53750648  0.60262578  0.27149528  1
  Bi2+  Bi85  1  0.47083746  0.61935324  0.78235227  1
  Bi2+  Bi86  1  0.51153049  0.88441741  0.28598187  1
  Bi2+  Bi87  1  0.49396569  0.87553685  0.76411803  1
  Bi2+  Bi88  1  0.78709103  0.18954531  0.27170297  1
  Bi2+  Bi89  1  0.74936226  0.13589765  0.82318482  1
  Bi2+  Bi90  1  0.74472864  0.38035899  0.29627965  1
  Bi2+  Bi91  1  0.69524089  0.38535940  0.79407021  1
  Bi2+  Bi92  1  0.75244244  0.63719026  0.29922575  1
  Bi2+  Bi93  1  0.73643904  0.63513759  0.78779383  1
  Bi2+  Bi94  1  0.75947476  0.89696085  0.29497966  1
  Bi2+  Bi95  1  0.75742350  0.84210542  0.81795721  1
  Bi2+  Bi96  1  0.15994389  0.04049334  0.20363060  1
  Bi2+  Bi97  1  0.11075767  -0.00147545  0.69439754  1
  Bi2+  Bi98  1  0.16429119  0.37651636  0.21981837  1
  Bi2+  Bi99  1  0.08729002  0.26686387  0.70655463  1
  Bi2+  Bi100  1  0.05015097  0.52071741  0.17973901  1
  Bi2+  Bi101  1  0.22164608  0.54001298  0.71094366  1
  Bi2+  Bi102  1  0.05709022  0.79029979  0.27667136  1
  Bi2+  Bi103  1  0.13568576  0.77890139  0.74850727  1
  Bi2+  Bi104  1  0.40901249  0.06878758  0.23910474  1
  Bi2+  Bi105  1  0.33603686  -0.01950334  0.72757651  1
  Bi2+  Bi106  1  0.40788145  0.32283967  0.21688962  1
  Bi2+  Bi107  1  0.36567499  0.31899463  0.68750260  1
  Bi2+  Bi108  1  0.38635432  0.53434022  0.19890774  1
  Bi2+  Bi109  1  0.41700398  0.51677514  0.68493984  1
  Bi2+  Bi110  1  0.34986148  0.78309967  0.19977623  1
  Bi2+  Bi111  1  0.39293194  0.73705524  0.69832877  1
  Bi2+  Bi112  1  0.61772892  0.02637227  0.21119221  1
  Bi2+  Bi113  1  0.60372620  0.03687367  0.74857833  1
  Bi2+  Bi114  1  0.62080740  0.26264744  0.21607925  1
  Bi2+  Bi115  1  0.61595457  0.24104000  0.72043452  1
  Bi2+  Bi116  1  0.65880123  0.48884596  0.21155507  1
  Bi2+  Bi117  1  0.62178649  0.51517327  0.71485330  1
  Bi2+  Bi118  1  0.63379111  0.73711625  0.20810700  1
  Bi2+  Bi119  1  0.62774979  0.79089628  0.69442812  1
  Bi2+  Bi120  1  0.90052806  0.03740736  0.21077726  1
  Bi2+  Bi121  1  0.79986473  0.01889466  0.73218286  1
  Bi2+  Bi122  1  0.88874171  0.32205110  0.21206546  1
  Bi2+  Bi123  1  0.84266702  0.29259360  0.74070782  1
  Bi2+  Bi124  1  0.85861753  0.52163208  0.20330946  1
  Bi2+  Bi125  1  0.88026557  0.50953921  0.70856168  1
  Bi2+  Bi126  1  0.90233747  0.75564401  0.20773693  1
  Bi2+  Bi127  1  0.87128734  0.79470249  0.69365967  1
  S2-  S128  1  0.02316234  0.10132300  0.15286498  1
  S2-  S129  1  -0.09454530  0.07616746  0.65082464  1
  S2-  S130  1  0.03326531  0.34010318  0.15254859  1
  S2-  S131  1  -0.04327652  0.36495680  0.66074498  1
  S2-  S132  1  0.02615285  0.73115436  0.14185077  1
  S2-  S133  1  0.09404233  0.59165076  0.64339637  1
  S2-  S134  1  -0.10553623  0.89943294  0.15126206  1
  S2-  S135  1  0.00579437  0.85599827  0.64839874  1
  S2-  S136  1  0.26129186  0.14462870  0.15134289  1
  S2-  S137  1  0.17377925  0.14685164  0.66219071  1
  S2-  S138  1  0.29334387  0.40486562  0.14713224  1
  S2-  S139  1  0.20072829  0.37228337  0.65971542  1
  S2-  S140  1  0.26844227  0.64603778  0.15205489  1
  S2-  S141  1  0.26227010  0.72625830  0.63898808  1
  S2-  S142  1  0.23887549  0.89178338  0.16173635  1
  S2-  S143  1  0.24847524  0.94928918  0.64045940  1
  S2-  S144  1  0.48171571  0.00888070  0.14942905  1
  S2-  S145  1  0.57535357  0.07271641  0.64197564  1
  S2-  S146  1  0.49980565  0.24219825  0.14382277  1
  S2-  S147  1  0.58685740  0.34628192  0.65108509  1
  S2-  S148  1  0.51197795  0.51029447  0.13874673  1
  S2-  S149  1  0.60990382  0.64251332  0.64391277  1
  S2-  S150  1  0.49696629  0.73511274  0.14451802  1
  S2-  S151  1  0.49807775  0.84795493  0.64074504  1
  S2-  S152  1  0.75195055  0.10532145  0.16579752  1
  S2-  S153  1  0.75589622  0.22942005  0.66183899  1
  S2-  S154  1  0.68357680  0.36515625  0.14102730  1
  S2-  S155  1  0.75232223  0.47011021  0.65105210  1
  S2-  S156  1  0.76780539  0.71086514  0.14414300  1
  S2-  S157  1  0.86993720  0.64680867  0.64214773  1
  S2-  S158  1  0.64984369  0.88647613  0.15764830  1
  S2-  S159  1  0.74197279  0.90717388  0.64652890  1
  S2-  S160  1  0.20848975  -0.00943924  0.35581816  1
  S2-  S161  1  0.16479427  0.03508945  0.84718541  1
  S2-  S162  1  0.11444493  0.25247462  0.34699367  1
  S2-  S163  1  0.12856760  0.26542328  0.83773032  1
  S2-  S164  1  0.10654342  0.52259955  0.35182844  1
  S2-  S165  1  0.00857919  0.50608330  0.85594948  1
  S2-  S166  1  0.21092824  0.73479621  0.35393896  1
  S2-  S167  1  0.13786692  0.73502950  0.85169260  1
  S2-  S168  1  0.41703531  -0.00101683  0.33552023  1
  S2-  S169  1  0.39925855  0.11261091  0.85593155  1
  S2-  S170  1  0.36546560  0.29698769  0.35998060  1
  S2-  S171  1  0.36080818  0.30943184  0.83980950  1
  S2-  S172  1  0.36646793  0.55404518  0.36053025  1
  S2-  S173  1  0.26752023  0.51759507  0.85391086  1
  S2-  S174  1  0.41259371  0.77291440  0.32483232  1
  S2-  S175  1  0.40839026  0.86506704  0.85770370  1
  S2-  S176  1  0.63723892  0.01929053  0.31657671  1
  S2-  S177  1  0.65854151  -0.01543180  0.85165464  1
  S2-  S178  1  0.61830224  0.34566784  0.36747650  1
  S2-  S179  1  0.61892113  0.24330901  0.84451522  1
  S2-  S180  1  0.61847938  0.58260948  0.36023244  1
  S2-  S181  1  0.51364156  0.50133972  0.85631320  1
  S2-  S182  1  0.62694029  0.82274652  0.34924565  1
  S2-  S183  1  0.63540718  0.73870623  0.84916385  1
  S2-  S184  1  0.87922992  -0.01121606  0.33911605  1
  S2-  S185  1  0.90544032  -0.09865233  0.86516014  1
  S2-  S186  1  0.86157075  0.33459544  0.36879886  1
  S2-  S187  1  0.86584873  0.25429555  0.84510179  1
  S2-  S188  1  0.86094999  0.57088848  0.36002765  1
  S2-  S189  1  0.76407453  0.50023127  0.85531311  1
  S2-  S190  1  0.84272151  0.77491646  0.33369940  1
  S2-  S191  1  0.86008822  0.70227668  0.83400014  1
  S2-  S192  1  -0.01556900  0.09321288  0.45299787  1
  S2-  S193  1  0.01221740  0.11735831  0.95153136  1
  S2-  S194  1  -0.01124969  0.33915739  0.46219948  1
  S2-  S195  1  0.01319164  0.37065087  0.95202104  1
  S2-  S196  1  -0.01311946  0.58967754  0.46009455  1
  S2-  S197  1  0.01278665  0.62778208  0.95742065  1
  S2-  S198  1  -0.01519130  0.83863073  0.44211551  1
  S2-  S199  1  0.01786351  0.87236746  0.96773268  1
  S2-  S200  1  0.23824230  0.09370861  0.46168529  1
  S2-  S201  1  0.26351692  0.11933662  0.95411617  1
  S2-  S202  1  0.23681581  0.33979562  0.46185258  1
  S2-  S203  1  0.26467672  0.36982448  0.94983589  1
  S2-  S204  1  0.23488459  0.58886517  0.46300695  1
  S2-  S205  1  0.26552951  0.62648281  0.95366236  1
  S2-  S206  1  0.23544455  0.84157324  0.45587823  1
  S2-  S207  1  0.26299826  0.87041547  0.95801639  1
  S2-  S208  1  0.48783000  0.09282438  0.44865531  1
  S2-  S209  1  0.51878019  0.11961580  0.96164617  1
  S2-  S210  1  0.48459753  0.34165763  0.46669572  1
  S2-  S211  1  0.51583135  0.36689916  0.95552031  1
  S2-  S212  1  0.48441796  0.59050831  0.46155337  1
  S2-  S213  1  0.51552941  0.62626809  0.95684013  1
  S2-  S214  1  0.48046972  0.84361836  0.44109690  1
  S2-  S215  1  0.51759174  0.86957758  0.96353316  1
  S2-  S216  1  0.73340688  0.09719191  0.43394755  1
  S2-  S217  1  0.76691089  0.11734462  0.96035938  1
  S2-  S218  1  0.73493223  0.34286843  0.47088111  1
  S2-  S219  1  0.76483068  0.37167433  0.95429021  1
  S2-  S220  1  0.73602493  0.58943881  0.46316380  1
  S2-  S221  1  0.76579426  0.62717654  0.95460317  1
  S2-  S222  1  0.73858721  0.84146870  0.44808421  1
  S2-  S223  1  0.76433168  0.87154837  0.96740336  1
  S2-  S224  1  0.14059093  -0.00268270  0.04893355  1
  S2-  S225  1  0.11081483  -0.03329532  0.54147512  1
  S2-  S226  1  0.14178142  0.24652488  0.04403183  1
  S2-  S227  1  0.11242309  0.21729080  0.54999247  1
  S2-  S228  1  0.14305049  0.49849723  0.04019428  1
  S2-  S229  1  0.11215052  0.46155046  0.55011613  1
  S2-  S230  1  0.14840446  0.74651598  0.04952628  1
  S2-  S231  1  0.10938142  0.72019044  0.54020210  1
  S2-  S232  1  0.38894287  -0.00387616  0.04289188  1
  S2-  S233  1  0.36774006  -0.03081154  0.53664811  1
  S2-  S234  1  0.38678534  0.24707560  0.04048847  1
  S2-  S235  1  0.36236039  0.21217330  0.55243192  1
  S2-  S236  1  0.38907399  0.49661527  0.03573896  1
  S2-  S237  1  0.35677602  0.46879869  0.55286200  1
  S2-  S238  1  0.38899304  0.74676722  0.04161045  1
  S2-  S239  1  0.36612585  0.71877598  0.53580263  1
  S2-  S240  1  0.64017269  -0.00462674  0.05379161  1
  S2-  S241  1  0.61196922  -0.03261462  0.53043503  1
  S2-  S242  1  0.64349547  0.24469365  0.04569427  1
  S2-  S243  1  0.61409403  0.21109495  0.54551712  1
  S2-  S244  1  0.64318692  0.49895999  0.03801232  1
  S2-  S245  1  0.60570971  0.46994807  0.54846125  1
  S2-  S246  1  0.63664682  0.74647391  0.04892138  1
  S2-  S247  1  0.60979427  0.72094005  0.53541498  1
  S2-  S248  1  0.89322571  -0.00054569  0.04923875  1
  S2-  S249  1  0.85704697  -0.02790889  0.54049509  1
  S2-  S250  1  0.89128636  0.24793289  0.05058956  1
  S2-  S251  1  0.85873888  0.21320582  0.54966538  1
  S2-  S252  1  0.88979220  0.49702049  0.04404201  1
  S2-  S253  1  0.86512740  0.46553238  0.54688665  1
  S2-  S254  1  0.89102015  0.74645140  0.04236192  1
  S2-  S255  1  0.85940199  0.72029309  0.53449189  1
