# generated using pymatgen
data_La6Ce6Pr19Nd20Sm13(BiS2)64
_symmetry_space_group_name_H-M   'P 1'
_cell_length_a   16.14515537
_cell_length_b   16.10266971
_cell_length_c   27.27226913
_cell_angle_alpha   89.59853097
_cell_angle_beta   89.92240206
_cell_angle_gamma   89.96519500
_symmetry_Int_Tables_number   1
_chemical_formula_structural   La6Ce6Pr19Nd20Sm13(BiS2)64
_chemical_formula_sum   'La6 Ce6 Pr19 Nd20 Sm13 Bi64 S128'
_cell_volume   7090.06554746
_cell_formula_units_Z   1
loop_
 _symmetry_equiv_pos_site_id
 _symmetry_equiv_pos_as_xyz
  1  'x, y, z'
loop_
 _atom_type_symbol
 _atom_type_oxidation_number
  La3+  3.0
  Ce3+  3.0
  Pr3+  3.0
  Nd3+  3.0
  Sm3+  3.0
  Bi2+  2.0
  S2-  -2.0
loop_
 _atom_site_type_symbol
 _atom_site_label
 _atom_site_symmetry_multiplicity
 _atom_site_fract_x
 _atom_site_fract_y
 _atom_site_fract_z
 _atom_site_occupancy
  La3+  La0  1  0.63418331  0.00132576  0.91480161  1
  La3+  La1  1  0.75892497  0.35960868  0.57628880  1
  La3+  La2  1  -0.00632023  0.37643785  0.09083569  1
  La3+  La3  1  0.39348376  0.49831388  0.41282793  1
  La3+  La4  1  0.39581577  0.23610193  0.40691903  1
  La3+  La5  1  0.87187032  0.48662002  0.93339622  1
  Ce3+  Ce6  1  0.12580100  0.73020691  0.92587604  1
  Ce3+  Ce7  1  0.88742587  0.48633622  0.44267988  1
  Ce3+  Ce8  1  0.49910277  0.61752613  0.05784857  1
  Ce3+  Ce9  1  0.62938150  0.74415613  0.94018476  1
  Ce3+  Ce10  1  0.75418351  0.87140769  0.05250690  1
  Ce3+  Ce11  1  0.74616431  0.35547886  0.07247320  1
  Pr3+  Pr12  1  0.50057608  0.87011345  0.05031670  1
  Pr3+  Pr13  1  0.37141888  0.00190831  0.92347219  1
  Pr3+  Pr14  1  0.76696213  0.85929309  0.59081022  1
  Pr3+  Pr15  1  0.25749246  0.86246113  0.56737174  1
  Pr3+  Pr16  1  0.00082792  0.11194601  0.06956797  1
  Pr3+  Pr17  1  0.63773409  0.49565207  0.43703401  1
  Pr3+  Pr18  1  0.13768449  -0.01311036  0.43595834  1
  Pr3+  Pr19  1  0.51064651  0.61270337  0.56853897  1
  Pr3+  Pr20  1  0.02247179  0.35831334  0.56717823  1
  Pr3+  Pr21  1  0.88485448  0.73739973  0.90533324  1
  Pr3+  Pr22  1  0.25763088  0.11084840  0.07430669  1
  Pr3+  Pr23  1  0.63688975  -0.01317555  0.44804082  1
  Pr3+  Pr24  1  0.89234926  -0.01517944  0.43063248  1
  Pr3+  Pr25  1  0.26270173  0.36103401  0.55160959  1
  Pr3+  Pr26  1  0.01045108  0.11018868  0.56011764  1
  Pr3+  Pr27  1  0.00155503  0.61821874  0.06254684  1
  Pr3+  Pr28  1  0.88438478  0.23823581  0.44115054  1
  Pr3+  Pr29  1  0.37115601  0.24792376  0.93345886  1
  Pr3+  Pr30  1  0.75262546  0.61636196  0.06027338  1
  Nd3+  Nd31  1  0.50708016  0.36180206  0.55877768  1
  Nd3+  Nd32  1  0.75978184  0.10677131  0.56290403  1
  Nd3+  Nd33  1  0.63811917  0.74128454  0.45196772  1
  Nd3+  Nd34  1  0.38614669  0.74116542  0.44002220  1
  Nd3+  Nd35  1  0.12524082  0.48577323  0.94367872  1
  Nd3+  Nd36  1  0.49827971  0.10868502  0.05702217  1
  Nd3+  Nd37  1  0.50946194  0.10947211  0.56180544  1
  Nd3+  Nd38  1  0.38870915  -0.01306981  0.43691806  1
  Nd3+  Nd39  1  0.13661869  0.24171755  0.42780812  1
  Nd3+  Nd40  1  0.49773500  0.36249571  0.06192011  1
  Nd3+  Nd41  1  0.75176301  0.11053925  0.06488368  1
  Nd3+  Nd42  1  0.12358865  -0.00463419  0.93916320  1
  Nd3+  Nd43  1  0.87983711  -0.00397865  0.93128675  1
  Nd3+  Nd44  1  0.37679577  0.75171866  0.92726029  1
  Nd3+  Nd45  1  0.26405631  0.61212859  0.55857330  1
  Nd3+  Nd46  1  0.01052187  0.86090482  0.56618157  1
  Nd3+  Nd47  1  0.25026303  0.35822298  0.08009080  1
  Nd3+  Nd48  1  0.76216457  0.61000227  0.57173521  1
  Nd3+  Nd49  1  0.01115647  0.60807228  0.56093168  1
  Nd3+  Nd50  1  0.50210085  0.85972072  0.59440541  1
  Sm3+  Sm51  1  0.88660775  0.73701783  0.44527079  1
  Sm3+  Sm52  1  0.13642251  0.73668346  0.44590465  1
  Sm3+  Sm53  1  0.25219105  0.61495342  0.05374556  1
  Sm3+  Sm54  1  0.24899632  0.86635452  0.05191291  1
  Sm3+  Sm55  1  0.63273962  0.24069718  0.44371937  1
  Sm3+  Sm56  1  0.13772065  0.48715328  0.43546022  1
  Sm3+  Sm57  1  0.00251632  0.86218039  0.04885067  1
  Sm3+  Sm58  1  0.26315124  0.11006178  0.54957437  1
  Sm3+  Sm59  1  0.12399190  0.25004168  0.95540053  1
  Sm3+  Sm60  1  0.62825314  0.49322033  0.94981262  1
  Sm3+  Sm61  1  0.37781952  0.48901892  0.94404765  1
  Sm3+  Sm62  1  0.87935666  0.24821293  0.95044736  1
  Sm3+  Sm63  1  0.62695493  0.24112923  0.94298644  1
  Bi2+  Bi64  1  -0.02219698  0.12854907  0.31038808  1
  Bi2+  Bi65  1  -0.01281060  0.09808484  0.82986657  1
  Bi2+  Bi66  1  -0.04967221  0.40759093  0.29244741  1
  Bi2+  Bi67  1  0.01379884  0.45855292  0.81781478  1
  Bi2+  Bi68  1  -0.02439006  0.67520320  0.28937989  1
  Bi2+  Bi69  1  0.11063563  0.68613764  0.77086831  1
  Bi2+  Bi70  1  0.04229849  0.86493493  0.28363988  1
  Bi2+  Bi71  1  0.02196617  0.92265383  0.78423600  1
  Bi2+  Bi72  1  0.26028511  0.04026386  0.29135036  1
  Bi2+  Bi73  1  0.28131854  0.19940509  0.75784085  1
  Bi2+  Bi74  1  0.20360621  0.37754281  0.28482428  1
  Bi2+  Bi75  1  0.26330255  0.39769190  0.77206264  1
  Bi2+  Bi76  1  0.25583772  0.69737093  0.28804258  1
  Bi2+  Bi77  1  0.28021468  0.59356531  0.78984422  1
  Bi2+  Bi78  1  0.31401535  0.86871801  0.33341167  1
  Bi2+  Bi79  1  0.21970277  0.87284474  0.78023535  1
  Bi2+  Bi80  1  0.53209112  0.11885224  0.29267123  1
  Bi2+  Bi81  1  0.46411340  0.16303300  0.78721618  1
  Bi2+  Bi82  1  0.47214171  0.38240178  0.29257733  1
  Bi2+  Bi83  1  0.48054104  0.36461142  0.79743341  1
  Bi2+  Bi84  1  0.52032124  0.64479838  0.28864562  1
  Bi2+  Bi85  1  0.49217527  0.55964383  0.78404496  1
  Bi2+  Bi86  1  0.50679329  0.87287728  0.30420237  1
  Bi2+  Bi87  1  0.47877625  0.83434606  0.78903333  1
  Bi2+  Bi88  1  0.72666951  0.11725082  0.27063225  1
  Bi2+  Bi89  1  0.79944202  0.12748660  0.79334667  1
  Bi2+  Bi90  1  0.72566677  0.39674377  0.26214722  1
  Bi2+  Bi91  1  0.74952116  0.40892079  0.77127499  1
  Bi2+  Bi92  1  0.77565648  0.65772133  0.30154304  1
  Bi2+  Bi93  1  0.74276016  0.62168765  0.80714168  1
  Bi2+  Bi94  1  0.76536288  0.83025615  0.24092115  1
  Bi2+  Bi95  1  0.70626657  0.88087251  0.78369437  1
  Bi2+  Bi96  1  0.14109080  -0.01768846  0.21170563  1
  Bi2+  Bi97  1  0.12154911  0.01821824  0.69986451  1
  Bi2+  Bi98  1  0.09740748  0.18425574  0.22267917  1
  Bi2+  Bi99  1  0.10122112  0.24456388  0.78952033  1
  Bi2+  Bi100  1  0.12274823  0.60535464  0.22096384  1
  Bi2+  Bi101  1  0.10747734  0.44772062  0.69706223  1
  Bi2+  Bi102  1  0.09987655  0.78946595  0.17936518  1
  Bi2+  Bi103  1  0.12809507  0.82826854  0.67863152  1
  Bi2+  Bi104  1  0.38791083  0.00028498  0.20299668  1
  Bi2+  Bi105  1  0.37838430  0.01570879  0.70074206  1
  Bi2+  Bi106  1  0.35804312  0.25588666  0.20492767  1
  Bi2+  Bi107  1  0.39145593  0.35252629  0.68632742  1
  Bi2+  Bi108  1  0.35401744  0.52924759  0.20553744  1
  Bi2+  Bi109  1  0.39290268  0.54568937  0.67770348  1
  Bi2+  Bi110  1  0.37685578  0.80530438  0.22024029  1
  Bi2+  Bi111  1  0.29403788  0.71633400  0.69599864  1
  Bi2+  Bi112  1  0.62363102  -0.00369876  0.20556393  1
  Bi2+  Bi113  1  0.62608624  0.06605730  0.69512716  1
  Bi2+  Bi114  1  0.60548366  0.27079849  0.21349730  1
  Bi2+  Bi115  1  0.63699572  0.24975240  0.76679108  1
  Bi2+  Bi116  1  0.61972017  0.53218838  0.21478308  1
  Bi2+  Bi117  1  0.61097073  0.49161687  0.69745849  1
  Bi2+  Bi118  1  0.57926717  0.79515173  0.20732918  1
  Bi2+  Bi119  1  0.62185074  0.68198303  0.72218909  1
  Bi2+  Bi120  1  0.86588939  -0.00831638  0.21159428  1
  Bi2+  Bi121  1  0.86776169  0.05118815  0.69412856  1
  Bi2+  Bi122  1  0.85544888  0.26115686  0.20851421  1
  Bi2+  Bi123  1  0.91091766  0.28778060  0.77169484  1
  Bi2+  Bi124  1  0.86980701  0.54366985  0.20436622  1
  Bi2+  Bi125  1  0.89479766  0.50844066  0.71419501  1
  Bi2+  Bi126  1  0.90712613  0.74622277  0.17612416  1
  Bi2+  Bi127  1  0.88795376  0.75069884  0.71001868  1
  S2-  S128  1  -0.06322266  0.12093673  0.16409379  1
  S2-  S129  1  0.00069002  0.12921263  0.66071137  1
  S2-  S130  1  0.02326956  0.32031393  0.19308698  1
  S2-  S131  1  -0.04325698  0.37940013  0.66097973  1
  S2-  S132  1  0.01756332  0.53011965  0.15026363  1
  S2-  S133  1  -0.02401196  0.62655062  0.65836416  1
  S2-  S134  1  -0.03090845  0.90497564  0.14248893  1
  S2-  S135  1  -0.08304085  0.87651584  0.65011292  1
  S2-  S136  1  0.22207237  0.21949583  0.15388301  1
  S2-  S137  1  0.24945172  0.09470356  0.64729734  1
  S2-  S138  1  0.25244062  0.41519561  0.17833141  1
  S2-  S139  1  0.16240166  0.33979269  0.63499754  1
  S2-  S140  1  0.26112144  0.62924966  0.15216034  1
  S2-  S141  1  0.21289569  0.57680515  0.65232297  1
  S2-  S142  1  0.26085309  0.96160366  0.13396563  1
  S2-  S143  1  0.35172559  0.87499549  0.65085237  1
  S2-  S144  1  0.40195449  0.14087877  0.14245979  1
  S2-  S145  1  0.48207459  0.13468653  0.65905401  1
  S2-  S146  1  0.48059315  0.35851371  0.16137064  1
  S2-  S147  1  0.56569283  0.34960258  0.65226209  1
  S2-  S148  1  0.49072785  0.60133587  0.15483581  1
  S2-  S149  1  0.50919856  0.71382083  0.65167084  1
  S2-  S150  1  0.51093474  0.97606354  0.12868949  1
  S2-  S151  1  0.52875239  0.93342937  0.68756478  1
  S2-  S152  1  0.72751435  0.22198910  0.14309182  1
  S2-  S153  1  0.75838247  0.17337648  0.65413931  1
  S2-  S154  1  0.84132462  0.40135284  0.14811158  1
  S2-  S155  1  0.76509202  0.48739363  0.64389469  1
  S2-  S156  1  0.73390242  0.62384242  0.16098654  1
  S2-  S157  1  0.75998974  0.71527049  0.65457641  1
  S2-  S158  1  0.74754704  0.97652303  0.13153041  1
  S2-  S159  1  0.73120060  0.93547022  0.68243969  1
  S2-  S160  1  0.02932584  -0.01726220  0.35788173  1
  S2-  S161  1  0.15069558  -0.00086689  0.84040139  1
  S2-  S162  1  0.12369512  0.22858641  0.32805386  1
  S2-  S163  1  0.11755169  0.35347449  0.87392240  1
  S2-  S164  1  0.09854060  0.46790266  0.34046514  1
  S2-  S165  1  0.12780544  0.58281138  0.85683772  1
  S2-  S166  1  0.11719434  0.73581444  0.34838625  1
  S2-  S167  1  0.03186021  0.77099172  0.84510541  1
  S2-  S168  1  0.39693129  0.08331101  0.35260541  1
  S2-  S169  1  0.36055791  -0.11369757  0.84688825  1
  S2-  S170  1  0.33629013  0.27309658  0.31082567  1
  S2-  S171  1  0.34638952  0.13486833  0.85533813  1
  S2-  S172  1  0.32287691  0.47003514  0.31666568  1
  S2-  S173  1  0.35264963  0.38600583  0.86686441  1
  S2-  S174  1  0.39533838  0.65390505  0.35383645  1
  S2-  S175  1  0.40704445  0.68683119  0.83620607  1
  S2-  S176  1  0.61013304  -0.01579288  0.34792243  1
  S2-  S177  1  0.56048913  -0.03937571  0.82062656  1
  S2-  S178  1  0.55409594  0.25055411  0.35569197  1
  S2-  S179  1  0.64965089  0.16351872  0.85699893  1
  S2-  S180  1  0.54145704  0.48488606  0.35282687  1
  S2-  S181  1  0.69115405  0.48461749  0.85885393  1
  S2-  S182  1  0.64154753  0.68419545  0.35711264  1
  S2-  S183  1  0.62648205  0.75234101  0.84185683  1
  S2-  S184  1  0.83812171  0.05859764  0.34300277  1
  S2-  S185  1  0.77599788  -0.01971386  0.85051143  1
  S2-  S186  1  0.90122888  0.27830271  0.34213585  1
  S2-  S187  1  0.88961923  0.34696315  0.86768140  1
  S2-  S188  1  0.84372044  0.50543745  0.34872934  1
  S2-  S189  1  0.89287317  0.58637625  0.84806326  1
  S2-  S190  1  0.87419432  0.78065302  0.35028142  1
  S2-  S191  1  0.83146323  0.78315409  0.80819892  1
  S2-  S192  1  0.01274088  0.11631761  0.45311711  1
  S2-  S193  1  0.00236568  0.12414611  0.96051011  1
  S2-  S194  1  0.01450137  0.36282906  0.45441781  1
  S2-  S195  1  -0.00040971  0.36885561  0.97609871  1
  S2-  S196  1  0.01293157  0.61249434  0.45244880  1
  S2-  S197  1  -0.00060458  0.61681951  0.95631133  1
  S2-  S198  1  0.01281666  0.85740307  0.45911302  1
  S2-  S199  1  -0.00001952  0.86743404  0.94638640  1
  S2-  S200  1  0.26077562  0.11552632  0.44511213  1
  S2-  S201  1  0.24097637  0.12262794  0.96120750  1
  S2-  S202  1  0.26467539  0.36375068  0.44253731  1
  S2-  S203  1  0.25138575  0.36862310  0.97211443  1
  S2-  S204  1  0.25846656  0.61198780  0.45038661  1
  S2-  S205  1  0.26100893  0.61519496  0.95022039  1
  S2-  S206  1  0.25853578  0.86171370  0.45951884  1
  S2-  S207  1  0.24298752  0.86551616  0.94848435  1
  S2-  S208  1  0.51298735  0.11353674  0.45698904  1
  S2-  S209  1  0.50012453  0.12086574  0.95038060  1
  S2-  S210  1  0.50891098  0.36507590  0.45441182  1
  S2-  S211  1  0.50702947  0.36823832  0.95562825  1
  S2-  S212  1  0.51193215  0.61734196  0.46162287  1
  S2-  S213  1  0.50159070  0.61496268  0.95088112  1
  S2-  S214  1  0.51049355  0.86240499  0.45371521  1
  S2-  S215  1  0.50372451  0.87036042  0.94466588  1
  S2-  S216  1  0.75703534  0.11652117  0.45604715  1
  S2-  S217  1  0.76011704  0.12356762  0.95801503  1
  S2-  S218  1  0.75666197  0.36289336  0.45692721  1
  S2-  S219  1  0.74523299  0.36206293  0.96445424  1
  S2-  S220  1  0.76454771  0.61445354  0.46317371  1
  S2-  S221  1  0.75161743  0.62081243  0.95396568  1
  S2-  S222  1  0.76477959  0.86330772  0.45416761  1
  S2-  S223  1  0.76201447  0.85887792  0.94750176  1
  S2-  S224  1  0.12265867  -0.01116957  0.04452329  1
  S2-  S225  1  0.13539719  -0.01282138  0.54356221  1
  S2-  S226  1  0.11830144  0.24346249  0.05695830  1
  S2-  S227  1  0.13893745  0.22959671  0.53497992  1
  S2-  S228  1  0.13323748  0.49122581  0.05171601  1
  S2-  S229  1  0.13819669  0.48940454  0.53925152  1
  S2-  S230  1  0.12925722  0.73980905  0.03815419  1
  S2-  S231  1  0.13470618  0.73377409  0.54992921  1
  S2-  S232  1  0.37152969  -0.01187119  0.02937229  1
  S2-  S233  1  0.38717019  -0.01421122  0.54378843  1
  S2-  S234  1  0.37504259  0.24235175  0.04179197  1
  S2-  S235  1  0.38505485  0.23356783  0.54547633  1
  S2-  S236  1  0.37532168  0.49019834  0.04900245  1
  S2-  S237  1  0.38561038  0.48786603  0.54197915  1
  S2-  S238  1  0.37388388  0.74409089  0.04053022  1
  S2-  S239  1  0.38537838  0.73985780  0.54613495  1
  S2-  S240  1  0.62975623  -0.00879905  0.02570914  1
  S2-  S241  1  0.63375662  -0.02003363  0.55612768  1
  S2-  S242  1  0.61776400  0.23483863  0.04541901  1
  S2-  S243  1  0.63504358  0.23573807  0.54700693  1
  S2-  S244  1  0.62432104  0.48907367  0.05434252  1
  S2-  S245  1  0.63395723  0.48746561  0.54476114  1
  S2-  S246  1  0.62587352  0.74414688  0.04799515  1
  S2-  S247  1  0.63685178  0.74428840  0.55479549  1
  S2-  S248  1  0.88238051  -0.00935994  0.03597930  1
  S2-  S249  1  0.88476211  -0.01424656  0.54290504  1
  S2-  S250  1  0.87832206  0.23902173  0.05297410  1
  S2-  S251  1  0.88547974  0.23828496  0.54864753  1
  S2-  S252  1  0.87330361  0.49530699  0.04355928  1
  S2-  S253  1  0.89059883  0.48240641  0.54692252  1
  S2-  S254  1  0.87655051  0.74345685  0.04566668  1
  S2-  S255  1  0.88819462  0.73619619  0.54889116  1
