# generated using pymatgen
data_La6Ce6Pr19Nd20Sm13(BiS2)64
_symmetry_space_group_name_H-M   'P 1'
_cell_length_a   16.12131055
_cell_length_b   16.12486629
_cell_length_c   27.35053399
_cell_angle_alpha   89.80835685
_cell_angle_beta   90.12462601
_cell_angle_gamma   89.99823635
_symmetry_Int_Tables_number   1
_chemical_formula_structural   La6Ce6Pr19Nd20Sm13(BiS2)64
_chemical_formula_sum   'La6 Ce6 Pr19 Nd20 Sm13 Bi64 S128'
_cell_volume   7109.82348755
_cell_formula_units_Z   1
loop_
 _symmetry_equiv_pos_site_id
 _symmetry_equiv_pos_as_xyz
  1  'x, y, z'
loop_
 _atom_type_symbol
 _atom_type_oxidation_number
  La3+  3.0
  Ce3+  3.0
  Pr3+  3.0
  Nd3+  3.0
  Sm3+  3.0
  Bi2+  2.0
  S2-  -2.0
loop_
 _atom_site_type_symbol
 _atom_site_label
 _atom_site_symmetry_multiplicity
 _atom_site_fract_x
 _atom_site_fract_y
 _atom_site_fract_z
 _atom_site_occupancy
  La3+  La0  1  0.62038867  0.76138430  0.38548282  1
  La3+  La1  1  0.24211489  0.10837356  0.58062014  1
  La3+  La2  1  0.87112836  0.48249487  0.42842117  1
  La3+  La3  1  0.74969186  0.85590899  0.58021963  1
  La3+  La4  1  0.12346359  0.23170455  0.43912018  1
  La3+  La5  1  0.24828995  0.85780220  0.57587156  1
  Ce3+  Ce6  1  0.13346729  0.47261570  0.94458616  1
  Ce3+  Ce7  1  0.62232344  -0.01492751  0.44465114  1
  Ce3+  Ce8  1  0.63000178  0.22734359  0.93526688  1
  Ce3+  Ce9  1  0.36963751  -0.01488192  0.44986002  1
  Ce3+  Ce10  1  0.50093171  0.85930154  0.55894532  1
  Ce3+  Ce11  1  0.12347956  0.48441204  0.44708518  1
  Pr3+  Pr12  1  0.50663515  0.84460572  0.06578284  1
  Pr3+  Pr13  1  0.75800259  0.34550711  0.06214994  1
  Pr3+  Pr14  1  0.25639996  0.59860953  0.06664857  1
  Pr3+  Pr15  1  0.75637955  0.84462291  0.05752334  1
  Pr3+  Pr16  1  0.36713148  0.73750891  0.43411485  1
  Pr3+  Pr17  1  0.62976855  0.71542769  0.93403671  1
  Pr3+  Pr18  1  0.49705327  0.61286524  0.56003191  1
  Pr3+  Pr19  1  0.50005453  0.11349194  0.55756814  1
  Pr3+  Pr20  1  0.88161141  0.46802013  0.92774299  1
  Pr3+  Pr21  1  0.62104690  0.24235020  0.42807917  1
  Pr3+  Pr22  1  0.50712940  0.09558885  0.07228156  1
  Pr3+  Pr23  1  0.51887195  0.59942222  0.07869283  1
  Pr3+  Pr24  1  0.38119560  0.22084271  0.94471761  1
  Pr3+  Pr25  1  0.88037986  -0.02536814  0.94027165  1
  Pr3+  Pr26  1  0.63256170  -0.02639164  0.93803688  1
  Pr3+  Pr27  1  0.63541665  0.47287557  0.93480435  1
  Pr3+  Pr28  1  0.13582904  -0.03066049  0.93268194  1
  Pr3+  Pr29  1  0.61774094  0.49417942  0.43154160  1
  Pr3+  Pr30  1  0.24530022  0.61234637  0.56588891  1
  Nd3+  Nd31  1  0.00292944  0.84527091  0.05350534  1
  Nd3+  Nd32  1  0.25167370  0.08775428  0.07203964  1
  Nd3+  Nd33  1  0.12008657  0.74142075  0.43416710  1
  Nd3+  Nd34  1  0.86816028  0.73946381  0.43334038  1
  Nd3+  Nd35  1  0.38311229  0.47270605  0.94835574  1
  Nd3+  Nd36  1  0.50854970  0.34625704  0.07247715  1
  Nd3+  Nd37  1  0.87769737  0.72145451  0.92988390  1
  Nd3+  Nd38  1  0.86895745  0.23493037  0.44787524  1
  Nd3+  Nd39  1  0.00909191  0.09682704  0.05663085  1
  Nd3+  Nd40  1  0.74671280  0.61088408  0.55828363  1
  Nd3+  Nd41  1  0.25333032  0.83973237  0.06843787  1
  Nd3+  Nd42  1  0.76712611  0.59054721  0.07361278  1
  Nd3+  Nd43  1  0.74164290  0.36732210  0.56840464  1
  Nd3+  Nd44  1  0.36857948  0.23358339  0.44333485  1
  Nd3+  Nd45  1  0.75784061  0.10339175  0.06572981  1
  Nd3+  Nd46  1  0.25624497  0.34033730  0.06618635  1
  Nd3+  Nd47  1  0.25031751  0.35700527  0.57952252  1
  Nd3+  Nd48  1  -0.00466903  0.36006409  0.56077635  1
  Nd3+  Nd49  1  0.13414014  0.72209787  0.93587156  1
  Nd3+  Nd50  1  0.38367392  0.72023355  0.94150024  1
  Sm3+  Sm51  1  0.13545521  0.22013708  0.93793501  1
  Sm3+  Sm52  1  0.36756347  0.48637982  0.44464628  1
  Sm3+  Sm53  1  0.38214811  -0.02762978  0.94629097  1
  Sm3+  Sm54  1  0.00918024  0.34516649  0.04823906  1
  Sm3+  Sm55  1  0.00231978  0.59557853  0.04992292  1
  Sm3+  Sm56  1  0.86898203  -0.01549383  0.44686581  1
  Sm3+  Sm57  1  0.74395411  0.11359746  0.55886626  1
  Sm3+  Sm58  1  -0.00886130  0.11013985  0.56503302  1
  Sm3+  Sm59  1  0.49567156  0.36196809  0.56093542  1
  Sm3+  Sm60  1  -0.00519862  0.84625516  0.57336222  1
  Sm3+  Sm61  1  0.11908792  -0.01467162  0.45571440  1
  Sm3+  Sm62  1  0.88252003  0.22123092  0.93678796  1
  Sm3+  Sm63  1  -0.00420879  0.61096476  0.55007344  1
  Bi2+  Bi64  1  -0.03170668  0.14556978  0.30603705  1
  Bi2+  Bi65  1  -0.01052611  0.22171338  0.76511379  1
  Bi2+  Bi66  1  -0.01463133  0.35788475  0.24519809  1
  Bi2+  Bi67  1  0.00106422  0.48123062  0.80099936  1
  Bi2+  Bi68  1  0.00529624  0.62700112  0.28260583  1
  Bi2+  Bi69  1  0.04369855  0.63895448  0.73184221  1
  Bi2+  Bi70  1  0.01141611  0.80820144  0.31923773  1
  Bi2+  Bi71  1  -0.01522056  0.93479297  0.72715770  1
  Bi2+  Bi72  1  0.24104515  0.13199590  0.31533418  1
  Bi2+  Bi73  1  0.23438629  0.13263515  0.81236327  1
  Bi2+  Bi74  1  0.21259878  0.38205840  0.30602929  1
  Bi2+  Bi75  1  0.28373398  0.38848744  0.79511419  1
  Bi2+  Bi76  1  0.21489178  0.63581706  0.29394634  1
  Bi2+  Bi77  1  0.20458678  0.63790381  0.80028042  1
  Bi2+  Bi78  1  0.33988334  0.87289938  0.30121763  1
  Bi2+  Bi79  1  0.21682554  0.88872894  0.80147877  1
  Bi2+  Bi80  1  0.50152834  0.17810223  0.30067096  1
  Bi2+  Bi81  1  0.50079089  0.17088982  0.80085238  1
  Bi2+  Bi82  1  0.51070085  0.37334423  0.27476588  1
  Bi2+  Bi83  1  0.54200982  0.35534283  0.76771412  1
  Bi2+  Bi84  1  0.48160950  0.62911744  0.28498113  1
  Bi2+  Bi85  1  0.46828562  0.60608001  0.79263575  1
  Bi2+  Bi86  1  0.50927764  1.01218904  0.23813737  1
  Bi2+  Bi87  1  0.48263825  0.86249432  0.75128297  1
  Bi2+  Bi88  1  0.69575805  0.16666339  0.30743214  1
  Bi2+  Bi89  1  0.69818868  0.14503169  0.81105406  1
  Bi2+  Bi90  1  0.76105952  0.35356866  0.29598078  1
  Bi2+  Bi91  1  0.75212965  0.34847825  0.79632969  1
  Bi2+  Bi92  1  0.73965992  0.63176261  0.28254879  1
  Bi2+  Bi93  1  0.72836898  0.63818630  0.80325029  1
  Bi2+  Bi94  1  0.75541012  0.91580787  0.29569789  1
  Bi2+  Bi95  1  0.75749417  0.87853463  0.80217184  1
  Bi2+  Bi96  1  0.09421014  -0.03959105  0.26664775  1
  Bi2+  Bi97  1  0.13090543  0.05999423  0.71084125  1
  Bi2+  Bi98  1  0.13137436  0.23979694  0.19344060  1
  Bi2+  Bi99  1  0.11640837  0.36999895  0.73090045  1
  Bi2+  Bi100  1  0.12726208  0.50497559  0.22370499  1
  Bi2+  Bi101  1  0.19973067  0.53094431  0.68835351  1
  Bi2+  Bi102  1  0.13242705  0.78274906  0.22169212  1
  Bi2+  Bi103  1  0.14808854  0.84375393  0.69651883  1
  Bi2+  Bi104  1  0.31352177  0.02789627  0.22320934  1
  Bi2+  Bi105  1  0.38085757  0.03173528  0.75366729  1
  Bi2+  Bi106  1  0.37689972  0.28101126  0.21108136  1
  Bi2+  Bi107  1  0.37381564  0.22550475  0.70369774  1
  Bi2+  Bi108  1  0.34303329  0.51591613  0.24465660  1
  Bi2+  Bi109  1  0.38444324  0.48970558  0.71394671  1
  Bi2+  Bi110  1  0.34599283  0.81561683  0.19737867  1
  Bi2+  Bi111  1  0.32922113  0.74198220  0.73787312  1
  Bi2+  Bi112  1  0.70222505  0.04542377  0.21359676  1
  Bi2+  Bi113  1  0.59893138  0.01727502  0.72157588  1
  Bi2+  Bi114  1  0.63704301  0.25800590  0.20870240  1
  Bi2+  Bi115  1  0.66829983  0.21174953  0.69133226  1
  Bi2+  Bi116  1  0.63415673  0.49333895  0.20388306  1
  Bi2+  Bi117  1  0.63275809  0.48271304  0.70510408  1
  Bi2+  Bi118  1  0.61994691  0.79977709  0.18414657  1
  Bi2+  Bi119  1  0.60266288  0.74537295  0.69210504  1
  Bi2+  Bi120  1  0.90214734  0.00134097  0.23466835  1
  Bi2+  Bi121  1  0.85464667  0.07872287  0.75298957  1
  Bi2+  Bi122  1  0.90372243  0.18806201  0.20048058  1
  Bi2+  Bi123  1  0.85172497  0.31162416  0.69886536  1
  Bi2+  Bi124  1  0.88617517  0.50948430  0.20949260  1
  Bi2+  Bi125  1  0.87978935  0.50620954  0.71555291  1
  Bi2+  Bi126  1  0.90755058  0.76027329  0.20486952  1
  Bi2+  Bi127  1  0.87692805  0.74618019  0.70743041  1
  S2-  S128  1  0.05757517  0.11146052  0.15189731  1
  S2-  S129  1  0.01701073  0.14205985  0.66009080  1
  S2-  S130  1  0.01892336  0.34634939  0.14544269  1
  S2-  S131  1  -0.01107457  0.40197982  0.65684997  1
  S2-  S132  1  -0.08173978  0.61762559  0.13514119  1
  S2-  S133  1  -0.00652207  0.69762010  0.63453727  1
  S2-  S134  1  0.01648874  0.84878683  0.15211237  1
  S2-  S135  1  -0.11264177  0.88458089  0.64808393  1
  S2-  S136  1  0.27772697  0.17127445  0.15966396  1
  S2-  S137  1  0.23463981  0.23209144  0.65305618  1
  S2-  S138  1  0.26156251  0.37508258  0.16334040  1
  S2-  S139  1  0.39187734  0.36339641  0.64433432  1
  S2-  S140  1  0.24076596  0.71385981  0.14214528  1
  S2-  S141  1  0.24683857  0.72260631  0.64436879  1
  S2-  S142  1  0.24743869  0.95516012  0.14237778  1
  S2-  S143  1  0.24859922  0.97837008  0.65270086  1
  S2-  S144  1  0.50516097  0.21949704  0.14653231  1
  S2-  S145  1  0.50562436  0.13041110  0.65721491  1
  S2-  S146  1  0.50658199  0.46590335  0.14745319  1
  S2-  S147  1  0.61073697  0.35476531  0.63631264  1
  S2-  S148  1  0.47683290  0.73153177  0.14780136  1
  S2-  S149  1  0.52253199  0.59517387  0.66032714  1
  S2-  S150  1  0.51757071  0.96371489  0.14313702  1
  S2-  S151  1  0.45978404  0.82701143  0.65167812  1
  S2-  S152  1  0.76966424  0.22384682  0.13841211  1
  S2-  S153  1  0.77698406  0.10486275  0.65504333  1
  S2-  S154  1  0.77485435  0.45147848  0.14312450  1
  S2-  S155  1  0.76123519  0.49806859  0.63787540  1
  S2-  S156  1  0.66301048  0.63737161  0.15095065  1
  S2-  S157  1  0.75268655  0.70796688  0.64706511  1
  S2-  S158  1  0.78167676  0.84105991  0.15751483  1
  S2-  S159  1  0.66665456  0.89922941  0.67052792  1
  S2-  S160  1  0.13055969  0.01856846  0.35924887  1
  S2-  S161  1  0.11652904  0.01332192  0.83623240  1
  S2-  S162  1  0.11559182  0.24035092  0.33835461  1
  S2-  S163  1  0.12085942  0.23849124  0.84052909  1
  S2-  S164  1  0.09801309  0.46660792  0.35182344  1
  S2-  S165  1  0.16229267  0.48278936  0.84926675  1
  S2-  S166  1  0.23651657  0.76092859  0.36057578  1
  S2-  S167  1  0.11575237  0.76938652  0.84154574  1
  S2-  S168  1  0.36067036  0.01700795  0.35428579  1
  S2-  S169  1  0.34659809  -0.01662629  0.85084283  1
  S2-  S170  1  0.33359778  0.26740591  0.34740558  1
  S2-  S171  1  0.35936694  0.24922176  0.84621417  1
  S2-  S172  1  0.37972990  0.51978896  0.34752980  1
  S2-  S173  1  0.39220842  0.48248571  0.84899893  1
  S2-  S174  1  0.45407079  0.75551393  0.34665305  1
  S2-  S175  1  0.38983101  0.72843262  0.84237522  1
  S2-  S176  1  0.62054101  -0.06806964  0.35185051  1
  S2-  S177  1  0.63689296  -0.01286849  0.83768629  1
  S2-  S178  1  0.61547128  0.37115616  0.35719403  1
  S2-  S179  1  0.60872517  0.34661379  0.86324409  1
  S2-  S180  1  0.61707140  0.59429474  0.34667878  1
  S2-  S181  1  0.59468410  0.58975434  0.86115556  1
  S2-  S182  1  0.61040688  0.75105627  0.27282763  1
  S2-  S183  1  0.64651968  0.78003627  0.83725288  1
  S2-  S184  1  0.87458058  0.01209496  0.34910753  1
  S2-  S185  1  0.88044701  -0.01693376  0.84082615  1
  S2-  S186  1  0.88131231  0.27766423  0.35230932  1
  S2-  S187  1  0.88408036  0.27609563  0.84425853  1
  S2-  S188  1  0.82390025  0.49919330  0.33178541  1
  S2-  S189  1  0.77658957  0.49811511  0.85019166  1
  S2-  S190  1  0.78679060  0.75144721  0.34431662  1
  S2-  S191  1  0.85967047  0.73526303  0.83051777  1
  S2-  S192  1  -0.00653039  0.10930321  0.45968310  1
  S2-  S193  1  0.00850795  0.09966822  0.94860202  1
  S2-  S194  1  -0.00277556  0.35806237  0.45507550  1
  S2-  S195  1  0.01050779  0.34387578  0.94518647  1
  S2-  S196  1  -0.00282921  0.61393488  0.44546736  1
  S2-  S197  1  0.00578612  0.59841084  0.94501534  1
  S2-  S198  1  -0.00551775  0.86306744  0.45994371  1
  S2-  S199  1  0.00435889  0.84654143  0.94693154  1
  S2-  S200  1  0.24445821  0.10801099  0.46814250  1
  S2-  S201  1  0.25577677  0.09497696  0.95878721  1
  S2-  S202  1  0.24671578  0.35979467  0.46359048  1
  S2-  S203  1  0.25535810  0.34632423  0.95822939  1
  S2-  S204  1  0.24302409  0.61036851  0.45740039  1
  S2-  S205  1  0.25716863  0.59867126  0.95770995  1
  S2-  S206  1  0.24233403  0.86671938  0.46539196  1
  S2-  S207  1  0.25910760  0.84551530  0.95673113  1
  S2-  S208  1  0.49806471  0.11353305  0.45053926  1
  S2-  S209  1  0.50604202  0.09593135  0.95471628  1
  S2-  S210  1  0.48800722  0.36112907  0.45543385  1
  S2-  S211  1  0.50167825  0.34739271  0.96544365  1
  S2-  S212  1  0.48774418  0.60963520  0.45444562  1
  S2-  S213  1  0.50234552  0.59612312  0.96687024  1
  S2-  S214  1  0.49699475  0.86206053  0.45394587  1
  S2-  S215  1  0.50580283  0.84893875  0.95169720  1
  S2-  S216  1  0.74551428  0.11144868  0.45312309  1
  S2-  S217  1  0.75800260  0.10149822  0.95583096  1
  S2-  S218  1  0.74743117  0.36183455  0.45819169  1
  S2-  S219  1  0.76179437  0.34312398  0.95501224  1
  S2-  S220  1  0.75122774  0.61069817  0.45147030  1
  S2-  S221  1  0.76241044  0.59765038  0.95915821  1
  S2-  S222  1  0.74666053  0.86226525  0.45512764  1
  S2-  S223  1  0.75713101  0.84727113  0.95029146  1
  S2-  S224  1  0.12721140  -0.03211519  0.03996062  1
  S2-  S225  1  0.10709330  -0.01925394  0.55874429  1
  S2-  S226  1  0.13341716  0.21999782  0.04279307  1
  S2-  S227  1  0.11629638  0.23481432  0.54820464  1
  S2-  S228  1  0.13039289  0.47330536  0.05115296  1
  S2-  S229  1  0.12072501  0.48501285  0.55300354  1
  S2-  S230  1  0.12369815  0.71864318  0.04180473  1
  S2-  S231  1  0.11992049  0.73486208  0.53903638  1
  S2-  S232  1  0.38112647  -0.03047053  0.04694078  1
  S2-  S233  1  0.37568915  -0.01246503  0.55436006  1
  S2-  S234  1  0.37786084  0.21601227  0.04930882  1
  S2-  S235  1  0.37115886  0.23391796  0.54806186  1
  S2-  S236  1  0.37635701  0.47055294  0.05304120  1
  S2-  S237  1  0.36826873  0.48635436  0.54892194  1
  S2-  S238  1  0.38064020  0.72070007  0.04484098  1
  S2-  S239  1  0.37240151  0.73592103  0.54185934  1
  S2-  S240  1  0.63844219  -0.02322079  0.04437954  1
  S2-  S241  1  0.62526630  -0.01254609  0.55085144  1
  S2-  S242  1  0.63009551  0.21954234  0.04191247  1
  S2-  S243  1  0.62297714  0.23697007  0.53634618  1
  S2-  S244  1  0.63529051  0.47139045  0.04314024  1
  S2-  S245  1  0.61670790  0.48693199  0.53821499  1
  S2-  S246  1  0.63389028  0.72425431  0.04119750  1
  S2-  S247  1  0.62179078  0.73614597  0.55075531  1
  S2-  S248  1  0.88051495  -0.02405268  0.04846121  1
  S2-  S249  1  0.86867111  -0.01018401  0.54890607  1
  S2-  S250  1  0.88887774  0.22204154  0.04017161  1
  S2-  S251  1  0.86828754  0.23753959  0.55355734  1
  S2-  S252  1  0.88881895  0.46746301  0.03513544  1
  S2-  S253  1  0.87704854  0.48651843  0.53803823  1
  S2-  S254  1  0.88146004  0.72296412  0.03633906  1
  S2-  S255  1  0.87197772  0.73459192  0.53797186  1
