# generated using pymatgen
data_La6Ce6Pr19Nd20Sm13(BiS2)64
_symmetry_space_group_name_H-M   'P 1'
_cell_length_a   16.16446476
_cell_length_b   16.17856928
_cell_length_c   27.11788393
_cell_angle_alpha   89.93354642
_cell_angle_beta   89.84001317
_cell_angle_gamma   90.02880527
_symmetry_Int_Tables_number   1
_chemical_formula_structural   La6Ce6Pr19Nd20Sm13(BiS2)64
_chemical_formula_sum   'La6 Ce6 Pr19 Nd20 Sm13 Bi64 S128'
_cell_volume   7091.77908345
_cell_formula_units_Z   1
loop_
 _symmetry_equiv_pos_site_id
 _symmetry_equiv_pos_as_xyz
  1  'x, y, z'
loop_
 _atom_type_symbol
 _atom_type_oxidation_number
  La3+  3.0
  Ce3+  3.0
  Pr3+  3.0
  Nd3+  3.0
  Sm3+  3.0
  Bi2+  2.0
  S2-  -2.0
loop_
 _atom_site_type_symbol
 _atom_site_label
 _atom_site_symmetry_multiplicity
 _atom_site_fract_x
 _atom_site_fract_y
 _atom_site_fract_z
 _atom_site_occupancy
  La3+  La0  1  0.86867302  0.76221951  0.40651122  1
  La3+  La1  1  0.76050042  0.11569350  0.61326992  1
  La3+  La2  1  0.37910615  0.00006238  0.44296608  1
  La3+  La3  1  -0.00734930  0.37379681  0.10751602  1
  La3+  La4  1  -0.02426866  0.87501824  0.06927746  1
  La3+  La5  1  0.13697808  0.49047730  0.41174820  1
  Ce3+  Ce6  1  0.50386170  0.87331286  0.55649653  1
  Ce3+  Ce7  1  0.10812389  0.00047237  0.95133931  1
  Ce3+  Ce8  1  0.35915754  -0.00231098  0.94341187  1
  Ce3+  Ce9  1  -0.00113769  0.87060416  0.55229280  1
  Ce3+  Ce10  1  0.61073288  0.49879364  0.93952840  1
  Ce3+  Ce11  1  0.23647005  0.12682932  0.05767144  1
  Pr3+  Pr12  1  0.12680113  -0.00165150  0.44139936  1
  Pr3+  Pr13  1  0.73351054  0.62376059  0.06734043  1
  Pr3+  Pr14  1  0.85901179  0.74948181  0.92962800  1
  Pr3+  Pr15  1  0.24848859  0.62500230  0.55858973  1
  Pr3+  Pr16  1  0.60792286  0.25349462  0.92890026  1
  Pr3+  Pr17  1  -0.02123402  0.62772463  0.07587284  1
  Pr3+  Pr18  1  -0.00071825  0.37428890  0.55771542  1
  Pr3+  Pr19  1  0.11206378  0.25448723  0.94591246  1
  Pr3+  Pr20  1  0.35354723  0.75538725  0.92619204  1
  Pr3+  Pr21  1  0.23366685  0.62776496  0.06741211  1
  Pr3+  Pr22  1  -0.02248345  0.12848494  0.07052844  1
  Pr3+  Pr23  1  0.87484832  0.25201716  0.43533708  1
  Pr3+  Pr24  1  0.50293651  0.37549140  0.55933966  1
  Pr3+  Pr25  1  0.10489174  0.74178168  0.93028885  1
  Pr3+  Pr26  1  0.73557649  0.37280696  0.06678634  1
  Pr3+  Pr27  1  0.25110087  0.37257126  0.56364546  1
  Pr3+  Pr28  1  0.48863837  0.37349997  0.07146057  1
  Pr3+  Pr29  1  0.37980319  0.24942184  0.44078141  1
  Pr3+  Pr30  1  0.87583542  0.00505225  0.92237744  1
  Nd3+  Nd31  1  0.37813484  0.50065800  0.44217590  1
  Nd3+  Nd32  1  0.62859795  0.50193048  0.43909565  1
  Nd3+  Nd33  1  0.75379697  0.62818226  0.55987151  1
  Nd3+  Nd34  1  0.00437483  0.62701371  0.54147775  1
  Nd3+  Nd35  1  -0.00274030  0.12377475  0.55239648  1
  Nd3+  Nd36  1  0.13553957  0.75941350  0.40948945  1
  Nd3+  Nd37  1  0.85778801  0.25573026  0.93270151  1
  Nd3+  Nd38  1  0.61347360  0.74671292  0.92786607  1
  Nd3+  Nd39  1  0.73367690  0.87513490  0.05429256  1
  Nd3+  Nd40  1  0.50609664  0.12592205  0.56963643  1
  Nd3+  Nd41  1  0.87943524  0.50397314  0.43543871  1
  Nd3+  Nd42  1  0.36125105  0.25441677  0.93416787  1
  Nd3+  Nd43  1  0.36051535  0.50435762  0.94696667  1
  Nd3+  Nd44  1  0.48627677  0.62928057  0.05640000  1
  Nd3+  Nd45  1  0.73665234  0.12553275  0.05439500  1
  Nd3+  Nd46  1  0.23350146  0.87445668  0.06712185  1
  Nd3+  Nd47  1  0.62476182  0.74841997  0.43520030  1
  Nd3+  Nd48  1  0.25096499  0.87247541  0.56190205  1
  Nd3+  Nd49  1  0.75157118  0.37500429  0.56332705  1
  Nd3+  Nd50  1  0.24438010  0.37231995  0.07333327  1
  Sm3+  Sm51  1  0.86264063  0.50025056  0.95279313  1
  Sm3+  Sm52  1  0.62988252  0.00082443  0.44852883  1
  Sm3+  Sm53  1  0.10872338  0.50024433  0.95527644  1
  Sm3+  Sm54  1  0.75458140  0.86927074  0.56444598  1
  Sm3+  Sm55  1  0.50252760  0.63017457  0.56595258  1
  Sm3+  Sm56  1  0.61341563  0.00099222  0.93540274  1
  Sm3+  Sm57  1  0.25172503  0.12391367  0.55618228  1
  Sm3+  Sm58  1  0.12653425  0.25099379  0.44425585  1
  Sm3+  Sm59  1  0.37786822  0.74553102  0.43735061  1
  Sm3+  Sm60  1  0.48671688  0.12398625  0.05062871  1
  Sm3+  Sm61  1  0.63080498  0.24920300  0.44643433  1
  Sm3+  Sm62  1  0.87390853  0.00031208  0.44204287  1
  Sm3+  Sm63  1  0.48651445  0.87345602  0.04928863  1
  Bi2+  Bi64  1  0.02429628  0.08733130  0.27345228  1
  Bi2+  Bi65  1  0.03172059  0.13227771  0.80343032  1
  Bi2+  Bi66  1  -0.01080112  0.38329107  0.29737594  1
  Bi2+  Bi67  1  -0.04887238  0.39018254  0.79513178  1
  Bi2+  Bi68  1  -0.01791726  0.61582721  0.27515408  1
  Bi2+  Bi69  1  -0.01471667  0.61292785  0.80459618  1
  Bi2+  Bi70  1  0.00156945  0.88054399  0.29727907  1
  Bi2+  Bi71  1  -0.00658201  0.83830328  0.75846316  1
  Bi2+  Bi72  1  0.29088116  0.13445494  0.27895147  1
  Bi2+  Bi73  1  0.24133056  0.13199915  0.78941649  1
  Bi2+  Bi74  1  0.26400427  0.36358574  0.29257941  1
  Bi2+  Bi75  1  0.23708095  0.32004791  0.82213397  1
  Bi2+  Bi76  1  0.33493144  0.62465181  0.28654241  1
  Bi2+  Bi77  1  0.28548344  0.63934765  0.80168466  1
  Bi2+  Bi78  1  0.27531862  0.89173590  0.29174784  1
  Bi2+  Bi79  1  0.25875640  0.88450819  0.77722267  1
  Bi2+  Bi80  1  0.54240100  0.13056131  0.29132534  1
  Bi2+  Bi81  1  0.43985750  0.15031961  0.78581699  1
  Bi2+  Bi82  1  0.53719544  0.41250951  0.28436584  1
  Bi2+  Bi83  1  0.53101428  0.40288900  0.79757466  1
  Bi2+  Bi84  1  0.50139202  0.67565104  0.33142748  1
  Bi2+  Bi85  1  0.53366110  0.58305349  0.74678816  1
  Bi2+  Bi86  1  0.49252229  0.86274139  0.29443504  1
  Bi2+  Bi87  1  0.45631447  0.85239315  0.78302742  1
  Bi2+  Bi88  1  0.73674418  0.09174005  0.28584234  1
  Bi2+  Bi89  1  0.73676221  0.11191920  0.81187837  1
  Bi2+  Bi90  1  0.72987865  0.34608879  0.29258951  1
  Bi2+  Bi91  1  0.72290727  0.38313809  0.77019127  1
  Bi2+  Bi92  1  0.66566302  0.63491715  0.27434705  1
  Bi2+  Bi93  1  0.74162750  0.62290042  0.78437852  1
  Bi2+  Bi94  1  0.68776250  0.88065159  0.27631528  1
  Bi2+  Bi95  1  0.71195618  0.86590096  0.77457522  1
  Bi2+  Bi96  1  0.17658766  0.01899519  0.21220426  1
  Bi2+  Bi97  1  0.11327527  -0.00194860  0.74110929  1
  Bi2+  Bi98  1  0.14213931  0.22889003  0.22491321  1
  Bi2+  Bi99  1  0.14067301  0.31493515  0.71594221  1
  Bi2+  Bi100  1  0.15723332  0.51221200  0.21079030  1
  Bi2+  Bi101  1  0.12360165  0.48715029  0.77007146  1
  Bi2+  Bi102  1  0.15387687  0.75891411  0.20767599  1
  Bi2+  Bi103  1  0.12013106  0.73543126  0.68964036  1
  Bi2+  Bi104  1  0.45204321  0.00883600  0.21723498  1
  Bi2+  Bi105  1  0.37829935  0.02095196  0.70939218  1
  Bi2+  Bi106  1  0.44072153  0.25433157  0.21524700  1
  Bi2+  Bi107  1  0.35513656  0.23561794  0.69285253  1
  Bi2+  Bi108  1  0.42017983  0.49538571  0.21331613  1
  Bi2+  Bi109  1  0.35069338  0.42250342  0.75057885  1
  Bi2+  Bi110  1  0.41723036  0.76794140  0.20610075  1
  Bi2+  Bi111  1  0.36975655  0.73167242  0.68493548  1
  Bi2+  Bi112  1  0.64288639  0.02655418  0.19503694  1
  Bi2+  Bi113  1  0.56700778  -0.01063896  0.73414967  1
  Bi2+  Bi114  1  0.62602489  0.30388310  0.19283935  1
  Bi2+  Bi115  1  0.60601159  0.25848238  0.71283187  1
  Bi2+  Bi116  1  0.62520878  0.49088880  0.16530917  1
  Bi2+  Bi117  1  0.68759083  0.52367804  0.67708503  1
  Bi2+  Bi118  1  0.63784664  0.76041226  0.19199295  1
  Bi2+  Bi119  1  0.63832998  0.73122251  0.70279585  1
  Bi2+  Bi120  1  0.87092833  0.00551908  0.21819269  1
  Bi2+  Bi121  1  0.89852179  -0.01383603  0.70620455  1
  Bi2+  Bi122  1  0.87322689  0.21490163  0.21696446  1
  Bi2+  Bi123  1  0.90090529  0.25115116  0.70406113  1
  Bi2+  Bi124  1  0.80614080  0.48579518  0.20886815  1
  Bi2+  Bi125  1  0.87009135  0.48356914  0.70418758  1
  Bi2+  Bi126  1  0.89151008  0.76911087  0.19565585  1
  Bi2+  Bi127  1  0.88717575  0.68577764  0.70721321  1
  S2-  S128  1  0.00858974  0.21889738  0.15729810  1
  S2-  S129  1  -0.03551328  0.12607021  0.64986853  1
  S2-  S130  1  -0.02616376  0.45265276  0.20311595  1
  S2-  S131  1  0.00421357  0.37604812  0.65818259  1
  S2-  S132  1  0.04816722  0.64362608  0.17136016  1
  S2-  S133  1  0.01711913  0.62992312  0.64236939  1
  S2-  S134  1  0.03952021  0.85639450  0.16697069  1
  S2-  S135  1  0.00491108  0.86580038  0.65066503  1
  S2-  S136  1  0.25072157  0.14225680  0.15457125  1
  S2-  S137  1  0.24640370  0.12914512  0.65404716  1
  S2-  S138  1  0.15398175  0.37671275  0.15903677  1
  S2-  S139  1  0.25563762  0.40224254  0.66265286  1
  S2-  S140  1  0.25142043  0.62568264  0.16839729  1
  S2-  S141  1  0.23971845  0.63307069  0.66060586  1
  S2-  S142  1  0.27588653  0.86105978  0.16428522  1
  S2-  S143  1  0.24941617  0.85145171  0.66084425  1
  S2-  S144  1  0.50926098  0.12503062  0.14828387  1
  S2-  S145  1  0.59432770  0.11661533  0.65571846  1
  S2-  S146  1  0.37160883  0.36330403  0.14752278  1
  S2-  S147  1  0.49752447  0.33385409  0.65755194  1
  S2-  S148  1  0.47394147  0.63413687  0.15648387  1
  S2-  S149  1  0.45036709  0.58963635  0.65729686  1
  S2-  S150  1  0.52834537  0.86815492  0.14451236  1
  S2-  S151  1  0.50669610  0.81416556  0.64738136  1
  S2-  S152  1  0.83436548  0.11239364  0.13706407  1
  S2-  S153  1  0.79549916  0.12304942  0.72111001  1
  S2-  S154  1  0.82935569  0.34519037  0.15158229  1
  S2-  S155  1  0.75834967  0.28499253  0.64839170  1
  S2-  S156  1  0.83930466  0.63441350  0.14868822  1
  S2-  S157  1  0.77246718  0.74093774  0.63521001  1
  S2-  S158  1  0.83119391  0.88351613  0.13743294  1
  S2-  S159  1  0.76673657  0.95377916  0.65245775  1
  S2-  S160  1  0.14203563  -0.08091034  0.35288399  1
  S2-  S161  1  0.04116585  -0.00294419  0.86246239  1
  S2-  S162  1  0.12753987  0.32139106  0.35495712  1
  S2-  S163  1  0.06735734  0.28848672  0.84992575  1
  S2-  S164  1  0.10210774  0.51605873  0.31317190  1
  S2-  S165  1  0.11748451  0.57154563  0.86515970  1
  S2-  S166  1  0.09214614  0.72930536  0.30926005  1
  S2-  S167  1  0.22236408  0.76171368  0.85361720  1
  S2-  S168  1  0.35200580  0.00946669  0.34383420  1
  S2-  S169  1  0.35466459  -0.04775831  0.85005800  1
  S2-  S170  1  0.36219974  0.26185495  0.34090068  1
  S2-  S171  1  0.47715048  0.26686293  0.85832940  1
  S2-  S172  1  0.29780237  0.49080995  0.35408201  1
  S2-  S173  1  0.34430290  0.50536214  0.84737050  1
  S2-  S174  1  0.28621718  0.75202574  0.35378493  1
  S2-  S175  1  0.43328774  0.71420312  0.83736973  1
  S2-  S176  1  0.61677941  -0.00061080  0.35003602  1
  S2-  S177  1  0.59254934  0.02854214  0.83878708  1
  S2-  S178  1  0.61377054  0.25902694  0.34862183  1
  S2-  S179  1  0.72319988  0.27406634  0.85086583  1
  S2-  S180  1  0.66455307  0.49151146  0.34146840  1
  S2-  S181  1  0.60893175  0.54527740  0.84491550  1
  S2-  S182  1  0.71367951  0.75167272  0.35034750  1
  S2-  S183  1  0.73458130  0.74719653  0.85442891  1
  S2-  S184  1  0.87541628  -0.07212895  0.35403444  1
  S2-  S185  1  0.81255712  -0.04512387  0.82645936  1
  S2-  S186  1  0.87709005  0.26781069  0.33444742  1
  S2-  S187  1  0.88507570  0.14662465  0.85648941  1
  S2-  S188  1  0.89037179  0.50270822  0.33561699  1
  S2-  S189  1  0.86524958  0.50254790  0.85292400  1
  S2-  S190  1  0.89251888  0.74272748  0.30152019  1
  S2-  S191  1  0.97978797  0.75768200  0.85578244  1
  S2-  S192  1  0.00154905  0.12513644  0.44474091  1
  S2-  S193  1  -0.00934489  0.13127723  0.96344581  1
  S2-  S194  1  0.00207565  0.37633493  0.45100219  1
  S2-  S195  1  -0.01392713  0.38017447  0.95582737  1
  S2-  S196  1  0.00761453  0.62741389  0.43435485  1
  S2-  S197  1  -0.01607993  0.62109648  0.96630401  1
  S2-  S198  1  0.00241894  0.87268757  0.44770428  1
  S2-  S199  1  -0.01355543  0.87298769  0.96035305  1
  S2-  S200  1  0.24943627  0.12763285  0.45011477  1
  S2-  S201  1  0.23793347  0.12643955  0.94961206  1
  S2-  S202  1  0.25360456  0.37033954  0.45755001  1
  S2-  S203  1  0.23808698  0.38000056  0.96258977  1
  S2-  S204  1  0.25102297  0.62392627  0.45113781  1
  S2-  S205  1  0.23729273  0.62667615  0.96129621  1
  S2-  S206  1  0.25614514  0.87427507  0.45626925  1
  S2-  S207  1  0.23143516  0.87615119  0.95952588  1
  S2-  S208  1  0.50655792  0.12591847  0.45866453  1
  S2-  S209  1  0.48476316  0.12108391  0.94785063  1
  S2-  S210  1  0.50466262  0.37552229  0.45110466  1
  S2-  S211  1  0.48411016  0.37978636  0.96130334  1
  S2-  S212  1  0.50103294  0.62325032  0.45855702  1
  S2-  S213  1  0.48659996  0.62774893  0.95092222  1
  S2-  S214  1  0.50300940  0.87347622  0.44958230  1
  S2-  S215  1  0.49076201  0.87354382  0.94488511  1
  S2-  S216  1  0.75186527  0.12375133  0.44387773  1
  S2-  S217  1  0.73170267  0.12583642  0.94950558  1
  S2-  S218  1  0.75169546  0.37755223  0.45457836  1
  S2-  S219  1  0.73531278  0.37928599  0.95810204  1
  S2-  S220  1  0.75387960  0.62464331  0.45102847  1
  S2-  S221  1  0.73485041  0.62079959  0.95846031  1
  S2-  S222  1  0.74892129  0.87762506  0.45684100  1
  S2-  S223  1  0.73344010  0.87969291  0.94919532  1
  S2-  S224  1  0.10886856  0.00215629  0.05887759  1
  S2-  S225  1  0.12731443  0.00017637  0.54919143  1
  S2-  S226  1  0.11466943  0.25387851  0.05196877  1
  S2-  S227  1  0.12581878  0.24631482  0.54974142  1
  S2-  S228  1  0.10877152  0.50006482  0.05937511  1
  S2-  S229  1  0.12657703  0.49685408  0.54345558  1
  S2-  S230  1  0.10897417  0.75129573  0.05026132  1
  S2-  S231  1  0.12797576  0.75193907  0.53811435  1
  S2-  S232  1  0.36387440  -0.00182071  0.05127129  1
  S2-  S233  1  0.37742991  0.00102147  0.55184648  1
  S2-  S234  1  0.36566943  0.24646260  0.04136263  1
  S2-  S235  1  0.37756015  0.24614965  0.54800040  1
  S2-  S236  1  0.36326113  0.50434606  0.05277263  1
  S2-  S237  1  0.37708171  0.50008954  0.54803028  1
  S2-  S238  1  0.36188482  0.75299179  0.04440268  1
  S2-  S239  1  0.37692578  0.74848349  0.54295071  1
  S2-  S240  1  0.60977543  -0.00020907  0.04108053  1
  S2-  S241  1  0.62906775  -0.00228904  0.55195105  1
  S2-  S242  1  0.60967147  0.24808810  0.04227952  1
  S2-  S243  1  0.62741858  0.24997890  0.54889497  1
  S2-  S244  1  0.60875431  0.50054593  0.04518097  1
  S2-  S245  1  0.62568934  0.50303834  0.54624961  1
  S2-  S246  1  0.61181418  0.75025022  0.03747572  1
  S2-  S247  1  0.62556247  0.74769402  0.54183420  1
  S2-  S248  1  0.85744099  0.00118064  0.03223547  1
  S2-  S249  1  0.87452551  -0.00073069  0.54552841  1
  S2-  S250  1  0.85823511  0.25127914  0.03972465  1
  S2-  S251  1  0.87453195  0.24865974  0.54266821  1
  S2-  S252  1  0.86327349  0.49456067  0.05642919  1
  S2-  S253  1  0.87595427  0.50130857  0.54402865  1
  S2-  S254  1  0.85418189  0.74794194  0.03842886  1
  S2-  S255  1  0.87917570  0.74864053  0.53041823  1
