# generated using pymatgen
data_La6Ce6Pr19Nd20Sm13(BiS2)64
_symmetry_space_group_name_H-M   'P 1'
_cell_length_a   16.06051104
_cell_length_b   16.06587757
_cell_length_c   27.69133650
_cell_angle_alpha   90.25737229
_cell_angle_beta   90.32185163
_cell_angle_gamma   89.98697110
_symmetry_Int_Tables_number   1
_chemical_formula_structural   La6Ce6Pr19Nd20Sm13(BiS2)64
_chemical_formula_sum   'La6 Ce6 Pr19 Nd20 Sm13 Bi64 S128'
_cell_volume   7144.90548172
_cell_formula_units_Z   1
loop_
 _symmetry_equiv_pos_site_id
 _symmetry_equiv_pos_as_xyz
  1  'x, y, z'
loop_
 _atom_type_symbol
 _atom_type_oxidation_number
  La3+  3.0
  Ce3+  3.0
  Pr3+  3.0
  Nd3+  3.0
  Sm3+  3.0
  Bi2+  2.0
  S2-  -2.0
loop_
 _atom_site_type_symbol
 _atom_site_label
 _atom_site_symmetry_multiplicity
 _atom_site_fract_x
 _atom_site_fract_y
 _atom_site_fract_z
 _atom_site_occupancy
  La3+  La0  1  0.27849447  0.12597304  0.09201997  1
  La3+  La1  1  0.64883297  -0.00903969  0.94183798  1
  La3+  La2  1  0.22137665  0.38218560  0.56049138  1
  La3+  La3  1  0.22253325  0.88228499  0.56979294  1
  La3+  La4  1  0.02418669  0.86937280  0.07529427  1
  La3+  La5  1  0.71634857  0.38830729  0.58567508  1
  Ce3+  Ce6  1  0.47459722  0.13423541  0.55456239  1
  Ce3+  Ce7  1  0.09215981  0.75973929  0.43204279  1
  Ce3+  Ce8  1  0.34657776  0.50794278  0.43646976  1
  Ce3+  Ce9  1  0.77781677  0.36816486  0.06159820  1
  Ce3+  Ce10  1  0.90226434  0.49188289  0.94134148  1
  Ce3+  Ce11  1  0.22330066  0.13376221  0.55172877  1
  Pr3+  Pr12  1  0.03055270  0.12233825  0.05544566  1
  Pr3+  Pr13  1  0.35104952  0.27456894  0.37732211  1
  Pr3+  Pr14  1  0.77571735  0.86820141  0.07576102  1
  Pr3+  Pr15  1  0.03305004  0.36597623  0.05140975  1
  Pr3+  Pr16  1  0.52493878  0.61644192  0.06430347  1
  Pr3+  Pr17  1  0.15976546  0.24090929  0.92408200  1
  Pr3+  Pr18  1  0.59755121  0.00629078  0.44086749  1
  Pr3+  Pr19  1  0.52326661  0.12062341  0.06494894  1
  Pr3+  Pr20  1  0.89153651  0.74391270  0.93926039  1
  Pr3+  Pr21  1  0.02808498  0.61800710  0.06323875  1
  Pr3+  Pr22  1  0.13860893  0.74451412  0.93449995  1
  Pr3+  Pr23  1  0.78328333  0.61543987  0.07858595  1
  Pr3+  Pr24  1  0.09418419  0.25634495  0.42814994  1
  Pr3+  Pr25  1  0.39891861  -0.01115473  0.94396441  1
  Pr3+  Pr26  1  0.84496120  0.25572876  0.43499608  1
  Pr3+  Pr27  1  0.72368043  0.88774885  0.57601540  1
  Pr3+  Pr28  1  0.84706584  0.76573713  0.42216505  1
  Pr3+  Pr29  1  0.34595586  0.00879822  0.43509656  1
  Pr3+  Pr30  1  0.59642204  0.25522117  0.43453661  1
  Nd3+  Nd31  1  0.77583299  0.11984334  0.05867883  1
  Nd3+  Nd32  1  0.52340252  0.36963004  0.05378386  1
  Nd3+  Nd33  1  0.59988238  0.76578044  0.42853141  1
  Nd3+  Nd34  1  0.15974798  0.49223994  0.92993445  1
  Nd3+  Nd35  1  0.47409812  0.38308794  0.55429813  1
  Nd3+  Nd36  1  0.15254870  -0.00806657  0.94846000  1
  Nd3+  Nd37  1  0.27562887  0.86863266  0.07451526  1
  Nd3+  Nd38  1  0.65242900  0.49339412  0.94553900  1
  Nd3+  Nd39  1  -0.03155436  0.63252936  0.55007079  1
  Nd3+  Nd40  1  0.39820916  0.74399379  0.94840305  1
  Nd3+  Nd41  1  0.27062287  0.61746934  0.06450429  1
  Nd3+  Nd42  1  -0.02861108  0.13589719  0.55714321  1
  Nd3+  Nd43  1  -0.02949947  0.38370039  0.55501307  1
  Nd3+  Nd44  1  0.47298054  0.63593731  0.54993258  1
  Nd3+  Nd45  1  0.90094005  -0.00720239  0.94241823  1
  Nd3+  Nd46  1  0.52160802  0.86969233  0.07488890  1
  Nd3+  Nd47  1  0.72083256  0.63569629  0.55427203  1
  Nd3+  Nd48  1  -0.02958328  0.88027936  0.56636821  1
  Nd3+  Nd49  1  0.84264565  0.50774627  0.43349697  1
  Nd3+  Nd50  1  0.40249081  0.49521276  0.93585171  1
  Sm3+  Sm51  1  0.33905374  0.76478118  0.42979939  1
  Sm3+  Sm52  1  0.59373646  0.50799174  0.43735893  1
  Sm3+  Sm53  1  0.47471164  0.88346888  0.56718233  1
  Sm3+  Sm54  1  0.65120283  0.24245634  0.94360498  1
  Sm3+  Sm55  1  0.90227734  0.24334423  0.94150643  1
  Sm3+  Sm56  1  0.22168156  0.63500321  0.54942042  1
  Sm3+  Sm57  1  0.72115744  0.13768133  0.57143882  1
  Sm3+  Sm58  1  0.27844988  0.36879792  0.05902535  1
  Sm3+  Sm59  1  0.84299731  0.00602654  0.44419754  1
  Sm3+  Sm60  1  0.39902833  0.24088121  0.93794411  1
  Sm3+  Sm61  1  0.65362599  0.74225737  0.94996366  1
  Sm3+  Sm62  1  0.09549247  0.00520792  0.44228993  1
  Sm3+  Sm63  1  0.09752325  0.50510257  0.43955512  1
  Bi2+  Bi64  1  -0.00284601  0.13560575  0.28573572  1
  Bi2+  Bi65  1  0.02288083  0.14235006  0.75762170  1
  Bi2+  Bi66  1  0.05497103  0.34752782  0.28513986  1
  Bi2+  Bi67  1  -0.02876249  0.41923914  0.79245398  1
  Bi2+  Bi68  1  -0.02831533  0.64070599  0.27852415  1
  Bi2+  Bi69  1  0.04488077  0.63240952  0.74325928  1
  Bi2+  Bi70  1  0.09990373  0.86716867  0.29870603  1
  Bi2+  Bi71  1  0.04613452  0.87420385  0.81815388  1
  Bi2+  Bi72  1  0.23221411  0.12450007  0.28734093  1
  Bi2+  Bi73  1  0.27385401  0.10488253  0.74318485  1
  Bi2+  Bi74  1  0.26455365  0.42049896  0.25801162  1
  Bi2+  Bi75  1  0.20742578  0.36936471  0.80369310  1
  Bi2+  Bi76  1  0.18538649  0.61370493  0.29806055  1
  Bi2+  Bi77  1  0.25410066  0.62537252  0.74917128  1
  Bi2+  Bi78  1  0.30057860  0.88262538  0.26699949  1
  Bi2+  Bi79  1  0.28464233  0.89529476  0.81754841  1
  Bi2+  Bi80  1  0.55333701  0.11562122  0.29277373  1
  Bi2+  Bi81  1  0.52806299  0.15495870  0.78711886  1
  Bi2+  Bi82  1  0.59954294  0.36637107  0.27452959  1
  Bi2+  Bi83  1  0.45542965  0.44177082  0.80069631  1
  Bi2+  Bi84  1  0.38921133  0.62470319  0.31913677  1
  Bi2+  Bi85  1  0.54275786  0.61987523  0.81178533  1
  Bi2+  Bi86  1  0.48259413  0.79846963  0.29997263  1
  Bi2+  Bi87  1  0.52000207  0.89442019  0.81066629  1
  Bi2+  Bi88  1  0.72334414  0.12485119  0.35226963  1
  Bi2+  Bi89  1  0.73855721  0.14595871  0.79745250  1
  Bi2+  Bi90  1  0.77860317  0.30330371  0.31029329  1
  Bi2+  Bi91  1  0.75323029  0.43093048  0.77873515  1
  Bi2+  Bi92  1  0.72146634  0.60613978  0.28608190  1
  Bi2+  Bi93  1  0.79180263  0.62758123  0.76789569  1
  Bi2+  Bi94  1  0.72047993  0.87264571  0.29532591  1
  Bi2+  Bi95  1  0.78104467  0.88701719  0.80964620  1
  Bi2+  Bi96  1  0.07579312  -0.01179912  0.20601576  1
  Bi2+  Bi97  1  0.12442395  -0.01526624  0.71419660  1
  Bi2+  Bi98  1  0.10290043  0.23489988  0.18851131  1
  Bi2+  Bi99  1  0.11375831  0.24740635  0.68120443  1
  Bi2+  Bi100  1  0.10083038  0.49140857  0.20775386  1
  Bi2+  Bi101  1  0.14160081  0.49766156  0.68360169  1
  Bi2+  Bi102  1  0.09611932  0.73652291  0.20808656  1
  Bi2+  Bi103  1  0.22237758  0.80818819  0.70241486  1
  Bi2+  Bi104  1  0.45307157  -0.02269271  0.22082509  1
  Bi2+  Bi105  1  0.41469533  -0.01127339  0.70893789  1
  Bi2+  Bi106  1  0.41954300  0.27025765  0.18786133  1
  Bi2+  Bi107  1  0.37911408  0.27159394  0.76117791  1
  Bi2+  Bi108  1  0.35702993  0.51991276  0.17780285  1
  Bi2+  Bi109  1  0.40760421  0.53029960  0.70224858  1
  Bi2+  Bi110  1  0.30823306  0.70211264  0.22121241  1
  Bi2+  Bi111  1  0.42932061  0.73074011  0.74608458  1
  Bi2+  Bi112  1  0.65110709  0.00903855  0.21485878  1
  Bi2+  Bi113  1  0.60681156  -0.00202462  0.70168842  1
  Bi2+  Bi114  1  0.63053268  0.21360708  0.20147081  1
  Bi2+  Bi115  1  0.60419222  0.25566084  0.70271585  1
  Bi2+  Bi116  1  0.51357751  0.53649381  0.24860439  1
  Bi2+  Bi117  1  0.60576679  0.52458618  0.70246367  1
  Bi2+  Bi118  1  0.59606983  0.75345575  0.20997221  1
  Bi2+  Bi119  1  0.64132207  0.76362301  0.75735083  1
  Bi2+  Bi120  1  0.84140823  0.02696546  0.27840706  1
  Bi2+  Bi121  1  0.85748941  -0.03496532  0.71555177  1
  Bi2+  Bi122  1  0.82437481  0.26511350  0.20060072  1
  Bi2+  Bi123  1  0.86720605  0.26992309  0.74829867  1
  Bi2+  Bi124  1  0.84015645  0.45034174  0.24135673  1
  Bi2+  Bi125  1  0.88555360  0.50339809  0.69522776  1
  Bi2+  Bi126  1  0.86273535  0.73917079  0.20419467  1
  Bi2+  Bi127  1  0.91166265  0.77851174  0.73464950  1
  S2-  S128  1  -0.00189287  0.11480935  0.15305669  1
  S2-  S129  1  -0.02118633  0.13533159  0.65522791  1
  S2-  S130  1  0.02034577  0.36552206  0.15065508  1
  S2-  S131  1  0.01750532  0.38037551  0.65066111  1
  S2-  S132  1  -0.07878992  0.62041207  0.14457227  1
  S2-  S133  1  -0.02124469  0.62333775  0.64857169  1
  S2-  S134  1  -0.10107242  0.87341059  0.14901369  1
  S2-  S135  1  0.09284782  0.87112245  0.64143044  1
  S2-  S136  1  0.20945611  0.07725364  0.18552132  1
  S2-  S137  1  0.21808992  0.10784298  0.64751827  1
  S2-  S138  1  0.26004139  0.28332837  0.14261985  1
  S2-  S139  1  0.23973175  0.36852987  0.66053077  1
  S2-  S140  1  0.15076594  0.60835792  0.13786586  1
  S2-  S141  1  0.22425041  0.65081008  0.64585003  1
  S2-  S142  1  0.15120051  0.86241274  0.14661956  1
  S2-  S143  1  0.35470767  0.87697210  0.64102645  1
  S2-  S144  1  0.42822689  0.11297839  0.14862177  1
  S2-  S145  1  0.50952186  0.12923873  0.65027291  1
  S2-  S146  1  0.49286791  0.40986490  0.14650382  1
  S2-  S147  1  0.55904797  0.38429028  0.64270976  1
  S2-  S148  1  0.49399825  0.64493075  0.16039061  1
  S2-  S149  1  0.50676344  0.63759142  0.64634763  1
  S2-  S150  1  0.40050069  0.87714975  0.14758799  1
  S2-  S151  1  0.59024760  0.86892708  0.64220955  1
  S2-  S152  1  0.76315857  0.11394822  0.15565812  1
  S2-  S153  1  0.74485769  0.03066948  0.64862828  1
  S2-  S154  1  0.76557546  0.41681623  0.15374359  1
  S2-  S155  1  0.73858252  0.25246655  0.64740269  1
  S2-  S156  1  0.71542784  0.65355300  0.17181520  1
  S2-  S157  1  0.73493334  0.54262010  0.63884252  1
  S2-  S158  1  0.64563203  0.87565481  0.14611858  1
  S2-  S159  1  0.85705078  0.84750424  0.64231614  1
  S2-  S160  1  0.10305594  0.02437929  0.34373245  1
  S2-  S161  1  0.16313540  -0.00131165  0.84983533  1
  S2-  S162  1  0.18288073  0.25790002  0.34276894  1
  S2-  S163  1  0.09394914  0.25650680  0.82982456  1
  S2-  S164  1  0.08949784  0.48318744  0.34360444  1
  S2-  S165  1  0.09947185  0.49805431  0.83648527  1
  S2-  S166  1  0.20274927  0.76016075  0.35856049  1
  S2-  S167  1  0.18790137  0.77201803  0.83894754  1
  S2-  S168  1  0.34965940  0.10359799  0.34925699  1
  S2-  S169  1  0.41372655  0.01334839  0.84594669  1
  S2-  S170  1  0.33980435  0.26135880  0.26943940  1
  S2-  S171  1  0.30125271  0.24814489  0.85776913  1
  S2-  S172  1  0.34893980  0.44433351  0.34633800  1
  S2-  S173  1  0.30866253  0.49233419  0.85433976  1
  S2-  S174  1  0.36378735  0.88631941  0.35974796  1
  S2-  S175  1  0.40715550  0.77568907  0.85175005  1
  S2-  S176  1  0.59056530  -0.10072003  0.36005644  1
  S2-  S177  1  0.65553675  0.00456140  0.84341328  1
  S2-  S178  1  0.51992597  0.27125463  0.34446247  1
  S2-  S179  1  0.62635318  0.24783981  0.84776887  1
  S2-  S180  1  0.60679763  0.51500604  0.34026278  1
  S2-  S181  1  0.62980212  0.48441652  0.84850315  1
  S2-  S182  1  0.71904709  0.72783010  0.35113947  1
  S2-  S183  1  0.75321105  0.75462259  0.87166722  1
  S2-  S184  1  0.84849722  -0.08431459  0.36023298  1
  S2-  S185  1  0.91266877  -0.01522576  0.84473461  1
  S2-  S186  1  0.95930176  0.25517674  0.35639148  1
  S2-  S187  1  0.85656494  0.22607007  0.84907734  1
  S2-  S188  1  0.85417598  0.53510714  0.33632805  1
  S2-  S189  1  0.86084754  0.51887841  0.84887799  1
  S2-  S190  1  0.98077667  0.75331110  0.35299810  1
  S2-  S191  1  0.99777192  0.73959497  0.86120161  1
  S2-  S192  1  -0.03045356  0.12679873  0.45239703  1
  S2-  S193  1  0.02663028  0.12038677  0.94890704  1
  S2-  S194  1  -0.02994387  0.38652179  0.45107216  1
  S2-  S195  1  0.02922580  0.36527072  0.94571840  1
  S2-  S196  1  -0.02894386  0.62676630  0.44775715  1
  S2-  S197  1  0.02738744  0.61067927  0.95697441  1
  S2-  S198  1  -0.02799815  0.88644788  0.46040513  1
  S2-  S199  1  0.02307821  0.87266044  0.96421335  1
  S2-  S200  1  0.21561571  0.13038917  0.45096630  1
  S2-  S201  1  0.27860931  0.11599890  0.95398739  1
  S2-  S202  1  0.22248297  0.38246924  0.45208807  1
  S2-  S203  1  0.28054105  0.36889423  0.95716659  1
  S2-  S204  1  0.22092053  0.62928560  0.44845240  1
  S2-  S205  1  0.27395961  0.62152583  0.95633247  1
  S2-  S206  1  0.21804541  0.88488261  0.46012057  1
  S2-  S207  1  0.27321968  0.86549466  0.96211950  1
  S2-  S208  1  0.47343015  0.13270412  0.45135727  1
  S2-  S209  1  0.52442678  0.12094294  0.95585855  1
  S2-  S210  1  0.47039823  0.38260319  0.45053925  1
  S2-  S211  1  0.52388635  0.36627521  0.94915691  1
  S2-  S212  1  0.47249689  0.63817615  0.44504998  1
  S2-  S213  1  0.52720525  0.61990614  0.95708504  1
  S2-  S214  1  0.47142583  0.88030211  0.46316031  1
  S2-  S215  1  0.52747847  0.86372465  0.96366611  1
  S2-  S216  1  0.72305965  0.13206633  0.46590346  1
  S2-  S217  1  0.77540202  0.12027481  0.95403976  1
  S2-  S218  1  0.71822750  0.38465554  0.44299306  1
  S2-  S219  1  0.77497071  0.36534070  0.95382402  1
  S2-  S220  1  0.71810548  0.62950173  0.45200220  1
  S2-  S221  1  0.77425421  0.61384720  0.96610672  1
  S2-  S222  1  0.72350327  0.88339725  0.46291119  1
  S2-  S223  1  0.77440587  0.87369983  0.96872017  1
  S2-  S224  1  0.15714212  0.00002636  0.05266463  1
  S2-  S225  1  0.09450837  0.01025202  0.54532152  1
  S2-  S226  1  0.15876414  0.24209072  0.03646042  1
  S2-  S227  1  0.09539268  0.25882282  0.53828387  1
  S2-  S228  1  0.15627053  0.48864708  0.03749330  1
  S2-  S229  1  0.09681149  0.50976134  0.54282073  1
  S2-  S230  1  0.15193510  0.74485104  0.04176866  1
  S2-  S231  1  0.09545170  0.75345821  0.53903925  1
  S2-  S232  1  0.39701504  -0.00398699  0.04767703  1
  S2-  S233  1  0.35040943  0.00982102  0.54348278  1
  S2-  S234  1  0.39935132  0.24454604  0.04123688  1
  S2-  S235  1  0.35027087  0.25925778  0.55646565  1
  S2-  S236  1  0.39717202  0.49552778  0.04021207  1
  S2-  S237  1  0.34777414  0.50990350  0.54447371  1
  S2-  S238  1  0.39738737  0.74018167  0.05163393  1
  S2-  S239  1  0.34607071  0.75561821  0.53719607  1
  S2-  S240  1  0.64775252  -0.00188202  0.04829191  1
  S2-  S241  1  0.59854726  0.01033287  0.54563645  1
  S2-  S242  1  0.64917683  0.24525743  0.04784369  1
  S2-  S243  1  0.60065159  0.26065968  0.54089233  1
  S2-  S244  1  0.65058354  0.49400171  0.05068947  1
  S2-  S245  1  0.59717753  0.50874395  0.53889985  1
  S2-  S246  1  0.65066938  0.74004803  0.05115815  1
  S2-  S247  1  0.59803551  0.75703332  0.53778432  1
  S2-  S248  1  0.90113115  -0.00056857  0.04738696  1
  S2-  S249  1  0.84981493  0.01089857  0.54607432  1
  S2-  S250  1  0.90113946  0.24407008  0.04514581  1
  S2-  S251  1  0.84580489  0.26228112  0.54202244  1
  S2-  S252  1  0.90413757  0.48773858  0.04579493  1
  S2-  S253  1  0.84439936  0.50399329  0.53847688  1
  S2-  S254  1  0.89917726  0.74317791  0.04506865  1
  S2-  S255  1  0.84627413  0.75418277  0.53595072  1
