# generated using pymatgen
data_La6Ce6Pr19Nd20Sm13(BiS2)64
_symmetry_space_group_name_H-M   'P 1'
_cell_length_a   16.18949249
_cell_length_b   16.16571087
_cell_length_c   27.15196534
_cell_angle_alpha   89.97727802
_cell_angle_beta   90.10678579
_cell_angle_gamma   90.00880750
_symmetry_Int_Tables_number   1
_chemical_formula_structural   La6Ce6Pr19Nd20Sm13(BiS2)64
_chemical_formula_sum   'La6 Ce6 Pr19 Nd20 Sm13 Bi64 S128'
_cell_volume   7106.05424615
_cell_formula_units_Z   1
loop_
 _symmetry_equiv_pos_site_id
 _symmetry_equiv_pos_as_xyz
  1  'x, y, z'
loop_
 _atom_type_symbol
 _atom_type_oxidation_number
  La3+  3.0
  Ce3+  3.0
  Pr3+  3.0
  Nd3+  3.0
  Sm3+  3.0
  Bi2+  2.0
  S2-  -2.0
loop_
 _atom_site_type_symbol
 _atom_site_label
 _atom_site_symmetry_multiplicity
 _atom_site_fract_x
 _atom_site_fract_y
 _atom_site_fract_z
 _atom_site_occupancy
  La3+  La0  1  -0.01023217  0.61302725  0.59331258  1
  La3+  La1  1  0.51637138  0.38618705  0.09965021  1
  La3+  La2  1  0.01297549  0.64296009  0.08055358  1
  La3+  La3  1  0.88479170  0.00620533  0.91379362  1
  La3+  La4  1  0.37852053  0.24794748  0.39135944  1
  La3+  La5  1  0.38059266  0.01332900  0.91402330  1
  Ce3+  Ce6  1  0.63714907  0.25679552  0.94396154  1
  Ce3+  Ce7  1  0.36749371  0.74946528  0.44204055  1
  Ce3+  Ce8  1  0.38823012  0.50538245  0.94446524  1
  Ce3+  Ce9  1  0.88730029  0.75353796  0.92875059  1
  Ce3+  Ce10  1  -0.00631951  0.12061355  0.55626053  1
  Ce3+  Ce11  1  0.36727610  0.49151969  0.44051310  1
  Pr3+  Pr12  1  0.49392178  0.61783050  0.56406814  1
  Pr3+  Pr13  1  0.61513960  0.49397791  0.43358668  1
  Pr3+  Pr14  1  0.76259399  0.12994253  0.06145774  1
  Pr3+  Pr15  1  0.74553556  0.87001657  0.57187005  1
  Pr3+  Pr16  1  0.24493151  0.12410999  0.56190311  1
  Pr3+  Pr17  1  0.38859848  0.25788659  0.93786179  1
  Pr3+  Pr18  1  0.86890028  0.74865494  0.43570077  1
  Pr3+  Pr19  1  0.61207490  -0.00441538  0.45182885  1
  Pr3+  Pr20  1  0.13563492  0.00960333  0.94591098  1
  Pr3+  Pr21  1  0.27442715  0.13814283  0.06501459  1
  Pr3+  Pr22  1  0.13428693  0.51000048  0.94366658  1
  Pr3+  Pr23  1  0.61602678  0.74735284  0.44580727  1
  Pr3+  Pr24  1  0.75973401  0.63573606  0.06009770  1
  Pr3+  Pr25  1  0.11899884  0.24376527  0.43170835  1
  Pr3+  Pr26  1  0.26626076  0.88798040  0.05890100  1
  Pr3+  Pr27  1  0.26466540  0.63311697  0.06043572  1
  Pr3+  Pr28  1  0.48862548  0.13017498  0.57570452  1
  Pr3+  Pr29  1  0.26210307  0.38323833  0.05912674  1
  Pr3+  Pr30  1  0.86575983  0.24385255  0.43297839  1
  Nd3+  Nd31  1  0.11502191  0.74520647  0.44848344  1
  Nd3+  Nd32  1  0.01205736  0.38364262  0.06224403  1
  Nd3+  Nd33  1  0.24107376  0.37330580  0.55666920  1
  Nd3+  Nd34  1  0.38563570  0.75783638  0.93788023  1
  Nd3+  Nd35  1  0.00873708  0.13061527  0.05736047  1
  Nd3+  Nd36  1  0.76141948  0.88448389  0.04560021  1
  Nd3+  Nd37  1  0.36752590  -0.00699469  0.43906943  1
  Nd3+  Nd38  1  0.63268894  0.01923014  0.91321729  1
  Nd3+  Nd39  1  0.75975199  0.38461200  0.06249586  1
  Nd3+  Nd40  1  0.11241972  0.49764275  0.43241544  1
  Nd3+  Nd41  1  -0.00732095  0.86973687  0.56105719  1
  Nd3+  Nd42  1  0.13510848  0.75802540  0.94025174  1
  Nd3+  Nd43  1  0.24331335  0.86895773  0.56956551  1
  Nd3+  Nd44  1  0.74270893  0.37152078  0.55762377  1
  Nd3+  Nd45  1  0.51999794  0.12330046  0.06633126  1
  Nd3+  Nd46  1  0.49193623  0.86416420  0.57935401  1
  Nd3+  Nd47  1  0.74393639  0.12204274  0.56669703  1
  Nd3+  Nd48  1  -0.00855919  0.37066722  0.55860982  1
  Nd3+  Nd49  1  0.51331166  0.88741138  0.04500984  1
  Nd3+  Nd50  1  0.51319572  0.63299526  0.05637596  1
  Sm3+  Sm51  1  0.63560324  0.75978822  0.93288755  1
  Sm3+  Sm52  1  0.00836727  0.88371425  0.05507232  1
  Sm3+  Sm53  1  0.74686673  0.61837135  0.55595882  1
  Sm3+  Sm54  1  0.86554222  -0.00560683  0.44565664  1
  Sm3+  Sm55  1  0.49282701  0.37180255  0.55973097  1
  Sm3+  Sm56  1  0.86798625  0.49609190  0.43850925  1
  Sm3+  Sm57  1  0.63519735  0.50710583  0.94125878  1
  Sm3+  Sm58  1  0.11974492  -0.00383863  0.44537288  1
  Sm3+  Sm59  1  0.62049514  0.24135182  0.44205289  1
  Sm3+  Sm60  1  0.24065964  0.61824113  0.55219965  1
  Sm3+  Sm61  1  0.88468833  0.25840914  0.94430514  1
  Sm3+  Sm62  1  0.13291372  0.25875074  0.94636839  1
  Sm3+  Sm63  1  0.88585503  0.51563029  0.94224417  1
  Bi2+  Bi64  1  0.03940921  0.11671423  0.31576800  1
  Bi2+  Bi65  1  -0.02924492  0.08597432  0.79390190  1
  Bi2+  Bi66  1  -0.03913716  0.29494510  0.31609295  1
  Bi2+  Bi67  1  -0.00585458  0.40803795  0.78655950  1
  Bi2+  Bi68  1  0.00184277  0.62763278  0.30436132  1
  Bi2+  Bi69  1  0.02482525  0.62546806  0.79358456  1
  Bi2+  Bi70  1  -0.03657251  0.85803264  0.30910464  1
  Bi2+  Bi71  1  -0.00003493  0.89876659  0.76726561  1
  Bi2+  Bi72  1  0.23020673  0.08521209  0.29561963  1
  Bi2+  Bi73  1  0.22866216  0.13983373  0.79668013  1
  Bi2+  Bi74  1  0.22723116  0.39508422  0.29208656  1
  Bi2+  Bi75  1  0.30862762  0.38386873  0.78696262  1
  Bi2+  Bi76  1  0.30379835  0.67635757  0.29390046  1
  Bi2+  Bi77  1  0.25582911  0.57649955  0.77411589  1
  Bi2+  Bi78  1  0.22464030  0.85500213  0.27648518  1
  Bi2+  Bi79  1  0.23812876  0.85581793  0.80254658  1
  Bi2+  Bi80  1  0.51485656  0.10868440  0.29401465  1
  Bi2+  Bi81  1  0.49314545  0.18001328  0.78091617  1
  Bi2+  Bi82  1  0.50265431  0.37498406  0.28471905  1
  Bi2+  Bi83  1  0.51567730  0.36829725  0.79039515  1
  Bi2+  Bi84  1  0.49447478  0.63637081  0.28963609  1
  Bi2+  Bi85  1  0.52216151  0.57194354  0.78939688  1
  Bi2+  Bi86  1  0.50155461  0.86756861  0.29906052  1
  Bi2+  Bi87  1  0.49709377  0.83807679  0.79771656  1
  Bi2+  Bi88  1  0.79120411  0.09869896  0.27285778  1
  Bi2+  Bi89  1  0.74373071  0.15567789  0.78957034  1
  Bi2+  Bi90  1  0.74266644  0.36349692  0.29647445  1
  Bi2+  Bi91  1  0.72588349  0.39552778  0.78794679  1
  Bi2+  Bi92  1  0.75655083  0.68412257  0.25098776  1
  Bi2+  Bi93  1  0.78294940  0.61530183  0.77781041  1
  Bi2+  Bi94  1  0.73242725  0.87947621  0.28354280  1
  Bi2+  Bi95  1  0.76152228  0.86864853  0.78288457  1
  Bi2+  Bi96  1  0.06138358  -0.02943245  0.23840181  1
  Bi2+  Bi97  1  0.11226894  0.03778121  0.71549045  1
  Bi2+  Bi98  1  0.07508775  0.25307341  0.22773301  1
  Bi2+  Bi99  1  0.08525382  0.24521820  0.74506749  1
  Bi2+  Bi100  1  0.12721662  0.49064103  0.20697656  1
  Bi2+  Bi101  1  0.14637951  0.46363231  0.70222498  1
  Bi2+  Bi102  1  0.12111871  0.72847436  0.21160725  1
  Bi2+  Bi103  1  0.19197795  0.73819622  0.70990604  1
  Bi2+  Bi104  1  0.37624935  0.00821121  0.19137055  1
  Bi2+  Bi105  1  0.36840885  0.00027190  0.71047478  1
  Bi2+  Bi106  1  0.32202601  0.24843805  0.19504547  1
  Bi2+  Bi107  1  0.35143834  0.26350044  0.70488256  1
  Bi2+  Bi108  1  0.38070411  0.55427816  0.21041340  1
  Bi2+  Bi109  1  0.41429478  0.47886695  0.69672550  1
  Bi2+  Bi110  1  0.40570192  0.76728008  0.20614447  1
  Bi2+  Bi111  1  0.40100965  0.67584060  0.72123994  1
  Bi2+  Bi112  1  0.63904174  -0.02277448  0.20022209  1
  Bi2+  Bi113  1  0.61753142  -0.00426526  0.71471211  1
  Bi2+  Bi114  1  0.67885149  0.23428077  0.21776411  1
  Bi2+  Bi115  1  0.63604300  0.31375249  0.69876146  1
  Bi2+  Bi116  1  0.65764886  0.52224805  0.20891740  1
  Bi2+  Bi117  1  0.60048890  0.49739845  0.65731745  1
  Bi2+  Bi118  1  0.60049990  0.77013917  0.20077576  1
  Bi2+  Bi119  1  0.62860669  0.66636718  0.71113035  1
  Bi2+  Bi120  1  0.89387984  0.03012378  0.17827269  1
  Bi2+  Bi121  1  0.86480420  0.00979750  0.69675550  1
  Bi2+  Bi122  1  0.86751005  0.22269047  0.19280002  1
  Bi2+  Bi123  1  0.88868805  0.25862510  0.74174438  1
  Bi2+  Bi124  1  0.89211844  0.43291229  0.24480519  1
  Bi2+  Bi125  1  0.85725295  0.47473034  0.71104914  1
  Bi2+  Bi126  1  0.87637309  0.83597649  0.20526315  1
  Bi2+  Bi127  1  0.87926089  0.74325239  0.70962031  1
  S2-  S128  1  0.02890493  0.15152829  0.15532436  1
  S2-  S129  1  -0.01467854  0.11253406  0.65309964  1
  S2-  S130  1  0.00758079  0.39179991  0.16218302  1
  S2-  S131  1  0.00513894  0.45844279  0.64438086  1
  S2-  S132  1  0.00850529  0.60396468  0.18153699  1
  S2-  S133  1  0.03184738  0.67068705  0.68903645  1
  S2-  S134  1  0.01475227  0.79675785  0.13934232  1
  S2-  S135  1  -0.03468437  0.87157893  0.65865693  1
  S2-  S136  1  0.24899812  0.09841265  0.16316603  1
  S2-  S137  1  0.25563906  0.10398313  0.66287779  1
  S2-  S138  1  0.23494297  0.39281104  0.15876685  1
  S2-  S139  1  0.21478473  0.33418703  0.65296382  1
  S2-  S140  1  0.22510753  0.62760244  0.15850131  1
  S2-  S141  1  0.22889685  0.59516346  0.64856401  1
  S2-  S142  1  0.28565713  0.87591857  0.15887568  1
  S2-  S143  1  0.27149462  0.86783419  0.66873186  1
  S2-  S144  1  0.44418625  0.17843754  0.15095885  1
  S2-  S145  1  0.50161954  0.09275056  0.67825538  1
  S2-  S146  1  0.44727421  0.39078687  0.19467947  1
  S2-  S147  1  0.48729254  0.27927709  0.64283880  1
  S2-  S148  1  0.52149386  0.55882473  0.14648013  1
  S2-  S149  1  0.50195395  0.72169102  0.64484880  1
  S2-  S150  1  0.50274629  0.96955295  0.13251248  1
  S2-  S151  1  0.49209014  0.90574879  0.67979521  1
  S2-  S152  1  0.65589840  0.11612362  0.14037898  1
  S2-  S153  1  0.73856955  0.10215849  0.66630082  1
  S2-  S154  1  0.67185850  0.38210157  0.15013322  1
  S2-  S155  1  0.79282162  0.34384844  0.65132985  1
  S2-  S156  1  0.77677910  0.59791015  0.15776569  1
  S2-  S157  1  0.83199474  0.62513063  0.64145142  1
  S2-  S158  1  0.72998177  0.85733322  0.14288552  1
  S2-  S159  1  0.72309713  0.87140439  0.67364994  1
  S2-  S160  1  0.18909109  -0.03456872  0.35565601  1
  S2-  S161  1  0.17762147  0.00171825  0.84907238  1
  S2-  S162  1  0.21659377  0.24963967  0.34721743  1
  S2-  S163  1  0.14039972  0.25206425  0.84873948  1
  S2-  S164  1  0.13582832  0.51119885  0.33182849  1
  S2-  S165  1  0.10403143  0.50319350  0.84426032  1
  S2-  S166  1  0.09028309  0.74775250  0.34943180  1
  S2-  S167  1  0.11225167  0.74279871  0.84138160  1
  S2-  S168  1  0.37859431  0.08207502  0.35286154  1
  S2-  S169  1  0.36626018  -0.04931776  0.81467711  1
  S2-  S170  1  0.39948367  0.23839162  0.27994469  1
  S2-  S171  1  0.38057417  0.15924828  0.85349362  1
  S2-  S172  1  0.37386536  0.41861599  0.35099737  1
  S2-  S173  1  0.36374670  0.51818252  0.84885006  1
  S2-  S174  1  0.38307778  0.85911345  0.36801986  1
  S2-  S175  1  0.35949027  0.75205044  0.84000892  1
  S2-  S176  1  0.59258722  -0.00424205  0.35083054  1
  S2-  S177  1  0.55890287  -0.02184437  0.82060759  1
  S2-  S178  1  0.54563209  0.24323492  0.35460313  1
  S2-  S179  1  0.62218333  0.17987465  0.85547982  1
  S2-  S180  1  0.62429329  0.48144790  0.33324066  1
  S2-  S181  1  0.67057474  0.52970771  0.84585407  1
  S2-  S182  1  0.59180210  0.74044709  0.34663954  1
  S2-  S183  1  0.64744544  0.77472575  0.83405137  1
  S2-  S184  1  0.84383058  -0.03445635  0.34965667  1
  S2-  S185  1  0.76097857  0.01536193  0.84168256  1
  S2-  S186  1  0.76054644  0.22011969  0.35331933  1
  S2-  S187  1  0.87730407  0.22031828  0.84889145  1
  S2-  S188  1  0.91571328  0.49693156  0.34325634  1
  S2-  S189  1  0.89460473  0.62235701  0.86285292  1
  S2-  S190  1  0.85969858  0.70348030  0.33803967  1
  S2-  S191  1  0.89603452  0.85542872  0.84539586  1
  S2-  S192  1  -0.00876083  0.11660127  0.45063711  1
  S2-  S193  1  0.00895301  0.13482683  0.95040823  1
  S2-  S194  1  -0.00857711  0.37015978  0.45154113  1
  S2-  S195  1  0.00695362  0.38419162  0.95407056  1
  S2-  S196  1  -0.01096477  0.62034146  0.45251177  1
  S2-  S197  1  0.01350416  0.63387278  0.96532222  1
  S2-  S198  1  -0.00656993  0.87469915  0.45471312  1
  S2-  S199  1  0.01227670  0.88387737  0.95044809  1
  S2-  S200  1  0.24050734  0.11781601  0.45543678  1
  S2-  S201  1  0.25692653  0.13777648  0.95738135  1
  S2-  S202  1  0.23703506  0.37534441  0.45110578  1
  S2-  S203  1  0.25849060  0.38088729  0.95122272  1
  S2-  S204  1  0.24093123  0.62057570  0.44690788  1
  S2-  S205  1  0.26126626  0.63355911  0.95277508  1
  S2-  S206  1  0.23885128  0.86900863  0.46367549  1
  S2-  S207  1  0.26218775  0.88265949  0.95104514  1
  S2-  S208  1  0.49317299  0.12286458  0.46410954  1
  S2-  S209  1  0.51046109  0.13157190  0.95596180  1
  S2-  S210  1  0.49508360  0.36737268  0.45594897  1
  S2-  S211  1  0.51419771  0.38328228  0.94096009  1
  S2-  S212  1  0.49101645  0.61984040  0.45418160  1
  S2-  S213  1  0.51340827  0.63348273  0.94838380  1
  S2-  S214  1  0.49310889  0.86901715  0.47114149  1
  S2-  S215  1  0.50957892  0.88366177  0.93960222  1
  S2-  S216  1  0.74234809  0.11538425  0.45933904  1
  S2-  S217  1  0.76555329  0.13438825  0.95448071  1
  S2-  S218  1  0.74302416  0.37222601  0.44989724  1
  S2-  S219  1  0.76447805  0.38739320  0.95311468  1
  S2-  S220  1  0.74359233  0.61923044  0.44948026  1
  S2-  S221  1  0.75486371  0.63354846  0.95353836  1
  S2-  S222  1  0.74251165  0.87150252  0.46012159  1
  S2-  S223  1  0.75816450  0.88099838  0.94186619  1
  S2-  S224  1  0.13453211  0.00764362  0.05283603  1
  S2-  S225  1  0.11886587  -0.00583906  0.55202729  1
  S2-  S226  1  0.13525368  0.25593492  0.05151833  1
  S2-  S227  1  0.11616106  0.24690654  0.54235518  1
  S2-  S228  1  0.13441342  0.50973047  0.05105348  1
  S2-  S229  1  0.11482771  0.49911757  0.54032719  1
  S2-  S230  1  0.14204554  0.76180092  0.04595046  1
  S2-  S231  1  0.11537448  0.74195963  0.55580499  1
  S2-  S232  1  0.38539650  0.01065187  0.03214698  1
  S2-  S233  1  0.36924277  -0.00635692  0.55443273  1
  S2-  S234  1  0.39489599  0.26842974  0.04477228  1
  S2-  S235  1  0.36379265  0.25149867  0.54846244  1
  S2-  S236  1  0.39022255  0.50496009  0.05043609  1
  S2-  S237  1  0.36785272  0.49542478  0.54761401  1
  S2-  S238  1  0.39020417  0.75903115  0.04583487  1
  S2-  S239  1  0.36283339  0.74205735  0.54923690  1
  S2-  S240  1  0.64087409  0.00545785  0.02905658  1
  S2-  S241  1  0.61683226  -0.00451385  0.55971331  1
  S2-  S242  1  0.63439401  0.26204878  0.04740650  1
  S2-  S243  1  0.62112886  0.24605998  0.54783540  1
  S2-  S244  1  0.63562943  0.50661870  0.04431138  1
  S2-  S245  1  0.62071081  0.49619028  0.54040698  1
  S2-  S246  1  0.63414943  0.75868984  0.03885088  1
  S2-  S247  1  0.62661202  0.74209444  0.55137527  1
  S2-  S248  1  0.88733957  0.00598702  0.03514521  1
  S2-  S249  1  0.86742223  -0.00467686  0.55076033  1
  S2-  S250  1  0.88593943  0.25980537  0.04971300  1
  S2-  S251  1  0.86791215  0.24494771  0.54243800  1
  S2-  S252  1  0.88682860  0.50877735  0.04843161  1
  S2-  S253  1  0.86784910  0.49430794  0.54248687  1
  S2-  S254  1  0.88501172  0.75940250  0.03971818  1
  S2-  S255  1  0.86890157  0.74673753  0.54427329  1
