# generated using pymatgen
data_La6Ce6Pr19Nd20Sm13(BiS2)64
_symmetry_space_group_name_H-M   'P 1'
_cell_length_a   16.11019834
_cell_length_b   16.10058755
_cell_length_c   27.23006789
_cell_angle_alpha   90.08643119
_cell_angle_beta   90.13395828
_cell_angle_gamma   90.06102213
_symmetry_Int_Tables_number   1
_chemical_formula_structural   La6Ce6Pr19Nd20Sm13(BiS2)64
_chemical_formula_sum   'La6 Ce6 Pr19 Nd20 Sm13 Bi64 S128'
_cell_volume   7063.00326424
_cell_formula_units_Z   1
loop_
 _symmetry_equiv_pos_site_id
 _symmetry_equiv_pos_as_xyz
  1  'x, y, z'
loop_
 _atom_type_symbol
 _atom_type_oxidation_number
  La3+  3.0
  Ce3+  3.0
  Pr3+  3.0
  Nd3+  3.0
  Sm3+  3.0
  Bi2+  2.0
  S2-  -2.0
loop_
 _atom_site_type_symbol
 _atom_site_label
 _atom_site_symmetry_multiplicity
 _atom_site_fract_x
 _atom_site_fract_y
 _atom_site_fract_z
 _atom_site_occupancy
  La3+  La0  1  0.36788310  0.23941218  0.93092335  1
  La3+  La1  1  0.49346012  0.86012298  0.07375335  1
  La3+  La2  1  0.49797047  0.63177831  0.57584021  1
  La3+  La3  1  -0.01966148  0.86900318  0.07687116  1
  La3+  La4  1  0.62664184  -0.00565483  0.89108561  1
  La3+  La5  1  0.13015187  0.74812082  0.38697211  1
  Ce3+  Ce6  1  0.73983914  0.61383543  0.05303694  1
  Ce3+  Ce7  1  0.24100526  0.86700093  0.06568595  1
  Ce3+  Ce8  1  0.88646204  0.50710456  0.44408205  1
  Ce3+  Ce9  1  0.86417924  0.48968200  0.93569954  1
  Ce3+  Ce10  1  0.13819444  0.50392511  0.43955241  1
  Ce3+  Ce11  1  0.75980910  0.38138591  0.56251387  1
  Pr3+  Pr12  1  0.88448137  0.75485008  0.43795016  1
  Pr3+  Pr13  1  0.11647080  -0.01054427  0.94113502  1
  Pr3+  Pr14  1  0.50728033  0.87977044  0.56438446  1
  Pr3+  Pr15  1  0.85755687  0.23641118  0.92975841  1
  Pr3+  Pr16  1  0.60441116  0.73956630  0.92068224  1
  Pr3+  Pr17  1  0.23888894  0.60697437  0.08097835  1
  Pr3+  Pr18  1  0.63197226  0.50509292  0.44882626  1
  Pr3+  Pr19  1  0.63292088  0.00069634  0.44309045  1
  Pr3+  Pr20  1  0.38308309  0.00286748  0.43581182  1
  Pr3+  Pr21  1  -0.00496759  0.12495630  0.07366677  1
  Pr3+  Pr22  1  0.61431189  0.49134813  0.92869700  1
  Pr3+  Pr23  1  0.00475794  0.12915477  0.56771300  1
  Pr3+  Pr24  1  0.61230173  0.24163340  0.93091653  1
  Pr3+  Pr25  1  0.87415600  -0.00199952  0.43350204  1
  Pr3+  Pr26  1  0.13216554  0.24885872  0.43099874  1
  Pr3+  Pr27  1  0.11882032  0.23684589  0.92898169  1
  Pr3+  Pr28  1  0.11699074  0.49500351  0.93379873  1
  Pr3+  Pr29  1  0.73939920  0.36016076  0.06440060  1
  Pr3+  Pr30  1  0.36931800  -0.01497150  0.94111034  1
  Nd3+  Nd31  1  0.63472946  0.25425948  0.44244402  1
  Nd3+  Nd32  1  0.38405334  0.49809228  0.43904011  1
  Nd3+  Nd33  1  -0.01260681  0.61485746  0.06110636  1
  Nd3+  Nd34  1  0.86556476  0.74359969  0.93592155  1
  Nd3+  Nd35  1  0.87364006  -0.00869356  0.93365120  1
  Nd3+  Nd36  1  0.51523839  0.37692997  0.57059732  1
  Nd3+  Nd37  1  0.25822083  0.87946707  0.55179294  1
  Nd3+  Nd38  1  0.49518929  0.61125217  0.06952437  1
  Nd3+  Nd39  1  0.49137888  0.36481474  0.06818431  1
  Nd3+  Nd40  1  0.51912179  0.12843782  0.57120827  1
  Nd3+  Nd41  1  -0.00934317  0.36276075  0.04979034  1
  Nd3+  Nd42  1  0.11689712  0.73994742  0.95111297  1
  Nd3+  Nd43  1  0.26069649  0.12644531  0.55801992  1
  Nd3+  Nd44  1  0.74562697  0.11483929  0.06342295  1
  Nd3+  Nd45  1  0.88425481  0.25306598  0.44209343  1
  Nd3+  Nd46  1  0.24118688  0.11872186  0.06977842  1
  Nd3+  Nd47  1  0.01184758  0.87971580  0.55839160  1
  Nd3+  Nd48  1  0.38752374  0.74491914  0.42056071  1
  Nd3+  Nd49  1  0.77027858  0.86945203  0.58670743  1
  Nd3+  Nd50  1  0.76346641  0.12521658  0.56713714  1
  Sm3+  Sm51  1  0.24140974  0.36562485  0.05973762  1
  Sm3+  Sm52  1  0.26034259  0.62724550  0.55593042  1
  Sm3+  Sm53  1  0.73925973  0.86638658  0.04938221  1
  Sm3+  Sm54  1  0.01554569  0.62951279  0.55536615  1
  Sm3+  Sm55  1  0.12828869  0.00302911  0.43083061  1
  Sm3+  Sm56  1  0.26047843  0.36550972  0.56725036  1
  Sm3+  Sm57  1  0.38475245  0.25519222  0.44123764  1
  Sm3+  Sm58  1  0.49428615  0.11285216  0.05134648  1
  Sm3+  Sm59  1  0.01164825  0.38086390  0.55340062  1
  Sm3+  Sm60  1  0.36779341  0.49176758  0.94693824  1
  Sm3+  Sm61  1  0.36856165  0.73865631  0.95120715  1
  Sm3+  Sm62  1  0.62857980  0.75301997  0.44659987  1
  Sm3+  Sm63  1  0.76013992  0.63242850  0.55997104  1
  Bi2+  Bi64  1  -0.00667289  0.13829669  0.28861596  1
  Bi2+  Bi65  1  0.05776643  0.10687148  0.80296331  1
  Bi2+  Bi66  1  0.00933770  0.34013449  0.29701405  1
  Bi2+  Bi67  1  0.01742809  0.39269434  0.78903829  1
  Bi2+  Bi68  1  -0.00165531  0.61165735  0.28904215  1
  Bi2+  Bi69  1  -0.06854513  0.56673469  0.81075173  1
  Bi2+  Bi70  1  0.00197833  0.88551044  0.28226312  1
  Bi2+  Bi71  1  0.08544923  0.86388700  0.79784191  1
  Bi2+  Bi72  1  0.33996981  0.20288144  0.30978090  1
  Bi2+  Bi73  1  0.24496175  0.07116861  0.84059620  1
  Bi2+  Bi74  1  0.20174741  0.33970821  0.31512571  1
  Bi2+  Bi75  1  0.16918144  0.27556347  0.76636962  1
  Bi2+  Bi76  1  0.27415853  0.62097694  0.28422498  1
  Bi2+  Bi77  1  0.21911173  0.62037081  0.80420544  1
  Bi2+  Bi78  1  0.26570434  0.91218485  0.27581819  1
  Bi2+  Bi79  1  0.27929520  0.87858437  0.81388658  1
  Bi2+  Bi80  1  0.49425198  0.08206006  0.30603574  1
  Bi2+  Bi81  1  0.44309279  0.12043597  0.79168303  1
  Bi2+  Bi82  1  0.51321730  0.38410519  0.29746947  1
  Bi2+  Bi83  1  0.54230969  0.39570908  0.80287924  1
  Bi2+  Bi84  1  0.52438469  0.63167741  0.28776405  1
  Bi2+  Bi85  1  0.48699746  0.60082907  0.79649236  1
  Bi2+  Bi86  1  0.58451110  0.89660845  0.30714574  1
  Bi2+  Bi87  1  0.47627243  0.84975887  0.78812691  1
  Bi2+  Bi88  1  0.68426303  0.13123395  0.27386683  1
  Bi2+  Bi89  1  0.78548302  0.13801620  0.78689223  1
  Bi2+  Bi90  1  0.74753103  0.32056890  0.28547632  1
  Bi2+  Bi91  1  0.76286864  0.35841672  0.77440465  1
  Bi2+  Bi92  1  0.71760434  0.59007298  0.28001997  1
  Bi2+  Bi93  1  0.78157806  0.62879300  0.73888718  1
  Bi2+  Bi94  1  0.76593689  0.83187172  0.29163483  1
  Bi2+  Bi95  1  0.76877532  0.87471330  0.77666133  1
  Bi2+  Bi96  1  0.17097568  0.08204363  0.24988260  1
  Bi2+  Bi97  1  0.13269893  -0.06397098  0.67948257  1
  Bi2+  Bi98  1  0.13129080  0.25919740  0.19758569  1
  Bi2+  Bi99  1  0.10215008  0.13955270  0.68889259  1
  Bi2+  Bi100  1  0.13403728  0.45302899  0.23002279  1
  Bi2+  Bi101  1  0.12589866  0.53536859  0.71129497  1
  Bi2+  Bi102  1  0.13133772  0.74765899  0.18005618  1
  Bi2+  Bi103  1  0.12739716  0.73306599  0.70179898  1
  Bi2+  Bi104  1  0.35897612  0.08606917  0.21190390  1
  Bi2+  Bi105  1  0.29987222  0.02382034  0.73143780  1
  Bi2+  Bi106  1  0.32427976  0.26854655  0.16845178  1
  Bi2+  Bi107  1  0.33444912  0.30355909  0.71163536  1
  Bi2+  Bi108  1  0.39195206  0.43408128  0.21291206  1
  Bi2+  Bi109  1  0.33158883  0.53845645  0.72160749  1
  Bi2+  Bi110  1  0.39057898  0.79550803  0.20623970  1
  Bi2+  Bi111  1  0.32163096  0.74066161  0.72863868  1
  Bi2+  Bi112  1  0.61418611  -0.00694061  0.20593989  1
  Bi2+  Bi113  1  0.58198845  0.00792713  0.70142604  1
  Bi2+  Bi114  1  0.53034171  0.29197382  0.19544397  1
  Bi2+  Bi115  1  0.57640402  0.25206391  0.69959833  1
  Bi2+  Bi116  1  0.66370587  0.44134843  0.20378437  1
  Bi2+  Bi117  1  0.64305939  0.48844866  0.72224308  1
  Bi2+  Bi118  1  0.64396762  0.73941837  0.21583679  1
  Bi2+  Bi119  1  0.62919441  0.75513573  0.70517402  1
  Bi2+  Bi120  1  0.80407083  -0.01668581  0.21850432  1
  Bi2+  Bi121  1  0.95247664  0.00404890  0.70621109  1
  Bi2+  Bi122  1  0.84653242  0.24228530  0.18904887  1
  Bi2+  Bi123  1  0.90364540  0.26800623  0.71141785  1
  Bi2+  Bi124  1  0.87637643  0.46928648  0.24517152  1
  Bi2+  Bi125  1  0.90995689  0.48019315  0.69944661  1
  Bi2+  Bi126  1  0.87454480  0.73664593  0.19204085  1
  Bi2+  Bi127  1  0.94490169  0.74034848  0.75259473  1
  S2-  S128  1  -0.13096368  0.09121945  0.14432224  1
  S2-  S129  1  -0.11812215  0.12974523  0.64347333  1
  S2-  S130  1  -0.00856218  0.27760013  0.13636374  1
  S2-  S131  1  0.00690090  0.35828787  0.65109441  1
  S2-  S132  1  0.00506146  0.62534600  0.16006509  1
  S2-  S133  1  0.00435132  0.62077423  0.65351988  1
  S2-  S134  1  0.02638545  0.87872994  0.17592450  1
  S2-  S135  1  -0.07794977  0.88012849  0.64451749  1
  S2-  S136  1  0.12692948  0.10538229  0.14596616  1
  S2-  S137  1  0.24786010  0.22290402  0.63943948  1
  S2-  S138  1  0.21306792  0.46154041  0.14171552  1
  S2-  S139  1  0.23960563  0.42571114  0.65916772  1
  S2-  S140  1  0.28784141  0.65684226  0.17829611  1
  S2-  S141  1  0.35188048  0.64503104  0.63945311  1
  S2-  S142  1  0.24968869  0.87771463  0.16470063  1
  S2-  S143  1  0.29579876  0.92219463  0.64749381  1
  S2-  S144  1  0.48630250  0.14678994  0.14844454  1
  S2-  S145  1  0.46065838  0.12928373  0.66677421  1
  S2-  S146  1  0.50595523  0.48871874  0.14457614  1
  S2-  S147  1  0.46548844  0.37581430  0.66598675  1
  S2-  S148  1  0.51027035  0.72573337  0.14581472  1
  S2-  S149  1  0.56109005  0.61821142  0.67134318  1
  S2-  S150  1  0.46269495  0.92657120  0.16854070  1
  S2-  S151  1  0.51195033  0.85662390  0.66500774  1
  S2-  S152  1  0.71200842  0.23230676  0.13738067  1
  S2-  S153  1  0.65496302  0.13764971  0.64711627  1
  S2-  S154  1  0.81484100  0.41957050  0.15419717  1
  S2-  S155  1  0.68758197  0.36175078  0.65025983  1
  S2-  S156  1  0.75453928  0.64662226  0.14986353  1
  S2-  S157  1  0.76751612  0.71772509  0.64489304  1
  S2-  S158  1  0.82323153  0.86530802  0.13844208  1
  S2-  S159  1  0.72007717  0.93365484  0.67858731  1
  S2-  S160  1  0.13288716  -0.08916171  0.34548559  1
  S2-  S161  1  0.00502582  -0.02964256  0.86244899  1
  S2-  S162  1  0.12102882  0.12682697  0.35691560  1
  S2-  S163  1  0.24488689  0.25058518  0.85731512  1
  S2-  S164  1  0.13774302  0.57564035  0.34957931  1
  S2-  S165  1  0.15431994  0.46484132  0.83750436  1
  S2-  S166  1  0.11341063  0.73677941  0.27390494  1
  S2-  S167  1  0.10186357  0.71215041  0.85375206  1
  S2-  S168  1  0.38547222  -0.04789846  0.33847321  1
  S2-  S169  1  0.46059290  -0.02285153  0.85257464  1
  S2-  S170  1  0.39235044  0.36932202  0.36648038  1
  S2-  S171  1  0.48650635  0.24481178  0.85351388  1
  S2-  S172  1  0.39074530  0.58929221  0.35034852  1
  S2-  S173  1  0.40917253  0.47279280  0.85113266  1
  S2-  S174  1  0.28799129  0.75699129  0.33701666  1
  S2-  S175  1  0.44169374  0.72998894  0.86163485  1
  S2-  S176  1  0.72734117  -0.03211778  0.36067051  1
  S2-  S177  1  0.61561627  0.08396239  0.79391033  1
  S2-  S178  1  0.61610724  0.25418850  0.34364637  1
  S2-  S179  1  0.72869474  0.24270230  0.85376990  1
  S2-  S180  1  0.61401970  0.50970120  0.34869476  1
  S2-  S181  1  0.61833872  0.60660756  0.85081112  1
  S2-  S182  1  0.53575588  0.75122471  0.36150514  1
  S2-  S183  1  0.62988258  0.84228002  0.83537297  1
  S2-  S184  1  0.93635083  0.00147721  0.33734939  1
  S2-  S185  1  0.78833052  0.00254506  0.84389314  1
  S2-  S186  1  0.87505939  0.23908088  0.34298998  1
  S2-  S187  1  0.93191857  0.19442420  0.83914961  1
  S2-  S188  1  0.88277740  0.52619208  0.34825561  1
  S2-  S189  1  0.79507889  0.47105755  0.84734084  1
  S2-  S190  1  0.95861489  0.75195726  0.34674676  1
  S2-  S191  1  0.85654504  0.78630465  0.83806261  1
  S2-  S192  1  0.00187030  0.12577202  0.45874611  1
  S2-  S193  1  -0.00529156  0.11867601  0.95900975  1
  S2-  S194  1  0.00975788  0.37951638  0.44822715  1
  S2-  S195  1  -0.00766575  0.36392888  0.94311863  1
  S2-  S196  1  0.01423049  0.63084568  0.45209527  1
  S2-  S197  1  -0.01127090  0.61668698  0.95378753  1
  S2-  S198  1  0.00861612  0.88017853  0.45302084  1
  S2-  S199  1  -0.00798676  0.85993881  0.96417695  1
  S2-  S200  1  0.26193233  0.13007211  0.45277766  1
  S2-  S201  1  0.24348504  0.11268273  0.96310337  1
  S2-  S202  1  0.25557432  0.37354756  0.46024433  1
  S2-  S203  1  0.24174606  0.37162888  0.95626369  1
  S2-  S204  1  0.26078346  0.62813437  0.45355488  1
  S2-  S205  1  0.24368896  0.61534255  0.96084736  1
  S2-  S206  1  0.25594811  0.88024407  0.44790803  1
  S2-  S207  1  0.24261188  0.86158890  0.95789935  1
  S2-  S208  1  0.50937443  0.13040513  0.45607730  1
  S2-  S209  1  0.49687880  0.10668716  0.94958719  1
  S2-  S210  1  0.51263552  0.37692602  0.46347151  1
  S2-  S211  1  0.48993758  0.36997673  0.96045061  1
  S2-  S212  1  0.50707939  0.62649566  0.46445097  1
  S2-  S213  1  0.48973921  0.61209249  0.96318362  1
  S2-  S214  1  0.50709749  0.87878449  0.45713984  1
  S2-  S215  1  0.49052239  0.86134635  0.96343307  1
  S2-  S216  1  0.75804930  0.13019170  0.45598872  1
  S2-  S217  1  0.73469863  0.10857714  0.95377657  1
  S2-  S218  1  0.76027071  0.38039542  0.45323728  1
  S2-  S219  1  0.73831286  0.36852113  0.95557670  1
  S2-  S220  1  0.75659043  0.63219777  0.45399884  1
  S2-  S221  1  0.74295862  0.61815818  0.94860481  1
  S2-  S222  1  0.75542165  0.86914093  0.46524538  1
  S2-  S223  1  0.73863440  0.86690674  0.94741861  1
  S2-  S224  1  0.11491796  -0.01215475  0.04803352  1
  S2-  S225  1  0.13313615  0.00762841  0.54115579  1
  S2-  S226  1  0.12311794  0.24416527  0.03747762  1
  S2-  S227  1  0.12877118  0.25293159  0.53953494  1
  S2-  S228  1  0.11112483  0.49104156  0.04106645  1
  S2-  S229  1  0.13703897  0.50207895  0.54715361  1
  S2-  S230  1  0.11546978  0.73903020  0.05719357  1
  S2-  S231  1  0.13789619  0.75244132  0.55463411  1
  S2-  S232  1  0.36518723  -0.00668608  0.05101146  1
  S2-  S233  1  0.38844517  0.00875696  0.54378125  1
  S2-  S234  1  0.36761985  0.24101807  0.04131810  1
  S2-  S235  1  0.39122325  0.25116172  0.54585667  1
  S2-  S236  1  0.36480295  0.48926667  0.05027524  1
  S2-  S237  1  0.38057014  0.49380720  0.54816495  1
  S2-  S238  1  0.36042381  0.73453817  0.05410809  1
  S2-  S239  1  0.38120550  0.75820731  0.53830463  1
  S2-  S240  1  0.61886752  -0.00968365  0.05996981  1
  S2-  S241  1  0.63865315  -0.00146668  0.55004695  1
  S2-  S242  1  0.60855779  0.24042832  0.03776373  1
  S2-  S243  1  0.63829916  0.25432421  0.54607491  1
  S2-  S244  1  0.61893747  0.48824195  0.04071964  1
  S2-  S245  1  0.63484616  0.50915457  0.55508474  1
  S2-  S246  1  0.62083747  0.73978282  0.03992657  1
  S2-  S247  1  0.63166804  0.75255887  0.55016349  1
  S2-  S248  1  0.86493634  -0.00949537  0.03859284  1
  S2-  S249  1  0.88216307  -0.00049560  0.54191061  1
  S2-  S250  1  0.86556666  0.24083766  0.03614067  1
  S2-  S251  1  0.88403267  0.26044189  0.54691968  1
  S2-  S252  1  0.86780750  0.48926140  0.04202045  1
  S2-  S253  1  0.88631388  0.50775195  0.55054842  1
  S2-  S254  1  0.86463065  0.73858208  0.04105734  1
  S2-  S255  1  0.89056719  0.74858249  0.54377092  1
