# generated using pymatgen
data_La6Ce6Pr19Nd20Sm13(BiS2)64
_symmetry_space_group_name_H-M   'P 1'
_cell_length_a   16.07563520
_cell_length_b   16.07855832
_cell_length_c   27.45701176
_cell_angle_alpha   90.02878240
_cell_angle_beta   89.65965620
_cell_angle_gamma   90.03127368
_symmetry_Int_Tables_number   1
_chemical_formula_structural   La6Ce6Pr19Nd20Sm13(BiS2)64
_chemical_formula_sum   'La6 Ce6 Pr19 Nd20 Sm13 Bi64 S128'
_cell_volume   7096.77009850
_cell_formula_units_Z   1
loop_
 _symmetry_equiv_pos_site_id
 _symmetry_equiv_pos_as_xyz
  1  'x, y, z'
loop_
 _atom_type_symbol
 _atom_type_oxidation_number
  La3+  3.0
  Ce3+  3.0
  Pr3+  3.0
  Nd3+  3.0
  Sm3+  3.0
  Bi2+  2.0
  S2-  -2.0
loop_
 _atom_site_type_symbol
 _atom_site_label
 _atom_site_symmetry_multiplicity
 _atom_site_fract_x
 _atom_site_fract_y
 _atom_site_fract_z
 _atom_site_occupancy
  La3+  La0  1  0.02727578  0.12731670  0.10812482  1
  La3+  La1  1  -0.02282292  0.89258197  0.57964466  1
  La3+  La2  1  0.86464155  0.00464295  0.42161960  1
  La3+  La3  1  0.36918291  0.51239177  0.42167603  1
  La3+  La4  1  0.73069311  0.39280582  0.60516065  1
  La3+  La5  1  0.36669317  0.01455812  0.42750679  1
  Ce3+  Ce6  1  0.39542609  0.51487638  0.92732478  1
  Ce3+  Ce7  1  0.11452428  0.00923468  0.44571031  1
  Ce3+  Ce8  1  0.64901814  0.75968510  0.94370354  1
  Ce3+  Ce9  1  0.39777280  0.75416033  0.92995214  1
  Ce3+  Ce10  1  0.61150417  0.76277188  0.43546058  1
  Ce3+  Ce11  1  0.89594165  0.50999224  0.94677816  1
  Pr3+  Pr12  1  0.51888230  0.38267430  0.04542780  1
  Pr3+  Pr13  1  0.76718494  0.63081310  0.06594729  1
  Pr3+  Pr14  1  0.73190596  0.88647649  0.56177049  1
  Pr3+  Pr15  1  0.14264842  0.00872082  0.94055986  1
  Pr3+  Pr16  1  0.27864511  0.63252636  0.06589189  1
  Pr3+  Pr17  1  0.64713414  0.00881189  0.94048888  1
  Pr3+  Pr18  1  0.23741577  0.13875176  0.56063004  1
  Pr3+  Pr19  1  0.24073822  0.64111536  0.56043573  1
  Pr3+  Pr20  1  0.89792705  0.25780123  0.93414578  1
  Pr3+  Pr21  1  0.86382549  0.51467322  0.43588003  1
  Pr3+  Pr22  1  0.65280113  0.25784385  0.92143607  1
  Pr3+  Pr23  1  0.86561378  0.76110905  0.44243282  1
  Pr3+  Pr24  1  0.26934585  0.88569352  0.05687554  1
  Pr3+  Pr25  1  0.49088222  0.88930111  0.56424209  1
  Pr3+  Pr26  1  0.39323486  0.01073472  0.93566994  1
  Pr3+  Pr27  1  0.86076920  0.26954569  0.43171075  1
  Pr3+  Pr28  1  0.51812796  0.63220276  0.05756828  1
  Pr3+  Pr29  1  0.23954345  0.38762002  0.56757178  1
  Pr3+  Pr30  1  0.02869134  0.63178815  0.07666248  1
  Nd3+  Nd31  1  0.11921612  0.51489073  0.44784798  1
  Nd3+  Nd32  1  0.76706276  0.38637599  0.06236623  1
  Nd3+  Nd33  1  0.61554472  0.01537170  0.44614381  1
  Nd3+  Nd34  1  0.75114856  0.13682251  0.57138193  1
  Nd3+  Nd35  1  0.51862122  0.13616218  0.04922385  1
  Nd3+  Nd36  1  -0.01443853  0.38661476  0.56012786  1
  Nd3+  Nd37  1  0.48289923  0.39008568  0.57314439  1
  Nd3+  Nd38  1  0.89721671  0.01023256  0.94650915  1
  Nd3+  Nd39  1  0.77039146  0.14416541  0.06662203  1
  Nd3+  Nd40  1  0.39186552  0.27019598  0.92547213  1
  Nd3+  Nd41  1  0.65586492  0.51155816  0.92144819  1
  Nd3+  Nd42  1  -0.01279059  0.14008747  0.55140765  1
  Nd3+  Nd43  1  0.90028512  0.75795974  0.93870457  1
  Nd3+  Nd44  1  0.61931677  0.26522946  0.45458224  1
  Nd3+  Nd45  1  0.01508060  0.87765758  0.06933645  1
  Nd3+  Nd46  1  0.36767194  0.26289439  0.43751260  1
  Nd3+  Nd47  1  0.73820064  0.63277158  0.56216238  1
  Nd3+  Nd48  1  0.37172624  0.76647269  0.40258680  1
  Nd3+  Nd49  1  0.13903819  0.25859691  0.93229403  1
  Nd3+  Nd50  1  0.11574112  0.26570936  0.43159438  1
  Sm3+  Sm51  1  0.61180456  0.51129114  0.44485027  1
  Sm3+  Sm52  1  0.14424124  0.75819528  0.94639553  1
  Sm3+  Sm53  1  0.77148819  0.88672982  0.06144618  1
  Sm3+  Sm54  1  0.27014361  0.38129327  0.05324819  1
  Sm3+  Sm55  1  0.11706451  0.76479209  0.45161333  1
  Sm3+  Sm56  1  0.49126930  0.14116741  0.56364237  1
  Sm3+  Sm57  1  0.01991085  0.37667241  0.05912632  1
  Sm3+  Sm58  1  0.51861709  0.88703855  0.05537013  1
  Sm3+  Sm59  1  -0.01248992  0.63744319  0.55828715  1
  Sm3+  Sm60  1  0.24235308  0.89008709  0.55660266  1
  Sm3+  Sm61  1  0.26422242  0.13476894  0.05585321  1
  Sm3+  Sm62  1  0.14437902  0.51185772  0.94410951  1
  Sm3+  Sm63  1  0.48620221  0.63637691  0.55520638  1
  Bi2+  Bi64  1  0.03061515  0.12860070  0.30627741  1
  Bi2+  Bi65  1  0.04703564  0.14503530  0.73550982  1
  Bi2+  Bi66  1  -0.01533125  0.42881585  0.29411005  1
  Bi2+  Bi67  1  -0.00802225  0.34127697  0.77629383  1
  Bi2+  Bi68  1  -0.07021110  0.62184005  0.30189260  1
  Bi2+  Bi69  1  0.04894328  0.60475608  0.77912832  1
  Bi2+  Bi70  1  0.01663913  0.87936951  0.30964170  1
  Bi2+  Bi71  1  0.02366855  0.89363464  0.81464551  1
  Bi2+  Bi72  1  0.29259599  0.11700107  0.23521998  1
  Bi2+  Bi73  1  0.19666250  0.16758371  0.80760084  1
  Bi2+  Bi74  1  0.27135193  0.30472755  0.27475761  1
  Bi2+  Bi75  1  0.20024221  0.37028108  0.79836268  1
  Bi2+  Bi76  1  0.22682209  0.54225095  0.27935058  1
  Bi2+  Bi77  1  0.25481688  0.64923333  0.79316514  1
  Bi2+  Bi78  1  0.26490402  0.83406297  0.26936285  1
  Bi2+  Bi79  1  0.26875127  0.84809114  0.78396189  1
  Bi2+  Bi80  1  0.46895156  0.03272883  0.29772923  1
  Bi2+  Bi81  1  0.37604699  0.10277942  0.76464502  1
  Bi2+  Bi82  1  0.48149989  0.30644624  0.31359807  1
  Bi2+  Bi83  1  0.47689647  0.36559493  0.79107422  1
  Bi2+  Bi84  1  0.54039179  0.58983364  0.28215399  1
  Bi2+  Bi85  1  0.48730531  0.67843462  0.74420339  1
  Bi2+  Bi86  1  0.53869570  0.79280153  0.25161021  1
  Bi2+  Bi87  1  0.46539324  0.84323344  0.80515596  1
  Bi2+  Bi88  1  0.75715871  0.13881309  0.31037119  1
  Bi2+  Bi89  1  0.80016444  0.10487396  0.79174941  1
  Bi2+  Bi90  1  0.73333317  0.40796405  0.28536333  1
  Bi2+  Bi91  1  0.73043474  0.38246646  0.80198049  1
  Bi2+  Bi92  1  0.73376420  0.60097192  0.31922423  1
  Bi2+  Bi93  1  0.84489996  0.64191951  0.80010534  1
  Bi2+  Bi94  1  0.73560238  0.79716392  0.28811781  1
  Bi2+  Bi95  1  0.72067107  0.88047989  0.81725451  1
  Bi2+  Bi96  1  0.17094146  -0.03017426  0.20869689  1
  Bi2+  Bi97  1  0.19034957  -0.00023857  0.71918693  1
  Bi2+  Bi98  1  0.11090757  0.35446838  0.21608869  1
  Bi2+  Bi99  1  0.11317393  0.26325899  0.64883640  1
  Bi2+  Bi100  1  0.04629258  0.53849179  0.19586051  1
  Bi2+  Bi101  1  0.10334671  0.44799575  0.70250137  1
  Bi2+  Bi102  1  0.10740400  0.71090104  0.25625604  1
  Bi2+  Bi103  1  0.14027792  0.74186238  0.71407192  1
  Bi2+  Bi104  1  0.41524827  -0.02208634  0.18727305  1
  Bi2+  Bi105  1  0.45454545  0.01149870  0.67510045  1
  Bi2+  Bi106  1  0.43295685  0.24337378  0.19571229  1
  Bi2+  Bi107  1  0.28163712  0.27417821  0.70573594  1
  Bi2+  Bi108  1  0.32570956  0.49256199  0.18246579  1
  Bi2+  Bi109  1  0.29438937  0.50379263  0.71916963  1
  Bi2+  Bi110  1  0.36545665  0.66981895  0.23893443  1
  Bi2+  Bi111  1  0.39412971  0.82725715  0.69204926  1
  Bi2+  Bi112  1  0.63654073  -0.03967842  0.25132661  1
  Bi2+  Bi113  1  0.60861091  -0.06486938  0.72847015  1
  Bi2+  Bi114  1  0.61510385  0.22200551  0.24722163  1
  Bi2+  Bi115  1  0.60851331  0.20643153  0.71933096  1
  Bi2+  Bi116  1  0.56886352  0.41835536  0.22614558  1
  Bi2+  Bi117  1  0.60032502  0.52356829  0.71351346  1
  Bi2+  Bi118  1  0.69507170  0.65676180  0.19795408  1
  Bi2+  Bi119  1  0.68915224  0.73040119  0.74468420  1
  Bi2+  Bi120  1  0.88419788  -0.01141182  0.21392863  1
  Bi2+  Bi121  1  0.89376744  -0.00547586  0.71561182  1
  Bi2+  Bi122  1  0.85778683  0.24682711  0.20127201  1
  Bi2+  Bi123  1  0.87746518  0.24301789  0.70094417  1
  Bi2+  Bi124  1  0.84634836  0.50743371  0.20852839  1
  Bi2+  Bi125  1  0.87818798  0.52705364  0.71008371  1
  Bi2+  Bi126  1  0.87484226  0.73689535  0.20272820  1
  Bi2+  Bi127  1  0.88668976  0.77825909  0.71328377  1
  S2-  S128  1  -0.00925990  0.13358387  0.21432758  1
  S2-  S129  1  -0.10035084  0.10591647  0.63434289  1
  S2-  S130  1  -0.00433067  0.29511129  0.14401291  1
  S2-  S131  1  -0.10342181  0.39252614  0.64519751  1
  S2-  S132  1  0.00785741  0.75672375  0.14604310  1
  S2-  S133  1  -0.04579363  0.64803127  0.65395048  1
  S2-  S134  1  0.02563664  0.96721047  0.15401134  1
  S2-  S135  1  0.01847554  0.88138474  0.68125152  1
  S2-  S136  1  0.19516055  0.12299989  0.14548082  1
  S2-  S137  1  0.27066637  0.08874176  0.65521900  1
  S2-  S138  1  0.24313263  0.35772838  0.14966329  1
  S2-  S139  1  0.35232430  0.39206277  0.64479251  1
  S2-  S140  1  0.17488405  0.61247703  0.14629274  1
  S2-  S141  1  0.22941354  0.63048446  0.66019498  1
  S2-  S142  1  0.27521940  0.86504956  0.15680982  1
  S2-  S143  1  0.23353655  0.86675394  0.65323683  1
  S2-  S144  1  0.50858715  0.11366777  0.14714988  1
  S2-  S145  1  0.48181507  0.18678461  0.65873253  1
  S2-  S146  1  0.47146571  0.39702519  0.14212358  1
  S2-  S147  1  0.57284109  0.39548683  0.65795204  1
  S2-  S148  1  0.41108737  0.63432540  0.13740242  1
  S2-  S149  1  0.48647873  0.60735432  0.65214887  1
  S2-  S150  1  0.52424825  0.86607460  0.15182074  1
  S2-  S151  1  0.60963932  0.86753136  0.63985570  1
  S2-  S152  1  0.80632697  0.09430892  0.16146064  1
  S2-  S153  1  0.69511861  0.11091434  0.66753674  1
  S2-  S154  1  0.74182625  0.27749093  0.13836170  1
  S2-  S155  1  0.73476639  0.32708129  0.70622106  1
  S2-  S156  1  0.72743157  0.50905986  0.13614992  1
  S2-  S157  1  0.73748853  0.55472907  0.65165335  1
  S2-  S158  1  0.79333650  0.87527517  0.15791035  1
  S2-  S159  1  0.83113185  0.89083079  0.64351416  1
  S2-  S160  1  0.12475727  -0.00463240  0.34823151  1
  S2-  S161  1  0.15426029  0.00157092  0.84037548  1
  S2-  S162  1  0.13763779  0.25719689  0.33360149  1
  S2-  S163  1  0.02184871  0.25717488  0.85755652  1
  S2-  S164  1  0.11155754  0.50135998  0.34931183  1
  S2-  S165  1  0.10528664  0.49954576  0.84871613  1
  S2-  S166  1  0.10417156  0.76279583  0.35337074  1
  S2-  S167  1  0.08629032  0.76496699  0.85493791  1
  S2-  S168  1  0.35546290  -0.09196110  0.34441030  1
  S2-  S169  1  0.42342718  -0.00200632  0.83818033  1
  S2-  S170  1  0.39050927  0.14441378  0.35744221  1
  S2-  S171  1  0.40168398  0.22020881  0.83035053  1
  S2-  S172  1  0.34412661  0.37359925  0.35859630  1
  S2-  S173  1  0.36164939  0.41157891  0.85212114  1
  S2-  S174  1  0.33243292  0.63068585  0.34520937  1
  S2-  S175  1  0.39027324  0.63864896  0.85692279  1
  S2-  S176  1  0.64005552  0.01189835  0.34718871  1
  S2-  S177  1  0.66382486  0.03690228  0.84195055  1
  S2-  S178  1  0.64008860  0.25668667  0.35471477  1
  S2-  S179  1  0.59929821  0.26705678  0.82175236  1
  S2-  S180  1  0.52310072  0.49549575  0.36142145  1
  S2-  S181  1  0.59573223  0.48707751  0.82653590  1
  S2-  S182  1  0.52670069  0.76673275  0.35196722  1
  S2-  S183  1  0.64661056  0.72457482  0.84969844  1
  S2-  S184  1  0.88591447  0.02644092  0.31971343  1
  S2-  S185  1  0.91606975  0.02709833  0.84691135  1
  S2-  S186  1  0.89728927  0.21969014  0.33493226  1
  S2-  S187  1  0.79206987  0.24923591  0.85318589  1
  S2-  S188  1  0.84891123  0.40479611  0.35871460  1
  S2-  S189  1  0.81791244  0.49817822  0.85998226  1
  S2-  S190  1  0.86354584  0.84482101  0.35608888  1
  S2-  S191  1  0.88024481  0.80578036  0.84399213  1
  S2-  S192  1  -0.00970082  0.13755324  0.44650325  1
  S2-  S193  1  0.02127769  0.13125177  0.95443835  1
  S2-  S194  1  -0.00695474  0.38996201  0.45416594  1
  S2-  S195  1  0.02093663  0.38824654  0.95609749  1
  S2-  S196  1  -0.00735422  0.63837325  0.45409975  1
  S2-  S197  1  0.02151459  0.63422039  0.96215087  1
  S2-  S198  1  -0.00896036  0.88519161  0.46200200  1
  S2-  S199  1  0.02035047  0.88250284  0.96144310  1
  S2-  S200  1  0.23653104  0.13895701  0.45312009  1
  S2-  S201  1  0.26896954  0.13746458  0.94903767  1
  S2-  S202  1  0.23773372  0.38762988  0.46020963  1
  S2-  S203  1  0.26146407  0.38472956  0.95153715  1
  S2-  S204  1  0.24134593  0.64384536  0.45487192  1
  S2-  S205  1  0.26521182  0.63544695  0.95729704  1
  S2-  S206  1  0.24262540  0.88326871  0.45315163  1
  S2-  S207  1  0.27040023  0.88057015  0.94833160  1
  S2-  S208  1  0.49473527  0.13982213  0.46019559  1
  S2-  S209  1  0.51897820  0.13758471  0.94338549  1
  S2-  S210  1  0.49106032  0.38499745  0.46562880  1
  S2-  S211  1  0.52527051  0.38559437  0.94067137  1
  S2-  S212  1  0.48582888  0.64175535  0.45301158  1
  S2-  S213  1  0.52704156  0.63340556  0.95202847  1
  S2-  S214  1  0.48991736  0.88954538  0.45627298  1
  S2-  S215  1  0.52031870  0.88352464  0.95044607  1
  S2-  S216  1  0.74381369  0.13669740  0.45578341  1
  S2-  S217  1  0.77076982  0.13120710  0.95834175  1
  S2-  S218  1  0.73514591  0.39424746  0.45782615  1
  S2-  S219  1  0.76997828  0.38501836  0.95667680  1
  S2-  S220  1  0.73643189  0.63694776  0.45535909  1
  S2-  S221  1  0.77301283  0.63635858  0.95821097  1
  S2-  S222  1  0.73561155  0.88562146  0.45464183  1
  S2-  S223  1  0.77312671  0.88351218  0.95693918  1
  S2-  S224  1  0.14240522  0.00843475  0.04582309  1
  S2-  S225  1  0.11135855  0.01067436  0.55330547  1
  S2-  S226  1  0.14418512  0.25748477  0.04060217  1
  S2-  S227  1  0.11264564  0.26371038  0.53708281  1
  S2-  S228  1  0.14518329  0.50090893  0.04633148  1
  S2-  S229  1  0.11264839  0.51420402  0.55316979  1
  S2-  S230  1  0.14869520  0.75871943  0.04815258  1
  S2-  S231  1  0.10994470  0.76677525  0.55489214  1
  S2-  S232  1  0.39261445  0.01164987  0.04229130  1
  S2-  S233  1  0.36522103  0.01403965  0.54064059  1
  S2-  S234  1  0.39031285  0.25638531  0.03594569  1
  S2-  S235  1  0.36443022  0.25960471  0.54504101  1
  S2-  S236  1  0.39245833  0.50485305  0.03368182  1
  S2-  S237  1  0.36283573  0.51542364  0.54153443  1
  S2-  S238  1  0.39798068  0.76409957  0.03748625  1
  S2-  S239  1  0.36581375  0.76500633  0.55277841  1
  S2-  S240  1  0.64542008  0.00947573  0.04851233  1
  S2-  S241  1  0.61584144  0.02113517  0.54952434  1
  S2-  S242  1  0.64086976  0.25769755  0.03245007  1
  S2-  S243  1  0.62150890  0.26195055  0.55858185  1
  S2-  S244  1  0.64053958  0.50987149  0.03121983  1
  S2-  S245  1  0.61149732  0.51180953  0.54777120  1
  S2-  S246  1  0.64397744  0.76152998  0.05088189  1
  S2-  S247  1  0.61200689  0.75434903  0.54135814  1
  S2-  S248  1  0.89516172  0.01125780  0.05186756  1
  S2-  S249  1  0.86165037  0.00929895  0.53254530  1
  S2-  S250  1  0.89294074  0.26228427  0.04018015  1
  S2-  S251  1  0.86343817  0.26470738  0.54081766  1
  S2-  S252  1  0.90084789  0.50842802  0.05252805  1
  S2-  S253  1  0.86604670  0.51539406  0.54247019  1
  S2-  S254  1  0.88861339  0.75675946  0.04548981  1
  S2-  S255  1  0.86202573  0.75829222  0.54744622  1
