# generated using pymatgen
data_La6Ce6Pr19Nd20Sm13(BiS2)64
_symmetry_space_group_name_H-M   'P 1'
_cell_length_a   16.11492488
_cell_length_b   16.05676032
_cell_length_c   27.09056696
_cell_angle_alpha   89.85751876
_cell_angle_beta   90.18081027
_cell_angle_gamma   90.16220119
_symmetry_Int_Tables_number   1
_chemical_formula_structural   La6Ce6Pr19Nd20Sm13(BiS2)64
_chemical_formula_sum   'La6 Ce6 Pr19 Nd20 Sm13 Bi64 S128'
_cell_volume   7009.69413403
_cell_formula_units_Z   1
loop_
 _symmetry_equiv_pos_site_id
 _symmetry_equiv_pos_as_xyz
  1  'x, y, z'
loop_
 _atom_type_symbol
 _atom_type_oxidation_number
  La3+  3.0
  Ce3+  3.0
  Pr3+  3.0
  Nd3+  3.0
  Sm3+  3.0
  Bi2+  2.0
  S2-  -2.0
loop_
 _atom_site_type_symbol
 _atom_site_label
 _atom_site_symmetry_multiplicity
 _atom_site_fract_x
 _atom_site_fract_y
 _atom_site_fract_z
 _atom_site_occupancy
  La3+  La0  1  0.00739330  0.10703255  0.07986527  1
  La3+  La1  1  0.87232744  0.23824700  0.42101905  1
  La3+  La2  1  0.87101859  0.51218301  0.40720401  1
  La3+  La3  1  0.49405438  0.61797744  0.08358866  1
  La3+  La4  1  0.85850947  0.00426795  0.90273743  1
  La3+  La5  1  0.37586836  0.00365398  0.42617651  1
  Ce3+  Ce6  1  0.24759050  0.37762704  0.54435802  1
  Ce3+  Ce7  1  0.37196889  -0.01037133  0.93147169  1
  Ce3+  Ce8  1  0.75498697  0.86847351  0.06917273  1
  Ce3+  Ce9  1  0.49318538  0.87376528  0.56940877  1
  Ce3+  Ce10  1  0.37243304  0.25052194  0.42976050  1
  Ce3+  Ce11  1  -0.00214359  0.62715963  0.56075149  1
  Pr3+  Pr12  1  0.62297654  0.50720515  0.43102250  1
  Pr3+  Pr13  1  0.37682985  0.51117467  0.42388644  1
  Pr3+  Pr14  1  0.76104726  0.11076913  0.08030682  1
  Pr3+  Pr15  1  0.37819719  0.48686245  0.93238179  1
  Pr3+  Pr16  1  0.74651047  0.36133871  0.07838002  1
  Pr3+  Pr17  1  0.12023928  -0.00107971  0.44029023  1
  Pr3+  Pr18  1  0.12936319  0.48899917  0.92503573  1
  Pr3+  Pr19  1  0.00851830  0.87295744  0.58751419  1
  Pr3+  Pr20  1  0.25031935  0.12929102  0.56054127  1
  Pr3+  Pr21  1  0.12510565  -0.01641022  0.91729119  1
  Pr3+  Pr22  1  0.11867293  0.23423929  0.94081787  1
  Pr3+  Pr23  1  0.49882843  0.11324960  0.05714424  1
  Pr3+  Pr24  1  0.87372902  0.73922616  0.93583737  1
  Pr3+  Pr25  1  0.62604017  0.74002244  0.95108533  1
  Pr3+  Pr26  1  0.74962784  0.14058895  0.57751585  1
  Pr3+  Pr27  1  0.24788081  0.10730044  0.06841884  1
  Pr3+  Pr28  1  0.12188827  0.24379703  0.41378923  1
  Pr3+  Pr29  1  0.12548394  0.73514925  0.93012745  1
  Pr3+  Pr30  1  0.49413443  0.13077818  0.56621648  1
  Nd3+  Nd31  1  0.50579064  0.61824931  0.57504228  1
  Nd3+  Nd32  1  0.24653394  0.60823823  0.06378781  1
  Nd3+  Nd33  1  -0.00026417  0.61236927  0.05973925  1
  Nd3+  Nd34  1  0.75223539  0.62495902  0.56660161  1
  Nd3+  Nd35  1  0.62061782  0.48772712  0.93955159  1
  Nd3+  Nd36  1  0.49882822  0.36396242  0.06762341  1
  Nd3+  Nd37  1  0.87246362  0.75688177  0.43985294  1
  Nd3+  Nd38  1  0.24771594  0.86402564  0.05896884  1
  Nd3+  Nd39  1  0.00896720  0.14236967  0.58243369  1
  Nd3+  Nd40  1  0.87664942  0.24067818  0.95364675  1
  Nd3+  Nd41  1  0.87549054  0.00576591  0.45871113  1
  Nd3+  Nd42  1  0.25465110  0.87982328  0.56611748  1
  Nd3+  Nd43  1  0.37388354  0.23558231  0.94587876  1
  Nd3+  Nd44  1  0.37658915  0.73691856  0.93860563  1
  Nd3+  Nd45  1  0.75171837  0.87942882  0.56851118  1
  Nd3+  Nd46  1  0.00202211  0.86415417  0.05714732  1
  Nd3+  Nd47  1  0.25198113  0.62755319  0.55785073  1
  Nd3+  Nd48  1  0.00690822  0.37299623  0.10046894  1
  Nd3+  Nd49  1  0.49858304  0.37969936  0.55544596  1
  Nd3+  Nd50  1  0.62599320  0.25008446  0.43492846  1
  Sm3+  Sm51  1  0.62895182  -0.00983889  0.94930836  1
  Sm3+  Sm52  1  0.12076874  0.50353713  0.43864328  1
  Sm3+  Sm53  1  0.63083653  0.23574921  0.94445979  1
  Sm3+  Sm54  1  0.75294048  0.37860069  0.54528761  1
  Sm3+  Sm55  1  -0.00279419  0.37569919  0.54503858  1
  Sm3+  Sm56  1  0.75140916  0.60960197  0.06070625  1
  Sm3+  Sm57  1  0.62344787  0.75226775  0.44945446  1
  Sm3+  Sm58  1  0.24545096  0.36416350  0.05575713  1
  Sm3+  Sm59  1  0.49696020  0.86267444  0.05640981  1
  Sm3+  Sm60  1  0.12175443  0.75663911  0.44219980  1
  Sm3+  Sm61  1  0.37718286  0.75685016  0.43650920  1
  Sm3+  Sm62  1  0.87405462  0.49020188  0.93749975  1
  Sm3+  Sm63  1  0.62281918  0.00366941  0.45832028  1
  Bi2+  Bi64  1  0.04918271  0.14605626  0.27859296  1
  Bi2+  Bi65  1  -0.01912198  0.15342802  0.78273284  1
  Bi2+  Bi66  1  0.05594000  0.39352523  0.29018674  1
  Bi2+  Bi67  1  0.01577002  0.40061351  0.78756111  1
  Bi2+  Bi68  1  0.02791683  0.67689917  0.28882375  1
  Bi2+  Bi69  1  -0.02526560  0.61809847  0.78095611  1
  Bi2+  Bi70  1  -0.00840046  0.88230718  0.29327741  1
  Bi2+  Bi71  1  -0.01758789  0.87807381  0.79603321  1
  Bi2+  Bi72  1  0.32159632  -0.00181010  0.28320214  1
  Bi2+  Bi73  1  0.25006831  0.16663885  0.79826260  1
  Bi2+  Bi74  1  0.32019979  0.40389766  0.28475874  1
  Bi2+  Bi75  1  0.28211299  0.38587301  0.75232499  1
  Bi2+  Bi76  1  0.25665460  0.59503059  0.28697646  1
  Bi2+  Bi77  1  0.24307499  0.59214643  0.79168788  1
  Bi2+  Bi78  1  0.19262404  0.81475909  0.27265937  1
  Bi2+  Bi79  1  0.27708624  0.85994532  0.79888395  1
  Bi2+  Bi80  1  0.49631818  0.09210282  0.29023555  1
  Bi2+  Bi81  1  0.47291966  0.14768480  0.78602686  1
  Bi2+  Bi82  1  0.51190627  0.34828257  0.29394121  1
  Bi2+  Bi83  1  0.56144357  0.34370003  0.75861424  1
  Bi2+  Bi84  1  0.49734057  0.62404160  0.28773940  1
  Bi2+  Bi85  1  0.51952978  0.61714225  0.79743295  1
  Bi2+  Bi86  1  0.48091387  0.82244324  0.28195147  1
  Bi2+  Bi87  1  0.47389759  0.88530820  0.79643446  1
  Bi2+  Bi88  1  0.75507610  0.08568789  0.30128778  1
  Bi2+  Bi89  1  0.72878355  0.15511745  0.79748486  1
  Bi2+  Bi90  1  0.72415951  0.37952676  0.29661471  1
  Bi2+  Bi91  1  0.82530161  0.40671628  0.81226076  1
  Bi2+  Bi92  1  0.74336825  0.68883526  0.29611044  1
  Bi2+  Bi93  1  0.71983726  0.56805570  0.80268444  1
  Bi2+  Bi94  1  0.79880708  0.87272382  0.31665108  1
  Bi2+  Bi95  1  0.66735334  0.85717818  0.78911817  1
  Bi2+  Bi96  1  0.15758249  -0.00393783  0.21245965  1
  Bi2+  Bi97  1  0.11134956  0.00822529  0.70829619  1
  Bi2+  Bi98  1  0.20206018  0.27044309  0.20519617  1
  Bi2+  Bi99  1  0.13229545  0.28647949  0.69927912  1
  Bi2+  Bi100  1  0.14938373  0.56130283  0.19856509  1
  Bi2+  Bi101  1  0.07873771  0.51602968  0.69948724  1
  Bi2+  Bi102  1  0.14419523  0.74647210  0.15588207  1
  Bi2+  Bi103  1  0.11047799  0.72133699  0.71626806  1
  Bi2+  Bi104  1  0.43063542  -0.04579457  0.18967390  1
  Bi2+  Bi105  1  0.37369406  0.01455380  0.71989697  1
  Bi2+  Bi106  1  0.40380892  0.25369558  0.20427752  1
  Bi2+  Bi107  1  0.40947717  0.28166020  0.68670755  1
  Bi2+  Bi108  1  0.43134299  0.46387036  0.19515342  1
  Bi2+  Bi109  1  0.41643164  0.51710002  0.72346501  1
  Bi2+  Bi110  1  0.33251035  0.75024638  0.20052565  1
  Bi2+  Bi111  1  0.30526725  0.76343084  0.69854653  1
  Bi2+  Bi112  1  0.62802397  -0.05052822  0.25731971  1
  Bi2+  Bi113  1  0.57580284  0.00415365  0.72353455  1
  Bi2+  Bi114  1  0.60223300  0.23106255  0.21746423  1
  Bi2+  Bi115  1  0.58453008  0.19613902  0.68225509  1
  Bi2+  Bi116  1  0.66498542  0.49304600  0.21544174  1
  Bi2+  Bi117  1  0.68416857  0.46540953  0.70392653  1
  Bi2+  Bi118  1  0.76104241  0.80998714  0.20307969  1
  Bi2+  Bi119  1  0.57830392  0.74107650  0.71076396  1
  Bi2+  Bi120  1  0.89186765  -0.01139394  0.21034928  1
  Bi2+  Bi121  1  0.83233971  -0.01086128  0.69960313  1
  Bi2+  Bi122  1  0.86251355  0.26516776  0.21911397  1
  Bi2+  Bi123  1  0.87322890  0.34279095  0.70960003  1
  Bi2+  Bi124  1  0.88463951  0.53034901  0.22002026  1
  Bi2+  Bi125  1  0.88827568  0.55207436  0.67267276  1
  Bi2+  Bi126  1  0.95374578  0.76352880  0.19536669  1
  Bi2+  Bi127  1  0.79065978  0.69767564  0.72084289  1
  S2-  S128  1  -0.09648006  0.13316995  0.16273271  1
  S2-  S129  1  -0.03473774  0.10253102  0.68337002  1
  S2-  S130  1  0.03344070  0.30680815  0.19700820  1
  S2-  S131  1  -0.00272950  0.30138208  0.63551166  1
  S2-  S132  1  0.00304226  0.52850217  0.14888155  1
  S2-  S133  1  -0.00343283  0.71652329  0.64428292  1
  S2-  S134  1  0.02575100  0.95481282  0.14477932  1
  S2-  S135  1  -0.02781040  0.90389781  0.68941791  1
  S2-  S136  1  0.14542381  0.13533588  0.15117116  1
  S2-  S137  1  0.15391898  0.14129563  0.64690678  1
  S2-  S138  1  0.20177975  0.41204061  0.14724011  1
  S2-  S139  1  0.25322214  0.36919207  0.64317042  1
  S2-  S140  1  0.35140143  0.60037294  0.14565444  1
  S2-  S141  1  0.21963088  0.61992355  0.65715671  1
  S2-  S142  1  0.27384998  0.97121147  0.13862115  1
  S2-  S143  1  0.15934508  0.88642866  0.65151303  1
  S2-  S144  1  0.50209639  0.11596768  0.15805663  1
  S2-  S145  1  0.36983942  0.12991360  0.64002794  1
  S2-  S146  1  0.60429968  0.38364367  0.14692517  1
  S2-  S147  1  0.48515696  0.47447544  0.63831405  1
  S2-  S148  1  0.55182916  0.60037178  0.18386755  1
  S2-  S149  1  0.43756934  0.69013531  0.65935625  1
  S2-  S150  1  0.48181448  0.80296115  0.14828325  1
  S2-  S151  1  0.37782457  0.89385149  0.64217275  1
  S2-  S152  1  0.73233176  0.22431855  0.15599581  1
  S2-  S153  1  0.75066877  0.13446725  0.68047918  1
  S2-  S154  1  0.85429861  0.39180334  0.15823619  1
  S2-  S155  1  0.74275363  0.34063823  0.64183306  1
  S2-  S156  1  0.77580474  0.59817502  0.15974882  1
  S2-  S157  1  0.64805559  0.61755972  0.64807952  1
  S2-  S158  1  0.74732314  0.97280796  0.14931780  1
  S2-  S159  1  0.75778148  0.83778129  0.66530872  1
  S2-  S160  1  0.13051856  0.09450237  0.35184990  1
  S2-  S161  1  0.06959554  0.02966169  0.81796923  1
  S2-  S162  1  0.19862114  0.29772257  0.32011522  1
  S2-  S163  1  0.12291467  0.24137691  0.83706450  1
  S2-  S164  1  0.10685502  0.53520410  0.34154300  1
  S2-  S165  1  0.11341765  0.61722052  0.85199237  1
  S2-  S166  1  0.11584979  0.86771271  0.36501207  1
  S2-  S167  1  0.12740590  0.83898948  0.84723127  1
  S2-  S168  1  0.37890617  -0.12719146  0.35716350  1
  S2-  S169  1  0.27307643  0.01460915  0.85239564  1
  S2-  S170  1  0.37340633  0.13699371  0.35328874  1
  S2-  S171  1  0.37542617  0.25053319  0.84603349  1
  S2-  S172  1  0.50744140  0.50194686  0.35149169  1
  S2-  S173  1  0.26289988  0.46657460  0.85324190  1
  S2-  S174  1  0.36889756  0.65057033  0.35656480  1
  S2-  S175  1  0.35289989  0.70853028  0.84005777  1
  S2-  S176  1  0.61215570  0.01685888  0.35975651  1
  S2-  S177  1  0.69073886  0.02562087  0.85996687  1
  S2-  S178  1  0.72920052  0.23197111  0.35389107  1
  S2-  S179  1  0.63754052  0.26508670  0.84564885  1
  S2-  S180  1  0.72249141  0.53014615  0.34686262  1
  S2-  S181  1  0.50822479  0.48838068  0.86164371  1
  S2-  S182  1  0.59765660  0.73559868  0.35093098  1
  S2-  S183  1  0.63639964  0.72591369  0.85042672  1
  S2-  S184  1  0.87611736  0.07189976  0.36501801  1
  S2-  S185  1  0.87206386  0.01705932  0.79418073  1
  S2-  S186  1  0.98814562  0.25350350  0.34112261  1
  S2-  S187  1  0.85958603  0.18657551  0.85671060  1
  S2-  S188  1  0.90226402  0.43753318  0.31257850  1
  S2-  S189  1  0.86769637  0.60992636  0.86116474  1
  S2-  S190  1  0.89238471  0.66803182  0.35274806  1
  S2-  S191  1  0.85993493  0.84364107  0.85402482  1
  S2-  S192  1  0.00090821  0.12775601  0.46297611  1
  S2-  S193  1  -0.00504565  0.10787770  0.94852686  1
  S2-  S194  1  -0.00499537  0.38317083  0.44157131  1
  S2-  S195  1  -0.00263382  0.36801490  0.93884729  1
  S2-  S196  1  0.00084457  0.62998432  0.45411570  1
  S2-  S197  1  -0.00113588  0.61046949  0.95605437  1
  S2-  S198  1  -0.00631732  0.87596459  0.46797946  1
  S2-  S199  1  0.00056130  0.86326130  0.95142782  1
  S2-  S200  1  0.24897172  0.12861144  0.45347971  1
  S2-  S201  1  0.24765080  0.11479744  0.95915811  1
  S2-  S202  1  0.24877611  0.38221643  0.43819965  1
  S2-  S203  1  0.24900221  0.35757415  0.95320798  1
  S2-  S204  1  0.24200298  0.63109744  0.45114748  1
  S2-  S205  1  0.25427526  0.61242076  0.95664735  1
  S2-  S206  1  0.25085412  0.87477687  0.45951792  1
  S2-  S207  1  0.25352708  0.86179811  0.95236022  1
  S2-  S208  1  0.50255249  0.12963675  0.45790013  1
  S2-  S209  1  0.50321959  0.11338082  0.94857975  1
  S2-  S210  1  0.49982441  0.37289908  0.44890678  1
  S2-  S211  1  0.50301256  0.35473955  0.96084661  1
  S2-  S212  1  0.50135935  0.63141990  0.46180794  1
  S2-  S213  1  0.49980448  0.61643012  0.96433674  1
  S2-  S214  1  0.50354450  0.87667724  0.46144334  1
  S2-  S215  1  0.50107951  0.86672952  0.94981406  1
  S2-  S216  1  0.74417221  0.12465356  0.46877128  1
  S2-  S217  1  0.75084260  0.11602384  0.96916436  1
  S2-  S218  1  0.75198891  0.37934921  0.44295530  1
  S2-  S219  1  0.74795596  0.36574432  0.95871840  1
  S2-  S220  1  0.74977623  0.63282730  0.45872128  1
  S2-  S221  1  0.74556181  0.61093178  0.95791704  1
  S2-  S222  1  0.74665197  0.87959703  0.46093891  1
  S2-  S223  1  0.74929050  0.86806314  0.96088448  1
  S2-  S224  1  0.12636187  -0.01336023  0.03568627  1
  S2-  S225  1  0.12137867  0.00362202  0.54877222  1
  S2-  S226  1  0.11812066  0.24678205  0.04816226  1
  S2-  S227  1  0.12467381  0.25757864  0.53207760  1
  S2-  S228  1  0.12165881  0.48627739  0.03827582  1
  S2-  S229  1  0.12171982  0.50193232  0.54436970  1
  S2-  S230  1  0.12601587  0.73568129  0.03847813  1
  S2-  S231  1  0.12817434  0.75186044  0.54592479  1
  S2-  S232  1  0.37798016  -0.01335334  0.03739280  1
  S2-  S233  1  0.37761715  0.00339990  0.53665627  1
  S2-  S234  1  0.37090495  0.23932558  0.05317602  1
  S2-  S235  1  0.37474936  0.25720119  0.53614085  1
  S2-  S236  1  0.37436678  0.48327870  0.04261599  1
  S2-  S237  1  0.37194513  0.50380252  0.53347496  1
  S2-  S238  1  0.37138261  0.73947002  0.04455620  1
  S2-  S239  1  0.37563101  0.74879034  0.54220198  1
  S2-  S240  1  0.61967176  -0.01329454  0.05279343  1
  S2-  S241  1  0.62282056  0.00432121  0.56406050  1
  S2-  S242  1  0.62326380  0.23649894  0.04885229  1
  S2-  S243  1  0.62306648  0.25613495  0.54213233  1
  S2-  S244  1  0.62246390  0.49447054  0.04684444  1
  S2-  S245  1  0.62971289  0.49889093  0.53903032  1
  S2-  S246  1  0.62798160  0.73916349  0.05784641  1
  S2-  S247  1  0.62515457  0.75540411  0.55390722  1
  S2-  S248  1  0.87929988  -0.01269552  0.04890668  1
  S2-  S249  1  0.87621250  0.00839590  0.56548575  1
  S2-  S250  1  0.88870540  0.25070445  0.05654740  1
  S2-  S251  1  0.87289689  0.25279099  0.53761777  1
  S2-  S252  1  0.87493714  0.48885685  0.04253807  1
  S2-  S253  1  0.87444622  0.50150905  0.53905313  1
  S2-  S254  1  0.87406784  0.73645624  0.04820768  1
  S2-  S255  1  0.87079330  0.75410395  0.54801143  1
