# generated using pymatgen
data_La6Ce6Pr19Nd20Sm13(BiS2)64
_symmetry_space_group_name_H-M   'P 1'
_cell_length_a   16.14617605
_cell_length_b   16.04492917
_cell_length_c   27.33822588
_cell_angle_alpha   89.97347382
_cell_angle_beta   90.04115427
_cell_angle_gamma   90.08900622
_symmetry_Int_Tables_number   1
_chemical_formula_structural   La6Ce6Pr19Nd20Sm13(BiS2)64
_chemical_formula_sum   'La6 Ce6 Pr19 Nd20 Sm13 Bi64 S128'
_cell_volume   7082.34588426
_cell_formula_units_Z   1
loop_
 _symmetry_equiv_pos_site_id
 _symmetry_equiv_pos_as_xyz
  1  'x, y, z'
loop_
 _atom_type_symbol
 _atom_type_oxidation_number
  La3+  3.0
  Ce3+  3.0
  Pr3+  3.0
  Nd3+  3.0
  Sm3+  3.0
  Bi2+  2.0
  S2-  -2.0
loop_
 _atom_site_type_symbol
 _atom_site_label
 _atom_site_symmetry_multiplicity
 _atom_site_fract_x
 _atom_site_fract_y
 _atom_site_fract_z
 _atom_site_occupancy
  La3+  La0  1  0.50381200  0.88411654  0.06866641  1
  La3+  La1  1  -0.00783899  0.14023374  0.08285906  1
  La3+  La2  1  0.86838119  0.75889594  0.91135295  1
  La3+  La3  1  0.50752225  0.63621371  0.07917944  1
  La3+  La4  1  0.12953242  -0.00438155  0.39245670  1
  La3+  La5  1  0.39012970  0.24711627  0.42142856  1
  Ce3+  Ce6  1  0.00644984  0.62201710  0.57072523  1
  Ce3+  Ce7  1  0.24861109  0.88683707  0.07175381  1
  Ce3+  Ce8  1  0.25646870  0.36941665  0.55821063  1
  Ce3+  Ce9  1  0.62024058  0.76689290  0.93013880  1
  Ce3+  Ce10  1  0.12684375  0.75900873  0.93791130  1
  Ce3+  Ce11  1  0.12344424  0.01117794  0.95272233  1
  Pr3+  Pr12  1  0.37586397  0.50285291  0.44469469  1
  Pr3+  Pr13  1  0.88245686  0.49812648  0.44159829  1
  Pr3+  Pr14  1  0.75174226  0.63527458  0.05781408  1
  Pr3+  Pr15  1  0.61952142  0.01327661  0.93343817  1
  Pr3+  Pr16  1  0.25360734  0.61416955  0.58718879  1
  Pr3+  Pr17  1  0.88360369  0.24696051  0.43646021  1
  Pr3+  Pr18  1  0.62840608  -0.00673484  0.43970360  1
  Pr3+  Pr19  1  0.88063434  0.01146461  0.92718617  1
  Pr3+  Pr20  1  0.00464338  0.37176244  0.57218530  1
  Pr3+  Pr21  1  0.75295941  0.62211476  0.56203529  1
  Pr3+  Pr22  1  0.75401704  0.87291673  0.55911100  1
  Pr3+  Pr23  1  0.50080871  0.11870036  0.56728773  1
  Pr3+  Pr24  1  0.12829249  0.50041166  0.93121449  1
  Pr3+  Pr25  1  0.25032586  0.39115819  0.07736550  1
  Pr3+  Pr26  1  0.25211050  0.13956915  0.08334318  1
  Pr3+  Pr27  1  0.62090518  0.49696474  0.43531645  1
  Pr3+  Pr28  1  0.62711379  0.74537074  0.44250113  1
  Pr3+  Pr29  1  0.38969581  -0.01302561  0.41845261  1
  Pr3+  Pr30  1  0.25613440  0.11834019  0.54228704  1
  Nd3+  Nd31  1  0.61988001  0.25594533  0.93533949  1
  Nd3+  Nd32  1  0.87712080  0.26031043  0.93206787  1
  Nd3+  Nd33  1  0.12416554  0.25718290  0.94906779  1
  Nd3+  Nd34  1  0.88623121  0.74791528  0.44296768  1
  Nd3+  Nd35  1  0.50176566  0.13140845  0.07365921  1
  Nd3+  Nd36  1  0.37353597  0.75966687  0.94310783  1
  Nd3+  Nd37  1  0.24606995  0.63968758  0.06859006  1
  Nd3+  Nd38  1  0.88535529  -0.00235183  0.43730397  1
  Nd3+  Nd39  1  -0.00388224  0.88616217  0.05862564  1
  Nd3+  Nd40  1  0.49512279  0.86895935  0.57357933  1
  Nd3+  Nd41  1  0.00647551  0.11696513  0.56789491  1
  Nd3+  Nd42  1  0.50342570  0.61937799  0.58481488  1
  Nd3+  Nd43  1  0.87487108  0.50726104  0.92152818  1
  Nd3+  Nd44  1  0.12916824  0.24976784  0.43429647  1
  Nd3+  Nd45  1  0.37218225  0.26011572  0.94711441  1
  Nd3+  Nd46  1  0.37429460  0.51271656  0.94569614  1
  Nd3+  Nd47  1  0.13293453  0.49785366  0.44044747  1
  Nd3+  Nd48  1  0.74957465  0.13794161  0.05708790  1
  Nd3+  Nd49  1  -0.00344795  0.63462051  0.04599289  1
  Nd3+  Nd50  1  -0.00305531  0.38925519  0.06437031  1
  Sm3+  Sm51  1  0.62772772  0.24604332  0.44840169  1
  Sm3+  Sm52  1  0.37622298  0.74748827  0.44565751  1
  Sm3+  Sm53  1  0.75109365  0.88591232  0.04921151  1
  Sm3+  Sm54  1  0.75559879  0.12073755  0.55250077  1
  Sm3+  Sm55  1  0.13158690  0.74927774  0.44495120  1
  Sm3+  Sm56  1  0.25515667  0.87172347  0.55339339  1
  Sm3+  Sm57  1  0.49871574  0.38663723  0.05512588  1
  Sm3+  Sm58  1  0.50435183  0.37287912  0.56665208  1
  Sm3+  Sm59  1  0.37172766  0.01184630  0.95045012  1
  Sm3+  Sm60  1  0.00635094  0.86918939  0.56705094  1
  Sm3+  Sm61  1  0.74857064  0.38623555  0.04726812  1
  Sm3+  Sm62  1  0.62414586  0.51449021  0.93693023  1
  Sm3+  Sm63  1  0.75452576  0.37201984  0.55130539  1
  Bi2+  Bi64  1  0.01190043  0.11302242  0.27882938  1
  Bi2+  Bi65  1  -0.05448693  0.09522036  0.76826514  1
  Bi2+  Bi66  1  -0.02233100  0.36770097  0.29728878  1
  Bi2+  Bi67  1  -0.00551547  0.30749957  0.78716901  1
  Bi2+  Bi68  1  -0.01328062  0.62264881  0.30300478  1
  Bi2+  Bi69  1  -0.02313245  0.50597268  0.78627459  1
  Bi2+  Bi70  1  -0.01942660  0.84259463  0.29518159  1
  Bi2+  Bi71  1  0.03391538  0.91496820  0.80522369  1
  Bi2+  Bi72  1  0.24497836  0.15349183  0.27526768  1
  Bi2+  Bi73  1  0.23217831  0.09684799  0.80064818  1
  Bi2+  Bi74  1  0.21711845  0.46173281  0.29719788  1
  Bi2+  Bi75  1  0.26110726  0.39866322  0.80836720  1
  Bi2+  Bi76  1  0.25371886  0.62396942  0.35857499  1
  Bi2+  Bi77  1  0.25015601  0.65114103  0.80546064  1
  Bi2+  Bi78  1  0.31417334  0.80525077  0.23042988  1
  Bi2+  Bi79  1  0.21973210  0.91897442  0.74481665  1
  Bi2+  Bi80  1  0.49376630  0.14465822  0.29924982  1
  Bi2+  Bi81  1  0.45672876  0.14154674  0.79710234  1
  Bi2+  Bi82  1  0.55837982  0.41232515  0.29721439  1
  Bi2+  Bi83  1  0.52010782  0.33208734  0.78936125  1
  Bi2+  Bi84  1  0.50275407  0.64366955  0.33017682  1
  Bi2+  Bi85  1  0.48672163  0.65376751  0.80672966  1
  Bi2+  Bi86  1  0.50108872  0.86767189  0.29358849  1
  Bi2+  Bi87  1  0.48306572  0.93038821  0.78251364  1
  Bi2+  Bi88  1  0.76291085  0.07092525  0.29266206  1
  Bi2+  Bi89  1  0.73024790  0.12663602  0.79556517  1
  Bi2+  Bi90  1  0.76860526  0.37674429  0.28237924  1
  Bi2+  Bi91  1  0.71034934  0.30677842  0.75002688  1
  Bi2+  Bi92  1  0.78891840  0.58243716  0.25214442  1
  Bi2+  Bi93  1  0.74857418  0.61388239  0.78912906  1
  Bi2+  Bi94  1  0.76602499  0.88055528  0.25689119  1
  Bi2+  Bi95  1  0.71997304  0.92100085  0.78309474  1
  Bi2+  Bi96  1  0.13538488  -0.06888176  0.19949696  1
  Bi2+  Bi97  1  0.10623632  0.06233272  0.70283603  1
  Bi2+  Bi98  1  0.11363421  0.33168091  0.21888470  1
  Bi2+  Bi99  1  0.16587224  0.25163440  0.73596063  1
  Bi2+  Bi100  1  0.08049497  0.52426572  0.21414645  1
  Bi2+  Bi101  1  0.11715859  0.44111249  0.71490432  1
  Bi2+  Bi102  1  0.15723413  0.71290041  0.27137079  1
  Bi2+  Bi103  1  0.08609371  0.76701848  0.72864332  1
  Bi2+  Bi104  1  0.39787375  0.04046062  0.21751793  1
  Bi2+  Bi105  1  0.36524989  0.03493849  0.70065979  1
  Bi2+  Bi106  1  0.37661377  0.30124719  0.21881309  1
  Bi2+  Bi107  1  0.35708270  0.27123465  0.69350456  1
  Bi2+  Bi108  1  0.34647784  0.49069657  0.21253457  1
  Bi2+  Bi109  1  0.38720432  0.46535676  0.70922372  1
  Bi2+  Bi110  1  0.44049543  0.65752096  0.22549402  1
  Bi2+  Bi111  1  0.36243265  0.75943040  0.70345696  1
  Bi2+  Bi112  1  0.65099282  0.01810503  0.20424263  1
  Bi2+  Bi113  1  0.62318434  0.04690860  0.71098080  1
  Bi2+  Bi114  1  0.65572547  0.20937176  0.23808460  1
  Bi2+  Bi115  1  0.54738898  0.23655666  0.68668747  1
  Bi2+  Bi116  1  0.63093498  0.47741986  0.20228785  1
  Bi2+  Bi117  1  0.57256907  0.51056031  0.74631828  1
  Bi2+  Bi118  1  0.63613177  0.75357911  0.20548201  1
  Bi2+  Bi119  1  0.58913540  0.78093591  0.74309305  1
  Bi2+  Bi120  1  0.90009574  -0.00626888  0.20062917  1
  Bi2+  Bi121  1  0.85393657  -0.04506663  0.70063104  1
  Bi2+  Bi122  1  0.84833549  0.25576007  0.20452954  1
  Bi2+  Bi123  1  0.86488552  0.22297928  0.69296343  1
  Bi2+  Bi124  1  0.88129992  0.46224044  0.18243222  1
  Bi2+  Bi125  1  0.85214286  0.46709479  0.70249159  1
  Bi2+  Bi126  1  0.89816745  0.72449180  0.20768823  1
  Bi2+  Bi127  1  0.84914531  0.71367850  0.70789066  1
  S2-  S128  1  0.04953412  0.07908193  0.17691437  1
  S2-  S129  1  0.00231905  0.24020755  0.64087032  1
  S2-  S130  1  -0.00511776  0.28842295  0.14699854  1
  S2-  S131  1  -0.00083156  0.50245999  0.64451392  1
  S2-  S132  1  -0.02718003  0.60793991  0.14347217  1
  S2-  S133  1  -0.01067876  0.74887068  0.64380182  1
  S2-  S134  1  -0.00918048  0.85165386  0.15656043  1
  S2-  S135  1  -0.00894282  0.98768892  0.64094078  1
  S2-  S136  1  0.26371629  0.00763584  0.15280755  1
  S2-  S137  1  0.27431116  0.14395706  0.64247819  1
  S2-  S138  1  0.24343153  0.27140081  0.15550236  1
  S2-  S139  1  0.24414889  0.45296937  0.64487779  1
  S2-  S140  1  0.22504679  0.52665207  0.14517675  1
  S2-  S141  1  0.19863055  0.68369308  0.68190005  1
  S2-  S142  1  0.24257377  0.76375498  0.14449123  1
  S2-  S143  1  0.31991472  0.88605814  0.64456346  1
  S2-  S144  1  0.43907447  0.18229824  0.16347066  1
  S2-  S145  1  0.50757041  -0.00107937  0.64203038  1
  S2-  S146  1  0.49279501  0.42050623  0.15125820  1
  S2-  S147  1  0.52889539  0.47472862  0.64572087  1
  S2-  S148  1  0.50119523  0.77055512  0.14747156  1
  S2-  S149  1  0.38116415  0.61624110  0.65825589  1
  S2-  S150  1  0.51337455  0.99761816  0.14715978  1
  S2-  S151  1  0.52015453  0.75874562  0.65280349  1
  S2-  S152  1  0.84037954  0.11871854  0.14102842  1
  S2-  S153  1  0.76749664  0.08720264  0.64833780  1
  S2-  S154  1  0.74260627  0.37135175  0.14500643  1
  S2-  S155  1  0.75868766  0.36035554  0.64911845  1
  S2-  S156  1  0.65333518  0.62313724  0.14106674  1
  S2-  S157  1  0.75202271  0.59725062  0.66245380  1
  S2-  S158  1  0.72308363  0.87425974  0.14693718  1
  S2-  S159  1  0.75973927  0.82628802  0.65613105  1
  S2-  S160  1  0.15261056  0.00178478  0.28438468  1
  S2-  S161  1  0.09995861  0.05796812  0.85994681  1
  S2-  S162  1  0.12571834  0.16096316  0.34833490  1
  S2-  S163  1  0.13925217  0.34903534  0.86386027  1
  S2-  S164  1  0.11274480  0.38357723  0.36414229  1
  S2-  S165  1  0.12997056  0.56243001  0.83577991  1
  S2-  S166  1  0.11823063  0.82560182  0.35585495  1
  S2-  S167  1  0.13524375  0.77357783  0.83987507  1
  S2-  S168  1  0.34412650  0.04920009  0.32331403  1
  S2-  S169  1  0.37083970  0.01228640  0.85199204  1
  S2-  S170  1  0.34288951  0.26536509  0.32280736  1
  S2-  S171  1  0.37005368  0.27749576  0.84769503  1
  S2-  S172  1  0.44212935  0.47808302  0.35191850  1
  S2-  S173  1  0.36196216  0.53022849  0.84626207  1
  S2-  S174  1  0.38743237  0.83584075  0.35878402  1
  S2-  S175  1  0.37304861  0.76451398  0.84247465  1
  S2-  S176  1  0.54245416  0.00053093  0.35350775  1
  S2-  S177  1  0.59431366  -0.10143544  0.85694283  1
  S2-  S178  1  0.55452062  0.26292238  0.36133027  1
  S2-  S179  1  0.59631665  0.14049492  0.86143662  1
  S2-  S180  1  0.64252495  0.55025489  0.34030938  1
  S2-  S181  1  0.65740153  0.49740799  0.84139533  1
  S2-  S182  1  0.61876359  0.77399244  0.34314061  1
  S2-  S183  1  0.71716083  0.73010034  0.85307342  1
  S2-  S184  1  0.96622063  -0.00718283  0.34968769  1
  S2-  S185  1  0.88420037  -0.10431386  0.84572958  1
  S2-  S186  1  0.91926863  0.22540806  0.33894746  1
  S2-  S187  1  0.87468222  0.14048891  0.85849999  1
  S2-  S188  1  0.87354768  0.49413171  0.34198520  1
  S2-  S189  1  0.88669830  0.37703427  0.85284477  1
  S2-  S190  1  0.87463506  0.74147064  0.34458243  1
  S2-  S191  1  0.89535511  0.62395090  0.84402129  1
  S2-  S192  1  0.00697651  0.12091567  0.45758052  1
  S2-  S193  1  -0.00040235  0.13788979  0.96550293  1
  S2-  S194  1  0.00217874  0.37286766  0.46327995  1
  S2-  S195  1  -0.00065618  0.38467108  0.95884390  1
  S2-  S196  1  0.00886437  0.62243996  0.45770016  1
  S2-  S197  1  0.00177670  0.63294392  0.94372946  1
  S2-  S198  1  0.00647379  0.87283608  0.46129500  1
  S2-  S199  1  0.00069543  0.88128203  0.95243855  1
  S2-  S200  1  0.26070333  0.11833223  0.43886051  1
  S2-  S201  1  0.25004087  0.13649149  0.96383449  1
  S2-  S202  1  0.26074702  0.36921788  0.45244478  1
  S2-  S203  1  0.25410398  0.38613079  0.96701041  1
  S2-  S204  1  0.25244964  0.62529310  0.47187679  1
  S2-  S205  1  0.24851935  0.63412415  0.95804296  1
  S2-  S206  1  0.25072327  0.87666229  0.45108959  1
  S2-  S207  1  0.25023915  0.88622093  0.95905633  1
  S2-  S208  1  0.50659666  0.12108671  0.45883791  1
  S2-  S209  1  0.49338857  0.13524352  0.96558584  1
  S2-  S210  1  0.50440622  0.37196669  0.46292275  1
  S2-  S211  1  0.50015455  0.38638644  0.94934819  1
  S2-  S212  1  0.50134199  0.62546180  0.46141101  1
  S2-  S213  1  0.50125180  0.63600666  0.95594759  1
  S2-  S214  1  0.50484918  0.86740903  0.46391981  1
  S2-  S215  1  0.49240081  0.88819655  0.96044789  1
  S2-  S216  1  0.75332392  0.12216063  0.44691103  1
  S2-  S217  1  0.74765940  0.13716708  0.95426777  1
  S2-  S218  1  0.75186377  0.37102293  0.44599655  1
  S2-  S219  1  0.74152436  0.38246791  0.94516990  1
  S2-  S220  1  0.75562932  0.62233194  0.45305861  1
  S2-  S221  1  0.75132462  0.62819621  0.95281429  1
  S2-  S222  1  0.75794963  0.87177308  0.44999925  1
  S2-  S223  1  0.75072059  0.88942959  0.94784292  1
  S2-  S224  1  0.12144645  0.01398542  0.05608802  1
  S2-  S225  1  0.13343192  -0.00766714  0.55130304  1
  S2-  S226  1  0.12592530  0.26264118  0.05195569  1
  S2-  S227  1  0.13177730  0.24599232  0.54185434  1
  S2-  S228  1  0.12067894  0.51051913  0.04097685  1
  S2-  S229  1  0.13038577  0.49572873  0.54469745  1
  S2-  S230  1  0.11911598  0.76074324  0.04409132  1
  S2-  S231  1  0.13317425  0.74811999  0.55027423  1
  S2-  S232  1  0.37332176  0.01356469  0.05220655  1
  S2-  S233  1  0.38040534  -0.00570971  0.53574531  1
  S2-  S234  1  0.37623206  0.26377828  0.05166208  1
  S2-  S235  1  0.38470761  0.24840790  0.54080910  1
  S2-  S236  1  0.37860279  0.51573531  0.05064126  1
  S2-  S237  1  0.38237702  0.49437718  0.54916436  1
  S2-  S238  1  0.37521833  0.75785946  0.04739759  1
  S2-  S239  1  0.37609702  0.74240815  0.54903040  1
  S2-  S240  1  0.62920964  0.01254618  0.04225652  1
  S2-  S241  1  0.63157810  -0.00238604  0.54474362  1
  S2-  S242  1  0.62176455  0.26188795  0.04442701  1
  S2-  S243  1  0.63051304  0.24564764  0.55107399  1
  S2-  S244  1  0.62336667  0.50666616  0.04079103  1
  S2-  S245  1  0.63145743  0.49468113  0.54261176  1
  S2-  S246  1  0.62911965  0.76071599  0.03787995  1
  S2-  S247  1  0.62850479  0.74591547  0.54894307  1
  S2-  S248  1  0.87318677  0.00886348  0.03928928  1
  S2-  S249  1  0.87745652  -0.00339269  0.54108471  1
  S2-  S250  1  0.87063148  0.26511232  0.03994167  1
  S2-  S251  1  0.87414622  0.24552784  0.54207422  1
  S2-  S252  1  0.87184524  0.50741001  0.03486486  1
  S2-  S253  1  0.87552589  0.49585338  0.54640860  1
  S2-  S254  1  0.87306712  0.76115822  0.04085634  1
  S2-  S255  1  0.87772863  0.74631999  0.54605665  1
