# generated using pymatgen
data_La6Ce6Pr19Nd20Sm13(BiS2)64
_symmetry_space_group_name_H-M   'P 1'
_cell_length_a   16.02401346
_cell_length_b   16.03151440
_cell_length_c   27.36387857
_cell_angle_alpha   90.02468685
_cell_angle_beta   90.50049070
_cell_angle_gamma   89.96360851
_symmetry_Int_Tables_number   1
_chemical_formula_structural   La6Ce6Pr19Nd20Sm13(BiS2)64
_chemical_formula_sum   'La6 Ce6 Pr19 Nd20 Sm13 Bi64 S128'
_cell_volume   7029.21470517
_cell_formula_units_Z   1
loop_
 _symmetry_equiv_pos_site_id
 _symmetry_equiv_pos_as_xyz
  1  'x, y, z'
loop_
 _atom_type_symbol
 _atom_type_oxidation_number
  La3+  3.0
  Ce3+  3.0
  Pr3+  3.0
  Nd3+  3.0
  Sm3+  3.0
  Bi2+  2.0
  S2-  -2.0
loop_
 _atom_site_type_symbol
 _atom_site_label
 _atom_site_symmetry_multiplicity
 _atom_site_fract_x
 _atom_site_fract_y
 _atom_site_fract_z
 _atom_site_occupancy
  La3+  La0  1  0.51828559  0.64791390  0.57865194  1
  La3+  La1  1  0.88480442  0.75840298  0.39234913  1
  La3+  La2  1  0.12102919  0.76936572  0.92373552  1
  La3+  La3  1  0.87673495  0.27114592  0.89653763  1
  La3+  La4  1  0.64547648  0.01879029  0.40578052  1
  La3+  La5  1  0.25069219  0.14597847  0.06488031  1
  Ce3+  Ce6  1  0.74791273  0.38590560  0.06074374  1
  Ce3+  Ce7  1  0.38982427  0.01345493  0.44456525  1
  Ce3+  Ce8  1  0.49955305  0.14397499  0.05445016  1
  Ce3+  Ce9  1  0.62562307  0.77081693  0.95047145  1
  Ce3+  Ce10  1  0.37530884  0.27170576  0.92356072  1
  Ce3+  Ce11  1  0.75268253  0.64646175  0.05956726  1
  Pr3+  Pr12  1  0.02288424  0.39291492  0.57670481  1
  Pr3+  Pr13  1  0.89094049  0.26354740  0.44237684  1
  Pr3+  Pr14  1  0.87294476  0.02071207  0.93567107  1
  Pr3+  Pr15  1  0.52708455  0.89434210  0.55655300  1
  Pr3+  Pr16  1  0.13570597  0.01184903  0.43480218  1
  Pr3+  Pr17  1  0.62731481  0.01721197  0.94786312  1
  Pr3+  Pr18  1  0.39229595  0.76331329  0.43329364  1
  Pr3+  Pr19  1  0.13980794  0.26282879  0.45018924  1
  Pr3+  Pr20  1  0.13992568  0.51382991  0.44066009  1
  Pr3+  Pr21  1  0.38820593  0.50952330  0.43386202  1
  Pr3+  Pr22  1  0.00186077  0.64728362  0.06071225  1
  Pr3+  Pr23  1  0.77039753  0.88668749  0.54270211  1
  Pr3+  Pr24  1  0.51099447  0.38902698  0.56402492  1
  Pr3+  Pr25  1  0.64041742  0.26547027  0.43291357  1
  Pr3+  Pr26  1  0.74590036  0.09239486  0.61897509  1
  Pr3+  Pr27  1  0.89172008  0.01595544  0.42861163  1
  Pr3+  Pr28  1  0.87330208  0.77467688  0.93289696  1
  Pr3+  Pr29  1  0.12546778  0.02187025  0.93305782  1
  Pr3+  Pr30  1  0.00026325  0.39102763  0.06077935  1
  Nd3+  Nd31  1  0.76789521  0.63593101  0.56090204  1
  Nd3+  Nd32  1  0.01354439  0.88874186  0.55884614  1
  Nd3+  Nd33  1  0.12636379  0.27084931  0.93151690  1
  Nd3+  Nd34  1  0.37204892  0.52191538  0.93223426  1
  Nd3+  Nd35  1  0.89633161  0.51425285  0.43497415  1
  Nd3+  Nd36  1  0.25487051  0.39514712  0.06553494  1
  Nd3+  Nd37  1  0.62340568  0.26722391  0.92701766  1
  Nd3+  Nd38  1  0.75127441  0.14292898  0.06638368  1
  Nd3+  Nd39  1  0.13677771  0.76086980  0.43882782  1
  Nd3+  Nd40  1  0.50071958  0.64293520  0.06694109  1
  Nd3+  Nd41  1  0.25648608  0.64368107  0.06994286  1
  Nd3+  Nd42  1  0.26317327  0.13583879  0.57204387  1
  Nd3+  Nd43  1  0.00922997  0.14179189  0.57651181  1
  Nd3+  Nd44  1  0.76144631  0.89121500  0.09758145  1
  Nd3+  Nd45  1  0.26842902  0.64868598  0.57484739  1
  Nd3+  Nd46  1  0.37661284  0.01340956  0.93224589  1
  Nd3+  Nd47  1  0.76795747  0.37590829  0.56519232  1
  Nd3+  Nd48  1  0.38465624  0.25197891  0.43323670  1
  Nd3+  Nd49  1  0.87374938  0.51419035  0.94178229  1
  Nd3+  Nd50  1  0.00612086  0.89323619  0.06379695  1
  Sm3+  Sm51  1  -0.00159974  0.14255570  0.05201081  1
  Sm3+  Sm52  1  0.01851641  0.63361419  0.56859343  1
  Sm3+  Sm53  1  0.37324826  0.76650917  0.93585385  1
  Sm3+  Sm54  1  0.26740543  0.88752854  0.55679499  1
  Sm3+  Sm55  1  0.50082277  0.89449304  0.06838012  1
  Sm3+  Sm56  1  0.12594916  0.51919116  0.94493079  1
  Sm3+  Sm57  1  0.63926168  0.51591241  0.44839745  1
  Sm3+  Sm58  1  0.49989902  0.39222929  0.05063973  1
  Sm3+  Sm59  1  0.62460259  0.51996941  0.94373314  1
  Sm3+  Sm60  1  0.52232147  0.13959886  0.55266616  1
  Sm3+  Sm61  1  0.24915309  0.89732541  0.06343133  1
  Sm3+  Sm62  1  0.63652628  0.75835411  0.43039995  1
  Sm3+  Sm63  1  0.27213398  0.39368999  0.56690435  1
  Bi2+  Bi64  1  0.01457991  0.12499982  0.28290781  1
  Bi2+  Bi65  1  0.05335995  0.11797337  0.80338081  1
  Bi2+  Bi66  1  0.02872496  0.39291530  0.26535039  1
  Bi2+  Bi67  1  -0.04369755  0.38929752  0.77431250  1
  Bi2+  Bi68  1  0.00264248  0.58900224  0.29157293  1
  Bi2+  Bi69  1  -0.00551008  0.60996441  0.79025679  1
  Bi2+  Bi70  1  0.07342810  0.86169883  0.29394307  1
  Bi2+  Bi71  1  -0.03423928  0.87412666  0.78852182  1
  Bi2+  Bi72  1  0.21222221  0.09688461  0.31368172  1
  Bi2+  Bi73  1  0.25636683  0.12165369  0.83840974  1
  Bi2+  Bi74  1  0.27206034  0.36586367  0.29949506  1
  Bi2+  Bi75  1  0.25364971  0.29939859  0.78846686  1
  Bi2+  Bi76  1  0.26690568  0.64609959  0.29572573  1
  Bi2+  Bi77  1  0.25658419  0.60809051  0.79595730  1
  Bi2+  Bi78  1  0.26816614  0.84233082  0.32674437  1
  Bi2+  Bi79  1  0.28906940  0.88023644  0.78119275  1
  Bi2+  Bi80  1  0.47515457  0.19943973  0.29683446  1
  Bi2+  Bi81  1  0.44991644  0.11750273  0.79159460  1
  Bi2+  Bi82  1  0.60892223  0.39301998  0.28707914  1
  Bi2+  Bi83  1  0.45690479  0.37552094  0.78119441  1
  Bi2+  Bi84  1  0.46218869  0.59968732  0.30818375  1
  Bi2+  Bi85  1  0.50676364  0.57020162  0.79335405  1
  Bi2+  Bi86  1  0.45038175  0.85852758  0.28644241  1
  Bi2+  Bi87  1  0.54290877  0.87323153  0.80222057  1
  Bi2+  Bi88  1  0.76002286  0.15109130  0.28305528  1
  Bi2+  Bi89  1  0.75288975  0.03099842  0.80742888  1
  Bi2+  Bi90  1  0.79765618  0.34408446  0.31046721  1
  Bi2+  Bi91  1  0.69145214  0.36441008  0.77857784  1
  Bi2+  Bi92  1  0.72669740  0.62051820  0.28101129  1
  Bi2+  Bi93  1  0.79171587  0.60484511  0.79314209  1
  Bi2+  Bi94  1  0.73626792  0.88714416  0.27721476  1
  Bi2+  Bi95  1  0.78219478  0.79557944  0.75729743  1
  Bi2+  Bi96  1  0.15852709  -0.02868214  0.21543487  1
  Bi2+  Bi97  1  0.17686735  0.02459863  0.73484852  1
  Bi2+  Bi98  1  0.11451785  0.22660795  0.20327164  1
  Bi2+  Bi99  1  0.12988655  0.24628415  0.70613225  1
  Bi2+  Bi100  1  0.18582967  0.49939774  0.22892220  1
  Bi2+  Bi101  1  0.09517089  0.49430071  0.71912185  1
  Bi2+  Bi102  1  0.14392949  0.70651255  0.19275497  1
  Bi2+  Bi103  1  0.14305913  0.76442881  0.70902390  1
  Bi2+  Bi104  1  0.33406532  0.06910099  0.22856966  1
  Bi2+  Bi105  1  0.37766515  0.00195014  0.70446211  1
  Bi2+  Bi106  1  0.36035310  0.26763794  0.21428719  1
  Bi2+  Bi107  1  0.33705887  0.19740222  0.69396005  1
  Bi2+  Bi108  1  0.44907777  0.50231535  0.21198981  1
  Bi2+  Bi109  1  0.31654202  0.48776937  0.70554428  1
  Bi2+  Bi110  1  0.32097735  0.77964504  0.21296842  1
  Bi2+  Bi111  1  0.39494784  0.75236466  0.71097963  1
  Bi2+  Bi112  1  0.57120579  0.00031932  0.20774501  1
  Bi2+  Bi113  1  0.56978673  -0.05711182  0.69774575  1
  Bi2+  Bi114  1  0.59399645  0.26973489  0.19912882  1
  Bi2+  Bi115  1  0.52808196  0.23819134  0.70775882  1
  Bi2+  Bi116  1  0.66282118  0.48973342  0.18832453  1
  Bi2+  Bi117  1  0.59570832  0.45444618  0.69669078  1
  Bi2+  Bi118  1  0.56473576  0.66037504  0.20834745  1
  Bi2+  Bi119  1  0.62529852  0.67644581  0.73473933  1
  Bi2+  Bi120  1  0.89941132  0.03297131  0.20670963  1
  Bi2+  Bi121  1  0.87927291  -0.07329216  0.69201775  1
  Bi2+  Bi122  1  0.86564068  0.27828792  0.20734135  1
  Bi2+  Bi123  1  0.86540569  0.21971239  0.71482902  1
  Bi2+  Bi124  1  0.85146280  0.47591252  0.22239107  1
  Bi2+  Bi125  1  0.79585195  0.47476016  0.69983223  1
  Bi2+  Bi126  1  0.90647246  0.74495369  0.20394141  1
  Bi2+  Bi127  1  0.88597596  0.65744727  0.69395186  1
  S2-  S128  1  0.02877618  0.11003021  0.14773421  1
  S2-  S129  1  -0.08533562  0.08116124  0.65722689  1
  S2-  S130  1  0.01765132  0.35311575  0.15926162  1
  S2-  S131  1  -0.00656322  0.27515659  0.65323467  1
  S2-  S132  1  0.00576898  0.61920264  0.16079537  1
  S2-  S133  1  -0.02505983  0.52119365  0.64512788  1
  S2-  S134  1  -0.08539436  0.88578976  0.15178610  1
  S2-  S135  1  0.03823327  0.86522998  0.65926614  1
  S2-  S136  1  0.26436712  0.02477667  0.13888048  1
  S2-  S137  1  0.14395972  0.10406739  0.64543557  1
  S2-  S138  1  0.24228587  0.27271170  0.13882496  1
  S2-  S139  1  0.17283854  0.40289739  0.64965952  1
  S2-  S140  1  0.24649080  0.51639783  0.14090688  1
  S2-  S141  1  0.13930457  0.64726141  0.64615683  1
  S2-  S142  1  0.13214536  0.86166421  0.13736394  1
  S2-  S143  1  0.27164339  0.81022225  0.64475032  1
  S2-  S144  1  0.52211481  0.13989300  0.15181870  1
  S2-  S145  1  0.57092952  0.10687559  0.64565995  1
  S2-  S146  1  0.46216375  0.37108260  0.14624442  1
  S2-  S147  1  0.39393203  0.39224402  0.64180457  1
  S2-  S148  1  0.40917050  0.65592795  0.15041032  1
  S2-  S149  1  0.38828687  0.61975353  0.65132290  1
  S2-  S150  1  0.45664939  0.90940154  0.16307789  1
  S2-  S151  1  0.50747654  0.80731422  0.64445217  1
  S2-  S152  1  0.76623257  0.05020322  0.15310748  1
  S2-  S153  1  0.73986702  0.10354350  0.72635313  1
  S2-  S154  1  0.73793286  0.27494852  0.13835540  1
  S2-  S155  1  0.76208062  0.26756249  0.64537946  1
  S2-  S156  1  0.78103745  0.70942839  0.14807839  1
  S2-  S157  1  0.66276885  0.65018985  0.64101402  1
  S2-  S158  1  0.66314998  0.87607451  0.18173925  1
  S2-  S159  1  0.71979180  0.91601698  0.63888423  1
  S2-  S160  1  0.02318173  0.00050303  0.35591361  1
  S2-  S161  1  0.08196189  -0.04860442  0.84329928  1
  S2-  S162  1  0.17433292  0.25551825  0.35107112  1
  S2-  S163  1  0.03677878  0.28143864  0.84387264  1
  S2-  S164  1  0.02591082  0.47588880  0.36126067  1
  S2-  S165  1  0.12865693  0.52864067  0.84635479  1
  S2-  S166  1  0.05167768  0.72204116  0.35324399  1
  S2-  S167  1  0.20564522  0.75184018  0.83316213  1
  S2-  S168  1  0.37471520  0.10605311  0.36229270  1
  S2-  S169  1  0.39571819  -0.11467179  0.86190023  1
  S2-  S170  1  0.41647350  0.34505906  0.35141723  1
  S2-  S171  1  0.49727496  0.25036130  0.85216275  1
  S2-  S172  1  0.25729391  0.50971953  0.36265945  1
  S2-  S173  1  0.34256077  0.40472534  0.85669704  1
  S2-  S174  1  0.50805972  0.74500872  0.35757689  1
  S2-  S175  1  0.38782206  0.64494491  0.86017818  1
  S2-  S176  1  0.58056427  -0.04252056  0.31301542  1
  S2-  S177  1  0.58969074  0.02497642  0.84858647  1
  S2-  S178  1  0.62514672  0.17194337  0.34522733  1
  S2-  S179  1  0.72310612  0.25131921  0.84497821  1
  S2-  S180  1  0.62038008  0.53155310  0.34985071  1
  S2-  S181  1  0.62394785  0.48737945  0.84732310  1
  S2-  S182  1  0.72081190  0.75883960  0.34195428  1
  S2-  S183  1  0.61731798  0.75489772  0.85298091  1
  S2-  S184  1  0.79023994  0.01502440  0.33994131  1
  S2-  S185  1  0.83674459  -0.09792554  0.85979937  1
  S2-  S186  1  0.91241227  0.21607554  0.34428346  1
  S2-  S187  1  0.88711103  0.11302311  0.84380937  1
  S2-  S188  1  0.85823769  0.59938549  0.34728355  1
  S2-  S189  1  0.87100880  0.43478233  0.85214800  1
  S2-  S190  1  0.89706015  0.83231025  0.29517081  1
  S2-  S191  1  0.98577590  0.74427056  0.85448922  1
  S2-  S192  1  0.01644934  0.13790328  0.46036966  1
  S2-  S193  1  -0.00011436  0.14875197  0.94933033  1
  S2-  S194  1  0.01777425  0.38773874  0.46602098  1
  S2-  S195  1  0.00230320  0.39387436  0.95415367  1
  S2-  S196  1  0.01311425  0.63850177  0.46369755  1
  S2-  S197  1  -0.00203802  0.63779100  0.95516715  1
  S2-  S198  1  0.00673942  0.87882813  0.45272838  1
  S2-  S199  1  0.00106026  0.89587098  0.95713368  1
  S2-  S200  1  0.26118342  0.13269187  0.46585701  1
  S2-  S201  1  0.25286108  0.14576590  0.95425249  1
  S2-  S202  1  0.26941759  0.38292759  0.46267894  1
  S2-  S203  1  0.24613352  0.39530377  0.95853801  1
  S2-  S204  1  0.26670337  0.64389806  0.45786797  1
  S2-  S205  1  0.24807836  0.64428096  0.95919901  1
  S2-  S206  1  0.26412474  0.88891557  0.45337183  1
  S2-  S207  1  0.24841369  0.89240536  0.95436106  1
  S2-  S208  1  0.51791585  0.13600123  0.45118305  1
  S2-  S209  1  0.49650929  0.13963216  0.95192984  1
  S2-  S210  1  0.51537356  0.38916012  0.45697612  1
  S2-  S211  1  0.50145756  0.39848214  0.94905323  1
  S2-  S212  1  0.51481780  0.63422571  0.46165257  1
  S2-  S213  1  0.50292509  0.64470024  0.96157122  1
  S2-  S214  1  0.51991506  0.89535933  0.44848624  1
  S2-  S215  1  0.50053985  0.89127752  0.96335622  1
  S2-  S216  1  0.76548178  0.14140353  0.44329883  1
  S2-  S217  1  0.74973677  0.14598958  0.95711737  1
  S2-  S218  1  0.76472134  0.39199865  0.45353596  1
  S2-  S219  1  0.74634225  0.39281040  0.95540178  1
  S2-  S220  1  0.76420023  0.63934579  0.45554974  1
  S2-  S221  1  0.75110026  0.64231486  0.95204651  1
  S2-  S222  1  0.76663410  0.88259865  0.43929938  1
  S2-  S223  1  0.74731480  0.89231675  0.96545323  1
  S2-  S224  1  0.12552120  0.01990980  0.03889358  1
  S2-  S225  1  0.14130534  0.00724285  0.54206579  1
  S2-  S226  1  0.12191500  0.26750269  0.03792291  1
  S2-  S227  1  0.14683245  0.26359088  0.55417042  1
  S2-  S228  1  0.12391878  0.51881972  0.04794291  1
  S2-  S229  1  0.14894509  0.51806155  0.54596255  1
  S2-  S230  1  0.13061040  0.76255310  0.03653731  1
  S2-  S231  1  0.14034945  0.76728961  0.54277798  1
  S2-  S232  1  0.37813953  0.01439772  0.03929722  1
  S2-  S233  1  0.39281238  0.01357967  0.55218603  1
  S2-  S234  1  0.37776916  0.27005592  0.03621430  1
  S2-  S235  1  0.39019344  0.25596058  0.54330802  1
  S2-  S236  1  0.37883652  0.51883760  0.04017507  1
  S2-  S237  1  0.39113300  0.51989336  0.54148807  1
  S2-  S238  1  0.37441925  0.77281020  0.04577693  1
  S2-  S239  1  0.39386680  0.77053581  0.53932950  1
  S2-  S240  1  0.62498333  0.01448506  0.05403602  1
  S2-  S241  1  0.64750327  0.01914515  0.53668911  1
  S2-  S242  1  0.62047035  0.26772990  0.03655568  1
  S2-  S243  1  0.63455101  0.26732232  0.54011858  1
  S2-  S244  1  0.62455598  0.51787015  0.04906700  1
  S2-  S245  1  0.64215233  0.50669015  0.55071612  1
  S2-  S246  1  0.62394581  0.77050878  0.05772207  1
  S2-  S247  1  0.64289186  0.76342866  0.53520419  1
  S2-  S248  1  0.87739160  0.01801400  0.04466425  1
  S2-  S249  1  0.89063379  0.01500371  0.54121678  1
  S2-  S250  1  0.87834032  0.26600153  0.04779452  1
  S2-  S251  1  0.89797387  0.26806218  0.54514369  1
  S2-  S252  1  0.87377155  0.51663392  0.04922448  1
  S2-  S253  1  0.88442347  0.50983165  0.54218121  1
  S2-  S254  1  0.87683877  0.77000409  0.04155103  1
  S2-  S255  1  0.89284833  0.75907597  0.56158611  1
