# generated using pymatgen
data_La6Ce6Pr19Nd20Sm13(BiS2)64
_symmetry_space_group_name_H-M   'P 1'
_cell_length_a   16.13679417
_cell_length_b   16.12342639
_cell_length_c   27.38657307
_cell_angle_alpha   89.89122738
_cell_angle_beta   90.07719981
_cell_angle_gamma   89.94760445
_symmetry_Int_Tables_number   1
_chemical_formula_structural   La6Ce6Pr19Nd20Sm13(BiS2)64
_chemical_formula_sum   'La6 Ce6 Pr19 Nd20 Sm13 Bi64 S128'
_cell_volume   7125.42758751
_cell_formula_units_Z   1
loop_
 _symmetry_equiv_pos_site_id
 _symmetry_equiv_pos_as_xyz
  1  'x, y, z'
loop_
 _atom_type_symbol
 _atom_type_oxidation_number
  La3+  3.0
  Ce3+  3.0
  Pr3+  3.0
  Nd3+  3.0
  Sm3+  3.0
  Bi2+  2.0
  S2-  -2.0
loop_
 _atom_site_type_symbol
 _atom_site_label
 _atom_site_symmetry_multiplicity
 _atom_site_fract_x
 _atom_site_fract_y
 _atom_site_fract_z
 _atom_site_occupancy
  La3+  La0  1  0.14161944  0.74665687  0.39733627  1
  La3+  La1  1  0.88332145  0.01482060  0.43393391  1
  La3+  La2  1  0.75785280  0.14342607  0.59459612  1
  La3+  La3  1  0.87859612  0.49636456  0.93059701  1
  La3+  La4  1  0.62611262  0.74063839  0.92305980  1
  La3+  La5  1  0.36254220  0.76210145  0.88492743  1
  Ce3+  Ce6  1  0.00289006  0.88706572  0.55921471  1
  Ce3+  Ce7  1  0.75994993  0.62944614  0.55646318  1
  Ce3+  Ce8  1  0.87619992  0.74445386  0.93409170  1
  Ce3+  Ce9  1  0.77207310  0.39670491  0.58971090  1
  Ce3+  Ce10  1  0.75276587  0.36781182  0.05272983  1
  Ce3+  Ce11  1  0.25972252  0.38591891  0.56052064  1
  Pr3+  Pr12  1  0.63118312  0.25965133  0.43748382  1
  Pr3+  Pr13  1  0.50266998  0.61694058  0.59124469  1
  Pr3+  Pr14  1  0.37882779  0.24551474  0.93716583  1
  Pr3+  Pr15  1  0.76273581  0.88265989  0.56861999  1
  Pr3+  Pr16  1  0.00430001  0.13702788  0.56213015  1
  Pr3+  Pr17  1  0.88242865  0.76703347  0.43484862  1
  Pr3+  Pr18  1  0.25574483  0.13203313  0.57540952  1
  Pr3+  Pr19  1  0.62877260  0.75907217  0.44693331  1
  Pr3+  Pr20  1  0.75649771  0.10785655  0.07312615  1
  Pr3+  Pr21  1  0.51619485  0.88134976  0.58009693  1
  Pr3+  Pr22  1  0.12781130  0.49594023  0.93466058  1
  Pr3+  Pr23  1  0.25160499  0.86239153  0.06788351  1
  Pr3+  Pr24  1  0.50904534  0.37746175  0.07325018  1
  Pr3+  Pr25  1  0.50520770  0.11798780  0.06283955  1
  Pr3+  Pr26  1  0.25486029  0.88285255  0.57058969  1
  Pr3+  Pr27  1  0.25120422  0.11764886  0.06416695  1
  Pr3+  Pr28  1  0.88298877  0.51193918  0.43043407  1
  Pr3+  Pr29  1  0.62352996  0.49161645  0.93244757  1
  Pr3+  Pr30  1  0.37716061  0.49718823  0.92967755  1
  Nd3+  Nd31  1  0.12970167  0.74229725  0.94497199  1
  Nd3+  Nd32  1  0.14288242  0.00575714  0.43758181  1
  Nd3+  Nd33  1  0.51240911  0.38078055  0.56000881  1
  Nd3+  Nd34  1  0.87517138  0.24028585  0.93838098  1
  Nd3+  Nd35  1  0.38125891  0.51413745  0.44147377  1
  Nd3+  Nd36  1  0.13711878  0.25665789  0.44537606  1
  Nd3+  Nd37  1  0.25155629  0.64053154  0.56998236  1
  Nd3+  Nd38  1  0.63337158  0.01006307  0.44963037  1
  Nd3+  Nd39  1  0.00066422  0.36885891  0.05673180  1
  Nd3+  Nd40  1  0.00156686  0.61047844  0.06907984  1
  Nd3+  Nd41  1  0.62609083  0.24349120  0.94103658  1
  Nd3+  Nd42  1  0.87719139  -0.00606949  0.93989979  1
  Nd3+  Nd43  1  0.62816118  -0.00374263  0.93169169  1
  Nd3+  Nd44  1  0.50445472  0.86578448  0.05503550  1
  Nd3+  Nd45  1  0.13183922  0.50598460  0.43838261  1
  Nd3+  Nd46  1  0.50277973  0.62071556  0.05213582  1
  Nd3+  Nd47  1  0.37747790  -0.00696477  0.94514771  1
  Nd3+  Nd48  1  0.75241246  0.61975208  0.05834410  1
  Nd3+  Nd49  1  0.13076579  -0.00866135  0.94513584  1
  Nd3+  Nd50  1  0.25440076  0.60962839  0.06365213  1
  Sm3+  Sm51  1  0.37956957  0.75832458  0.45163222  1
  Sm3+  Sm52  1  0.00328782  0.11764371  0.05404828  1
  Sm3+  Sm53  1  0.75322064  0.85909761  0.06077922  1
  Sm3+  Sm54  1  0.63256981  0.50916159  0.44278360  1
  Sm3+  Sm55  1  0.25460446  0.36707250  0.05163882  1
  Sm3+  Sm56  1  0.38303091  0.25787813  0.44874919  1
  Sm3+  Sm57  1  0.38250922  0.00664114  0.45268371  1
  Sm3+  Sm58  1  0.00902066  0.63420703  0.55115417  1
  Sm3+  Sm59  1  0.12814590  0.24265326  0.94146805  1
  Sm3+  Sm60  1  0.88001575  0.25673359  0.44045446  1
  Sm3+  Sm61  1  0.00225531  0.86518210  0.05676792  1
  Sm3+  Sm62  1  0.00611971  0.38508775  0.55451257  1
  Sm3+  Sm63  1  0.51302376  0.13488222  0.55922265  1
  Bi2+  Bi64  1  0.00542095  0.08480861  0.28635174  1
  Bi2+  Bi65  1  0.04267278  0.11555391  0.77960377  1
  Bi2+  Bi66  1  0.03771917  0.36100513  0.27815960  1
  Bi2+  Bi67  1  0.03896747  0.31262581  0.75022896  1
  Bi2+  Bi68  1  0.00928697  0.60241390  0.29106059  1
  Bi2+  Bi69  1  -0.03393387  0.62873805  0.81777379  1
  Bi2+  Bi70  1  -0.02281265  0.86468473  0.29886714  1
  Bi2+  Bi71  1  -0.01970338  0.81905873  0.79513787  1
  Bi2+  Bi72  1  0.18717419  0.14125111  0.31510579  1
  Bi2+  Bi73  1  0.24748142  0.18906527  0.81682622  1
  Bi2+  Bi74  1  0.22796520  0.38889217  0.24536158  1
  Bi2+  Bi75  1  0.29950270  0.38055173  0.79819448  1
  Bi2+  Bi76  1  0.28913864  0.62618587  0.29001140  1
  Bi2+  Bi77  1  0.22427084  0.63414942  0.78413072  1
  Bi2+  Bi78  1  0.26037104  0.89453948  0.29751340  1
  Bi2+  Bi79  1  0.19866145  0.90508904  0.79066735  1
  Bi2+  Bi80  1  0.51997216  0.15549290  0.30280800  1
  Bi2+  Bi81  1  0.46055183  0.16846003  0.74192297  1
  Bi2+  Bi82  1  0.50744411  0.38776528  0.24393519  1
  Bi2+  Bi83  1  0.48396395  0.37345272  0.83748464  1
  Bi2+  Bi84  1  0.52726100  0.62324568  0.31345840  1
  Bi2+  Bi85  1  0.50277812  0.63119779  0.78290881  1
  Bi2+  Bi86  1  0.53040700  0.87699558  0.30380473  1
  Bi2+  Bi87  1  0.48388588  0.90346964  0.78510765  1
  Bi2+  Bi88  1  0.76195063  0.07595540  0.31221195  1
  Bi2+  Bi89  1  0.76135005  0.11779464  0.79524006  1
  Bi2+  Bi90  1  0.73085183  0.35178887  0.27957959  1
  Bi2+  Bi91  1  0.71126400  0.32970111  0.80866597  1
  Bi2+  Bi92  1  0.76801498  0.54544881  0.27882945  1
  Bi2+  Bi93  1  0.77067409  0.61236089  0.80270703  1
  Bi2+  Bi94  1  0.70838250  0.81551047  0.26257735  1
  Bi2+  Bi95  1  0.78608476  0.87841737  0.78416231  1
  Bi2+  Bi96  1  0.15583593  0.03015641  0.21544406  1
  Bi2+  Bi97  1  0.10158740  -0.02460023  0.69523838  1
  Bi2+  Bi98  1  0.07497120  0.22888093  0.19425674  1
  Bi2+  Bi99  1  0.10999626  0.17768489  0.67691306  1
  Bi2+  Bi100  1  0.12358715  0.53321776  0.19147643  1
  Bi2+  Bi101  1  0.15177794  0.47054557  0.73622210  1
  Bi2+  Bi102  1  0.12536535  0.78111633  0.19064510  1
  Bi2+  Bi103  1  0.09525407  0.72945495  0.71564534  1
  Bi2+  Bi104  1  0.39776368  0.01710891  0.27316887  1
  Bi2+  Bi105  1  0.30091339  0.05062717  0.73939757  1
  Bi2+  Bi106  1  0.34276209  0.22980932  0.26592424  1
  Bi2+  Bi107  1  0.29420262  0.24432603  0.69637891  1
  Bi2+  Bi108  1  0.36970120  0.51068990  0.20728076  1
  Bi2+  Bi109  1  0.39723337  0.48027387  0.71631714  1
  Bi2+  Bi110  1  0.42531445  0.74620220  0.24423148  1
  Bi2+  Bi111  1  0.38203496  0.75800209  0.68237368  1
  Bi2+  Bi112  1  0.63131462  0.01158015  0.19575207  1
  Bi2+  Bi113  1  0.59964442  0.00199870  0.70914500  1
  Bi2+  Bi114  1  0.60562550  0.24982103  0.18948621  1
  Bi2+  Bi115  1  0.55032044  0.34816476  0.73010763  1
  Bi2+  Bi116  1  0.60973556  0.55558890  0.21059882  1
  Bi2+  Bi117  1  0.70457071  0.47353293  0.73234920  1
  Bi2+  Bi118  1  0.59267902  0.74456312  0.18061337  1
  Bi2+  Bi119  1  0.68543169  0.75618774  0.72145560  1
  Bi2+  Bi120  1  0.89893595  -0.01298006  0.20651855  1
  Bi2+  Bi121  1  0.91432475  0.00856928  0.70552700  1
  Bi2+  Bi122  1  0.88641197  0.25976294  0.23740538  1
  Bi2+  Bi123  1  0.85824369  0.28147347  0.71439125  1
  Bi2+  Bi124  1  0.84030614  0.43491862  0.19094344  1
  Bi2+  Bi125  1  0.91635170  0.53500226  0.70062808  1
  Bi2+  Bi126  1  0.84740159  0.69731960  0.21912271  1
  Bi2+  Bi127  1  0.88200542  0.73555049  0.70503460  1
  S2-  S128  1  -0.04099528  0.11898703  0.14736733  1
  S2-  S129  1  -0.08677388  0.15527112  0.64738569  1
  S2-  S130  1  -0.00273699  0.46546390  0.13894169  1
  S2-  S131  1  -0.07174617  0.39295178  0.64221432  1
  S2-  S132  1  -0.00568127  0.66894019  0.16410374  1
  S2-  S133  1  0.03963348  0.60457518  0.64785788  1
  S2-  S134  1  -0.00432861  0.88614691  0.15469530  1
  S2-  S135  1  -0.10279844  0.87999055  0.63930588  1
  S2-  S136  1  0.22763092  0.15546448  0.16044745  1
  S2-  S137  1  0.25619766  0.00412668  0.64514678  1
  S2-  S138  1  0.24345398  0.43405254  0.14071667  1
  S2-  S139  1  0.22359982  0.39487296  0.65519640  1
  S2-  S140  1  0.23258270  0.66116329  0.15851321  1
  S2-  S141  1  0.34654442  0.59508797  0.65113646  1
  S2-  S142  1  0.24256339  0.89933755  0.16545966  1
  S2-  S143  1  0.22386704  0.76515966  0.64549195  1
  S2-  S144  1  0.51106510  0.10682375  0.16294636  1
  S2-  S145  1  0.54186891  0.13681395  0.65438871  1
  S2-  S146  1  0.44552853  0.31492815  0.15983348  1
  S2-  S147  1  0.52018130  0.46494260  0.64677180  1
  S2-  S148  1  0.48851077  0.52755093  0.13580292  1
  S2-  S149  1  0.54613669  0.68257481  0.68268551  1
  S2-  S150  1  0.52422555  0.89487219  0.15264422  1
  S2-  S151  1  0.45251419  0.91337492  0.67460462  1
  S2-  S152  1  0.73039385  0.15115908  0.17072751  1
  S2-  S153  1  0.74381206  0.06564705  0.69056246  1
  S2-  S154  1  0.69203770  0.38647945  0.14171926  1
  S2-  S155  1  0.72535599  0.28239712  0.65658614  1
  S2-  S156  1  0.75924281  0.73307119  0.13447466  1
  S2-  S157  1  0.76404155  0.54591111  0.64368651  1
  S2-  S158  1  0.76288188  0.96106275  0.13940047  1
  S2-  S159  1  0.65581922  0.87498091  0.64775410  1
  S2-  S160  1  0.11716170  -0.09155491  0.35574317  1
  S2-  S161  1  0.10926453  0.00174604  0.84699434  1
  S2-  S162  1  0.14942780  0.30133354  0.35047196  1
  S2-  S163  1  0.09945242  0.26573547  0.84682559  1
  S2-  S164  1  0.15214941  0.58287359  0.35106501  1
  S2-  S165  1  0.11159812  0.52948822  0.83680718  1
  S2-  S166  1  0.10226054  0.75044064  0.28713523  1
  S2-  S167  1  0.19275992  0.75998397  0.85369225  1
  S2-  S168  1  0.30273554  0.02019322  0.36640657  1
  S2-  S169  1  0.35443714  -0.06240309  0.85298983  1
  S2-  S170  1  0.42532471  0.26873322  0.35424749  1
  S2-  S171  1  0.41850098  0.19152783  0.84555656  1
  S2-  S172  1  0.38704339  0.52418291  0.34178831  1
  S2-  S173  1  0.36589983  0.59437938  0.84542571  1
  S2-  S174  1  0.30757786  0.76401555  0.36100483  1
  S2-  S175  1  0.35718223  0.76539084  0.77547799  1
  S2-  S176  1  0.61526555  0.01155783  0.35033280  1
  S2-  S177  1  0.60931862  -0.02705645  0.83159874  1
  S2-  S178  1  0.67072828  0.22446581  0.34040315  1
  S2-  S179  1  0.64458131  0.18164678  0.84908529  1
  S2-  S180  1  0.62149430  0.49699923  0.34547406  1
  S2-  S181  1  0.61351391  0.58106743  0.84629702  1
  S2-  S182  1  0.64761428  0.74769832  0.34675277  1
  S2-  S183  1  0.52426331  0.76798422  0.84229261  1
  S2-  S184  1  0.83740221  -0.06854178  0.34875173  1
  S2-  S185  1  0.85603432  0.00502665  0.84188033  1
  S2-  S186  1  0.88834797  0.15139944  0.36050981  1
  S2-  S187  1  0.85758215  0.23668100  0.83950502  1
  S2-  S188  1  0.94325212  0.47825134  0.33868209  1
  S2-  S189  1  0.87889427  0.47749024  0.83096354  1
  S2-  S190  1  0.91277866  0.71923434  0.34034175  1
  S2-  S191  1  0.76566084  0.76278935  0.85794813  1
  S2-  S192  1  0.01563290  0.13524263  0.45581296  1
  S2-  S193  1  0.00495589  0.11904331  0.94962812  1
  S2-  S194  1  0.00709159  0.37933964  0.45083630  1
  S2-  S195  1  0.00249097  0.36635671  0.95033833  1
  S2-  S196  1  0.01141692  0.63655951  0.44745249  1
  S2-  S197  1  0.00312758  0.61986181  0.95652284  1
  S2-  S198  1  0.00692387  0.88710779  0.45494468  1
  S2-  S199  1  0.00378031  0.86872728  0.95133506  1
  S2-  S200  1  0.26218745  0.13531238  0.46763522  1
  S2-  S201  1  0.25130060  0.11915220  0.95638604  1
  S2-  S202  1  0.26185855  0.38426606  0.45346166  1
  S2-  S203  1  0.25042879  0.36813491  0.94726606  1
  S2-  S204  1  0.25619794  0.63491163  0.46188334  1
  S2-  S205  1  0.25156985  0.61865176  0.95598369  1
  S2-  S206  1  0.26106288  0.88204211  0.46503369  1
  S2-  S207  1  0.25415901  0.86709652  0.96077897  1
  S2-  S208  1  0.50424590  0.13272928  0.45536665  1
  S2-  S209  1  0.50337645  0.11695778  0.95573597  1
  S2-  S210  1  0.50578721  0.38647981  0.45486988  1
  S2-  S211  1  0.50326432  0.36784577  0.96128827  1
  S2-  S212  1  0.50606819  0.63286914  0.45578426  1
  S2-  S213  1  0.49901763  0.61899367  0.95031028  1
  S2-  S214  1  0.50423126  0.88386359  0.46256324  1
  S2-  S215  1  0.50163182  0.87186804  0.95065771  1
  S2-  S216  1  0.75364346  0.13664691  0.45690272  1
  S2-  S217  1  0.75333996  0.11717124  0.95887296  1
  S2-  S218  1  0.75920989  0.38457928  0.43949910  1
  S2-  S219  1  0.75238383  0.36771020  0.94690604  1
  S2-  S220  1  0.75715851  0.63396837  0.44871646  1
  S2-  S221  1  0.75265202  0.61680581  0.95311276  1
  S2-  S222  1  0.75354100  0.88304404  0.46147598  1
  S2-  S223  1  0.75223340  0.87424714  0.95599490  1
  S2-  S224  1  0.12509690  -0.00753832  0.05084461  1
  S2-  S225  1  0.12808045  0.01055559  0.54473782  1
  S2-  S226  1  0.12615801  0.24536969  0.04608223  1
  S2-  S227  1  0.13199965  0.26271603  0.55058796  1
  S2-  S228  1  0.12770458  0.49045972  0.03956138  1
  S2-  S229  1  0.13143486  0.50748879  0.54435876  1
  S2-  S230  1  0.12492216  0.73830948  0.05008647  1
  S2-  S231  1  0.12325859  0.76010441  0.54537477  1
  S2-  S232  1  0.37652359  -0.00803667  0.05245088  1
  S2-  S233  1  0.39158536  0.00967055  0.55410755  1
  S2-  S234  1  0.37599985  0.24317682  0.04526501  1
  S2-  S235  1  0.38463546  0.25725479  0.55384053  1
  S2-  S236  1  0.37590436  0.48926059  0.03687724  1
  S2-  S237  1  0.38316865  0.50651719  0.54535586  1
  S2-  S238  1  0.37837035  0.74007503  0.06078706  1
  S2-  S239  1  0.39072831  0.75479552  0.55508338  1
  S2-  S240  1  0.62798013  -0.00853135  0.04046818  1
  S2-  S241  1  0.63760692  0.01463856  0.55375357  1
  S2-  S242  1  0.62979081  0.24104707  0.04769189  1
  S2-  S243  1  0.63469436  0.26014422  0.54491269  1
  S2-  S244  1  0.63127919  0.49780504  0.03852532  1
  S2-  S245  1  0.63643897  0.50404834  0.54521021  1
  S2-  S246  1  0.62716194  0.74270676  0.03547947  1
  S2-  S247  1  0.63007131  0.74555468  0.55217526  1
  S2-  S248  1  0.88433615  -0.00929595  0.04329021  1
  S2-  S249  1  0.87773257  0.01615245  0.54391810  1
  S2-  S250  1  0.87828336  0.24183009  0.04562782  1
  S2-  S251  1  0.87789139  0.26562638  0.54194468  1
  S2-  S252  1  0.87443192  0.49465190  0.03894156  1
  S2-  S253  1  0.88674082  0.50917971  0.53628996  1
  S2-  S254  1  0.88306825  0.74258426  0.04040955  1
  S2-  S255  1  0.88312635  0.75302352  0.54142754  1
