# generated using pymatgen
data_La6Ce6Pr19Nd20Sm13(BiS2)64
_symmetry_space_group_name_H-M   'P 1'
_cell_length_a   16.10094982
_cell_length_b   16.05074593
_cell_length_c   27.49497343
_cell_angle_alpha   89.26675693
_cell_angle_beta   89.79850966
_cell_angle_gamma   89.99063368
_symmetry_Int_Tables_number   1
_chemical_formula_structural   La6Ce6Pr19Nd20Sm13(BiS2)64
_chemical_formula_sum   'La6 Ce6 Pr19 Nd20 Sm13 Bi64 S128'
_cell_volume   7104.96214107
_cell_formula_units_Z   1
loop_
 _symmetry_equiv_pos_site_id
 _symmetry_equiv_pos_as_xyz
  1  'x, y, z'
loop_
 _atom_type_symbol
 _atom_type_oxidation_number
  La3+  3.0
  Ce3+  3.0
  Pr3+  3.0
  Nd3+  3.0
  Sm3+  3.0
  Bi2+  2.0
  S2-  -2.0
loop_
 _atom_site_type_symbol
 _atom_site_label
 _atom_site_symmetry_multiplicity
 _atom_site_fract_x
 _atom_site_fract_y
 _atom_site_fract_z
 _atom_site_occupancy
  La3+  La0  1  0.24763526  0.36532428  0.08689677  1
  La3+  La1  1  0.11437396  0.50275568  0.39722454  1
  La3+  La2  1  0.50604523  0.61758637  0.06880857  1
  La3+  La3  1  0.00173137  0.62402897  0.57537765  1
  La3+  La4  1  -0.00111981  0.12279581  0.56955328  1
  La3+  La5  1  0.49246315  0.86259256  0.59566886  1
  Ce3+  Ce6  1  0.24778629  0.87998186  0.56951956  1
  Ce3+  Ce7  1  0.75161126  0.87727247  0.05967346  1
  Ce3+  Ce8  1  0.63107481  0.00360238  0.93188849  1
  Ce3+  Ce9  1  0.00038000  0.37329950  0.56324174  1
  Ce3+  Ce10  1  0.12689566  0.25081349  0.43671311  1
  Ce3+  Ce11  1  0.63039934  0.50042972  0.93266800  1
  Pr3+  Pr12  1  0.25308194  0.87698469  0.05267532  1
  Pr3+  Pr13  1  0.37704970  0.74932464  0.93150205  1
  Pr3+  Pr14  1  0.74751275  0.12370176  0.56723683  1
  Pr3+  Pr15  1  -0.00239120  0.37407604  0.06281025  1
  Pr3+  Pr16  1  0.87480754  0.24968438  0.43471659  1
  Pr3+  Pr17  1  0.25520955  0.12367146  0.57554072  1
  Pr3+  Pr18  1  0.12101867  0.00256037  0.43406556  1
  Pr3+  Pr19  1  0.24802686  0.12241881  0.06500473  1
  Pr3+  Pr20  1  0.00242804  0.12205416  0.06533864  1
  Pr3+  Pr21  1  0.75153788  0.62131196  0.06407999  1
  Pr3+  Pr22  1  0.87565877  0.00440101  0.93345659  1
  Pr3+  Pr23  1  0.12426467  0.01432595  0.92060057  1
  Pr3+  Pr24  1  0.38160169  0.50961542  0.40243897  1
  Pr3+  Pr25  1  0.37385778  -0.00141971  0.44312852  1
  Pr3+  Pr26  1  0.50214834  0.12941666  0.57381629  1
  Pr3+  Pr27  1  0.12282788  0.74837709  0.44597828  1
  Pr3+  Pr28  1  0.75373871  0.11680778  0.07488886  1
  Pr3+  Pr29  1  0.00298765  0.62063335  0.06200256  1
  Pr3+  Pr30  1  0.87442571  0.00381438  0.43205440  1
  Nd3+  Nd31  1  0.74657613  0.87325159  0.55422784  1
  Nd3+  Nd32  1  0.12501338  0.50513060  0.93213156  1
  Nd3+  Nd33  1  0.24862167  0.37264870  0.55432371  1
  Nd3+  Nd34  1  0.74881279  0.37471272  0.55105416  1
  Nd3+  Nd35  1  0.37052746  0.25381610  0.43688873  1
  Nd3+  Nd36  1  0.37510931  0.24934915  0.93578014  1
  Nd3+  Nd37  1  0.00308057  0.87552750  0.05594995  1
  Nd3+  Nd38  1  0.87609506  0.50198901  0.93013843  1
  Nd3+  Nd39  1  0.50022368  0.37066585  0.06044841  1
  Nd3+  Nd40  1  0.50004224  0.87570946  0.05639234  1
  Nd3+  Nd41  1  0.74663655  0.62425835  0.55829577  1
  Nd3+  Nd42  1  0.62073923  0.25151025  0.43672889  1
  Nd3+  Nd43  1  0.25639816  0.62133623  0.06363517  1
  Nd3+  Nd44  1  0.62400486  0.75094171  0.94066788  1
  Nd3+  Nd45  1  0.87937840  0.75158924  0.94150934  1
  Nd3+  Nd46  1  0.38036573  0.50099551  0.93055603  1
  Nd3+  Nd47  1  0.37068787  0.75446752  0.43637938  1
  Nd3+  Nd48  1  0.62890959  0.24991543  0.94759950  1
  Nd3+  Nd49  1  0.38270316  0.00119392  0.91079145  1
  Nd3+  Nd50  1  0.62042340  -0.00009276  0.45015429  1
  Sm3+  Sm51  1  0.25141648  0.62112101  0.55242403  1
  Sm3+  Sm52  1  0.75523120  0.37316842  0.06026332  1
  Sm3+  Sm53  1  0.87532539  0.74815203  0.44700713  1
  Sm3+  Sm54  1  0.49754990  0.37448697  0.55423864  1
  Sm3+  Sm55  1  0.87895712  0.25002960  0.94280012  1
  Sm3+  Sm56  1  0.62078971  0.50288192  0.44264547  1
  Sm3+  Sm57  1  0.62025395  0.74982235  0.44502811  1
  Sm3+  Sm58  1  0.13272538  0.25719791  0.94170054  1
  Sm3+  Sm59  1  0.49480818  0.62445418  0.55994643  1
  Sm3+  Sm60  1  -0.00284754  0.87518200  0.56899882  1
  Sm3+  Sm61  1  0.49963627  0.12406873  0.05414683  1
  Sm3+  Sm62  1  0.13027872  0.75292251  0.94468810  1
  Sm3+  Sm63  1  0.87646242  0.50280218  0.44058089  1
  Bi2+  Bi64  1  0.00212195  0.11093139  0.29717215  1
  Bi2+  Bi65  1  -0.00067663  0.14589541  0.79104830  1
  Bi2+  Bi66  1  -0.07438351  0.29668789  0.29101315  1
  Bi2+  Bi67  1  -0.00719782  0.41586050  0.77119916  1
  Bi2+  Bi68  1  -0.02080197  0.64790219  0.29162624  1
  Bi2+  Bi69  1  -0.00831481  0.65404367  0.79835496  1
  Bi2+  Bi70  1  0.01254727  0.85179907  0.28914674  1
  Bi2+  Bi71  1  0.00520988  0.87297119  0.79250493  1
  Bi2+  Bi72  1  0.23073918  0.08209962  0.28240491  1
  Bi2+  Bi73  1  0.23967136  0.11417034  0.78274034  1
  Bi2+  Bi74  1  0.23876282  0.34826039  0.28441392  1
  Bi2+  Bi75  1  0.26916145  0.32588729  0.78746694  1
  Bi2+  Bi76  1  0.24967331  0.64885715  0.29390051  1
  Bi2+  Bi77  1  0.24027557  0.57203563  0.79671853  1
  Bi2+  Bi78  1  0.21524529  0.89489095  0.31273352  1
  Bi2+  Bi79  1  0.20864648  0.92271640  0.80783768  1
  Bi2+  Bi80  1  0.46071832  0.05099603  0.28937406  1
  Bi2+  Bi81  1  0.50823693  0.17000884  0.79582921  1
  Bi2+  Bi82  1  0.49198929  0.35956105  0.29985998  1
  Bi2+  Bi83  1  0.45675548  0.38262698  0.78257109  1
  Bi2+  Bi84  1  0.59289510  0.60700992  0.27656833  1
  Bi2+  Bi85  1  0.51617629  0.63026907  0.80277876  1
  Bi2+  Bi86  1  0.52302497  0.86475865  0.31590480  1
  Bi2+  Bi87  1  0.50525481  0.87393342  0.79271416  1
  Bi2+  Bi88  1  0.74529213  0.06012520  0.29075363  1
  Bi2+  Bi89  1  0.76308268  0.16687703  0.80380136  1
  Bi2+  Bi90  1  0.73862633  0.36652161  0.29202468  1
  Bi2+  Bi91  1  0.71992206  0.40372586  0.77697202  1
  Bi2+  Bi92  1  0.78352565  0.56334326  0.29319430  1
  Bi2+  Bi93  1  0.73100674  0.60060430  0.76977177  1
  Bi2+  Bi94  1  0.78766606  0.86181143  0.28429343  1
  Bi2+  Bi95  1  0.78929834  0.96388911  0.76295927  1
  Bi2+  Bi96  1  0.10257106  -0.02660611  0.19643148  1
  Bi2+  Bi97  1  0.08272570  0.02760458  0.71682381  1
  Bi2+  Bi98  1  0.05782004  0.22931281  0.21462860  1
  Bi2+  Bi99  1  0.12205172  0.30428407  0.70995498  1
  Bi2+  Bi100  1  0.12055734  0.50926061  0.19424622  1
  Bi2+  Bi101  1  0.13548243  0.50434476  0.70563886  1
  Bi2+  Bi102  1  0.15800467  0.77636288  0.22596410  1
  Bi2+  Bi103  1  0.15446277  0.75882063  0.75552500  1
  Bi2+  Bi104  1  0.34189156  -0.02503289  0.21309741  1
  Bi2+  Bi105  1  0.32503521  -0.02762269  0.71533860  1
  Bi2+  Bi106  1  0.41981070  0.24987995  0.20160990  1
  Bi2+  Bi107  1  0.37643358  0.23210011  0.70317341  1
  Bi2+  Bi108  1  0.38304423  0.52883408  0.20279642  1
  Bi2+  Bi109  1  0.34938481  0.50050987  0.70828351  1
  Bi2+  Bi110  1  0.43009082  0.78462340  0.22699906  1
  Bi2+  Bi111  1  0.36598831  0.69771828  0.71090884  1
  Bi2+  Bi112  1  0.59733616  -0.00304311  0.20851524  1
  Bi2+  Bi113  1  0.62001582  0.05354868  0.73442820  1
  Bi2+  Bi114  1  0.63194564  0.19103236  0.22633936  1
  Bi2+  Bi115  1  0.63939966  0.28073709  0.69957863  1
  Bi2+  Bi116  1  0.64419967  0.46379276  0.20277842  1
  Bi2+  Bi117  1  0.57602465  0.50310067  0.71940948  1
  Bi2+  Bi118  1  0.63357304  0.77831435  0.22001544  1
  Bi2+  Bi119  1  0.64863456  0.76191999  0.69849369  1
  Bi2+  Bi120  1  0.86226175  -0.00582503  0.20580848  1
  Bi2+  Bi121  1  0.86232189  0.10625767  0.69485938  1
  Bi2+  Bi122  1  0.80791397  0.25564845  0.20060442  1
  Bi2+  Bi123  1  0.87336342  0.30119279  0.70624509  1
  Bi2+  Bi124  1  0.83472987  0.53618501  0.18310119  1
  Bi2+  Bi125  1  0.89609993  0.57239070  0.70989559  1
  Bi2+  Bi126  1  0.81759351  0.72531931  0.20329244  1
  Bi2+  Bi127  1  0.88673982  0.80781364  0.71122507  1
  S2-  S128  1  0.12014256  0.10853818  0.14145317  1
  S2-  S129  1  0.00342217  0.25609695  0.63953003  1
  S2-  S130  1  0.08829645  0.35245061  0.14885702  1
  S2-  S131  1  -0.00550780  0.48848866  0.64135669  1
  S2-  S132  1  -0.00480397  0.61696049  0.16187341  1
  S2-  S133  1  -0.00315087  0.75731971  0.64675076  1
  S2-  S134  1  -0.02629599  0.88554316  0.15297248  1
  S2-  S135  1  -0.02676655  0.99369406  0.64112500  1
  S2-  S136  1  0.29925982  0.21986024  0.14522780  1
  S2-  S137  1  0.20352511  -0.00238012  0.64526136  1
  S2-  S138  1  0.27069811  0.41383631  0.18550051  1
  S2-  S139  1  0.24673257  0.26811426  0.63839151  1
  S2-  S140  1  0.23822122  0.61112085  0.16287593  1
  S2-  S141  1  0.24063227  0.62135934  0.65136424  1
  S2-  S142  1  0.23553296  0.87367518  0.15245743  1
  S2-  S143  1  0.34181035  0.84006051  0.65151804  1
  S2-  S144  1  0.51483661  0.14310996  0.15122165  1
  S2-  S145  1  0.39040070  0.09609714  0.64954960  1
  S2-  S146  1  0.48852513  0.40455321  0.15848409  1
  S2-  S147  1  0.50305087  0.30431114  0.64355415  1
  S2-  S148  1  0.43054821  0.67214419  0.15363864  1
  S2-  S149  1  0.50687321  0.69838502  0.64870786  1
  S2-  S150  1  0.47803722  0.90479014  0.15335112  1
  S2-  S151  1  0.54851304  0.90334577  0.69058889  1
  S2-  S152  1  0.88664686  0.12837275  0.14411570  1
  S2-  S153  1  0.63571719  0.13075739  0.64525285  1
  S2-  S154  1  0.86578025  0.38473168  0.13584653  1
  S2-  S155  1  0.75694449  0.38165771  0.64933047  1
  S2-  S156  1  0.63839590  0.59759931  0.14007190  1
  S2-  S157  1  0.75126515  0.63462226  0.65652699  1
  S2-  S158  1  0.73087645  0.97467693  0.13971623  1
  S2-  S159  1  0.75257497  0.86786951  0.65292452  1
  S2-  S160  1  0.13949825  0.13196450  0.36127744  1
  S2-  S161  1  -0.01434403  0.01077660  0.85430358  1
  S2-  S162  1  0.12567090  0.34253781  0.35313907  1
  S2-  S163  1  0.12855029  0.16815542  0.85760879  1
  S2-  S164  1  0.15173995  0.50277243  0.29023962  1
  S2-  S165  1  0.19875689  0.43067179  0.85162947  1
  S2-  S166  1  0.11263435  0.67282732  0.35598819  1
  S2-  S167  1  0.14067239  0.68737926  0.85533501  1
  S2-  S168  1  0.36405674  -0.11388036  0.36489827  1
  S2-  S169  1  0.37301527  -0.14069822  0.84821749  1
  S2-  S170  1  0.36642175  0.26104639  0.33675812  1
  S2-  S171  1  0.36908979  0.14884302  0.85354102  1
  S2-  S172  1  0.35682148  0.46991593  0.30293891  1
  S2-  S173  1  0.51727847  0.48669380  0.85915744  1
  S2-  S174  1  0.37765363  0.66493369  0.35023150  1
  S2-  S175  1  0.37277999  0.63002880  0.85693654  1
  S2-  S176  1  0.60185769  0.01676989  0.35202163  1
  S2-  S177  1  0.53000479  0.00466150  0.85016406  1
  S2-  S178  1  0.61383129  0.26194313  0.33854345  1
  S2-  S179  1  0.63251226  0.25692949  0.84891986  1
  S2-  S180  1  0.54562520  0.49912939  0.35544949  1
  S2-  S181  1  0.75264513  0.50265145  0.85807141  1
  S2-  S182  1  0.62187403  0.73592496  0.34848719  1
  S2-  S183  1  0.61243634  0.76871883  0.84158628  1
  S2-  S184  1  0.99745183  -0.03088133  0.36044611  1
  S2-  S185  1  0.75275168  0.01170175  0.85926972  1
  S2-  S186  1  0.84713483  0.13348951  0.36027779  1
  S2-  S187  1  0.88857170  0.25228185  0.84438390  1
  S2-  S188  1  0.95126291  0.51608315  0.35224825  1
  S2-  S189  1  0.99458588  0.50348559  0.85707394  1
  S2-  S190  1  0.88536165  0.75643712  0.34958731  1
  S2-  S191  1  0.88105755  0.75588328  0.84258403  1
  S2-  S192  1  -0.00379866  0.12738278  0.45953893  1
  S2-  S193  1  0.00301115  0.13243416  0.95838791  1
  S2-  S194  1  -0.00417065  0.37727055  0.45474939  1
  S2-  S195  1  0.00316570  0.37283773  0.95416733  1
  S2-  S196  1  -0.00376193  0.62443337  0.46271673  1
  S2-  S197  1  0.00419207  0.63040490  0.95673990  1
  S2-  S198  1  -0.00503265  0.86907397  0.46418204  1
  S2-  S199  1  0.00578920  0.87438420  0.95064312  1
  S2-  S200  1  0.25449243  0.12472041  0.46151306  1
  S2-  S201  1  0.25343378  0.12511070  0.95672365  1
  S2-  S202  1  0.25609574  0.38654112  0.44837745  1
  S2-  S203  1  0.25681555  0.37606801  0.95850188  1
  S2-  S204  1  0.24962605  0.61778657  0.44971902  1
  S2-  S205  1  0.25149155  0.62303068  0.95835931  1
  S2-  S206  1  0.24308378  0.87652361  0.46246631  1
  S2-  S207  1  0.24946511  0.88137964  0.94799486  1
  S2-  S208  1  0.49739654  0.12737376  0.45472497  1
  S2-  S209  1  0.50192635  0.12647388  0.95249892  1
  S2-  S210  1  0.49591329  0.37852618  0.45187907  1
  S2-  S211  1  0.50110972  0.37105216  0.95576385  1
  S2-  S212  1  0.49748841  0.62410263  0.45713914  1
  S2-  S213  1  0.50328923  0.62359544  0.95994391  1
  S2-  S214  1  0.50218683  0.87161054  0.45936066  1
  S2-  S215  1  0.50063740  0.87772084  0.95232253  1
  S2-  S216  1  0.74147569  0.12723655  0.46125665  1
  S2-  S217  1  0.75396253  0.12955436  0.96259344  1
  S2-  S218  1  0.74738003  0.37947711  0.44528399  1
  S2-  S219  1  0.75537524  0.37174856  0.95674230  1
  S2-  S220  1  0.74721828  0.62461864  0.45192641  1
  S2-  S221  1  0.75231975  0.63059852  0.95688238  1
  S2-  S222  1  0.74803864  0.87314230  0.44833708  1
  S2-  S223  1  0.75215968  0.87226823  0.95438782  1
  S2-  S224  1  0.12509956  -0.00301539  0.03468297  1
  S2-  S225  1  0.11835021  -0.00241683  0.54033057  1
  S2-  S226  1  0.12670023  0.25095810  0.04255052  1
  S2-  S227  1  0.12593885  0.24752948  0.54010780  1
  S2-  S228  1  0.12964339  0.49780106  0.04637623  1
  S2-  S229  1  0.12932035  0.49893376  0.54832743  1
  S2-  S230  1  0.12792655  0.74840896  0.04958533  1
  S2-  S231  1  0.12983464  0.74921864  0.55070429  1
  S2-  S232  1  0.37787886  0.00274144  0.04637865  1
  S2-  S233  1  0.38084304  -0.00681971  0.54762909  1
  S2-  S234  1  0.37928718  0.24870637  0.04001418  1
  S2-  S235  1  0.37809173  0.25010368  0.54088779  1
  S2-  S236  1  0.37469122  0.49333304  0.04894956  1
  S2-  S237  1  0.37612862  0.49783787  0.55599853  1
  S2-  S238  1  0.37632037  0.75057245  0.04033806  1
  S2-  S239  1  0.37352031  0.74630253  0.54291880  1
  S2-  S240  1  0.62231428  0.00187233  0.03956348  1
  S2-  S241  1  0.61809715  -0.00722620  0.55430313  1
  S2-  S242  1  0.63063652  0.24791093  0.05365392  1
  S2-  S243  1  0.62369718  0.25335994  0.54076873  1
  S2-  S244  1  0.63022361  0.48943257  0.03968912  1
  S2-  S245  1  0.62029876  0.50020669  0.54792829  1
  S2-  S246  1  0.62725211  0.75316064  0.04790319  1
  S2-  S247  1  0.62083903  0.74863961  0.54816768  1
  S2-  S248  1  0.87780384  -0.00328120  0.04006833  1
  S2-  S249  1  0.86689258  -0.00126960  0.53989803  1
  S2-  S250  1  0.87386081  0.24699116  0.04410075  1
  S2-  S251  1  0.86852955  0.24894780  0.54190365  1
  S2-  S252  1  0.87525863  0.50177473  0.03596202  1
  S2-  S253  1  0.87014846  0.50101329  0.54362733  1
  S2-  S254  1  0.87708571  0.74868543  0.04865341  1
  S2-  S255  1  0.87005014  0.74886446  0.54913936  1
