# generated using pymatgen
data_La6Ce6Pr19Nd20Sm13(BiS2)64
_symmetry_space_group_name_H-M   'P 1'
_cell_length_a   16.08637499
_cell_length_b   16.10976063
_cell_length_c   27.34572044
_cell_angle_alpha   89.91238411
_cell_angle_beta   90.02755821
_cell_angle_gamma   90.01466692
_symmetry_Int_Tables_number   1
_chemical_formula_structural   La6Ce6Pr19Nd20Sm13(BiS2)64
_chemical_formula_sum   'La6 Ce6 Pr19 Nd20 Sm13 Bi64 S128'
_cell_volume   7086.56986794
_cell_formula_units_Z   1
loop_
 _symmetry_equiv_pos_site_id
 _symmetry_equiv_pos_as_xyz
  1  'x, y, z'
loop_
 _atom_type_symbol
 _atom_type_oxidation_number
  La3+  3.0
  Ce3+  3.0
  Pr3+  3.0
  Nd3+  3.0
  Sm3+  3.0
  Bi2+  2.0
  S2-  -2.0
loop_
 _atom_site_type_symbol
 _atom_site_label
 _atom_site_symmetry_multiplicity
 _atom_site_fract_x
 _atom_site_fract_y
 _atom_site_fract_z
 _atom_site_occupancy
  La3+  La0  1  0.38242767  0.49832013  0.90067422  1
  La3+  La1  1  0.11204437  0.25372837  0.92931723  1
  La3+  La2  1  0.74592466  0.37982821  0.10369561  1
  La3+  La3  1  0.48766365  0.63581015  0.08572076  1
  La3+  La4  1  0.37718135  0.01434912  0.44722087  1
  La3+  La5  1  0.00777615  0.39349366  0.12299069  1
  Ce3+  Ce6  1  0.51304912  0.13707135  0.55915733  1
  Ce3+  Ce7  1  0.74599324  0.62966581  0.07082642  1
  Ce3+  Ce8  1  0.13178567  0.50801902  0.44635126  1
  Ce3+  Ce9  1  0.75602501  0.88745271  0.55149218  1
  Ce3+  Ce10  1  0.13493789  0.76094747  0.43440028  1
  Ce3+  Ce11  1  0.75118098  0.63707695  0.55446663  1
  Pr3+  Pr12  1  -0.00270599  0.62778945  0.06083864  1
  Pr3+  Pr13  1  0.74625926  0.87682130  0.06607972  1
  Pr3+  Pr14  1  0.61908772  0.50924885  0.41755007  1
  Pr3+  Pr15  1  0.00641161  0.63484934  0.56695918  1
  Pr3+  Pr16  1  0.51546222  0.88701373  0.56571293  1
  Pr3+  Pr17  1  0.63357155  0.25946356  0.42603907  1
  Pr3+  Pr18  1  0.62828221  0.00486681  0.92265440  1
  Pr3+  Pr19  1  0.88248992  0.76105718  0.43469931  1
  Pr3+  Pr20  1  0.51148474  0.63805506  0.56066656  1
  Pr3+  Pr21  1  -0.00208344  0.13629290  0.07365064  1
  Pr3+  Pr22  1  0.00528082  0.88413185  0.55918906  1
  Pr3+  Pr23  1  0.50019859  0.38110062  0.06507737  1
  Pr3+  Pr24  1  0.13682806  0.27034767  0.43482944  1
  Pr3+  Pr25  1  0.25611401  0.88515946  0.56333478  1
  Pr3+  Pr26  1  0.26631810  0.38139974  0.58414288  1
  Pr3+  Pr27  1  0.24580869  0.13292446  0.05353851  1
  Pr3+  Pr28  1  0.24662001  0.13670900  0.57459003  1
  Pr3+  Pr29  1  0.25211404  0.63070207  0.04973900  1
  Pr3+  Pr30  1  0.62245524  0.76044345  0.41866493  1
  Nd3+  Nd31  1  0.87043373  0.25993212  0.95358207  1
  Nd3+  Nd32  1  0.37572367  0.76269284  0.43404650  1
  Nd3+  Nd33  1  0.50120149  0.88270297  0.06139268  1
  Nd3+  Nd34  1  0.87015415  0.75403219  0.94140230  1
  Nd3+  Nd35  1  0.12518416  0.02299205  0.44069386  1
  Nd3+  Nd36  1  0.24656642  0.38090909  0.05371177  1
  Nd3+  Nd37  1  0.75621880  0.39005781  0.54580069  1
  Nd3+  Nd38  1  0.75199172  0.13725147  0.56559263  1
  Nd3+  Nd39  1  0.62044818  0.51414317  0.93923888  1
  Nd3+  Nd40  1  0.37543805  0.76308666  0.92799065  1
  Nd3+  Nd41  1  0.61936514  0.75359615  0.93741471  1
  Nd3+  Nd42  1  0.88074036  0.51812402  0.42636261  1
  Nd3+  Nd43  1  0.63020719  0.01182256  0.42747778  1
  Nd3+  Nd44  1  0.74723947  0.12912727  0.06708170  1
  Nd3+  Nd45  1  0.87117797  0.00789953  0.94186380  1
  Nd3+  Nd46  1  0.12253759  0.75417315  0.93811557  1
  Nd3+  Nd47  1  0.12174228  0.50437317  0.93845794  1
  Nd3+  Nd48  1  0.50104193  0.12928495  0.05726494  1
  Nd3+  Nd49  1  0.37439125  0.25639699  0.93777648  1
  Nd3+  Nd50  1  0.00656678  0.38936903  0.56506715  1
  Sm3+  Sm51  1  0.51304462  0.38801857  0.56021985  1
  Sm3+  Sm52  1  0.26501022  0.63618726  0.56365903  1
  Sm3+  Sm53  1  0.87159747  0.50238313  0.95309327  1
  Sm3+  Sm54  1  0.37371584  0.00487903  0.94013895  1
  Sm3+  Sm55  1  0.12024902  0.00689421  0.94647979  1
  Sm3+  Sm56  1  0.24898122  0.87997766  0.05486857  1
  Sm3+  Sm57  1  0.62307055  0.25836583  0.94462044  1
  Sm3+  Sm58  1  -0.00211284  0.14246573  0.58166924  1
  Sm3+  Sm59  1  0.88439109  0.26164719  0.44011502  1
  Sm3+  Sm60  1  0.88337188  0.01631873  0.44295925  1
  Sm3+  Sm61  1  0.37773184  0.26301167  0.44676158  1
  Sm3+  Sm62  1  0.38076757  0.51059476  0.44341867  1
  Sm3+  Sm63  1  -0.00301818  0.88045513  0.05430764  1
  Bi2+  Bi64  1  0.01178689  0.05692226  0.28899041  1
  Bi2+  Bi65  1  -0.07733863  0.08293094  0.80844863  1
  Bi2+  Bi66  1  0.00390134  0.31971804  0.31390082  1
  Bi2+  Bi67  1  -0.00340984  0.37508811  0.81629511  1
  Bi2+  Bi68  1  0.05202578  0.66928072  0.31323468  1
  Bi2+  Bi69  1  -0.05950572  0.63599230  0.79793725  1
  Bi2+  Bi70  1  -0.00258319  0.85508644  0.30201506  1
  Bi2+  Bi71  1  -0.01644466  0.83370447  0.78744853  1
  Bi2+  Bi72  1  0.26365244  0.09152693  0.30465467  1
  Bi2+  Bi73  1  0.23611727  0.12420307  0.79980928  1
  Bi2+  Bi74  1  0.26621358  0.37140940  0.30014582  1
  Bi2+  Bi75  1  0.25581965  0.38778600  0.79196418  1
  Bi2+  Bi76  1  0.24486512  0.64352422  0.29111993  1
  Bi2+  Bi77  1  0.12579474  0.65945330  0.75118389  1
  Bi2+  Bi78  1  0.27367526  0.93609013  0.23451983  1
  Bi2+  Bi79  1  0.17264092  0.86985710  0.76037229  1
  Bi2+  Bi80  1  0.49999014  0.12085049  0.28900528  1
  Bi2+  Bi81  1  0.52560264  0.08637943  0.79918007  1
  Bi2+  Bi82  1  0.48479344  0.38225549  0.29029948  1
  Bi2+  Bi83  1  0.49865100  0.36154742  0.73441234  1
  Bi2+  Bi84  1  0.50987625  0.63848680  0.28803777  1
  Bi2+  Bi85  1  0.52036357  0.60184956  0.79741778  1
  Bi2+  Bi86  1  0.50598249  0.89372080  0.28720081  1
  Bi2+  Bi87  1  0.48519898  0.84817487  0.79327883  1
  Bi2+  Bi88  1  0.69723702  0.08174317  0.25926048  1
  Bi2+  Bi89  1  0.72622233  0.14639711  0.79135435  1
  Bi2+  Bi90  1  0.77493494  0.34130833  0.28721866  1
  Bi2+  Bi91  1  0.78315748  0.34440849  0.77895694  1
  Bi2+  Bi92  1  0.76999038  0.69215302  0.28085641  1
  Bi2+  Bi93  1  0.74402239  0.59886926  0.77678191  1
  Bi2+  Bi94  1  0.77745601  0.88805560  0.28446212  1
  Bi2+  Bi95  1  0.74052634  0.88429458  0.78266457  1
  Bi2+  Bi96  1  0.12085510  0.04738880  0.19805007  1
  Bi2+  Bi97  1  0.07778798  0.04202893  0.74439122  1
  Bi2+  Bi98  1  0.17213765  0.24020760  0.21329851  1
  Bi2+  Bi99  1  0.14116498  0.25860100  0.69874097  1
  Bi2+  Bi100  1  0.15944083  0.52281106  0.20965483  1
  Bi2+  Bi101  1  0.04624591  0.48350667  0.72988620  1
  Bi2+  Bi102  1  0.11708287  0.77804117  0.22283687  1
  Bi2+  Bi103  1  0.02243360  0.77160832  0.67637437  1
  Bi2+  Bi104  1  0.44925733  0.01463584  0.19637648  1
  Bi2+  Bi105  1  0.36080549  -0.00202446  0.75523356  1
  Bi2+  Bi106  1  0.37173243  0.29185820  0.21202956  1
  Bi2+  Bi107  1  0.39476270  0.19263911  0.73476210  1
  Bi2+  Bi108  1  0.35625594  0.48925047  0.22097085  1
  Bi2+  Bi109  1  0.33289369  0.53187085  0.69777650  1
  Bi2+  Bi110  1  0.35723711  0.74148544  0.20727021  1
  Bi2+  Bi111  1  0.33348900  0.77572909  0.69096315  1
  Bi2+  Bi112  1  0.64002529  -0.00829093  0.15783530  1
  Bi2+  Bi113  1  0.57505739  -0.00443448  0.70016172  1
  Bi2+  Bi114  1  0.60173953  0.24332273  0.21673464  1
  Bi2+  Bi115  1  0.65245361  0.25932623  0.70576611  1
  Bi2+  Bi116  1  0.64055553  0.49082164  0.22730253  1
  Bi2+  Bi117  1  0.61199787  0.51050438  0.70143981  1
  Bi2+  Bi118  1  0.62492160  0.80955849  0.20819535  1
  Bi2+  Bi119  1  0.67420514  0.75168784  0.71167793  1
  Bi2+  Bi120  1  0.84668077  -0.03849665  0.17834590  1
  Bi2+  Bi121  1  0.81703159  -0.02357979  0.69744524  1
  Bi2+  Bi122  1  0.87520659  0.14097534  0.20642699  1
  Bi2+  Bi123  1  0.90493622  0.22220782  0.72607083  1
  Bi2+  Bi124  1  0.89263386  0.51963523  0.22409856  1
  Bi2+  Bi125  1  0.83251958  0.47622369  0.69615834  1
  Bi2+  Bi126  1  0.89329735  0.76768031  0.20436307  1
  Bi2+  Bi127  1  0.85054266  0.67975483  0.68005962  1
  S2-  S128  1  0.01249008  0.22551898  0.15995101  1
  S2-  S129  1  0.12138073  0.11059755  0.65069409  1
  S2-  S130  1  0.03505122  0.42274915  0.23344403  1
  S2-  S131  1  -0.00173237  0.28366339  0.64573070  1
  S2-  S132  1  0.01455300  0.56988590  0.15486116  1
  S2-  S133  1  -0.01730052  0.51051659  0.63896454  1
  S2-  S134  1  0.00843521  0.85936155  0.15095056  1
  S2-  S135  1  -0.03924252  0.92978197  0.65439887  1
  S2-  S136  1  0.25258358  0.13046921  0.15332991  1
  S2-  S137  1  0.28713067  0.23879440  0.65389150  1
  S2-  S138  1  0.18144728  0.38352848  0.14639094  1
  S2-  S139  1  0.19431348  0.42204847  0.67635752  1
  S2-  S140  1  0.32616865  0.62182167  0.14229873  1
  S2-  S141  1  0.21568572  0.64947900  0.65822711  1
  S2-  S142  1  0.24289791  0.83723921  0.14940510  1
  S2-  S143  1  0.22980216  0.89761370  0.66209534  1
  S2-  S144  1  0.47811941  0.17817912  0.15170843  1
  S2-  S145  1  0.61844794  0.12975385  0.63745825  1
  S2-  S146  1  0.58966932  0.38510339  0.15337717  1
  S2-  S147  1  0.42402527  0.40699300  0.64530132  1
  S2-  S148  1  0.54406538  0.59653253  0.18525943  1
  S2-  S149  1  0.41573475  0.64266963  0.64741311  1
  S2-  S150  1  0.48171350  0.78855442  0.14465305  1
  S2-  S151  1  0.45941224  0.86895698  0.66247380  1
  S2-  S152  1  0.73974006  0.21386831  0.15443086  1
  S2-  S153  1  0.85583102  0.12270083  0.64727456  1
  S2-  S154  1  0.85985711  0.37991246  0.18326597  1
  S2-  S155  1  0.69673865  0.39292777  0.63932522  1
  S2-  S156  1  0.75727523  0.54159108  0.15719658  1
  S2-  S157  1  0.64048679  0.63822108  0.63295043  1
  S2-  S158  1  0.74173556  0.75640220  0.14212009  1
  S2-  S159  1  0.67473720  0.89488322  0.63771565  1
  S2-  S160  1  0.16054080  -0.01398844  0.34525492  1
  S2-  S161  1  0.11301302  0.02345112  0.85012311  1
  S2-  S162  1  0.07206346  0.18783180  0.35319016  1
  S2-  S163  1  0.14805932  0.26045990  0.82896931  1
  S2-  S164  1  0.12784971  0.41520716  0.36305758  1
  S2-  S165  1  0.12790875  0.48127646  0.84005627  1
  S2-  S166  1  0.24952707  0.76570853  0.36124544  1
  S2-  S167  1  0.13780936  0.75432411  0.84066174  1
  S2-  S168  1  0.40129674  0.00459915  0.34770350  1
  S2-  S169  1  0.36929854  -0.08298433  0.85615408  1
  S2-  S170  1  0.28864588  0.23933399  0.36364083  1
  S2-  S171  1  0.37231743  0.33400385  0.84967234  1
  S2-  S172  1  0.46070306  0.51858022  0.35615015  1
  S2-  S173  1  0.33155542  0.53154162  0.80063194  1
  S2-  S174  1  0.47656052  0.75897133  0.35087939  1
  S2-  S175  1  0.40757983  0.71540239  0.83304831  1
  S2-  S176  1  0.63584475  -0.10380186  0.35117190  1
  S2-  S177  1  0.61187451  -0.13404847  0.85647079  1
  S2-  S178  1  0.63794891  0.13248714  0.35358391  1
  S2-  S179  1  0.60621231  0.22200532  0.84919482  1
  S2-  S180  1  0.63507950  0.37404370  0.34784671  1
  S2-  S181  1  0.53796713  0.47208264  0.85253062  1
  S2-  S182  1  0.65005175  0.63103516  0.34477180  1
  S2-  S183  1  0.64938214  0.64097077  0.86087646  1
  S2-  S184  1  0.88692082  -0.00906103  0.34555588  1
  S2-  S185  1  0.77391223  0.01168133  0.85942907  1
  S2-  S186  1  0.85539412  0.23496651  0.34288164  1
  S2-  S187  1  0.94976122  0.22652854  0.86610607  1
  S2-  S188  1  0.87703684  0.44578983  0.33154382  1
  S2-  S189  1  0.89274857  0.50038137  0.85413761  1
  S2-  S190  1  0.88930629  0.65295708  0.35545187  1
  S2-  S191  1  0.85168054  0.78378433  0.84371145  1
  S2-  S192  1  0.00188339  0.14044763  0.46541213  1
  S2-  S193  1  -0.00367891  0.12560765  0.96648191  1
  S2-  S194  1  -0.00033635  0.38899520  0.45846970  1
  S2-  S195  1  -0.00300966  0.38357324  0.95439833  1
  S2-  S196  1  0.01117499  0.63603412  0.45891734  1
  S2-  S197  1  -0.00331354  0.62991196  0.95296073  1
  S2-  S198  1  0.00670861  0.88812777  0.45161849  1
  S2-  S199  1  -0.00258452  0.88146716  0.94925946  1
  S2-  S200  1  0.25244580  0.13839733  0.46684866  1
  S2-  S201  1  0.24782198  0.12912790  0.94737464  1
  S2-  S202  1  0.26177516  0.38950673  0.46587484  1
  S2-  S203  1  0.24794540  0.38124214  0.94867491  1
  S2-  S204  1  0.25693775  0.63118163  0.45716329  1
  S2-  S205  1  0.25085578  0.62957108  0.94247654  1
  S2-  S206  1  0.25009469  0.89257287  0.45823681  1
  S2-  S207  1  0.24261678  0.88370743  0.95158858  1
  S2-  S208  1  0.50249169  0.14055634  0.45345206  1
  S2-  S209  1  0.49784006  0.12794423  0.95057059  1
  S2-  S210  1  0.50134639  0.38237951  0.45531595  1
  S2-  S211  1  0.49836168  0.37740513  0.95874373  1
  S2-  S212  1  0.50046107  0.63752784  0.45508551  1
  S2-  S213  1  0.48856924  0.63118980  0.95000896  1
  S2-  S214  1  0.50202435  0.88915215  0.45707627  1
  S2-  S215  1  0.49771792  0.88584674  0.95703121  1
  S2-  S216  1  0.76097000  0.13727205  0.45605926  1
  S2-  S217  1  0.74678231  0.13437457  0.95900983  1
  S2-  S218  1  0.76035921  0.38774624  0.44354776  1
  S2-  S219  1  0.74503613  0.38219101  0.94546148  1
  S2-  S220  1  0.75259716  0.63779396  0.45072801  1
  S2-  S221  1  0.75360159  0.62949659  0.96364146  1
  S2-  S222  1  0.76205349  0.88937434  0.44767223  1
  S2-  S223  1  0.74916104  0.87863897  0.95933287  1
  S2-  S224  1  0.12215825  0.00320632  0.05127939  1
  S2-  S225  1  0.12661318  0.00893765  0.54738675  1
  S2-  S226  1  0.12238766  0.25541734  0.04136534  1
  S2-  S227  1  0.13261239  0.26776298  0.54765025  1
  S2-  S228  1  0.12449408  0.50713446  0.04446107  1
  S2-  S229  1  0.13915862  0.51273489  0.55098128  1
  S2-  S230  1  0.12269318  0.75654304  0.04456514  1
  S2-  S231  1  0.13374626  0.75789975  0.54420726  1
  S2-  S232  1  0.37199835  0.00504317  0.04539715  1
  S2-  S233  1  0.38237513  0.01447703  0.55698171  1
  S2-  S234  1  0.37364347  0.25542014  0.04442626  1
  S2-  S235  1  0.38971651  0.26043292  0.54865965  1
  S2-  S236  1  0.37483227  0.50183103  0.04862855  1
  S2-  S237  1  0.38427210  0.51112938  0.54501433  1
  S2-  S238  1  0.37166476  0.76113898  0.03639707  1
  S2-  S239  1  0.38219272  0.76484117  0.54222216  1
  S2-  S240  1  0.62411237  0.00616060  0.03606842  1
  S2-  S241  1  0.63262892  0.01256559  0.53363043  1
  S2-  S242  1  0.62508389  0.25473021  0.04771580  1
  S2-  S243  1  0.63163113  0.26471195  0.53593126  1
  S2-  S244  1  0.61828371  0.51135516  0.04850835  1
  S2-  S245  1  0.62835030  0.50890001  0.53055555  1
  S2-  S246  1  0.61655119  0.75264629  0.04357791  1
  S2-  S247  1  0.63283161  0.76532292  0.53212585  1
  S2-  S248  1  0.87471584  0.00552063  0.04804510  1
  S2-  S249  1  0.88095963  0.01252366  0.54474913  1
  S2-  S250  1  0.87000496  0.25830712  0.05679566  1
  S2-  S251  1  0.87628034  0.26366292  0.54480374  1
  S2-  S252  1  0.87718115  0.49656045  0.05624779  1
  S2-  S253  1  0.87682450  0.51599643  0.53560430  1
  S2-  S254  1  0.87717530  0.75617087  0.04658094  1
  S2-  S255  1  0.87925016  0.75980520  0.54228274  1
