# generated using pymatgen
data_La6Ce6Pr19Nd20Sm13(BiS2)64
_symmetry_space_group_name_H-M   'P 1'
_cell_length_a   16.06849866
_cell_length_b   15.99023330
_cell_length_c   27.53181520
_cell_angle_alpha   89.83137630
_cell_angle_beta   90.27381909
_cell_angle_gamma   89.93116442
_symmetry_Int_Tables_number   1
_chemical_formula_structural   La6Ce6Pr19Nd20Sm13(BiS2)64
_chemical_formula_sum   'La6 Ce6 Pr19 Nd20 Sm13 Bi64 S128'
_cell_volume   7073.88158733
_cell_formula_units_Z   1
loop_
 _symmetry_equiv_pos_site_id
 _symmetry_equiv_pos_as_xyz
  1  'x, y, z'
loop_
 _atom_type_symbol
 _atom_type_oxidation_number
  La3+  3.0
  Ce3+  3.0
  Pr3+  3.0
  Nd3+  3.0
  Sm3+  3.0
  Bi2+  2.0
  S2-  -2.0
loop_
 _atom_site_type_symbol
 _atom_site_label
 _atom_site_symmetry_multiplicity
 _atom_site_fract_x
 _atom_site_fract_y
 _atom_site_fract_z
 _atom_site_occupancy
  La3+  La0  1  0.61290342  0.22969092  0.90289718  1
  La3+  La1  1  0.26316198  0.37665119  0.11143839  1
  La3+  La2  1  0.86858009  0.24931895  0.43020462  1
  La3+  La3  1  0.73775820  0.85726385  0.11339858  1
  La3+  La4  1  0.53226583  0.12052324  0.61898704  1
  La3+  La5  1  0.11194597  0.49436233  0.41934639  1
  Ce3+  Ce6  1  0.61138733  0.48515567  0.93833136  1
  Ce3+  Ce7  1  0.74299566  0.12249827  0.54756764  1
  Ce3+  Ce8  1  -0.00502465  0.12639169  0.56931389  1
  Ce3+  Ce9  1  0.48875953  0.86251741  0.06360152  1
  Ce3+  Ce10  1  0.11273387  0.48396757  0.94440023  1
  Ce3+  Ce11  1  0.73846381  0.11149971  0.06556955  1
  Pr3+  Pr12  1  -0.00551419  0.37022333  0.56236727  1
  Pr3+  Pr13  1  0.11775534  -0.00144485  0.44281305  1
  Pr3+  Pr14  1  0.23730361  0.86112949  0.07132887  1
  Pr3+  Pr15  1  0.61310071  0.24611399  0.43110297  1
  Pr3+  Pr16  1  -0.01126830  0.86164543  0.06310555  1
  Pr3+  Pr17  1  0.61269348  0.74470202  0.93539686  1
  Pr3+  Pr18  1  0.24350706  0.37452713  0.56282343  1
  Pr3+  Pr19  1  0.74170391  0.87412211  0.55579103  1
  Pr3+  Pr20  1  0.86311599  0.73665823  0.92228050  1
  Pr3+  Pr21  1  0.11349470  0.74448800  0.44513827  1
  Pr3+  Pr22  1  0.49561012  0.62137919  0.56651972  1
  Pr3+  Pr23  1  0.48609729  0.11791901  0.05889202  1
  Pr3+  Pr24  1  -0.01303308  0.35964390  0.07463605  1
  Pr3+  Pr25  1  0.86137677  0.74432788  0.43136337  1
  Pr3+  Pr26  1  0.36224752  0.48641228  0.93311450  1
  Pr3+  Pr27  1  0.35202249  0.24458500  0.90068676  1
  Pr3+  Pr28  1  0.60429229  0.74411316  0.40985066  1
  Pr3+  Pr29  1  0.10881518  0.74289224  0.93151018  1
  Pr3+  Pr30  1  0.61356487  -0.00072480  0.42786485  1
  Nd3+  Nd31  1  -0.01413279  0.61405170  0.05611202  1
  Nd3+  Nd32  1  0.74504970  0.62279274  0.56291245  1
  Nd3+  Nd33  1  0.86343355  0.48284560  0.92896279  1
  Nd3+  Nd34  1  0.49289414  0.87573289  0.56261166  1
  Nd3+  Nd35  1  0.36819970  0.49783756  0.43695270  1
  Nd3+  Nd36  1  0.11652508  0.24166525  0.94716554  1
  Nd3+  Nd37  1  0.36206021  -0.00576765  0.93750226  1
  Nd3+  Nd38  1  -0.01396630  0.11402347  0.06368017  1
  Nd3+  Nd39  1  -0.00709818  0.61462094  0.56676159  1
  Nd3+  Nd40  1  0.24356221  0.61606357  0.56364742  1
  Nd3+  Nd41  1  0.24040049  0.12108316  0.06900582  1
  Nd3+  Nd42  1  0.25201931  0.12755931  0.58100445  1
  Nd3+  Nd43  1  0.11627580  -0.00837424  0.94833495  1
  Nd3+  Nd44  1  0.86316985  0.23786009  0.93282483  1
  Nd3+  Nd45  1  0.74210832  0.36526504  0.56323551  1
  Nd3+  Nd46  1  0.74172449  0.36371412  0.05813330  1
  Nd3+  Nd47  1  0.36833971  -0.00140292  0.44477940  1
  Nd3+  Nd48  1  -0.00590215  0.87033687  0.56121852  1
  Nd3+  Nd49  1  0.73954222  0.61873987  0.04905276  1
  Nd3+  Nd50  1  0.86212590  -0.00627312  0.93934681  1
  Sm3+  Sm51  1  0.86934282  -0.00497728  0.44151925  1
  Sm3+  Sm52  1  0.61659079  0.49639937  0.44471630  1
  Sm3+  Sm53  1  0.48738552  0.36228217  0.04991986  1
  Sm3+  Sm54  1  0.49504742  0.37202648  0.56549966  1
  Sm3+  Sm55  1  0.11824685  0.24700630  0.44259704  1
  Sm3+  Sm56  1  0.23840941  0.61171001  0.05028409  1
  Sm3+  Sm57  1  0.24363156  0.87287376  0.55649420  1
  Sm3+  Sm58  1  0.35463959  0.74708354  0.93158651  1
  Sm3+  Sm59  1  0.48893672  0.61581777  0.04520350  1
  Sm3+  Sm60  1  0.36775313  0.24711583  0.44896948  1
  Sm3+  Sm61  1  0.86520531  0.49834715  0.43841875  1
  Sm3+  Sm62  1  0.36611345  0.74510574  0.44545814  1
  Sm3+  Sm63  1  0.61227723  -0.00681106  0.94800528  1
  Bi2+  Bi64  1  0.10941058  0.10779439  0.30234884  1
  Bi2+  Bi65  1  0.07288312  0.16765153  0.79641914  1
  Bi2+  Bi66  1  -0.00841323  0.38962508  0.29601920  1
  Bi2+  Bi67  1  -0.04130711  0.48300523  0.79337488  1
  Bi2+  Bi68  1  0.02905988  0.66793715  0.29764222  1
  Bi2+  Bi69  1  0.08989348  0.71410113  0.77829186  1
  Bi2+  Bi70  1  -0.01402282  0.94088318  0.28234005  1
  Bi2+  Bi71  1  -0.03911844  0.91878540  0.80139461  1
  Bi2+  Bi72  1  0.27702704  0.14055844  0.24431283  1
  Bi2+  Bi73  1  0.27491651  0.10175427  0.75113372  1
  Bi2+  Bi74  1  0.26493123  0.37320027  0.30835481  1
  Bi2+  Bi75  1  0.21490913  0.39202486  0.78999656  1
  Bi2+  Bi76  1  0.29269729  0.63280299  0.30634244  1
  Bi2+  Bi77  1  0.32145590  0.63658433  0.79217391  1
  Bi2+  Bi78  1  0.26454289  0.88617154  0.27944774  1
  Bi2+  Bi79  1  0.23587185  0.91816566  0.81398968  1
  Bi2+  Bi80  1  0.45046772  0.12458659  0.30247543  1
  Bi2+  Bi81  1  0.48548515  0.07635231  0.79626636  1
  Bi2+  Bi82  1  0.59949755  0.36270493  0.31576528  1
  Bi2+  Bi83  1  0.49543575  0.39388441  0.78055245  1
  Bi2+  Bi84  1  0.48279261  0.66334618  0.26862218  1
  Bi2+  Bi85  1  0.51849956  0.64868925  0.77541027  1
  Bi2+  Bi86  1  0.47985508  0.87282063  0.28571833  1
  Bi2+  Bi87  1  0.50978084  0.85047172  0.79754380  1
  Bi2+  Bi88  1  0.65117228  0.11300834  0.25418469  1
  Bi2+  Bi89  1  0.75894521  0.09739558  0.79075268  1
  Bi2+  Bi90  1  0.79535034  0.35869358  0.32059283  1
  Bi2+  Bi91  1  0.76369990  0.41375198  0.79453828  1
  Bi2+  Bi92  1  0.75179659  0.56290452  0.29630315  1
  Bi2+  Bi93  1  0.76514096  0.65041093  0.76856235  1
  Bi2+  Bi94  1  0.77423505  0.86446907  0.31195693  1
  Bi2+  Bi95  1  0.78321456  0.84165170  0.80305750  1
  Bi2+  Bi96  1  0.10380127  0.00977210  0.19513125  1
  Bi2+  Bi97  1  0.10432553  0.09041244  0.69130980  1
  Bi2+  Bi98  1  0.09031794  0.23324212  0.21189718  1
  Bi2+  Bi99  1  0.09843712  0.30975661  0.71137351  1
  Bi2+  Bi100  1  0.13419620  0.52059616  0.20438658  1
  Bi2+  Bi101  1  0.16358003  0.56792825  0.72222728  1
  Bi2+  Bi102  1  0.16234868  0.74955156  0.21920147  1
  Bi2+  Bi103  1  0.11431435  0.88868178  0.72595582  1
  Bi2+  Bi104  1  0.30675625  -0.02157181  0.17592522  1
  Bi2+  Bi105  1  0.38668049  -0.10723775  0.71121021  1
  Bi2+  Bi106  1  0.51341797  0.28461779  0.22340679  1
  Bi2+  Bi107  1  0.36171434  0.25620945  0.70794075  1
  Bi2+  Bi108  1  0.40931727  0.52096455  0.20015919  1
  Bi2+  Bi109  1  0.37265895  0.50325711  0.70969661  1
  Bi2+  Bi110  1  0.35201279  0.78353252  0.19341904  1
  Bi2+  Bi111  1  0.29895261  0.70978561  0.68435792  1
  Bi2+  Bi112  1  0.50858392  -0.00110849  0.19960757  1
  Bi2+  Bi113  1  0.64591700  -0.10093240  0.72479905  1
  Bi2+  Bi114  1  0.70098078  0.25813429  0.17753992  1
  Bi2+  Bi115  1  0.66250816  0.26940095  0.70418948  1
  Bi2+  Bi116  1  0.66659787  0.44345650  0.21677513  1
  Bi2+  Bi117  1  0.61489132  0.50547852  0.71616332  1
  Bi2+  Bi118  1  0.62784942  0.70353335  0.20395228  1
  Bi2+  Bi119  1  0.49928833  0.74429237  0.67535198  1
  Bi2+  Bi120  1  0.90752911  0.04752364  0.18904464  1
  Bi2+  Bi121  1  0.90506949  0.04926334  0.71783430  1
  Bi2+  Bi122  1  0.83209751  0.18960339  0.25446520  1
  Bi2+  Bi123  1  0.91929664  0.24218993  0.73847878  1
  Bi2+  Bi124  1  0.87109504  0.47354273  0.22168328  1
  Bi2+  Bi125  1  0.87995607  0.54086683  0.68933970  1
  Bi2+  Bi126  1  0.89041257  0.71583108  0.20730560  1
  Bi2+  Bi127  1  0.86490949  0.79228535  0.69158772  1
  S2-  S128  1  -0.02897514  0.20821072  0.14759571  1
  S2-  S129  1  -0.02709254  0.24969194  0.63955960  1
  S2-  S130  1  0.09682017  0.38988065  0.15394624  1
  S2-  S131  1  0.00361799  0.48349307  0.63912322  1
  S2-  S132  1  0.00165005  0.61717917  0.15665996  1
  S2-  S133  1  -0.02447835  0.68478306  0.65966189  1
  S2-  S134  1  -0.09792379  0.84192960  0.14975649  1
  S2-  S135  1  -0.02267690  0.91182831  0.65613708  1
  S2-  S136  1  0.24107137  0.21150729  0.15549928  1
  S2-  S137  1  0.36518237  0.10839227  0.65727021  1
  S2-  S138  1  0.26862920  0.40835707  0.21738821  1
  S2-  S139  1  0.23020436  0.27156106  0.64649062  1
  S2-  S140  1  0.26207227  0.56181905  0.14274497  1
  S2-  S141  1  0.24129408  0.49880288  0.63863695  1
  S2-  S142  1  0.11224428  0.84754093  0.14294046  1
  S2-  S143  1  0.24147601  0.88008003  0.65313964  1
  S2-  S144  1  0.48588487  0.15076881  0.15919031  1
  S2-  S145  1  0.57200440  0.12287652  0.72448648  1
  S2-  S146  1  0.43900902  0.38360654  0.14370186  1
  S2-  S147  1  0.51193138  0.28843218  0.65232103  1
  S2-  S148  1  0.50880287  0.60994514  0.14206014  1
  S2-  S149  1  0.50275113  0.49853887  0.64039209  1
  S2-  S150  1  0.57027566  0.84616021  0.14937849  1
  S2-  S151  1  0.52506520  0.94818449  0.65113574  1
  S2-  S152  1  0.74769370  0.02572781  0.15024933  1
  S2-  S153  1  0.70971921  0.15890943  0.63962916  1
  S2-  S154  1  0.84617191  0.39009739  0.13748794  1
  S2-  S155  1  0.75680011  0.40191173  0.66036568  1
  S2-  S156  1  0.75950184  0.67091282  0.14284860  1
  S2-  S157  1  0.74655357  0.65789823  0.66096256  1
  S2-  S158  1  0.73866376  0.83135750  0.22252161  1
  S2-  S159  1  0.75443548  0.91345979  0.65329045  1
  S2-  S160  1  0.12804485  -0.04918632  0.34681034  1
  S2-  S161  1  0.09759405  0.00070407  0.84966716  1
  S2-  S162  1  0.11649441  0.33629163  0.35893346  1
  S2-  S163  1  0.18660801  0.25502642  0.85415307  1
  S2-  S164  1  0.17644141  0.52387357  0.32267086  1
  S2-  S165  1  0.10540586  0.49676133  0.84647778  1
  S2-  S166  1  0.16495619  0.72621141  0.35070824  1
  S2-  S167  1  0.21930447  0.74815388  0.85192233  1
  S2-  S168  1  0.37345122  -0.01972135  0.34538251  1
  S2-  S169  1  0.33346832  0.08558566  0.85233251  1
  S2-  S170  1  0.35863452  0.24031253  0.35062474  1
  S2-  S171  1  0.48552879  0.24193298  0.83256814  1
  S2-  S172  1  0.38067947  0.48690024  0.33856432  1
  S2-  S173  1  0.35937028  0.40738245  0.84364184  1
  S2-  S174  1  0.44585311  0.73269068  0.35982027  1
  S2-  S175  1  0.38233404  0.87133464  0.86356622  1
  S2-  S176  1  0.61254005  -0.11061171  0.34787594  1
  S2-  S177  1  0.62446897  0.05967384  0.85592836  1
  S2-  S178  1  0.61147980  0.12815364  0.35171496  1
  S2-  S179  1  0.70449782  0.26453461  0.81530119  1
  S2-  S180  1  0.60873297  0.53425098  0.34973344  1
  S2-  S181  1  0.62116988  0.47332961  0.84248092  1
  S2-  S182  1  0.74410938  0.71420263  0.35224851  1
  S2-  S183  1  0.64650161  0.72689025  0.83738683  1
  S2-  S184  1  0.86458409  0.00513698  0.34348934  1
  S2-  S185  1  0.86585806  0.10679791  0.86157376  1
  S2-  S186  1  0.92742913  0.23251626  0.33686596  1
  S2-  S187  1  0.89235110  0.35774407  0.85739168  1
  S2-  S188  1  0.96303287  0.52683198  0.35759533  1
  S2-  S189  1  0.85620960  0.59298454  0.84895379  1
  S2-  S190  1  0.94130169  0.78249650  0.34129098  1
  S2-  S191  1  0.99287480  0.76052848  0.85295332  1
  S2-  S192  1  -0.00690289  0.12194548  0.45573455  1
  S2-  S193  1  -0.00809710  0.11587089  0.95931977  1
  S2-  S194  1  -0.01036805  0.37282631  0.45601013  1
  S2-  S195  1  -0.01029815  0.36096758  0.96277015  1
  S2-  S196  1  -0.01255471  0.62368357  0.45968349  1
  S2-  S197  1  -0.01161599  0.61096154  0.95041760  1
  S2-  S198  1  -0.00810566  0.87311068  0.45584039  1
  S2-  S199  1  -0.01325639  0.87037241  0.95593943  1
  S2-  S200  1  0.24253659  0.12458956  0.45502407  1
  S2-  S201  1  0.23943132  0.11816662  0.96202383  1
  S2-  S202  1  0.24422168  0.37286035  0.45518145  1
  S2-  S203  1  0.24163592  0.36456836  0.95342518  1
  S2-  S204  1  0.24349310  0.62056266  0.45716453  1
  S2-  S205  1  0.23926647  0.61430809  0.94783497  1
  S2-  S206  1  0.24339798  0.86949266  0.45326634  1
  S2-  S207  1  0.23701490  0.86624284  0.96308308  1
  S2-  S208  1  0.48770584  0.12365929  0.45066417  1
  S2-  S209  1  0.48694189  0.11930030  0.95325510  1
  S2-  S210  1  0.49227863  0.37296854  0.45541782  1
  S2-  S211  1  0.48932892  0.35619636  0.94702147  1
  S2-  S212  1  0.49433704  0.62112591  0.45980385  1
  S2-  S213  1  0.48369101  0.62006349  0.94028499  1
  S2-  S214  1  0.49013910  0.86992564  0.45665915  1
  S2-  S215  1  0.48951890  0.86775997  0.95972695  1
  S2-  S216  1  0.74571856  0.12085336  0.44461248  1
  S2-  S217  1  0.73190775  0.11825124  0.95963076  1
  S2-  S218  1  0.74030156  0.37355226  0.45410162  1
  S2-  S219  1  0.73248348  0.35822967  0.95079427  1
  S2-  S220  1  0.73899222  0.61833869  0.45747840  1
  S2-  S221  1  0.73383096  0.61290776  0.94582057  1
  S2-  S222  1  0.74142973  0.87402058  0.45081942  1
  S2-  S223  1  0.73783997  0.87061546  0.93879503  1
  S2-  S224  1  0.11524200  -0.00682403  0.05175601  1
  S2-  S225  1  0.12064567  -0.00035982  0.55025250  1
  S2-  S226  1  0.11243146  0.23693072  0.04992856  1
  S2-  S227  1  0.12119833  0.24301320  0.54370154  1
  S2-  S228  1  0.11426517  0.49102799  0.04719144  1
  S2-  S229  1  0.11848246  0.49853301  0.53353991  1
  S2-  S230  1  0.11503801  0.73420447  0.03938550  1
  S2-  S231  1  0.12044810  0.74466037  0.55262409  1
  S2-  S232  1  0.36227781  -0.01144697  0.04714336  1
  S2-  S233  1  0.36303773  -0.00374656  0.54888171  1
  S2-  S234  1  0.36259502  0.24536169  0.05324717  1
  S2-  S235  1  0.37148407  0.24940113  0.54983013  1
  S2-  S236  1  0.36769290  0.49219687  0.03819915  1
  S2-  S237  1  0.37238570  0.49597215  0.54150561  1
  S2-  S238  1  0.36215983  0.73745762  0.04090059  1
  S2-  S239  1  0.36690343  0.74667202  0.54825213  1
  S2-  S240  1  0.61271872  -0.01176440  0.05024410  1
  S2-  S241  1  0.61565332  0.00171407  0.54064064  1
  S2-  S242  1  0.61329854  0.24266723  0.05237766  1
  S2-  S243  1  0.61541161  0.24778851  0.53880696  1
  S2-  S244  1  0.61363953  0.48952484  0.04444330  1
  S2-  S245  1  0.62417475  0.49558768  0.54689207  1
  S2-  S246  1  0.61422122  0.74111627  0.04068219  1
  S2-  S247  1  0.61875382  0.74759385  0.54995296  1
  S2-  S248  1  0.86187558  -0.01291390  0.04367085  1
  S2-  S249  1  0.87208574  -0.00048024  0.54601706  1
  S2-  S250  1  0.85977949  0.23567267  0.03929645  1
  S2-  S251  1  0.86645249  0.24654180  0.53791745  1
  S2-  S252  1  0.86217971  0.49270698  0.03461855  1
  S2-  S253  1  0.86304962  0.49449623  0.54189161  1
  S2-  S254  1  0.86348947  0.73891042  0.03284232  1
  S2-  S255  1  0.86834509  0.74797249  0.54340049  1
