# generated using pymatgen
data_La6Ce6Pr19Nd20Sm13(BiS2)64
_symmetry_space_group_name_H-M   'P 1'
_cell_length_a   16.06029234
_cell_length_b   16.08742211
_cell_length_c   27.39406862
_cell_angle_alpha   89.27636156
_cell_angle_beta   90.11814221
_cell_angle_gamma   90.24141284
_symmetry_Int_Tables_number   1
_chemical_formula_structural   La6Ce6Pr19Nd20Sm13(BiS2)64
_chemical_formula_sum   'La6 Ce6 Pr19 Nd20 Sm13 Bi64 S128'
_cell_volume   7077.12835670
_cell_formula_units_Z   1
loop_
 _symmetry_equiv_pos_site_id
 _symmetry_equiv_pos_as_xyz
  1  'x, y, z'
loop_
 _atom_type_symbol
 _atom_type_oxidation_number
  La3+  3.0
  Ce3+  3.0
  Pr3+  3.0
  Nd3+  3.0
  Sm3+  3.0
  Bi2+  2.0
  S2-  -2.0
loop_
 _atom_site_type_symbol
 _atom_site_label
 _atom_site_symmetry_multiplicity
 _atom_site_fract_x
 _atom_site_fract_y
 _atom_site_fract_z
 _atom_site_occupancy
  La3+  La0  1  0.62149866  0.00293293  0.93751984  1
  La3+  La1  1  0.76851513  0.61464960  0.56638886  1
  La3+  La2  1  0.75336301  0.11244448  0.08788303  1
  La3+  La3  1  0.00885640  0.86342972  0.09208089  1
  La3+  La4  1  0.48500684  0.11596874  0.09965077  1
  La3+  La5  1  0.11904614  0.00515222  0.92689965  1
  Ce3+  Ce6  1  0.86835551  0.75362867  0.94658964  1
  Ce3+  Ce7  1  0.89198279  0.74319425  0.43440098  1
  Ce3+  Ce8  1  0.00191132  0.37860490  0.06181457  1
  Ce3+  Ce9  1  0.52100403  0.36502791  0.55788633  1
  Ce3+  Ce10  1  0.39259255  0.74798603  0.44908930  1
  Ce3+  Ce11  1  0.11959952  0.75752814  0.92407050  1
  Pr3+  Pr12  1  0.24082654  0.12186669  0.06194024  1
  Pr3+  Pr13  1  0.14050484  0.24526796  0.42928709  1
  Pr3+  Pr14  1  0.49744446  0.37336200  0.07344372  1
  Pr3+  Pr15  1  0.89190996  0.49548218  0.43264794  1
  Pr3+  Pr16  1  0.37596938  0.50210288  0.94271815  1
  Pr3+  Pr17  1  0.37431180  0.25104234  0.94657547  1
  Pr3+  Pr18  1  0.38277082  0.75614240  0.93410127  1
  Pr3+  Pr19  1  0.52533420  0.87456836  0.56768583  1
  Pr3+  Pr20  1  0.11912044  0.50787053  0.92424371  1
  Pr3+  Pr21  1  0.52551274  0.11791803  0.55389976  1
  Pr3+  Pr22  1  0.12531978  0.25704063  0.92673514  1
  Pr3+  Pr23  1  0.64191075  0.49286101  0.43024383  1
  Pr3+  Pr24  1  0.74931877  0.38107985  0.08195924  1
  Pr3+  Pr25  1  0.89137721  -0.01273224  0.41596929  1
  Pr3+  Pr26  1  0.64321284  0.24883009  0.41518750  1
  Pr3+  Pr27  1  0.76372908  0.36458958  0.57113375  1
  Pr3+  Pr28  1  0.63644260  0.73035801  0.87845949  1
  Pr3+  Pr29  1  0.24488780  0.62589067  0.05130400  1
  Pr3+  Pr30  1  0.26704027  0.62128117  0.57150564  1
  Nd3+  Nd31  1  0.14515978  0.49738180  0.43820560  1
  Nd3+  Nd32  1  0.01233079  0.36340406  0.56384476  1
  Nd3+  Nd33  1  0.26730024  0.87037952  0.56763362  1
  Nd3+  Nd34  1  -0.00180999  0.12304507  0.06673809  1
  Nd3+  Nd35  1  0.26679624  0.11389587  0.56401679  1
  Nd3+  Nd36  1  0.64293321  -0.01377121  0.41536652  1
  Nd3+  Nd37  1  0.01504625  0.86902305  0.55880931  1
  Nd3+  Nd38  1  0.49817018  0.62652068  0.05764911  1
  Nd3+  Nd39  1  0.25860352  0.35916911  0.57387546  1
  Nd3+  Nd40  1  0.87029371  0.25156169  0.95315861  1
  Nd3+  Nd41  1  0.62410574  0.24440918  0.95982617  1
  Nd3+  Nd42  1  0.38938615  0.49342698  0.44787087  1
  Nd3+  Nd43  1  0.74687689  0.87420196  0.06208488  1
  Nd3+  Nd44  1  0.86729867  0.50108011  0.93928644  1
  Nd3+  Nd45  1  0.01566514  0.11384715  0.54973933  1
  Nd3+  Nd46  1  0.87103892  0.00213925  0.94871644  1
  Nd3+  Nd47  1  0.89390925  0.24428073  0.42966749  1
  Nd3+  Nd48  1  0.77282923  0.86565709  0.56366048  1
  Nd3+  Nd49  1  0.14519526  0.74424082  0.43602597  1
  Nd3+  Nd50  1  0.39260251  -0.00402130  0.43496090  1
  Sm3+  Sm51  1  0.00005517  0.61803740  0.06038586  1
  Sm3+  Sm52  1  0.38973839  0.24327884  0.44219128  1
  Sm3+  Sm53  1  0.37491981  0.00450109  0.95024635  1
  Sm3+  Sm54  1  0.64252320  0.74466111  0.43999118  1
  Sm3+  Sm55  1  0.51824174  0.61522016  0.55506890  1
  Sm3+  Sm56  1  0.62406517  0.50028589  0.94488815  1
  Sm3+  Sm57  1  0.24418190  0.87177069  0.05185499  1
  Sm3+  Sm58  1  0.14380620  -0.01210118  0.42033458  1
  Sm3+  Sm59  1  0.74678125  0.62463470  0.06083598  1
  Sm3+  Sm60  1  0.49894893  0.87389727  0.06268373  1
  Sm3+  Sm61  1  0.01924267  0.61506294  0.55608977  1
  Sm3+  Sm62  1  0.24482948  0.37467024  0.05904102  1
  Sm3+  Sm63  1  0.76735982  0.11457698  0.54271789  1
  Bi2+  Bi64  1  0.00204377  0.15931938  0.27258453  1
  Bi2+  Bi65  1  0.04117169  0.01878413  0.78910098  1
  Bi2+  Bi66  1  -0.03701521  0.41854157  0.31207516  1
  Bi2+  Bi67  1  0.05922132  0.38806444  0.75967001  1
  Bi2+  Bi68  1  0.01344178  0.63899841  0.28470574  1
  Bi2+  Bi69  1  0.06713770  0.62009597  0.75002520  1
  Bi2+  Bi70  1  0.01521485  0.87938892  0.29065125  1
  Bi2+  Bi71  1  -0.05353803  0.86723378  0.73908729  1
  Bi2+  Bi72  1  0.18327596  0.07221918  0.28400923  1
  Bi2+  Bi73  1  0.22457181  0.14512910  0.78274070  1
  Bi2+  Bi74  1  0.15941002  0.43292344  0.31414293  1
  Bi2+  Bi75  1  0.27874778  0.38157933  0.79638701  1
  Bi2+  Bi76  1  0.28582008  0.61547172  0.30552067  1
  Bi2+  Bi77  1  0.24485183  0.58094162  0.80740953  1
  Bi2+  Bi78  1  0.26594422  0.82892208  0.27768216  1
  Bi2+  Bi79  1  0.24033909  0.84318608  0.77935527  1
  Bi2+  Bi80  1  0.43524410  0.11338507  0.29787306  1
  Bi2+  Bi81  1  0.50650848  0.14415295  0.80784843  1
  Bi2+  Bi82  1  0.48547366  0.43567082  0.27792927  1
  Bi2+  Bi83  1  0.56879978  0.33483932  0.80224486  1
  Bi2+  Bi84  1  0.53267264  0.62693623  0.29784337  1
  Bi2+  Bi85  1  0.47272687  0.54172484  0.74858620  1
  Bi2+  Bi86  1  0.49899065  0.84730399  0.29165632  1
  Bi2+  Bi87  1  0.48839894  0.88155096  0.79131741  1
  Bi2+  Bi88  1  0.75192558  0.14915856  0.28666271  1
  Bi2+  Bi89  1  0.77384345  0.12094922  0.80582118  1
  Bi2+  Bi90  1  0.76022471  0.42679733  0.30657004  1
  Bi2+  Bi91  1  0.76919732  0.37073187  0.81420076  1
  Bi2+  Bi92  1  0.72608718  0.61686081  0.32519481  1
  Bi2+  Bi93  1  0.77571877  0.59695482  0.79624953  1
  Bi2+  Bi94  1  0.75400615  0.80544810  0.28020063  1
  Bi2+  Bi95  1  0.75593168  0.87669460  0.78822362  1
  Bi2+  Bi96  1  0.12620174  0.10631192  0.17367841  1
  Bi2+  Bi97  1  0.11636993  0.00883569  0.68453666  1
  Bi2+  Bi98  1  0.10292042  0.29708993  0.18283445  1
  Bi2+  Bi99  1  0.13353718  0.23865644  0.69824444  1
  Bi2+  Bi100  1  0.15647830  0.48574332  0.20182509  1
  Bi2+  Bi101  1  0.22102373  0.54661772  0.69230124  1
  Bi2+  Bi102  1  0.13999200  0.73242380  0.21041981  1
  Bi2+  Bi103  1  0.11858809  0.80990797  0.69119783  1
  Bi2+  Bi104  1  0.27980432  -0.02803201  0.19680318  1
  Bi2+  Bi105  1  0.34589933  0.00457061  0.75721028  1
  Bi2+  Bi106  1  0.22509509  0.25999112  0.29527410  1
  Bi2+  Bi107  1  0.45871875  0.24502704  0.71859559  1
  Bi2+  Bi108  1  0.38563313  0.61260310  0.21021859  1
  Bi2+  Bi109  1  0.36240793  0.40927198  0.69177107  1
  Bi2+  Bi110  1  0.41222956  0.80780008  0.18852218  1
  Bi2+  Bi111  1  0.34596241  0.69265046  0.73134909  1
  Bi2+  Bi112  1  0.60313882  0.00606124  0.21887052  1
  Bi2+  Bi113  1  0.58717716  0.00781157  0.69642861  1
  Bi2+  Bi114  1  0.60359743  0.27287213  0.22456033  1
  Bi2+  Bi115  1  0.69828363  0.24594502  0.72875757  1
  Bi2+  Bi116  1  0.65547951  0.53475876  0.22059693  1
  Bi2+  Bi117  1  0.63437926  0.46099388  0.70582713  1
  Bi2+  Bi118  1  0.60555211  0.74629324  0.20989067  1
  Bi2+  Bi119  1  0.60001922  0.75541654  0.68238650  1
  Bi2+  Bi120  1  0.85015908  0.00432194  0.21712169  1
  Bi2+  Bi121  1  0.85046744  0.03612016  0.68627536  1
  Bi2+  Bi122  1  0.91056499  0.30163206  0.21291026  1
  Bi2+  Bi123  1  0.90037423  0.26619436  0.74539488  1
  Bi2+  Bi124  1  0.90426025  0.51574085  0.21522056  1
  Bi2+  Bi125  1  0.89900702  0.45773052  0.70189392  1
  Bi2+  Bi126  1  0.87460041  0.71212757  0.21347604  1
  Bi2+  Bi127  1  0.87717862  0.68601760  0.71430646  1
  S2-  S128  1  -0.10189247  0.11835935  0.14966371  1
  S2-  S129  1  -0.01637344  0.11922464  0.64914762  1
  S2-  S130  1  0.01527416  0.49366108  0.13495592  1
  S2-  S131  1  -0.10563811  0.33219249  0.64032306  1
  S2-  S132  1  0.00305922  0.70922861  0.14495191  1
  S2-  S133  1  -0.01011827  0.59719793  0.65300029  1
  S2-  S134  1  -0.02410363  0.91633584  0.19008141  1
  S2-  S135  1  -0.09846199  0.89601881  0.63464995  1
  S2-  S136  1  0.31843086  0.11900527  0.15162901  1
  S2-  S137  1  0.26839264  0.22440134  0.64193725  1
  S2-  S138  1  0.25798435  0.37760090  0.15671240  1
  S2-  S139  1  0.12294143  0.37889104  0.64171038  1
  S2-  S140  1  0.23296436  0.62163797  0.15112892  1
  S2-  S141  1  0.26559030  0.74863967  0.64354952  1
  S2-  S142  1  0.17275442  0.85936216  0.14056688  1
  S2-  S143  1  0.26223497  0.99235138  0.63956733  1
  S2-  S144  1  0.49653849  0.14718222  0.20302518  1
  S2-  S145  1  0.48541395  0.11185377  0.65300296  1
  S2-  S146  1  0.50464285  0.37373780  0.17476738  1
  S2-  S147  1  0.62033210  0.34138483  0.63711258  1
  S2-  S148  1  0.52886886  0.60369247  0.15429667  1
  S2-  S149  1  0.53429233  0.59907727  0.65266917  1
  S2-  S150  1  0.50176759  0.95764254  0.14903399  1
  S2-  S151  1  0.47716949  0.87656078  0.66908904  1
  S2-  S152  1  0.68724408  0.13323058  0.18232879  1
  S2-  S153  1  0.72670384  0.11396164  0.64058770  1
  S2-  S154  1  0.75454709  0.32595825  0.17904293  1
  S2-  S155  1  0.76273515  0.49770499  0.64430107  1
  S2-  S156  1  0.76177337  0.53189055  0.14352916  1
  S2-  S157  1  0.76060604  0.72456579  0.64510223  1
  S2-  S158  1  0.74112427  0.93961617  0.15451639  1
  S2-  S159  1  0.66309916  0.90215905  0.63899437  1
  S2-  S160  1  0.02139760  0.01716459  0.34419672  1
  S2-  S161  1  0.12366673  -0.11435799  0.84939411  1
  S2-  S162  1  0.01500705  0.25431745  0.35420193  1
  S2-  S163  1  0.09648236  0.13461850  0.85522173  1
  S2-  S164  1  0.14763497  0.61987478  0.36215142  1
  S2-  S165  1  0.11650100  0.38291837  0.85260905  1
  S2-  S166  1  0.14558709  0.84697505  0.35337411  1
  S2-  S167  1  0.09421569  0.64037389  0.85197928  1
  S2-  S168  1  0.28056393  0.01532351  0.35707305  1
  S2-  S169  1  0.41995714  0.00751051  0.85536999  1
  S2-  S170  1  0.37785235  0.24814305  0.34338452  1
  S2-  S171  1  0.30650636  0.24752471  0.85343264  1
  S2-  S172  1  0.37557704  0.48201201  0.34887006  1
  S2-  S173  1  0.39573609  0.49419387  0.84304914  1
  S2-  S174  1  0.37304757  0.75444337  0.35197813  1
  S2-  S175  1  0.46660833  0.74827933  0.84642038  1
  S2-  S176  1  0.49916357  -0.01252179  0.35248244  1
  S2-  S177  1  0.63009136  -0.09339428  0.84914671  1
  S2-  S178  1  0.58996491  0.17949032  0.32242947  1
  S2-  S179  1  0.63850090  0.14821299  0.87471015  1
  S2-  S180  1  0.60368145  0.39299250  0.34823587  1
  S2-  S181  1  0.64139794  0.55953435  0.85272015  1
  S2-  S182  1  0.63985402  0.83444707  0.35506570  1
  S2-  S183  1  0.65383615  0.73953197  0.77130807  1
  S2-  S184  1  0.76602152  0.01521977  0.33971144  1
  S2-  S185  1  0.85747137  -0.00385811  0.84757161  1
  S2-  S186  1  0.78661000  0.26686577  0.34986951  1
  S2-  S187  1  0.87566274  0.24490380  0.85346525  1
  S2-  S188  1  0.89866344  0.62337606  0.35935363  1
  S2-  S189  1  0.88669116  0.49572288  0.83998188  1
  S2-  S190  1  0.89117911  0.84205510  0.35102318  1
  S2-  S191  1  0.81346565  0.74769010  0.85346843  1
  S2-  S192  1  0.01996284  0.11464153  0.44710197  1
  S2-  S193  1  -0.00587890  0.12888725  0.96128421  1
  S2-  S194  1  0.01992750  0.37420129  0.45561120  1
  S2-  S195  1  -0.00620925  0.37844970  0.95484009  1
  S2-  S196  1  0.01962908  0.61846740  0.45595636  1
  S2-  S197  1  -0.01012347  0.62619038  0.95595412  1
  S2-  S198  1  0.01928808  0.86684845  0.45433857  1
  S2-  S199  1  -0.00720676  0.87646214  0.94717856  1
  S2-  S200  1  0.26439278  0.12349003  0.45656930  1
  S2-  S201  1  0.24823713  0.12512301  0.95576480  1
  S2-  S202  1  0.26585832  0.36749931  0.45761262  1
  S2-  S203  1  0.25007430  0.37991335  0.95474871  1
  S2-  S204  1  0.27073005  0.62073312  0.46488199  1
  S2-  S205  1  0.25309483  0.63174062  0.94599674  1
  S2-  S206  1  0.26785024  0.86996486  0.46051780  1
  S2-  S207  1  0.25372823  0.87817941  0.94879493  1
  S2-  S208  1  0.51646428  0.12521600  0.44739016  1
  S2-  S209  1  0.49388151  0.12656574  0.97000868  1
  S2-  S210  1  0.51147788  0.36820638  0.45334869  1
  S2-  S211  1  0.50162417  0.37481521  0.96157231  1
  S2-  S212  1  0.51632096  0.61884365  0.44989122  1
  S2-  S213  1  0.50416180  0.62635641  0.95318027  1
  S2-  S214  1  0.51809110  0.86712162  0.45841327  1
  S2-  S215  1  0.49635405  0.88147261  0.96091871  1
  S2-  S216  1  0.76602150  0.11842957  0.44142953  1
  S2-  S217  1  0.75251600  0.12433762  0.97613255  1
  S2-  S218  1  0.76827645  0.37257141  0.45432255  1
  S2-  S219  1  0.74358673  0.37540342  0.96417163  1
  S2-  S220  1  0.76295182  0.61861499  0.45758526  1
  S2-  S221  1  0.74320650  0.62658082  0.95799288  1
  S2-  S222  1  0.76677802  0.86404543  0.45519945  1
  S2-  S223  1  0.74599608  0.87675107  0.95823708  1
  S2-  S224  1  0.11840812  -0.00588368  0.04141326  1
  S2-  S225  1  0.13930404  -0.00928249  0.53711146  1
  S2-  S226  1  0.12185078  0.25213815  0.04149972  1
  S2-  S227  1  0.13775635  0.24051477  0.53752899  1
  S2-  S228  1  0.12663874  0.49949685  0.03275780  1
  S2-  S229  1  0.14511282  0.49569220  0.54307853  1
  S2-  S230  1  0.11973744  0.74860316  0.03380831  1
  S2-  S231  1  0.13823671  0.74325945  0.54439745  1
  S2-  S232  1  0.36807217  -0.00638681  0.05205542  1
  S2-  S233  1  0.39626067  -0.00619014  0.54167970  1
  S2-  S234  1  0.37115193  0.25185917  0.05390602  1
  S2-  S235  1  0.39513525  0.24327829  0.54575753  1
  S2-  S236  1  0.37275053  0.49878287  0.05032353  1
  S2-  S237  1  0.39026122  0.49042397  0.55373022  1
  S2-  S238  1  0.37288756  0.75121409  0.04384794  1
  S2-  S239  1  0.39966974  0.74312451  0.55282065  1
  S2-  S240  1  0.62068430  -0.00048789  0.05027694  1
  S2-  S241  1  0.64530318  -0.00568367  0.52866852  1
  S2-  S242  1  0.62079941  0.24599020  0.06529757  1
  S2-  S243  1  0.64673831  0.24209691  0.53052434  1
  S2-  S244  1  0.62088882  0.49924563  0.04911210  1
  S2-  S245  1  0.63798093  0.49284581  0.53765297  1
  S2-  S246  1  0.62278994  0.74935657  0.06023519  1
  S2-  S247  1  0.63806348  0.74017468  0.54263701  1
  S2-  S248  1  0.88460440  -0.01378486  0.05282043  1
  S2-  S249  1  0.89045013  -0.00584714  0.52916704  1
  S2-  S250  1  0.87344017  0.25643281  0.05784708  1
  S2-  S251  1  0.89080715  0.23764137  0.53455882  1
  S2-  S252  1  0.87073453  0.50020580  0.04339213  1
  S2-  S253  1  0.89629528  0.49196273  0.54001392  1
  S2-  S254  1  0.87117547  0.74754603  0.05204967  1
  S2-  S255  1  0.89786117  0.73842335  0.54180741  1
