# generated using pymatgen
data_La6Ce6Pr19Nd20Sm13(BiS2)64
_symmetry_space_group_name_H-M   'P 1'
_cell_length_a   16.11431202
_cell_length_b   16.08163033
_cell_length_c   27.43596124
_cell_angle_alpha   90.13254926
_cell_angle_beta   89.81176174
_cell_angle_gamma   89.91498912
_symmetry_Int_Tables_number   1
_chemical_formula_structural   La6Ce6Pr19Nd20Sm13(BiS2)64
_chemical_formula_sum   'La6 Ce6 Pr19 Nd20 Sm13 Bi64 S128'
_cell_volume   7109.81065822
_cell_formula_units_Z   1
loop_
 _symmetry_equiv_pos_site_id
 _symmetry_equiv_pos_as_xyz
  1  'x, y, z'
loop_
 _atom_type_symbol
 _atom_type_oxidation_number
  La3+  3.0
  Ce3+  3.0
  Pr3+  3.0
  Nd3+  3.0
  Sm3+  3.0
  Bi2+  2.0
  S2-  -2.0
loop_
 _atom_site_type_symbol
 _atom_site_label
 _atom_site_symmetry_multiplicity
 _atom_site_fract_x
 _atom_site_fract_y
 _atom_site_fract_z
 _atom_site_occupancy
  La3+  La0  1  0.74502587  0.62017477  0.07907184  1
  La3+  La1  1  0.50447902  0.13685187  0.07515242  1
  La3+  La2  1  0.13292254  0.73185187  0.42718368  1
  La3+  La3  1  0.88571997  0.22048163  0.43067963  1
  La3+  La4  1  0.14321904  0.23630259  0.42022558  1
  La3+  La5  1  0.50625308  0.60576700  0.60692324  1
  Ce3+  Ce6  1  0.75067982  0.85356191  0.55679121  1
  Ce3+  Ce7  1  0.25874703  0.85751877  0.55167587  1
  Ce3+  Ce8  1  0.12090335  0.50634536  0.94660362  1
  Ce3+  Ce9  1  0.74761669  0.38204897  0.04550767  1
  Ce3+  Ce10  1  0.00737547  0.35306028  0.55131607  1
  Ce3+  Ce11  1  0.50883901  0.85656982  0.56215243  1
  Pr3+  Pr12  1  0.24827432  0.14577954  0.06965021  1
  Pr3+  Pr13  1  0.87440811  0.50587118  0.94025862  1
  Pr3+  Pr14  1  0.00291831  0.10323502  0.57141100  1
  Pr3+  Pr15  1  0.13241327  -0.01454279  0.42451172  1
  Pr3+  Pr16  1  0.38480254  -0.01925034  0.43319171  1
  Pr3+  Pr17  1  0.26011404  0.36053295  0.55782750  1
  Pr3+  Pr18  1  0.25854835  0.60737986  0.56131641  1
  Pr3+  Pr19  1  0.13421764  0.48249499  0.42858576  1
  Pr3+  Pr20  1  0.88076424  0.47662983  0.43510217  1
  Pr3+  Pr21  1  0.49811648  0.38077197  0.05979475  1
  Pr3+  Pr22  1  0.37239082  0.01050679  0.94435568  1
  Pr3+  Pr23  1  0.01009936  0.85268082  0.56616403  1
  Pr3+  Pr24  1  0.39259848  0.48351789  0.44030443  1
  Pr3+  Pr25  1  0.50222627  0.10549994  0.57314424  1
  Pr3+  Pr26  1  0.63467492  0.73074539  0.43737069  1
  Pr3+  Pr27  1  0.75810649  0.35654754  0.55813606  1
  Pr3+  Pr28  1  0.24825444  0.10944704  0.56312826  1
  Pr3+  Pr29  1  0.62864499  -0.01495206  0.43058808  1
  Pr3+  Pr30  1  -0.00363143  0.37399498  0.07338424  1
  Nd3+  Nd31  1  0.88239402  0.73051884  0.43656255  1
  Nd3+  Nd32  1  0.37575927  0.50734684  0.93652694  1
  Nd3+  Nd33  1  0.62420014  0.76126366  0.93893871  1
  Nd3+  Nd34  1  0.49768307  0.63731511  0.06643801  1
  Nd3+  Nd35  1  -0.00254419  0.88113199  0.06035380  1
  Nd3+  Nd36  1  0.12235424  0.25442016  0.92590972  1
  Nd3+  Nd37  1  0.37205636  0.75670274  0.93931051  1
  Nd3+  Nd38  1  0.24894155  0.63078715  0.06237778  1
  Nd3+  Nd39  1  0.62274177  0.00632351  0.93432345  1
  Nd3+  Nd40  1  0.49918036  0.88529116  0.06754647  1
  Nd3+  Nd41  1  0.62391617  0.51407563  0.93000827  1
  Nd3+  Nd42  1  0.12231708  0.00919874  0.94080384  1
  Nd3+  Nd43  1  0.24607776  0.88540865  0.05835606  1
  Nd3+  Nd44  1  0.37118827  0.25292284  0.92816197  1
  Nd3+  Nd45  1  0.87515886  0.25555890  0.92841187  1
  Nd3+  Nd46  1  0.51154474  0.35375348  0.57399878  1
  Nd3+  Nd47  1  0.74705545  0.88117239  0.06598202  1
  Nd3+  Nd48  1  0.74672138  0.13502458  0.05857801  1
  Nd3+  Nd49  1  0.00553364  0.60831385  0.55955075  1
  Nd3+  Nd50  1  0.87218390  0.75486923  0.94713139  1
  Sm3+  Sm51  1  0.12165871  0.75574097  0.94532186  1
  Sm3+  Sm52  1  0.62570118  0.23066300  0.44262458  1
  Sm3+  Sm53  1  0.75708999  0.10331956  0.56376377  1
  Sm3+  Sm54  1  0.87351507  0.00771816  0.95020312  1
  Sm3+  Sm55  1  0.61449233  0.25164141  0.92435377  1
  Sm3+  Sm56  1  0.88448579  -0.01881791  0.44482126  1
  Sm3+  Sm57  1  -0.00134639  0.62971626  0.06454527  1
  Sm3+  Sm58  1  0.63398069  0.48353951  0.45060798  1
  Sm3+  Sm59  1  0.00046243  0.13535568  0.05894681  1
  Sm3+  Sm60  1  0.75437923  0.61519904  0.57248919  1
  Sm3+  Sm61  1  0.38788645  0.23059354  0.44059004  1
  Sm3+  Sm62  1  0.38735191  0.72952447  0.44563110  1
  Sm3+  Sm63  1  0.24757796  0.38124720  0.05100270  1
  Bi2+  Bi64  1  -0.04255017  0.16776554  0.28698250  1
  Bi2+  Bi65  1  -0.01098179  0.12101965  0.79185489  1
  Bi2+  Bi66  1  -0.00391219  0.40443705  0.29179881  1
  Bi2+  Bi67  1  -0.05909952  0.41142445  0.80117334  1
  Bi2+  Bi68  1  0.03711970  0.73750205  0.28559490  1
  Bi2+  Bi69  1  0.00555140  0.66567453  0.81790664  1
  Bi2+  Bi70  1  -0.05930054  0.93938711  0.30886587  1
  Bi2+  Bi71  1  -0.05920764  0.90621374  0.77505342  1
  Bi2+  Bi72  1  0.22376230  0.12503788  0.29040693  1
  Bi2+  Bi73  1  0.25009160  0.12825825  0.79343884  1
  Bi2+  Bi74  1  0.30420117  0.42740453  0.26207683  1
  Bi2+  Bi75  1  0.19913617  0.33804266  0.75830828  1
  Bi2+  Bi76  1  0.28879712  0.67270673  0.31301662  1
  Bi2+  Bi77  1  0.24968663  0.64131631  0.81435976  1
  Bi2+  Bi78  1  0.21870348  0.90287794  0.27747340  1
  Bi2+  Bi79  1  0.25154475  0.88787247  0.75078836  1
  Bi2+  Bi80  1  0.43588969  0.13365099  0.30730125  1
  Bi2+  Bi81  1  0.50145454  0.12457273  0.79661214  1
  Bi2+  Bi82  1  0.47186727  0.31283800  0.24242396  1
  Bi2+  Bi83  1  0.57675019  0.34808755  0.76591219  1
  Bi2+  Bi84  1  0.52461091  0.59738100  0.30808183  1
  Bi2+  Bi85  1  0.48982874  0.60835218  0.81501487  1
  Bi2+  Bi86  1  0.49047960  0.86534046  0.28306046  1
  Bi2+  Bi87  1  0.55239191  0.89300545  0.76245864  1
  Bi2+  Bi88  1  0.70402489  0.06657007  0.31048732  1
  Bi2+  Bi89  1  0.76662798  0.12013731  0.78390166  1
  Bi2+  Bi90  1  0.71936329  0.44035727  0.28299707  1
  Bi2+  Bi91  1  0.76444138  0.31828933  0.80409809  1
  Bi2+  Bi92  1  0.78014744  0.62827235  0.29379524  1
  Bi2+  Bi93  1  0.75295235  0.64938437  0.78547874  1
  Bi2+  Bi94  1  0.76693708  0.89792303  0.26219332  1
  Bi2+  Bi95  1  0.74072069  0.89022372  0.79112283  1
  Bi2+  Bi96  1  0.03834958  0.01395215  0.22360964  1
  Bi2+  Bi97  1  0.15777585  0.02157624  0.68932030  1
  Bi2+  Bi98  1  0.11622562  0.26208312  0.19091493  1
  Bi2+  Bi99  1  0.04453213  0.24659487  0.71685722  1
  Bi2+  Bi100  1  0.16209669  0.56231377  0.25607358  1
  Bi2+  Bi101  1  0.09230523  0.50730846  0.74650290  1
  Bi2+  Bi102  1  0.16057980  0.77484486  0.19890511  1
  Bi2+  Bi103  1  0.07838419  0.80235361  0.72151321  1
  Bi2+  Bi104  1  0.37409046  -0.02073077  0.22135959  1
  Bi2+  Bi105  1  0.41504491  -0.01435119  0.70593957  1
  Bi2+  Bi106  1  0.35259787  0.18045529  0.19213680  1
  Bi2+  Bi107  1  0.40196528  0.29569274  0.71829831  1
  Bi2+  Bi108  1  0.37425478  0.53217829  0.17715792  1
  Bi2+  Bi109  1  0.34614048  0.48564241  0.70936103  1
  Bi2+  Bi110  1  0.40427729  0.71121366  0.22503352  1
  Bi2+  Bi111  1  0.35103838  0.73612300  0.70238454  1
  Bi2+  Bi112  1  0.61338904  0.03412306  0.20796693  1
  Bi2+  Bi113  1  0.62691230  -0.02416663  0.65160912  1
  Bi2+  Bi114  1  0.66241467  0.24662178  0.27428311  1
  Bi2+  Bi115  1  0.62158663  0.14824446  0.70584926  1
  Bi2+  Bi116  1  0.55814851  0.48754561  0.21611770  1
  Bi2+  Bi117  1  0.72106605  0.47831231  0.72588065  1
  Bi2+  Bi118  1  0.62212221  0.74221602  0.20033595  1
  Bi2+  Bi119  1  0.64998742  0.74733281  0.70588461  1
  Bi2+  Bi120  1  0.84433956  0.06009404  0.21472291  1
  Bi2+  Bi121  1  0.81086450  -0.01750148  0.69717006  1
  Bi2+  Bi122  1  0.79345473  0.31694199  0.20221118  1
  Bi2+  Bi123  1  0.83952167  0.27089148  0.69622074  1
  Bi2+  Bi124  1  0.90436343  0.48197073  0.19946049  1
  Bi2+  Bi125  1  0.91363306  0.51215778  0.69822918  1
  Bi2+  Bi126  1  0.90837997  0.76749839  0.20253005  1
  Bi2+  Bi127  1  0.89705553  0.71020968  0.71177826  1
  S2-  S128  1  -0.01894456  0.23038033  0.13894464  1
  S2-  S129  1  0.12543161  0.16156469  0.63753679  1
  S2-  S130  1  0.05231182  0.41904748  0.16813258  1
  S2-  S131  1  -0.02351841  0.36162347  0.64734550  1
  S2-  S132  1  -0.02166715  0.62788144  0.16148657  1
  S2-  S133  1  0.02382727  0.71884509  0.63703984  1
  S2-  S134  1  0.02534688  0.88293038  0.15746150  1
  S2-  S135  1  0.02293601  0.97007715  0.64257254  1
  S2-  S136  1  0.19003209  0.10885577  0.16374589  1
  S2-  S137  1  0.32523255  0.08728647  0.65602235  1
  S2-  S138  1  0.24895846  0.30263673  0.13748121  1
  S2-  S139  1  0.26340206  0.34749175  0.65844732  1
  S2-  S140  1  0.21254597  0.61891325  0.15840547  1
  S2-  S141  1  0.25648212  0.60892942  0.66198737  1
  S2-  S142  1  0.27053356  0.87874525  0.15565743  1
  S2-  S143  1  0.23765736  0.84710010  0.64796484  1
  S2-  S144  1  0.48449797  0.00286177  0.14312440  1
  S2-  S145  1  0.50131829  0.22818702  0.64654050  1
  S2-  S146  1  0.48268781  0.27500617  0.14077128  1
  S2-  S147  1  0.48105919  0.44908242  0.65502502  1
  S2-  S148  1  0.60378031  0.59961952  0.14325031  1
  S2-  S149  1  0.46280488  0.61237417  0.71944281  1
  S2-  S150  1  0.48457911  0.76603523  0.14074877  1
  S2-  S151  1  0.49471133  0.77260874  0.64801035  1
  S2-  S152  1  0.65410751  0.14256950  0.14152771  1
  S2-  S153  1  0.86236172  0.12437106  0.64184283  1
  S2-  S154  1  0.75883831  0.44476055  0.13662716  1
  S2-  S155  1  0.70785459  0.34437129  0.65373443  1
  S2-  S156  1  0.77640341  0.68119350  0.17623819  1
  S2-  S157  1  0.65913803  0.59356586  0.65576727  1
  S2-  S158  1  0.67800395  0.88661017  0.15676108  1
  S2-  S159  1  0.77755294  0.75857201  0.63777763  1
  S2-  S160  1  0.09170700  0.11683519  0.35201676  1
  S2-  S161  1  0.12598645  0.05690492  0.84568496  1
  S2-  S162  1  0.12282343  0.37190923  0.34832744  1
  S2-  S163  1  0.24740677  0.25774819  0.85309804  1
  S2-  S164  1  0.13154468  0.60584755  0.35383411  1
  S2-  S165  1  0.11833939  0.53020293  0.85040867  1
  S2-  S166  1  0.10492781  0.85300753  0.35261953  1
  S2-  S167  1  0.13215816  0.76668049  0.84844036  1
  S2-  S168  1  0.27158278  -0.00690368  0.35484457  1
  S2-  S169  1  0.36837618  0.04111166  0.84541844  1
  S2-  S170  1  0.29399804  0.22650540  0.35474858  1
  S2-  S171  1  0.48687429  0.26136128  0.85301557  1
  S2-  S172  1  0.36994055  0.51586594  0.34133847  1
  S2-  S173  1  0.34567451  0.51381694  0.83799735  1
  S2-  S174  1  0.39749296  0.78542339  0.35293298  1
  S2-  S175  1  0.37751985  0.74361365  0.84054877  1
  S2-  S176  1  0.50730834  -0.00867179  0.35676252  1
  S2-  S177  1  0.61465897  -0.11931408  0.86289390  1
  S2-  S178  1  0.51241117  0.23672227  0.36793932  1
  S2-  S179  1  0.63831648  0.11791638  0.85708760  1
  S2-  S180  1  0.59535431  0.46770993  0.35548229  1
  S2-  S181  1  0.56793665  0.46398406  0.83810357  1
  S2-  S182  1  0.64457146  0.71141387  0.33646410  1
  S2-  S183  1  0.63877166  0.65193255  0.86131174  1
  S2-  S184  1  0.87239258  0.07804808  0.36295014  1
  S2-  S185  1  0.88275805  0.03116948  0.85398690  1
  S2-  S186  1  0.89211368  0.30095298  0.34012804  1
  S2-  S187  1  0.99577161  0.26373205  0.85515715  1
  S2-  S188  1  0.89921057  0.52603495  0.33949909  1
  S2-  S189  1  0.86625118  0.55271607  0.84425711  1
  S2-  S190  1  0.87934562  0.73747127  0.33692059  1
  S2-  S191  1  0.89458265  0.78286459  0.85028788  1
  S2-  S192  1  0.00717667  0.10031888  0.46304424  1
  S2-  S193  1  -0.00335162  0.13089113  0.95651331  1
  S2-  S194  1  0.00685685  0.35629158  0.44924493  1
  S2-  S195  1  -0.00167087  0.38134539  0.95837708  1
  S2-  S196  1  0.00401092  0.60470909  0.45430383  1
  S2-  S197  1  -0.00083953  0.63341952  0.95955714  1
  S2-  S198  1  0.00192911  0.85593616  0.45742394  1
  S2-  S199  1  -0.00149684  0.88263022  0.95495178  1
  S2-  S200  1  0.26250227  0.10685842  0.45761578  1
  S2-  S201  1  0.24390802  0.13229808  0.95858835  1
  S2-  S202  1  0.26558453  0.36399674  0.45231324  1
  S2-  S203  1  0.24818843  0.38475285  0.94906400  1
  S2-  S204  1  0.26351666  0.60630675  0.45503647  1
  S2-  S205  1  0.24672805  0.63268040  0.95611409  1
  S2-  S206  1  0.26169652  0.85195055  0.44934098  1
  S2-  S207  1  0.24495602  0.88190456  0.95135309  1
  S2-  S208  1  0.50700450  0.10695293  0.46519948  1
  S2-  S209  1  0.49909557  0.13044412  0.95899377  1
  S2-  S210  1  0.51205273  0.35841099  0.46630014  1
  S2-  S211  1  0.49770665  0.38394627  0.95328799  1
  S2-  S212  1  0.51268041  0.60905125  0.45142951  1
  S2-  S213  1  0.49492595  0.63445263  0.95816429  1
  S2-  S214  1  0.51113352  0.85458084  0.45653881  1
  S2-  S215  1  0.49231174  0.88181117  0.96090169  1
  S2-  S216  1  0.75023393  0.10664718  0.45930871  1
  S2-  S217  1  0.75350946  0.13310359  0.95402725  1
  S2-  S218  1  0.75268360  0.35243670  0.44993332  1
  S2-  S219  1  0.74550577  0.37963499  0.94029641  1
  S2-  S220  1  0.75877629  0.60547396  0.45546735  1
  S2-  S221  1  0.75196431  0.63074082  0.96432694  1
  S2-  S222  1  0.75737221  0.86061982  0.44542148  1
  S2-  S223  1  0.75393647  0.88413093  0.95908521  1
  S2-  S224  1  0.11973939  0.00946533  0.04781772  1
  S2-  S225  1  0.13507901  -0.02222028  0.53621201  1
  S2-  S226  1  0.12115643  0.25896592  0.03614216  1
  S2-  S227  1  0.13532210  0.24068093  0.53117562  1
  S2-  S228  1  0.12310569  0.50526410  0.05188066  1
  S2-  S229  1  0.12985652  0.48367761  0.54572464  1
  S2-  S230  1  0.12179793  0.75562776  0.04991950  1
  S2-  S231  1  0.13530565  0.73005844  0.53588791  1
  S2-  S232  1  0.36552971  0.01225895  0.04866088  1
  S2-  S233  1  0.38462938  -0.02051659  0.54556613  1
  S2-  S234  1  0.37256406  0.26021847  0.03443284  1
  S2-  S235  1  0.38053842  0.23332317  0.54649262  1
  S2-  S236  1  0.37205306  0.50598830  0.04332746  1
  S2-  S237  1  0.38810314  0.48727794  0.54815344  1
  S2-  S238  1  0.36680045  0.75874729  0.04470657  1
  S2-  S239  1  0.38474253  0.72843236  0.54815406  1
  S2-  S240  1  0.62741320  0.00515019  0.04085797  1
  S2-  S241  1  0.63281803  -0.01696212  0.53784998  1
  S2-  S242  1  0.62528763  0.26005326  0.03325200  1
  S2-  S243  1  0.63512967  0.22683723  0.54616554  1
  S2-  S244  1  0.62001178  0.50426012  0.03662279  1
  S2-  S245  1  0.63424609  0.48667186  0.55209666  1
  S2-  S246  1  0.62709157  0.75745401  0.04489106  1
  S2-  S247  1  0.62894911  0.72751711  0.54446647  1
  S2-  S248  1  0.87434088  0.01029883  0.05550056  1
  S2-  S249  1  0.87498487  -0.02495078  0.54578074  1
  S2-  S250  1  0.87066530  0.25671420  0.03622563  1
  S2-  S251  1  0.88016395  0.23049024  0.53938713  1
  S2-  S252  1  0.88050877  0.50552630  0.04610580  1
  S2-  S253  1  0.87844772  0.48696242  0.54465013  1
  S2-  S254  1  0.87355025  0.75446186  0.05376094  1
  S2-  S255  1  0.88075467  0.72949108  0.53934115  1
