# generated using pymatgen
data_La6Ce6Pr19Nd20Sm13(BiS2)64
_symmetry_space_group_name_H-M   'P 1'
_cell_length_a   16.06321651
_cell_length_b   16.08980199
_cell_length_c   27.57576352
_cell_angle_alpha   90.14991246
_cell_angle_beta   89.77454752
_cell_angle_gamma   89.85488708
_symmetry_Int_Tables_number   1
_chemical_formula_structural   La6Ce6Pr19Nd20Sm13(BiS2)64
_chemical_formula_sum   'La6 Ce6 Pr19 Nd20 Sm13 Bi64 S128'
_cell_volume   7126.96302676
_cell_formula_units_Z   1
loop_
 _symmetry_equiv_pos_site_id
 _symmetry_equiv_pos_as_xyz
  1  'x, y, z'
loop_
 _atom_type_symbol
 _atom_type_oxidation_number
  La3+  3.0
  Ce3+  3.0
  Pr3+  3.0
  Nd3+  3.0
  Sm3+  3.0
  Bi2+  2.0
  S2-  -2.0
loop_
 _atom_site_type_symbol
 _atom_site_label
 _atom_site_symmetry_multiplicity
 _atom_site_fract_x
 _atom_site_fract_y
 _atom_site_fract_z
 _atom_site_occupancy
  La3+  La0  1  -0.01327893  0.88235821  0.09166138  1
  La3+  La1  1  -0.02453985  0.61135801  0.09849556  1
  La3+  La2  1  0.14722977  0.74266614  0.41741256  1
  La3+  La3  1  0.24968525  0.88663677  0.09422064  1
  La3+  La4  1  0.39662437  0.00878961  0.40421442  1
  La3+  La5  1  0.73461763  0.86963089  0.61971069  1
  Ce3+  Ce6  1  0.02276562  0.62865298  0.56112830  1
  Ce3+  Ce7  1  -0.00831454  0.37156909  0.06013048  1
  Ce3+  Ce8  1  0.24440716  0.13111043  0.06299569  1
  Ce3+  Ce9  1  0.49263029  0.62765638  0.05310741  1
  Ce3+  Ce10  1  0.74651406  0.37915072  0.04721963  1
  Ce3+  Ce11  1  0.76587831  0.11644733  0.56333971  1
  Pr3+  Pr12  1  0.36691938  -0.00033262  0.94201163  1
  Pr3+  Pr13  1  0.88045679  0.74282455  0.42807396  1
  Pr3+  Pr14  1  0.13907807  -0.00521122  0.43591800  1
  Pr3+  Pr15  1  0.74347341  0.13078175  0.06231462  1
  Pr3+  Pr16  1  0.88060313  0.50028937  0.92519502  1
  Pr3+  Pr17  1  0.36442941  0.75393690  0.94479795  1
  Pr3+  Pr18  1  0.64031053  0.49851812  0.43855289  1
  Pr3+  Pr19  1  0.51779059  0.62507450  0.56483786  1
  Pr3+  Pr20  1  0.26354584  0.87179763  0.55484531  1
  Pr3+  Pr21  1  0.26513693  0.11730764  0.56148361  1
  Pr3+  Pr22  1  0.01947782  0.37641343  0.56477943  1
  Pr3+  Pr23  1  0.87930933  0.24510424  0.92738923  1
  Pr3+  Pr24  1  0.14118272  0.24485063  0.44239289  1
  Pr3+  Pr25  1  0.50029414  0.38152101  0.06367576  1
  Pr3+  Pr26  1  0.49615295  0.87584230  0.06392689  1
  Pr3+  Pr27  1  0.39099078  0.49888903  0.43274281  1
  Pr3+  Pr28  1  0.87252474  0.75308473  0.94208441  1
  Pr3+  Pr29  1  0.61986539  0.25408162  0.93418713  1
  Pr3+  Pr30  1  0.12332141  0.24822068  0.93295084  1
  Nd3+  Nd31  1  0.39214176  0.74600601  0.43037508  1
  Nd3+  Nd32  1  0.36849839  0.50442940  0.93908340  1
  Nd3+  Nd33  1  0.77591932  0.61944477  0.57683735  1
  Nd3+  Nd34  1  0.01353486  0.12486089  0.56308067  1
  Nd3+  Nd35  1  0.61950385  0.75331519  0.93303200  1
  Nd3+  Nd36  1  0.26992452  0.62698275  0.56519901  1
  Nd3+  Nd37  1  0.00204607  0.87002224  0.55101633  1
  Nd3+  Nd38  1  0.36652925  0.25425594  0.93177927  1
  Nd3+  Nd39  1  0.88943236  0.24778881  0.44447498  1
  Nd3+  Nd40  1  0.14031849  0.49798653  0.43785045  1
  Nd3+  Nd41  1  0.49195285  0.12962643  0.05698116  1
  Nd3+  Nd42  1  0.51700314  0.11881956  0.56495357  1
  Nd3+  Nd43  1  0.74460089  0.62687233  0.05171681  1
  Nd3+  Nd44  1  0.62049591  0.00591388  0.93935953  1
  Nd3+  Nd45  1  0.74344491  0.87572966  0.06422202  1
  Nd3+  Nd46  1  0.64644942  -0.00288772  0.43416275  1
  Nd3+  Nd47  1  0.26849321  0.37389065  0.55650520  1
  Nd3+  Nd48  1  0.88755965  -0.00454763  0.43365900  1
  Nd3+  Nd49  1  0.89015928  0.49807220  0.43931625  1
  Nd3+  Nd50  1  0.11520114  0.75437834  0.96055906  1
  Sm3+  Sm51  1  0.51463160  0.37503067  0.55435320  1
  Sm3+  Sm52  1  -0.00656737  0.12699243  0.06516593  1
  Sm3+  Sm53  1  0.39135219  0.24504414  0.44716406  1
  Sm3+  Sm54  1  0.64397479  0.74973956  0.44864385  1
  Sm3+  Sm55  1  0.24207829  0.37755477  0.05336127  1
  Sm3+  Sm56  1  0.62016376  0.50221313  0.93347522  1
  Sm3+  Sm57  1  0.87070633  -0.00027896  0.94546029  1
  Sm3+  Sm58  1  0.11795528  -0.00186040  0.95148369  1
  Sm3+  Sm59  1  0.24075748  0.62704551  0.06259815  1
  Sm3+  Sm60  1  0.11423983  0.50420869  0.95102157  1
  Sm3+  Sm61  1  0.51583144  0.87281075  0.55206585  1
  Sm3+  Sm62  1  0.76443286  0.37532515  0.55979099  1
  Sm3+  Sm63  1  0.63884111  0.24463496  0.45131219  1
  Bi2+  Bi64  1  -0.04640222  0.14125524  0.27933365  1
  Bi2+  Bi65  1  0.04038393  0.12680970  0.75079578  1
  Bi2+  Bi66  1  0.05194417  0.37865085  0.29581579  1
  Bi2+  Bi67  1  -0.01297226  0.34603934  0.80883671  1
  Bi2+  Bi68  1  -0.00118696  0.62062994  0.30666229  1
  Bi2+  Bi69  1  -0.03170900  0.59294181  0.78493969  1
  Bi2+  Bi70  1  -0.01523128  0.89025681  0.28766923  1
  Bi2+  Bi71  1  0.00149955  0.86975806  0.82258990  1
  Bi2+  Bi72  1  0.26169999  0.21386134  0.28454518  1
  Bi2+  Bi73  1  0.29179527  0.09603961  0.79363859  1
  Bi2+  Bi74  1  0.33856722  0.40961648  0.30946375  1
  Bi2+  Bi75  1  0.30452941  0.34609098  0.78270665  1
  Bi2+  Bi76  1  0.28690625  0.63508097  0.29468450  1
  Bi2+  Bi77  1  0.28404654  0.62956166  0.79212481  1
  Bi2+  Bi78  1  0.21285962  0.89736970  0.29034713  1
  Bi2+  Bi79  1  0.25644741  0.83689888  0.82182082  1
  Bi2+  Bi80  1  0.52120055  0.15471273  0.29421229  1
  Bi2+  Bi81  1  0.46820579  0.17998139  0.81485962  1
  Bi2+  Bi82  1  0.50517652  0.34481829  0.26213478  1
  Bi2+  Bi83  1  0.58486712  0.33507719  0.80007135  1
  Bi2+  Bi84  1  0.52894488  0.61479879  0.28342651  1
  Bi2+  Bi85  1  0.47055348  0.56002870  0.77387535  1
  Bi2+  Bi86  1  0.53349784  0.85771018  0.29339602  1
  Bi2+  Bi87  1  0.44631948  0.86781973  0.72953825  1
  Bi2+  Bi88  1  0.75883851  0.16454152  0.30151294  1
  Bi2+  Bi89  1  0.73525800  0.12561126  0.76705018  1
  Bi2+  Bi90  1  0.70181061  0.40486049  0.26964053  1
  Bi2+  Bi91  1  0.81378685  0.42532415  0.73217890  1
  Bi2+  Bi92  1  0.70254225  0.69253582  0.25907443  1
  Bi2+  Bi93  1  0.72181186  0.63688443  0.79584707  1
  Bi2+  Bi94  1  0.73169857  0.88741284  0.29439654  1
  Bi2+  Bi95  1  0.75008192  0.88291428  0.82026655  1
  Bi2+  Bi96  1  0.12100533  0.11151477  0.21744094  1
  Bi2+  Bi97  1  0.16075459  -0.03124941  0.75052938  1
  Bi2+  Bi98  1  0.07988601  0.29522153  0.18621007  1
  Bi2+  Bi99  1  0.15861759  0.26784441  0.70806703  1
  Bi2+  Bi100  1  0.19514486  0.45267925  0.23449550  1
  Bi2+  Bi101  1  0.14413650  0.49531965  0.76301515  1
  Bi2+  Bi102  1  0.15122580  0.70788922  0.20721219  1
  Bi2+  Bi103  1  0.11993182  0.69671341  0.73085455  1
  Bi2+  Bi104  1  0.37913401  0.01900032  0.21071334  1
  Bi2+  Bi105  1  0.35404299  0.03413114  0.69106294  1
  Bi2+  Bi106  1  0.35609851  0.23885046  0.19158844  1
  Bi2+  Bi107  1  0.45797215  0.28264669  0.71543733  1
  Bi2+  Bi108  1  0.39388120  0.51056061  0.20721225  1
  Bi2+  Bi109  1  0.33508742  0.48756684  0.69936463  1
  Bi2+  Bi110  1  0.44706446  0.75572330  0.21471299  1
  Bi2+  Bi111  1  0.29082620  0.76337416  0.68917473  1
  Bi2+  Bi112  1  0.61036355  -0.01177749  0.22054881  1
  Bi2+  Bi113  1  0.55910754  0.03466787  0.75267453  1
  Bi2+  Bi114  1  0.69570744  0.24611798  0.19881107  1
  Bi2+  Bi115  1  0.67757906  0.27486262  0.70216865  1
  Bi2+  Bi116  1  0.66895395  0.53669679  0.18688162  1
  Bi2+  Bi117  1  0.61332528  0.47558111  0.70776784  1
  Bi2+  Bi118  1  0.62055922  0.81194773  0.17331893  1
  Bi2+  Bi119  1  0.54143379  0.70572679  0.69553592  1
  Bi2+  Bi120  1  0.86166819  0.01684726  0.20866317  1
  Bi2+  Bi121  1  0.90177569  -0.01504723  0.70582690  1
  Bi2+  Bi122  1  0.88998625  0.23417833  0.17938718  1
  Bi2+  Bi123  1  0.87752362  0.23001168  0.71590377  1
  Bi2+  Bi124  1  0.89239377  0.41042804  0.23662222  1
  Bi2+  Bi125  1  0.98995477  0.47701944  0.69011047  1
  Bi2+  Bi126  1  0.88158730  0.74323494  0.20699243  1
  Bi2+  Bi127  1  0.86567311  0.73332319  0.70808380  1
  S2-  S128  1  0.00167979  0.03749356  0.14979572  1
  S2-  S129  1  0.02027169  0.05698393  0.65431918  1
  S2-  S130  1  -0.05157482  0.44457003  0.14276531  1
  S2-  S131  1  0.00453087  0.29881422  0.65379576  1
  S2-  S132  1  0.00356603  0.61829188  0.20087738  1
  S2-  S133  1  -0.08030014  0.61904454  0.64096507  1
  S2-  S134  1  0.02230032  0.82446485  0.18712266  1
  S2-  S135  1  -0.08233666  0.85413757  0.63929037  1
  S2-  S136  1  0.24266815  0.05189854  0.15016962  1
  S2-  S137  1  0.25646293  0.17202577  0.65663084  1
  S2-  S138  1  0.23549145  0.35035575  0.14887167  1
  S2-  S139  1  0.21782417  0.40368792  0.64854629  1
  S2-  S140  1  0.26713166  0.61480019  0.15798692  1
  S2-  S141  1  0.14759658  0.65435638  0.63537265  1
  S2-  S142  1  0.22412753  0.84815498  0.19218845  1
  S2-  S143  1  0.23341289  0.91322432  0.65142023  1
  S2-  S144  1  0.47780540  0.12882735  0.15485483  1
  S2-  S145  1  0.50900525  0.11403802  0.66363524  1
  S2-  S146  1  0.45558895  0.36647391  0.15960391  1
  S2-  S147  1  0.48470400  0.41672010  0.64698433  1
  S2-  S148  1  0.51621897  0.58423283  0.14520652  1
  S2-  S149  1  0.39857319  0.64265498  0.63850068  1
  S2-  S150  1  0.40678959  0.88956011  0.14943597  1
  S2-  S151  1  0.55897503  0.86524664  0.64681030  1
  S2-  S152  1  0.71812602  0.07693002  0.15654119  1
  S2-  S153  1  0.77060243  0.03804979  0.64858927  1
  S2-  S154  1  0.67048036  0.38246572  0.13405353  1
  S2-  S155  1  0.75255868  0.47264903  0.64051506  1
  S2-  S156  1  0.80979826  0.62110855  0.14272028  1
  S2-  S157  1  0.71643483  0.69896583  0.66132838  1
  S2-  S158  1  0.83255827  0.87755147  0.14874799  1
  S2-  S159  1  0.76224926  0.87015144  0.72562929  1
  S2-  S160  1  0.09571417  -0.00098078  0.33960332  1
  S2-  S161  1  0.11140749  -0.02063167  0.85338866  1
  S2-  S162  1  0.12831973  0.24535219  0.34391785  1
  S2-  S163  1  0.02212659  0.20770710  0.85427446  1
  S2-  S164  1  0.15166011  0.58580516  0.35365376  1
  S2-  S165  1  0.03977276  0.49751064  0.86318568  1
  S2-  S166  1  0.09283360  0.77786615  0.31993378  1
  S2-  S167  1  0.10749987  0.75564745  0.86113565  1
  S2-  S168  1  0.34007340  -0.00943184  0.30745322  1
  S2-  S169  1  0.36032039  -0.03858428  0.84515874  1
  S2-  S170  1  0.38857833  0.17754603  0.35848457  1
  S2-  S171  1  0.24993571  0.23809401  0.85846036  1
  S2-  S172  1  0.41002138  0.61427954  0.35925835  1
  S2-  S173  1  0.38282359  0.45739849  0.84460965  1
  S2-  S174  1  0.29001935  0.77672045  0.35004441  1
  S2-  S175  1  0.38688309  0.73708654  0.84655086  1
  S2-  S176  1  0.54719280  0.01133751  0.35111910  1
  S2-  S177  1  0.60845479  -0.04066677  0.84528599  1
  S2-  S178  1  0.63179800  0.23838002  0.35477064  1
  S2-  S179  1  0.64474570  0.17520929  0.84670222  1
  S2-  S180  1  0.61507878  0.49870433  0.34040702  1
  S2-  S181  1  0.61135167  0.54228774  0.83912716  1
  S2-  S182  1  0.70821756  0.74648740  0.35876470  1
  S2-  S183  1  0.63208276  0.75486133  0.83430416  1
  S2-  S184  1  0.77186673  0.01123324  0.35882535  1
  S2-  S185  1  0.88147740  -0.00475213  0.84846147  1
  S2-  S186  1  0.87791361  0.25879474  0.34679310  1
  S2-  S187  1  0.84083999  0.29306695  0.83366207  1
  S2-  S188  1  0.87951266  0.53380560  0.34322224  1
  S2-  S189  1  0.82755159  0.51701017  0.82927229  1
  S2-  S190  1  0.90415983  0.76512386  0.32706053  1
  S2-  S191  1  0.86956262  0.75163630  0.84167694  1
  S2-  S192  1  0.01277498  0.12251426  0.45272289  1
  S2-  S193  1  -0.00470389  0.11975261  0.96191732  1
  S2-  S194  1  0.01612487  0.37251814  0.45491007  1
  S2-  S195  1  -0.00263765  0.37135678  0.95616083  1
  S2-  S196  1  0.01430113  0.62187683  0.45120480  1
  S2-  S197  1  -0.00579110  0.62846850  0.95969866  1
  S2-  S198  1  0.01153600  0.86952303  0.44451846  1
  S2-  S199  1  -0.00759566  0.87952712  0.96625920  1
  S2-  S200  1  0.26723772  0.11900814  0.45489371  1
  S2-  S201  1  0.24355737  0.12225137  0.95828989  1
  S2-  S202  1  0.26722926  0.37122719  0.45016105  1
  S2-  S203  1  0.24148087  0.38320415  0.95093179  1
  S2-  S204  1  0.26778120  0.62172771  0.45855421  1
  S2-  S205  1  0.23996883  0.62534432  0.95711184  1
  S2-  S206  1  0.27445342  0.88393367  0.44924491  1
  S2-  S207  1  0.24165261  0.87748964  0.96519963  1
  S2-  S208  1  0.51597074  0.12175141  0.46017604  1
  S2-  S209  1  0.49147876  0.12870710  0.95146305  1
  S2-  S210  1  0.51358507  0.36961769  0.45040174  1
  S2-  S211  1  0.49373309  0.37905377  0.95196591  1
  S2-  S212  1  0.52034326  0.62573607  0.45898687  1
  S2-  S213  1  0.49511446  0.62721343  0.94774894  1
  S2-  S214  1  0.51579760  0.87239378  0.44827468  1
  S2-  S215  1  0.49574629  0.87628544  0.95606129  1
  S2-  S216  1  0.76415497  0.12658646  0.45922213  1
  S2-  S217  1  0.74826860  0.12667889  0.95439130  1
  S2-  S218  1  0.76288231  0.37131840  0.45520662  1
  S2-  S219  1  0.74627574  0.37873314  0.94230753  1
  S2-  S220  1  0.76310500  0.61820818  0.45921912  1
  S2-  S221  1  0.74471806  0.62579537  0.94604757  1
  S2-  S222  1  0.76695712  0.87281294  0.45441202  1
  S2-  S223  1  0.74338104  0.87840934  0.95732978  1
  S2-  S224  1  0.11883012  0.00104885  0.05294598  1
  S2-  S225  1  0.13403199  -0.00269795  0.54212786  1
  S2-  S226  1  0.11849157  0.25030443  0.04306733  1
  S2-  S227  1  0.14221404  0.24719090  0.54709760  1
  S2-  S228  1  0.11610589  0.50281288  0.05497808  1
  S2-  S229  1  0.14415441  0.49818386  0.54157267  1
  S2-  S230  1  0.11456171  0.74921365  0.06632012  1
  S2-  S231  1  0.13997792  0.75519885  0.53023327  1
  S2-  S232  1  0.36992388  0.00400302  0.04666044  1
  S2-  S233  1  0.39371489  -0.00393723  0.55205678  1
  S2-  S234  1  0.36916726  0.25733164  0.03970123  1
  S2-  S235  1  0.39271640  0.24719250  0.55098778  1
  S2-  S236  1  0.36514731  0.50153251  0.04558760  1
  S2-  S237  1  0.39177230  0.49803305  0.53891389  1
  S2-  S238  1  0.36432030  0.75139773  0.05137337  1
  S2-  S239  1  0.39316515  0.75229975  0.53741668  1
  S2-  S240  1  0.61792886  0.00324408  0.04653093  1
  S2-  S241  1  0.64051492  -0.00639359  0.54578686  1
  S2-  S242  1  0.61766238  0.25197861  0.04022412  1
  S2-  S243  1  0.63938364  0.25023184  0.55513969  1
  S2-  S244  1  0.61989789  0.50477030  0.03539269  1
  S2-  S245  1  0.63750631  0.49705912  0.54383976  1
  S2-  S246  1  0.61957034  0.75072416  0.03983827  1
  S2-  S247  1  0.64385422  0.74959250  0.54969936  1
  S2-  S248  1  0.86687698  0.00560928  0.04880887  1
  S2-  S249  1  0.89413942  0.00446679  0.53749212  1
  S2-  S250  1  0.86958884  0.24965525  0.03934781  1
  S2-  S251  1  0.88701550  0.24966841  0.54986966  1
  S2-  S252  1  0.86869913  0.50213910  0.03372674  1
  S2-  S253  1  0.89269340  0.49257272  0.54291563  1
  S2-  S254  1  0.87123919  0.75093033  0.04845592  1
  S2-  S255  1  0.89227141  0.73784257  0.53535247  1
