# generated using pymatgen
data_La6Ce6Pr19Nd20Sm13(BiS2)64
_symmetry_space_group_name_H-M   'P 1'
_cell_length_a   16.13624709
_cell_length_b   16.14891954
_cell_length_c   27.35085047
_cell_angle_alpha   89.86521053
_cell_angle_beta   90.09275148
_cell_angle_gamma   89.98020099
_symmetry_Int_Tables_number   1
_chemical_formula_structural   La6Ce6Pr19Nd20Sm13(BiS2)64
_chemical_formula_sum   'La6 Ce6 Pr19 Nd20 Sm13 Bi64 S128'
_cell_volume   7127.13596556
_cell_formula_units_Z   1
loop_
 _symmetry_equiv_pos_site_id
 _symmetry_equiv_pos_as_xyz
  1  'x, y, z'
loop_
 _atom_type_symbol
 _atom_type_oxidation_number
  La3+  3.0
  Ce3+  3.0
  Pr3+  3.0
  Nd3+  3.0
  Sm3+  3.0
  Bi2+  2.0
  S2-  -2.0
loop_
 _atom_site_type_symbol
 _atom_site_label
 _atom_site_symmetry_multiplicity
 _atom_site_fract_x
 _atom_site_fract_y
 _atom_site_fract_z
 _atom_site_occupancy
  La3+  La0  1  0.12078222  0.51932856  0.42482299  1
  La3+  La1  1  0.75428015  0.11472550  0.10090015  1
  La3+  La2  1  0.62201799  0.51748179  0.43622923  1
  La3+  La3  1  0.37748367  0.24822377  0.90910703  1
  La3+  La4  1  0.39369654  0.00793873  0.38120858  1
  La3+  La5  1  0.86962944  0.51384742  0.43441814  1
  Ce3+  Ce6  1  0.11996146  0.26057469  0.44037267  1
  Ce3+  Ce7  1  0.62672005  0.74662613  0.94990324  1
  Ce3+  Ce8  1  0.50558410  0.36647137  0.06280523  1
  Ce3+  Ce9  1  0.12760295  -0.00275915  0.94639741  1
  Ce3+  Ce10  1  0.49408579  0.13330963  0.55712965  1
  Ce3+  Ce11  1  0.24963721  0.63064294  0.55702366  1
  Pr3+  Pr12  1  0.87118364  0.73872337  0.93521097  1
  Pr3+  Pr13  1  -0.01276839  0.89130667  0.58437233  1
  Pr3+  Pr14  1  0.49484524  0.88657028  0.56078338  1
  Pr3+  Pr15  1  0.75306924  0.37851823  0.56276886  1
  Pr3+  Pr16  1  0.86905352  0.26725401  0.41843913  1
  Pr3+  Pr17  1  0.37399521  0.76118991  0.43591789  1
  Pr3+  Pr18  1  0.87390699  0.00633167  0.42821550  1
  Pr3+  Pr19  1  0.50320066  0.61500144  0.06489497  1
  Pr3+  Pr20  1  -0.00627060  0.13264416  0.55029450  1
  Pr3+  Pr21  1  0.87404351  0.24671367  0.94279636  1
  Pr3+  Pr22  1  0.73776694  0.62362626  0.57770465  1
  Pr3+  Pr23  1  0.25232962  0.86886967  0.06329762  1
  Pr3+  Pr24  1  0.87794211  -0.00327299  0.94450133  1
  Pr3+  Pr25  1  0.37862444  0.49253353  0.93966687  1
  Pr3+  Pr26  1  0.25189446  0.36698263  0.06360889  1
  Pr3+  Pr27  1  0.12850567  0.49097520  0.93803218  1
  Pr3+  Pr28  1  0.87417425  0.48898979  0.93404450  1
  Pr3+  Pr29  1  0.61898462  0.26178285  0.43344070  1
  Pr3+  Pr30  1  0.37363762  0.50807813  0.43086788  1
  Nd3+  Nd31  1  0.62711556  0.48574122  0.94201278  1
  Nd3+  Nd32  1  0.75478542  0.86922036  0.06798334  1
  Nd3+  Nd33  1  0.00188840  0.11603901  0.07343381  1
  Nd3+  Nd34  1  0.49052982  0.63086411  0.57026680  1
  Nd3+  Nd35  1  0.38062007  0.74703488  0.94116492  1
  Nd3+  Nd36  1  0.24617027  0.88483783  0.55863631  1
  Nd3+  Nd37  1  0.12727548  0.00630489  0.43147242  1
  Nd3+  Nd38  1  0.12851984  0.24821521  0.92812972  1
  Nd3+  Nd39  1  0.36694318  0.26135122  0.42929251  1
  Nd3+  Nd40  1  0.50385433  0.12079473  0.06043934  1
  Nd3+  Nd41  1  0.76523508  0.37820963  0.08624094  1
  Nd3+  Nd42  1  -0.00649374  0.63926876  0.57707201  1
  Nd3+  Nd43  1  0.00112289  0.86886724  0.06747269  1
  Nd3+  Nd44  1  0.25322205  0.12319749  0.05848942  1
  Nd3+  Nd45  1  0.50268319  0.86943402  0.06407259  1
  Nd3+  Nd46  1  0.49401446  0.38020033  0.55918740  1
  Nd3+  Nd47  1  0.12560263  0.74963075  0.93803535  1
  Nd3+  Nd48  1  0.37785588  -0.00394147  0.93837234  1
  Nd3+  Nd49  1  -0.00242463  0.39099735  0.55927668  1
  Nd3+  Nd50  1  0.12159595  0.76081325  0.44543659  1
  Sm3+  Sm51  1  0.24589027  0.13159298  0.55216012  1
  Sm3+  Sm52  1  0.74929254  0.88213524  0.55390926  1
  Sm3+  Sm53  1  0.62671061  -0.00269026  0.94547145  1
  Sm3+  Sm54  1  0.25212745  0.61860202  0.05169935  1
  Sm3+  Sm55  1  0.87357840  0.75556372  0.44287421  1
  Sm3+  Sm56  1  0.00115015  0.36915683  0.06294113  1
  Sm3+  Sm57  1  0.63009623  0.24459780  0.95570635  1
  Sm3+  Sm58  1  0.24634455  0.38234082  0.55291396  1
  Sm3+  Sm59  1  0.62017290  0.75812366  0.44690845  1
  Sm3+  Sm60  1  0.74950859  0.13387851  0.54728075  1
  Sm3+  Sm61  1  0.00292239  0.61956110  0.05017087  1
  Sm3+  Sm62  1  0.75573536  0.61776869  0.06005342  1
  Sm3+  Sm63  1  0.62140137  0.00921762  0.44147238  1
  Bi2+  Bi64  1  0.04616938  0.07648377  0.27467610  1
  Bi2+  Bi65  1  0.01180233  0.17132928  0.78635030  1
  Bi2+  Bi66  1  0.04672697  0.39438412  0.23391867  1
  Bi2+  Bi67  1  -0.01105004  0.36924885  0.78504709  1
  Bi2+  Bi68  1  -0.02140123  0.72862998  0.30117224  1
  Bi2+  Bi69  1  -0.02994492  0.63584296  0.78728554  1
  Bi2+  Bi70  1  -0.00914250  0.91668514  0.32761629  1
  Bi2+  Bi71  1  -0.00612933  0.90936740  0.79608510  1
  Bi2+  Bi72  1  0.24397294  0.14031761  0.28927012  1
  Bi2+  Bi73  1  0.22668239  0.14400188  0.75208255  1
  Bi2+  Bi74  1  0.21446888  0.39426602  0.29562190  1
  Bi2+  Bi75  1  0.23479945  0.35103209  0.78989070  1
  Bi2+  Bi76  1  0.25981136  0.62878390  0.29091230  1
  Bi2+  Bi77  1  0.27550107  0.58737560  0.78469896  1
  Bi2+  Bi78  1  0.21298383  0.82326214  0.30292885  1
  Bi2+  Bi79  1  0.24429542  0.89466940  0.80880754  1
  Bi2+  Bi80  1  0.50761479  0.12754600  0.27787227  1
  Bi2+  Bi81  1  0.54244977  0.10848226  0.76119599  1
  Bi2+  Bi82  1  0.47255000  0.44863548  0.28070147  1
  Bi2+  Bi83  1  0.50643239  0.36386759  0.80002233  1
  Bi2+  Bi84  1  0.44670649  0.62556681  0.32693096  1
  Bi2+  Bi85  1  0.46573559  0.62983264  0.76222809  1
  Bi2+  Bi86  1  0.52839167  0.79373059  0.29281271  1
  Bi2+  Bi87  1  0.48843629  0.88685383  0.81159352  1
  Bi2+  Bi88  1  0.73489569  0.11355833  0.29693165  1
  Bi2+  Bi89  1  0.81023637  0.15316101  0.80943117  1
  Bi2+  Bi90  1  0.73156849  0.36305577  0.29709717  1
  Bi2+  Bi91  1  0.73365692  0.42110351  0.81132723  1
  Bi2+  Bi92  1  0.73605155  0.60834100  0.29670871  1
  Bi2+  Bi93  1  0.74718670  0.65438221  0.76847258  1
  Bi2+  Bi94  1  0.79333045  0.82216010  0.29018905  1
  Bi2+  Bi95  1  0.73891835  0.82419411  0.82025660  1
  Bi2+  Bi96  1  0.15624048  -0.05946762  0.21374072  1
  Bi2+  Bi97  1  0.08933724  0.01332680  0.72338672  1
  Bi2+  Bi98  1  0.10233201  0.21887987  0.20010533  1
  Bi2+  Bi99  1  0.10979236  0.28427892  0.70823923  1
  Bi2+  Bi100  1  0.11042176  0.58382022  0.21583570  1
  Bi2+  Bi101  1  0.10855989  0.53935204  0.72912774  1
  Bi2+  Bi102  1  0.06808800  0.77525434  0.19857051  1
  Bi2+  Bi103  1  0.13400322  0.73319160  0.73492647  1
  Bi2+  Bi104  1  0.38879540  0.00334655  0.17629439  1
  Bi2+  Bi105  1  0.38483479  -0.00844139  0.68478285  1
  Bi2+  Bi106  1  0.29134359  0.25955546  0.20230476  1
  Bi2+  Bi107  1  0.38362144  0.25418519  0.68585963  1
  Bi2+  Bi108  1  0.35325206  0.52776975  0.19535385  1
  Bi2+  Bi109  1  0.37892974  0.48473932  0.70046637  1
  Bi2+  Bi110  1  0.37739311  0.75036519  0.22550701  1
  Bi2+  Bi111  1  0.33119535  0.74322679  0.71232332  1
  Bi2+  Bi112  1  0.64303747  -0.08234632  0.23034604  1
  Bi2+  Bi113  1  0.68670763  -0.02144191  0.75293804  1
  Bi2+  Bi114  1  0.58903494  0.26898841  0.20199955  1
  Bi2+  Bi115  1  0.67002928  0.26490067  0.75367614  1
  Bi2+  Bi116  1  0.59924333  0.53670486  0.20758054  1
  Bi2+  Bi117  1  0.61737201  0.53098993  0.71805140  1
  Bi2+  Bi118  1  0.66633296  0.72483434  0.20972789  1
  Bi2+  Bi119  1  0.62275926  0.79741324  0.72466657  1
  Bi2+  Bi120  1  0.90271787  -0.03049596  0.21622870  1
  Bi2+  Bi121  1  0.85637245  0.02622413  0.69898451  1
  Bi2+  Bi122  1  0.87924847  0.25507208  0.22001812  1
  Bi2+  Bi123  1  0.85488568  0.23795932  0.71070892  1
  Bi2+  Bi124  1  0.86182542  0.58008479  0.21491067  1
  Bi2+  Bi125  1  0.87724185  0.48267514  0.69040204  1
  Bi2+  Bi126  1  0.86961247  0.77189312  0.18283723  1
  Bi2+  Bi127  1  0.89103168  0.76940251  0.71141523  1
  S2-  S128  1  -0.10002498  0.14238807  0.15438171  1
  S2-  S129  1  0.00166567  0.04485401  0.63808451  1
  S2-  S130  1  -0.07338468  0.37017122  0.15041627  1
  S2-  S131  1  -0.11338348  0.34088506  0.63163653  1
  S2-  S132  1  -0.00651955  0.58010993  0.14489370  1
  S2-  S133  1  0.02624082  0.50196618  0.64022057  1
  S2-  S134  1  0.02274904  0.97717103  0.14562012  1
  S2-  S135  1  0.02720906  0.76641013  0.65203941  1
  S2-  S136  1  0.24600999  0.10150342  0.15686655  1
  S2-  S137  1  0.27407722  0.12362492  0.64994325  1
  S2-  S138  1  0.24562654  0.40923956  0.16112257  1
  S2-  S139  1  0.27459229  0.37492324  0.65064049  1
  S2-  S140  1  0.24450162  0.62793450  0.14824530  1
  S2-  S141  1  0.35363299  0.62599670  0.63671060  1
  S2-  S142  1  0.29629476  0.85512477  0.15986845  1
  S2-  S143  1  0.26911756  0.88540094  0.65885078  1
  S2-  S144  1  0.48473688  0.14237649  0.15884092  1
  S2-  S145  1  0.49827447  0.12514327  0.65633618  1
  S2-  S146  1  0.50686491  0.40952219  0.15646930  1
  S2-  S147  1  0.49364014  0.36612930  0.65998704  1
  S2-  S148  1  0.48156157  0.64607887  0.16267602  1
  S2-  S149  1  0.60189700  0.64585450  0.64690980  1
  S2-  S150  1  0.52712827  0.90347376  0.15971975  1
  S2-  S151  1  0.50054679  0.88281154  0.66238844  1
  S2-  S152  1  0.68679068  0.14077678  0.19696263  1
  S2-  S153  1  0.76007784  0.13040646  0.64500089  1
  S2-  S154  1  0.73221534  0.33731667  0.18522194  1
  S2-  S155  1  0.72466550  0.47032180  0.64802064  1
  S2-  S156  1  0.74970300  0.53065009  0.14390997  1
  S2-  S157  1  0.86100464  0.63794838  0.64855468  1
  S2-  S158  1  0.75879195  0.95868500  0.15300083  1
  S2-  S159  1  0.83220185  0.88888965  0.64035008  1
  S2-  S160  1  0.22276058  0.00508506  0.34818523  1
  S2-  S161  1  0.12858004  -0.00605190  0.84977680  1
  S2-  S162  1  0.15051671  0.25738839  0.34449954  1
  S2-  S163  1  0.23583371  0.21553044  0.84976359  1
  S2-  S164  1  0.07984739  0.47118848  0.32978129  1
  S2-  S165  1  0.11377049  0.38684727  0.85855357  1
  S2-  S166  1  0.12772772  0.68222731  0.35673854  1
  S2-  S167  1  0.15080467  0.76317935  0.84072711  1
  S2-  S168  1  0.39860991  0.00894552  0.27076714  1
  S2-  S169  1  0.36955701  0.00126888  0.83903802  1
  S2-  S170  1  0.38969668  0.17595336  0.34321727  1
  S2-  S171  1  0.45406284  0.21190719  0.81819707  1
  S2-  S172  1  0.36595229  0.39093236  0.35341213  1
  S2-  S173  1  0.37087063  0.40444776  0.85340845  1
  S2-  S174  1  0.37197091  0.83952139  0.34570905  1
  S2-  S175  1  0.36970124  0.79069746  0.84546015  1
  S2-  S176  1  0.56381068  0.01351652  0.34996049  1
  S2-  S177  1  0.60173975  0.01359887  0.84826438  1
  S2-  S178  1  0.62370418  0.23495450  0.33277708  1
  S2-  S179  1  0.64496308  0.29525011  0.86232920  1
  S2-  S180  1  0.61465832  0.43333796  0.34692407  1
  S2-  S181  1  0.59431535  0.50492048  0.84500885  1
  S2-  S182  1  0.62584796  0.65814096  0.36720730  1
  S2-  S183  1  0.58766491  0.75953647  0.85615970  1
  S2-  S184  1  0.79681514  -0.01853331  0.33883490  1
  S2-  S185  1  0.87656689  0.00861458  0.84447380  1
  S2-  S186  1  0.86777127  0.19817047  0.32258011  1
  S2-  S187  1  0.87213723  0.36002256  0.86379150  1
  S2-  S188  1  0.85495660  0.40608684  0.35274422  1
  S2-  S189  1  0.84800689  0.59210855  0.85210576  1
  S2-  S190  1  0.87254982  0.64587902  0.36506936  1
  S2-  S191  1  0.92653765  0.79027479  0.84532656  1
  S2-  S192  1  -0.00186674  0.13168547  0.44233136  1
  S2-  S193  1  0.00375356  0.12452813  0.95589864  1
  S2-  S194  1  -0.00081974  0.38660240  0.45156587  1
  S2-  S195  1  0.00456926  0.36750576  0.96122853  1
  S2-  S196  1  -0.00095665  0.63713553  0.46370037  1
  S2-  S197  1  0.00523628  0.61909189  0.94646140  1
  S2-  S198  1  -0.00328645  0.88192465  0.45375243  1
  S2-  S199  1  0.00202905  0.87017813  0.96022665  1
  S2-  S200  1  0.24417262  0.13664236  0.45013415  1
  S2-  S201  1  0.25565057  0.12188019  0.95429592  1
  S2-  S202  1  0.24138880  0.38711921  0.45007313  1
  S2-  S203  1  0.25335639  0.36560933  0.95768903  1
  S2-  S204  1  0.25247196  0.63487543  0.45257921  1
  S2-  S205  1  0.25244001  0.62149418  0.94659059  1
  S2-  S206  1  0.24656033  0.88227254  0.45410094  1
  S2-  S207  1  0.25399768  0.87018599  0.95616315  1
  S2-  S208  1  0.49673114  0.13219020  0.45200767  1
  S2-  S209  1  0.50229123  0.12337061  0.95330984  1
  S2-  S210  1  0.49589036  0.38267840  0.45339243  1
  S2-  S211  1  0.50059893  0.36381551  0.95746951  1
  S2-  S212  1  0.49307894  0.63661899  0.46428263  1
  S2-  S213  1  0.50197311  0.61778156  0.95668487  1
  S2-  S214  1  0.50018936  0.88558248  0.45320251  1
  S2-  S215  1  0.50256703  0.87364845  0.95837335  1
  S2-  S216  1  0.74556849  0.13263392  0.44277917  1
  S2-  S217  1  0.74899573  0.11992394  0.95296973  1
  S2-  S218  1  0.74226899  0.38401325  0.45587789  1
  S2-  S219  1  0.75022115  0.36914547  0.97031795  1
  S2-  S220  1  0.74564871  0.64021634  0.46903672  1
  S2-  S221  1  0.74550145  0.61705404  0.95705848  1
  S2-  S222  1  0.74465471  0.87941050  0.44954582  1
  S2-  S223  1  0.75110143  0.87253091  0.96020839  1
  S2-  S224  1  0.13015974  -0.00452179  0.04880591  1
  S2-  S225  1  0.12241095  0.00694266  0.53970862  1
  S2-  S226  1  0.12334400  0.24409709  0.04897779  1
  S2-  S227  1  0.12079713  0.25805040  0.54846736  1
  S2-  S228  1  0.12688856  0.49522890  0.04489310  1
  S2-  S229  1  0.12969322  0.50866157  0.53704014  1
  S2-  S230  1  0.12674470  0.74348289  0.04557160  1
  S2-  S231  1  0.12586493  0.75723613  0.54968167  1
  S2-  S232  1  0.37808576  -0.00456051  0.04623812  1
  S2-  S233  1  0.36911165  0.00989049  0.54854442  1
  S2-  S234  1  0.37857675  0.24520334  0.05319494  1
  S2-  S235  1  0.36757116  0.25675833  0.53955947  1
  S2-  S236  1  0.37517405  0.49420808  0.04646010  1
  S2-  S237  1  0.37050169  0.50147402  0.53848557  1
  S2-  S238  1  0.37789095  0.74248194  0.04788155  1
  S2-  S239  1  0.37172274  0.76262714  0.54397410  1
  S2-  S240  1  0.62923804  -0.00337599  0.05046486  1
  S2-  S241  1  0.62639993  0.00848055  0.54759447  1
  S2-  S242  1  0.63523237  0.24164457  0.06038958  1
  S2-  S243  1  0.62293809  0.25609465  0.54476135  1
  S2-  S244  1  0.62867087  0.49297237  0.04845429  1
  S2-  S245  1  0.61282450  0.50377429  0.54405157  1
  S2-  S246  1  0.62975163  0.74316348  0.05692664  1
  S2-  S247  1  0.62181934  0.76408738  0.54905867  1
  S2-  S248  1  0.87680055  -0.00402646  0.04950115  1
  S2-  S249  1  0.86832207  0.00840982  0.53483175  1
  S2-  S250  1  0.87717377  0.24450584  0.04913202  1
  S2-  S251  1  0.87194448  0.25299035  0.52667003  1
  S2-  S252  1  0.88111524  0.49665503  0.04133498  1
  S2-  S253  1  0.87136185  0.50990135  0.54214398  1
  S2-  S254  1  0.87802564  0.74277415  0.04397286  1
  S2-  S255  1  0.87310372  0.76375384  0.54455881  1
