# generated using pymatgen
data_La6Ce6Pr19Nd20Sm13(BiS2)64
_symmetry_space_group_name_H-M   'P 1'
_cell_length_a   16.13502665
_cell_length_b   16.09138910
_cell_length_c   27.30161631
_cell_angle_alpha   90.12675821
_cell_angle_beta   90.18466770
_cell_angle_gamma   90.11674646
_symmetry_Int_Tables_number   1
_chemical_formula_structural   La6Ce6Pr19Nd20Sm13(BiS2)64
_chemical_formula_sum   'La6 Ce6 Pr19 Nd20 Sm13 Bi64 S128'
_cell_volume   7088.38594755
_cell_formula_units_Z   1
loop_
 _symmetry_equiv_pos_site_id
 _symmetry_equiv_pos_as_xyz
  1  'x, y, z'
loop_
 _atom_type_symbol
 _atom_type_oxidation_number
  La3+  3.0
  Ce3+  3.0
  Pr3+  3.0
  Nd3+  3.0
  Sm3+  3.0
  Bi2+  2.0
  S2-  -2.0
loop_
 _atom_site_type_symbol
 _atom_site_label
 _atom_site_symmetry_multiplicity
 _atom_site_fract_x
 _atom_site_fract_y
 _atom_site_fract_z
 _atom_site_occupancy
  La3+  La0  1  0.38384633  0.73340718  0.91038908  1
  La3+  La1  1  0.11652764  -0.01883303  0.90618298  1
  La3+  La2  1  0.50320094  0.36934715  0.07964344  1
  La3+  La3  1  0.76533755  0.35931170  0.10182589  1
  La3+  La4  1  0.88219936  0.49095993  0.93290563  1
  La3+  La5  1  0.63072665  0.73102546  0.92726524  1
  Ce3+  Ce6  1  0.25215072  0.86371470  0.04117917  1
  Ce3+  Ce7  1  -0.00511422  0.11822518  0.56223891  1
  Ce3+  Ce8  1  0.75697478  0.12020172  0.05499715  1
  Ce3+  Ce9  1  0.87251681  -0.01049859  0.44788828  1
  Ce3+  Ce10  1  0.00296023  0.61334309  0.06424613  1
  Ce3+  Ce11  1  -0.00033025  0.62164892  0.54907665  1
  Pr3+  Pr12  1  0.88060083  0.24452812  0.92295327  1
  Pr3+  Pr13  1  0.37392115  0.74532856  0.43928998  1
  Pr3+  Pr14  1  0.12200050  -0.00829493  0.44719705  1
  Pr3+  Pr15  1  0.63174030  0.24112220  0.94019784  1
  Pr3+  Pr16  1  0.87010709  0.24656976  0.43956009  1
  Pr3+  Pr17  1  0.75996705  0.61622099  0.06917508  1
  Pr3+  Pr18  1  0.61368423  0.74878426  0.43873569  1
  Pr3+  Pr19  1  0.38021857  -0.00936916  0.92108223  1
  Pr3+  Pr20  1  0.61963916  -0.00765821  0.44492232  1
  Pr3+  Pr21  1  0.61837659  0.50245471  0.41546910  1
  Pr3+  Pr22  1  0.11989629  0.24396813  0.44819720  1
  Pr3+  Pr23  1  0.38059407  0.23764478  0.92879933  1
  Pr3+  Pr24  1  -0.00207290  0.37822099  0.56857084  1
  Pr3+  Pr25  1  0.74637000  0.86218945  0.57452884  1
  Pr3+  Pr26  1  0.50539641  0.11656019  0.05766577  1
  Pr3+  Pr27  1  0.86930584  0.74265723  0.43648785  1
  Pr3+  Pr28  1  0.24933113  0.36974503  0.56067300  1
  Pr3+  Pr29  1  0.37177529  -0.00736818  0.45393223  1
  Pr3+  Pr30  1  0.50272328  0.86135448  0.05796669  1
  Nd3+  Nd31  1  0.00026594  0.86688075  0.56937733  1
  Nd3+  Nd32  1  0.25808604  0.36236075  0.06848898  1
  Nd3+  Nd33  1  0.86901226  0.48971078  0.43050375  1
  Nd3+  Nd34  1  0.25477569  0.10998254  0.05278854  1
  Nd3+  Nd35  1  0.50150596  0.88006192  0.58299031  1
  Nd3+  Nd36  1  0.50072769  0.12606880  0.57129331  1
  Nd3+  Nd37  1  0.25331397  0.85113400  0.60574456  1
  Nd3+  Nd38  1  0.00390909  0.11613991  0.05134672  1
  Nd3+  Nd39  1  0.51126072  0.62382172  0.07408394  1
  Nd3+  Nd40  1  0.12539317  0.49199743  0.43789554  1
  Nd3+  Nd41  1  0.62977345  0.48865791  0.95079865  1
  Nd3+  Nd42  1  0.61794964  0.23661560  0.42718227  1
  Nd3+  Nd43  1  0.74570183  0.61621864  0.56026553  1
  Nd3+  Nd44  1  0.00685509  0.86485601  0.05319862  1
  Nd3+  Nd45  1  0.24522583  0.11687448  0.57484302  1
  Nd3+  Nd46  1  0.12451777  0.74374315  0.44011078  1
  Nd3+  Nd47  1  0.49786015  0.62148153  0.56197757  1
  Nd3+  Nd48  1  0.36694616  0.23206930  0.43318023  1
  Nd3+  Nd49  1  0.25573991  0.61772203  0.05525792  1
  Nd3+  Nd50  1  0.13229540  0.72089061  0.91772378  1
  Sm3+  Sm51  1  0.62822337  -0.01253289  0.94236485  1
  Sm3+  Sm52  1  0.00465693  0.36295347  0.05736575  1
  Sm3+  Sm53  1  0.37460990  0.49101603  0.43992551  1
  Sm3+  Sm54  1  0.74931533  0.12255185  0.55455131  1
  Sm3+  Sm55  1  0.38337823  0.48755117  0.94433598  1
  Sm3+  Sm56  1  0.25109606  0.62040625  0.55852642  1
  Sm3+  Sm57  1  0.13298148  0.23865896  0.94382017  1
  Sm3+  Sm58  1  0.75565249  0.86428111  0.05808997  1
  Sm3+  Sm59  1  0.75147231  0.37496025  0.56621204  1
  Sm3+  Sm60  1  0.13352390  0.48263739  0.94318049  1
  Sm3+  Sm61  1  0.88020257  -0.01048615  0.94165663  1
  Sm3+  Sm62  1  0.87600203  0.73462923  0.93244266  1
  Sm3+  Sm63  1  0.50018512  0.36952628  0.55020199  1
  Bi2+  Bi64  1  -0.02773860  0.08891056  0.29378412  1
  Bi2+  Bi65  1  -0.06283925  0.15341379  0.80053203  1
  Bi2+  Bi66  1  0.04065505  0.33490574  0.29511817  1
  Bi2+  Bi67  1  0.01278878  0.44955128  0.78263877  1
  Bi2+  Bi68  1  0.08993824  0.63302054  0.28651871  1
  Bi2+  Bi69  1  -0.06216455  0.66949597  0.76047669  1
  Bi2+  Bi70  1  -0.03372799  0.89130295  0.31567443  1
  Bi2+  Bi71  1  -0.02986240  0.88089277  0.77892689  1
  Bi2+  Bi72  1  0.14402946  0.17477128  0.25740762  1
  Bi2+  Bi73  1  0.25162307  0.19807362  0.80456096  1
  Bi2+  Bi74  1  0.24178338  0.43392531  0.28835587  1
  Bi2+  Bi75  1  0.35039940  0.38491925  0.82391460  1
  Bi2+  Bi76  1  0.28624596  0.62322601  0.32223324  1
  Bi2+  Bi77  1  0.17782530  0.59198230  0.77206090  1
  Bi2+  Bi78  1  0.17732769  0.89915988  0.27544805  1
  Bi2+  Bi79  1  0.23179076  0.85274989  0.78923743  1
  Bi2+  Bi80  1  0.46962547  0.14471116  0.30686298  1
  Bi2+  Bi81  1  0.53896342  0.14445132  0.73796167  1
  Bi2+  Bi82  1  0.50850024  0.37634995  0.29945230  1
  Bi2+  Bi83  1  0.54766910  0.38306445  0.80934197  1
  Bi2+  Bi84  1  0.49401112  0.66258320  0.30142876  1
  Bi2+  Bi85  1  0.51461915  0.60072425  0.79384983  1
  Bi2+  Bi86  1  0.57966702  0.92581035  0.31208530  1
  Bi2+  Bi87  1  0.52284107  0.88548048  0.78399057  1
  Bi2+  Bi88  1  0.71486065  0.07034770  0.21560170  1
  Bi2+  Bi89  1  0.74649691  0.18105586  0.81612850  1
  Bi2+  Bi90  1  0.77760636  0.37433253  0.29003572  1
  Bi2+  Bi91  1  0.75194447  0.38402036  0.79701824  1
  Bi2+  Bi92  1  0.76840015  0.63716514  0.28998814  1
  Bi2+  Bi93  1  0.75625565  0.63405436  0.79345108  1
  Bi2+  Bi94  1  0.74427081  0.88248249  0.25140884  1
  Bi2+  Bi95  1  0.76731789  0.87674711  0.77948006  1
  Bi2+  Bi96  1  0.14398598  -0.00406617  0.17404483  1
  Bi2+  Bi97  1  0.13390219  0.03348672  0.71532491  1
  Bi2+  Bi98  1  0.15519608  0.36200241  0.19043274  1
  Bi2+  Bi99  1  0.08243485  0.27092539  0.75509243  1
  Bi2+  Bi100  1  0.11110897  0.55590288  0.17733980  1
  Bi2+  Bi101  1  0.13432728  0.42534148  0.68991466  1
  Bi2+  Bi102  1  0.18158130  0.75461650  0.19149378  1
  Bi2+  Bi103  1  0.09119769  0.70733195  0.69358705  1
  Bi2+  Bi104  1  0.37043411  -0.01701941  0.27434083  1
  Bi2+  Bi105  1  0.36718291  0.05371259  0.73286208  1
  Bi2+  Bi106  1  0.31220234  0.24792226  0.21778034  1
  Bi2+  Bi107  1  0.41796533  0.30116034  0.72377635  1
  Bi2+  Bi108  1  0.36818126  0.53330491  0.22799050  1
  Bi2+  Bi109  1  0.32271021  0.48565544  0.72400044  1
  Bi2+  Bi110  1  0.34667430  0.78840115  0.26737699  1
  Bi2+  Bi111  1  0.38378840  0.68763615  0.71832906  1
  Bi2+  Bi112  1  0.53035419  -0.02525918  0.20300487  1
  Bi2+  Bi113  1  0.69910455  0.02589633  0.72692983  1
  Bi2+  Bi114  1  0.58799539  0.22238798  0.22472533  1
  Bi2+  Bi115  1  0.64446770  0.28107897  0.68298482  1
  Bi2+  Bi116  1  0.61039284  0.50307499  0.20852009  1
  Bi2+  Bi117  1  0.63039911  0.47307006  0.71576119  1
  Bi2+  Bi118  1  0.59962088  0.76639906  0.20326783  1
  Bi2+  Bi119  1  0.61254575  0.74989596  0.69385937  1
  Bi2+  Bi120  1  0.89749696  -0.00768158  0.20424482  1
  Bi2+  Bi121  1  0.89895997  0.02638618  0.70741632  1
  Bi2+  Bi122  1  0.90820596  0.21857087  0.20750508  1
  Bi2+  Bi123  1  0.83692035  0.25980224  0.72074660  1
  Bi2+  Bi124  1  0.92993025  0.51360624  0.21192819  1
  Bi2+  Bi125  1  0.87598965  0.49689868  0.70185565  1
  Bi2+  Bi126  1  0.98227800  0.73165212  0.21045560  1
  Bi2+  Bi127  1  0.87729424  0.82873230  0.68257163  1
  S2-  S128  1  0.00986332  0.11498244  0.15113435  1
  S2-  S129  1  0.02036726  0.12231099  0.65874338  1
  S2-  S130  1  -0.06565859  0.34427372  0.14683406  1
  S2-  S131  1  -0.12030317  0.35786293  0.64075297  1
  S2-  S132  1  -0.10905063  0.62986282  0.14179945  1
  S2-  S133  1  -0.00603318  0.57749841  0.64203156  1
  S2-  S134  1  -0.00089896  0.87551793  0.15373949  1
  S2-  S135  1  0.09611903  0.86184461  0.65296120  1
  S2-  S136  1  0.25538635  0.11329401  0.15253991  1
  S2-  S137  1  0.25206527  0.13506074  0.67457534  1
  S2-  S138  1  0.36627838  0.33874776  0.14598217  1
  S2-  S139  1  0.28367588  0.35017225  0.65805455  1
  S2-  S140  1  0.27795675  0.61558166  0.15547181  1
  S2-  S141  1  0.25231604  0.68935792  0.64878945  1
  S2-  S142  1  0.25758213  0.88494277  0.13937508  1
  S2-  S143  1  0.27366438  0.93250350  0.69538819  1
  S2-  S144  1  0.49722132  0.12861050  0.15849630  1
  S2-  S145  1  0.48195125  0.04301253  0.65678081  1
  S2-  S146  1  0.61347481  0.34583503  0.16021053  1
  S2-  S147  1  0.51755390  0.38214775  0.64790719  1
  S2-  S148  1  0.48230057  0.51147265  0.15008788  1
  S2-  S149  1  0.50976887  0.61295649  0.66143862  1
  S2-  S150  1  0.47878306  0.76035241  0.13952523  1
  S2-  S151  1  0.43663885  0.81455383  0.66883135  1
  S2-  S152  1  0.77250924  0.19276086  0.14376663  1
  S2-  S153  1  0.74380915  0.13681498  0.65172707  1
  S2-  S154  1  0.78104789  0.45548291  0.19242552  1
  S2-  S155  1  0.73600519  0.49975721  0.63674996  1
  S2-  S156  1  0.64954179  0.62763081  0.14844499  1
  S2-  S157  1  0.74951793  0.71679413  0.64501496  1
  S2-  S158  1  0.74582736  0.82909148  0.15366943  1
  S2-  S159  1  0.63645340  0.89450422  0.65273116  1
  S2-  S160  1  0.10342178  0.00443266  0.34726240  1
  S2-  S161  1  0.17820351  0.03286111  0.81323190  1
  S2-  S162  1  0.15600788  0.24308723  0.35049514  1
  S2-  S163  1  0.13686946  0.30348360  0.85352370  1
  S2-  S164  1  0.08099996  0.47498908  0.34277479  1
  S2-  S165  1  0.10499208  0.55821842  0.85727186  1
  S2-  S166  1  0.09699606  0.77474234  0.34388921  1
  S2-  S167  1  0.09490415  0.83153547  0.84278796  1
  S2-  S168  1  0.35020735  0.08217815  0.36797542  1
  S2-  S169  1  0.38030492  -0.10650524  0.83515267  1
  S2-  S170  1  0.38537883  0.29702644  0.34047499  1
  S2-  S171  1  0.37916660  0.12443958  0.84931397  1
  S2-  S172  1  0.46757991  0.50864859  0.35794635  1
  S2-  S173  1  0.39877545  0.56836818  0.85720866  1
  S2-  S174  1  0.48482181  0.79855877  0.36643440  1
  S2-  S175  1  0.25525311  0.71824481  0.83873326  1
  S2-  S176  1  0.60472896  0.08293744  0.35954205  1
  S2-  S177  1  0.60288638  -0.02197648  0.84468675  1
  S2-  S178  1  0.65190044  0.28130346  0.33177238  1
  S2-  S179  1  0.58073872  0.22668478  0.84357094  1
  S2-  S180  1  0.65617784  0.47717774  0.31296162  1
  S2-  S181  1  0.64821795  0.57283319  0.86204609  1
  S2-  S182  1  0.64925504  0.66186600  0.35341232  1
  S2-  S183  1  0.52495066  0.75019820  0.84458511  1
  S2-  S184  1  0.85008180  -0.00272258  0.35099813  1
  S2-  S185  1  0.95375442  0.00025380  0.85367981  1
  S2-  S186  1  0.88801584  0.27936609  0.34214017  1
  S2-  S187  1  0.89841511  0.37821282  0.85142043  1
  S2-  S188  1  0.85960439  0.51581938  0.33154499  1
  S2-  S189  1  0.88823751  0.61477629  0.85823888  1
  S2-  S190  1  0.85738505  0.74987296  0.33573287  1
  S2-  S191  1  0.75792872  0.77002429  0.85658075  1
  S2-  S192  1  -0.00549171  0.11887855  0.45509040  1
  S2-  S193  1  0.00574501  0.11992952  0.94666315  1
  S2-  S194  1  -0.00233405  0.37200716  0.45836854  1
  S2-  S195  1  0.01002592  0.36290593  0.95477070  1
  S2-  S196  1  -0.00210274  0.61717849  0.44304227  1
  S2-  S197  1  0.00885239  0.61364030  0.96054613  1
  S2-  S198  1  -0.00220560  0.86497538  0.46028667  1
  S2-  S199  1  -0.00299043  0.85892662  0.94893766  1
  S2-  S200  1  0.24214164  0.11944959  0.46830610  1
  S2-  S201  1  0.24792286  0.11043419  0.94675212  1
  S2-  S202  1  0.25077638  0.36823645  0.45300376  1
  S2-  S203  1  0.25740336  0.36247415  0.96012990  1
  S2-  S204  1  0.25008805  0.61626299  0.45431587  1
  S2-  S205  1  0.25585925  0.60692233  0.95135187  1
  S2-  S206  1  0.24814622  0.86882531  0.44147310  1
  S2-  S207  1  0.24912901  0.86389676  0.93823461  1
  S2-  S208  1  0.49577812  0.12103091  0.46599349  1
  S2-  S209  1  0.50758565  0.11194923  0.95214846  1
  S2-  S210  1  0.49517025  0.36251162  0.44849765  1
  S2-  S211  1  0.50377095  0.36334135  0.95683765  1
  S2-  S212  1  0.49415070  0.61856141  0.45718147  1
  S2-  S213  1  0.50526839  0.61121780  0.96404784  1
  S2-  S214  1  0.49570754  0.87425834  0.47465617  1
  S2-  S215  1  0.50424716  0.86770783  0.95132753  1
  S2-  S216  1  0.74867804  0.11941897  0.45141699  1
  S2-  S217  1  0.75665646  0.11197743  0.94856506  1
  S2-  S218  1  0.74136271  0.36978962  0.44997707  1
  S2-  S219  1  0.75445208  0.36568298  0.94555473  1
  S2-  S220  1  0.74785280  0.61546001  0.45351966  1
  S2-  S221  1  0.75796489  0.61378938  0.96332392  1
  S2-  S222  1  0.74480767  0.86691831  0.45849630  1
  S2-  S223  1  0.75639372  0.87236357  0.95455561  1
  S2-  S224  1  0.12598707  -0.00923919  0.03318722  1
  S2-  S225  1  0.12346884  -0.00704368  0.55383457  1
  S2-  S226  1  0.13102448  0.23922819  0.04886689  1
  S2-  S227  1  0.12013645  0.24661328  0.55595364  1
  S2-  S228  1  0.13131258  0.48582938  0.04742346  1
  S2-  S229  1  0.12755529  0.49737217  0.54429642  1
  S2-  S230  1  0.12746128  0.73821931  0.04101355  1
  S2-  S231  1  0.12964299  0.74508390  0.54538875  1
  S2-  S232  1  0.38073549  -0.01019698  0.03912671  1
  S2-  S233  1  0.36155605  -0.01226980  0.56006393  1
  S2-  S234  1  0.37776363  0.23529078  0.03802018  1
  S2-  S235  1  0.37346250  0.24277851  0.54991225  1
  S2-  S236  1  0.37588032  0.49058784  0.04612786  1
  S2-  S237  1  0.37392560  0.49406971  0.54656902  1
  S2-  S238  1  0.37496552  0.74046151  0.03323244  1
  S2-  S239  1  0.37062110  0.74641838  0.54720991  1
  S2-  S240  1  0.63205757  -0.01050503  0.04905264  1
  S2-  S241  1  0.62531395  0.00286464  0.55023179  1
  S2-  S242  1  0.63132984  0.24190974  0.04679977  1
  S2-  S243  1  0.62645492  0.24759499  0.54224886  1
  S2-  S244  1  0.64026235  0.48248331  0.05374689  1
  S2-  S245  1  0.61758826  0.49299061  0.53618422  1
  S2-  S246  1  0.63410073  0.74532367  0.03885692  1
  S2-  S247  1  0.61830028  0.74480897  0.54645704  1
  S2-  S248  1  0.87910247  -0.00939820  0.04625201  1
  S2-  S249  1  0.87003399  -0.00783606  0.55464903  1
  S2-  S250  1  0.88166255  0.24131772  0.03401577  1
  S2-  S251  1  0.87229196  0.24606685  0.54484354  1
  S2-  S252  1  0.88105305  0.48257695  0.04633493  1
  S2-  S253  1  0.87377403  0.49530942  0.53714127  1
  S2-  S254  1  0.88023798  0.74551224  0.03917182  1
  S2-  S255  1  0.87528790  0.74386521  0.54363758  1
