# generated using pymatgen
data_La6Ce6Pr19Nd20Sm13(BiS2)64
_symmetry_space_group_name_H-M   'P 1'
_cell_length_a   16.08337073
_cell_length_b   16.01866749
_cell_length_c   27.32210458
_cell_angle_alpha   89.69286755
_cell_angle_beta   89.47197273
_cell_angle_gamma   89.87995797
_symmetry_Int_Tables_number   1
_chemical_formula_structural   La6Ce6Pr19Nd20Sm13(BiS2)64
_chemical_formula_sum   'La6 Ce6 Pr19 Nd20 Sm13 Bi64 S128'
_cell_volume   7038.69289623
_cell_formula_units_Z   1
loop_
 _symmetry_equiv_pos_site_id
 _symmetry_equiv_pos_as_xyz
  1  'x, y, z'
loop_
 _atom_type_symbol
 _atom_type_oxidation_number
  La3+  3.0
  Ce3+  3.0
  Pr3+  3.0
  Nd3+  3.0
  Sm3+  3.0
  Bi2+  2.0
  S2-  -2.0
loop_
 _atom_site_type_symbol
 _atom_site_label
 _atom_site_symmetry_multiplicity
 _atom_site_fract_x
 _atom_site_fract_y
 _atom_site_fract_z
 _atom_site_occupancy
  La3+  La0  1  0.76339583  0.62187041  0.58340292  1
  La3+  La1  1  0.26895022  0.61035945  0.57873389  1
  La3+  La2  1  0.64935507  -0.02335261  0.39825023  1
  La3+  La3  1  0.35304460  0.49023772  0.91657064  1
  La3+  La4  1  0.40123181  0.50043912  0.42663283  1
  La3+  La5  1  0.14796048  0.24416741  0.41316921  1
  Ce3+  Ce6  1  0.76893324  0.86859406  0.56789321  1
  Ce3+  Ce7  1  -0.01247561  0.86867822  0.05864110  1
  Ce3+  Ce8  1  0.47379689  0.86382585  0.06619875  1
  Ce3+  Ce9  1  0.71998044  0.36636098  0.07803645  1
  Ce3+  Ce10  1  -0.01571722  0.61484161  0.05822920  1
  Ce3+  Ce11  1  0.51217262  0.60961848  0.57990222  1
  Pr3+  Pr12  1  0.40222803  0.23734917  0.42352344  1
  Pr3+  Pr13  1  0.01470395  0.12587592  0.56132666  1
  Pr3+  Pr14  1  0.85315643  0.24465417  0.94961373  1
  Pr3+  Pr15  1  0.51625157  0.87059363  0.55937481  1
  Pr3+  Pr16  1  0.35847169  -0.00715541  0.94034938  1
  Pr3+  Pr17  1  0.60767973  -0.00945558  0.93530036  1
  Pr3+  Pr18  1  0.02228600  0.61285563  0.57765483  1
  Pr3+  Pr19  1  0.22455724  0.61426707  0.06542406  1
  Pr3+  Pr20  1  0.72825164  0.61721295  0.07250145  1
  Pr3+  Pr21  1  0.10690843  0.48635871  0.93612743  1
  Pr3+  Pr22  1  0.89209929  -0.00737535  0.43732876  1
  Pr3+  Pr23  1  0.61786085  0.49358373  0.92504944  1
  Pr3+  Pr24  1  0.22620569  0.86766073  0.06560674  1
  Pr3+  Pr25  1  0.51842990  0.12024420  0.55974528  1
  Pr3+  Pr26  1  0.10513950  -0.00140351  0.92773365  1
  Pr3+  Pr27  1  0.64632420  0.49657328  0.44105043  1
  Pr3+  Pr28  1  0.88760334  0.24477001  0.42972441  1
  Pr3+  Pr29  1  0.61524354  0.24436961  0.92309328  1
  Pr3+  Pr30  1  0.48279673  0.11739952  0.06100540  1
  Nd3+  Nd31  1  0.35984530  0.24643526  0.93567927  1
  Nd3+  Nd32  1  0.60629076  0.74315471  0.93479980  1
  Nd3+  Nd33  1  0.10776471  0.73976928  0.92988370  1
  Nd3+  Nd34  1  0.01918166  0.87112035  0.55878926  1
  Nd3+  Nd35  1  0.39567090  -0.00444476  0.44370891  1
  Nd3+  Nd36  1  0.52014723  0.36391025  0.56630364  1
  Nd3+  Nd37  1  -0.01584144  0.35992509  0.07914492  1
  Nd3+  Nd38  1  0.26942032  0.36362549  0.55609036  1
  Nd3+  Nd39  1  0.76862554  0.37368813  0.56849946  1
  Nd3+  Nd40  1  0.64505454  0.74032542  0.44691658  1
  Nd3+  Nd41  1  0.72946004  0.11108623  0.06978116  1
  Nd3+  Nd42  1  0.85424885  -0.00923752  0.94655317  1
  Nd3+  Nd43  1  0.14379185  0.74079579  0.44572564  1
  Nd3+  Nd44  1  0.14550455  0.49462403  0.43660293  1
  Nd3+  Nd45  1  0.23487934  0.36853341  0.07176540  1
  Nd3+  Nd46  1  0.48057773  0.36893132  0.05825232  1
  Nd3+  Nd47  1  0.35051972  0.74404268  0.93270231  1
  Nd3+  Nd48  1  0.01858399  0.36764777  0.55783762  1
  Nd3+  Nd49  1  0.47755176  0.61413170  0.05126762  1
  Nd3+  Nd50  1  0.14256775  -0.00378629  0.43862533  1
  Sm3+  Sm51  1  -0.01841051  0.12023743  0.06325186  1
  Sm3+  Sm52  1  0.76676141  0.11925977  0.55475335  1
  Sm3+  Sm53  1  0.85483013  0.49113863  0.95169947  1
  Sm3+  Sm54  1  0.26504913  0.87114768  0.55862609  1
  Sm3+  Sm55  1  0.39378185  0.74305509  0.44697568  1
  Sm3+  Sm56  1  0.85611804  0.74295548  0.94913268  1
  Sm3+  Sm57  1  0.10517792  0.24432383  0.93684446  1
  Sm3+  Sm58  1  0.26544877  0.12711741  0.55618314  1
  Sm3+  Sm59  1  0.88947821  0.49798167  0.44020317  1
  Sm3+  Sm60  1  0.71982203  0.86402378  0.07781278  1
  Sm3+  Sm61  1  0.89158976  0.74341385  0.45028138  1
  Sm3+  Sm62  1  0.64433851  0.24293622  0.43504376  1
  Sm3+  Sm63  1  0.22927760  0.12120359  0.05451423  1
  Bi2+  Bi64  1  -0.01772373  0.07122881  0.30251203  1
  Bi2+  Bi65  1  -0.03548825  0.07582402  0.79384780  1
  Bi2+  Bi66  1  -0.07893279  0.34796301  0.30113841  1
  Bi2+  Bi67  1  -0.04343246  0.37316167  0.79153044  1
  Bi2+  Bi68  1  -0.01873192  0.58293879  0.28751962  1
  Bi2+  Bi69  1  -0.00248172  0.65422995  0.80626461  1
  Bi2+  Bi70  1  0.05465164  0.87427731  0.30300799  1
  Bi2+  Bi71  1  0.08425851  0.92144133  0.79443843  1
  Bi2+  Bi72  1  0.25169767  0.06951246  0.27891300  1
  Bi2+  Bi73  1  0.22013240  0.16671605  0.78527538  1
  Bi2+  Bi74  1  0.23715433  0.35316423  0.27815055  1
  Bi2+  Bi75  1  0.21744646  0.38608691  0.79491487  1
  Bi2+  Bi76  1  0.25387953  0.61228418  0.30076158  1
  Bi2+  Bi77  1  0.28041836  0.65075772  0.79588789  1
  Bi2+  Bi78  1  0.25998114  0.87685843  0.30943291  1
  Bi2+  Bi79  1  0.23210393  1.01440770  0.71316638  1
  Bi2+  Bi80  1  0.48597347  0.14490484  0.28760415  1
  Bi2+  Bi81  1  0.42845641  0.12653851  0.80809312  1
  Bi2+  Bi82  1  0.47797567  0.39336455  0.28988642  1
  Bi2+  Bi83  1  0.49449231  0.30872596  0.78227489  1
  Bi2+  Bi84  1  0.52521144  0.64783285  0.29650541  1
  Bi2+  Bi85  1  0.52459316  0.65670643  0.77834776  1
  Bi2+  Bi86  1  0.44716297  0.83567994  0.27389172  1
  Bi2+  Bi87  1  0.48411449  0.90969715  0.80032915  1
  Bi2+  Bi88  1  0.78997708  0.11619138  0.29282216  1
  Bi2+  Bi89  1  0.71835329  0.11541443  0.79148768  1
  Bi2+  Bi90  1  0.74172905  0.42954033  0.27924336  1
  Bi2+  Bi91  1  0.75948753  0.35003283  0.78655364  1
  Bi2+  Bi92  1  0.73883459  0.67426613  0.31172122  1
  Bi2+  Bi93  1  0.77512009  0.61120085  0.79897905  1
  Bi2+  Bi94  1  0.86051179  0.84870036  0.27439616  1
  Bi2+  Bi95  1  0.75267469  0.86770424  0.79396580  1
  Bi2+  Bi96  1  0.10358982  -0.00494071  0.21181976  1
  Bi2+  Bi97  1  0.03869663  0.01963298  0.69328126  1
  Bi2+  Bi98  1  0.09224301  0.23831762  0.21342975  1
  Bi2+  Bi99  1  0.09013491  0.27916081  0.72448708  1
  Bi2+  Bi100  1  0.12625455  0.50647746  0.21054159  1
  Bi2+  Bi101  1  0.13977623  0.50468947  0.70937031  1
  Bi2+  Bi102  1  0.07539821  0.74139285  0.21353180  1
  Bi2+  Bi103  1  0.11309777  0.75647669  0.73277791  1
  Bi2+  Bi104  1  0.37585611  -0.01841141  0.20656316  1
  Bi2+  Bi105  1  0.42928396  0.07362442  0.69427629  1
  Bi2+  Bi106  1  0.34188097  0.23045226  0.20686960  1
  Bi2+  Bi107  1  0.34694076  0.25985365  0.70782656  1
  Bi2+  Bi108  1  0.40480225  0.49473282  0.20112003  1
  Bi2+  Bi109  1  0.38379785  0.50963934  0.71372095  1
  Bi2+  Bi110  1  0.28090182  0.75228604  0.22007211  1
  Bi2+  Bi111  1  0.38418030  0.79238465  0.71304227  1
  Bi2+  Bi112  1  0.62061497  0.03016203  0.19716650  1
  Bi2+  Bi113  1  0.60900911  -0.01240660  0.71270139  1
  Bi2+  Bi114  1  0.61925587  0.29715533  0.22913164  1
  Bi2+  Bi115  1  0.60967401  0.20247683  0.70750200  1
  Bi2+  Bi116  1  0.61541345  0.52609777  0.20397216  1
  Bi2+  Bi117  1  0.64842607  0.47121899  0.70138587  1
  Bi2+  Bi118  1  0.61159746  0.76882465  0.21932113  1
  Bi2+  Bi119  1  0.64580790  0.76545445  0.71666195  1
  Bi2+  Bi120  1  0.90871115  -0.00112648  0.20453313  1
  Bi2+  Bi121  1  0.81037523  -0.00789199  0.70770864  1
  Bi2+  Bi122  1  0.83488511  0.25668873  0.21326785  1
  Bi2+  Bi123  1  0.88590211  0.25441449  0.71048310  1
  Bi2+  Bi124  1  0.90324426  0.46644195  0.20554201  1
  Bi2+  Bi125  1  0.91717884  0.53879802  0.72207982  1
  Bi2+  Bi126  1  0.87754155  0.68531236  0.20953623  1
  Bi2+  Bi127  1  0.91489059  0.74138373  0.71510786  1
  S2-  S128  1  -0.02250475  0.21487099  0.14767261  1
  S2-  S129  1  0.01620156  0.24522749  0.63561809  1
  S2-  S130  1  0.11537261  0.37073272  0.14944351  1
  S2-  S131  1  0.01878186  0.47110253  0.64252429  1
  S2-  S132  1  0.08339849  0.62424457  0.13764475  1
  S2-  S133  1  0.14348687  0.64564511  0.65281006  1
  S2-  S134  1  0.09347216  0.86833993  0.13721116  1
  S2-  S135  1  0.01499672  0.85297784  0.65757173  1
  S2-  S136  1  0.21695022  0.16197148  0.15036321  1
  S2-  S137  1  0.24817812  0.23847114  0.62994590  1
  S2-  S138  1  0.36690453  0.35173977  0.14161935  1
  S2-  S139  1  0.26804988  0.46225226  0.64421792  1
  S2-  S140  1  0.26814940  0.53399934  0.15473096  1
  S2-  S141  1  0.38754028  0.64894971  0.65455368  1
  S2-  S142  1  0.34636399  0.85610228  0.14107266  1
  S2-  S143  1  0.26537587  0.86899307  0.65635023  1
  S2-  S144  1  0.47568570  0.11653532  0.16299565  1
  S2-  S145  1  0.48599026  0.23087769  0.63664351  1
  S2-  S146  1  0.58060331  0.37296284  0.14247181  1
  S2-  S147  1  0.49686342  0.46527833  0.64970468  1
  S2-  S148  1  0.49379876  0.62300771  0.15178347  1
  S2-  S149  1  0.62495304  0.62629665  0.65597489  1
  S2-  S150  1  0.57380616  0.88549300  0.14668701  1
  S2-  S151  1  0.51230670  0.84836386  0.65993183  1
  S2-  S152  1  0.70463387  0.19510941  0.15807364  1
  S2-  S153  1  0.81294817  0.13360594  0.65050159  1
  S2-  S154  1  0.75020722  0.49546171  0.14757201  1
  S2-  S155  1  0.66624278  0.33313547  0.64914153  1
  S2-  S156  1  0.73299889  0.73758391  0.14983284  1
  S2-  S157  1  0.79234320  0.48910618  0.65003906  1
  S2-  S158  1  0.75254183  0.98665470  0.14835202  1
  S2-  S159  1  0.77851362  0.77076621  0.65010392  1
  S2-  S160  1  0.13680055  0.08996786  0.35460018  1
  S2-  S161  1  0.09566775  0.13071667  0.85837701  1
  S2-  S162  1  0.07890530  0.29338655  0.31712532  1
  S2-  S163  1  0.08196319  0.36027947  0.86311475  1
  S2-  S164  1  0.11769060  0.52227971  0.33807874  1
  S2-  S165  1  0.20840824  0.53162901  0.85296496  1
  S2-  S166  1  0.15768820  0.74127188  0.34686281  1
  S2-  S167  1  0.22505896  0.76248710  0.85684407  1
  S2-  S168  1  0.39872700  0.06447627  0.35298427  1
  S2-  S169  1  0.34503145  -0.01889498  0.83997925  1
  S2-  S170  1  0.28947728  0.25406798  0.34561079  1
  S2-  S171  1  0.35002236  0.34329993  0.85201235  1
  S2-  S172  1  0.32902573  0.46549208  0.33202182  1
  S2-  S173  1  0.41887671  0.54342220  0.81914202  1
  S2-  S174  1  0.39087300  0.66225302  0.36054862  1
  S2-  S175  1  0.43670638  0.76098744  0.84195603  1
  S2-  S176  1  0.61467416  0.03657522  0.30334588  1
  S2-  S177  1  0.62519907  -0.13136387  0.86087764  1
  S2-  S178  1  0.53598457  0.25634529  0.35572750  1
  S2-  S179  1  0.59532134  0.10705130  0.85564764  1
  S2-  S180  1  0.54382366  0.50447361  0.35660798  1
  S2-  S181  1  0.59938922  0.37087551  0.84854081  1
  S2-  S182  1  0.65102788  0.80334848  0.35306186  1
  S2-  S183  1  0.63106530  0.63049393  0.85668576  1
  S2-  S184  1  0.80637716  -0.03409673  0.35163499  1
  S2-  S185  1  0.83183126  -0.00131940  0.84835684  1
  S2-  S186  1  0.76317577  0.23927120  0.35835362  1
  S2-  S187  1  0.77387772  0.23823182  0.85991383  1
  S2-  S188  1  0.77367913  0.51637983  0.36548362  1
  S2-  S189  1  0.79005209  0.48386066  0.86027996  1
  S2-  S190  1  0.88979504  0.72330884  0.35270264  1
  S2-  S191  1  0.85258198  0.74892566  0.85057592  1
  S2-  S192  1  0.01249255  0.12036404  0.45319724  1
  S2-  S193  1  -0.02261231  0.11833511  0.95930887  1
  S2-  S194  1  0.01316339  0.37293046  0.44526410  1
  S2-  S195  1  -0.02345907  0.36636969  0.96642289  1
  S2-  S196  1  0.01588769  0.61931356  0.45661548  1
  S2-  S197  1  -0.01958336  0.61599562  0.95163704  1
  S2-  S198  1  0.01863793  0.86805928  0.45241801  1
  S2-  S199  1  -0.01623198  0.86772718  0.94912499  1
  S2-  S200  1  0.26856495  0.11653442  0.45380397  1
  S2-  S201  1  0.23374745  0.12128525  0.95016955  1
  S2-  S202  1  0.27013687  0.37229100  0.44849293  1
  S2-  S203  1  0.23098783  0.36282965  0.95961504  1
  S2-  S204  1  0.26755904  0.61987207  0.46022940  1
  S2-  S205  1  0.22933009  0.61770055  0.95788732  1
  S2-  S206  1  0.26831413  0.87011617  0.45347661  1
  S2-  S207  1  0.22623188  0.87499364  0.95700783  1
  S2-  S208  1  0.53442401  0.10376818  0.45301459  1
  S2-  S209  1  0.48097158  0.12021971  0.95493255  1
  S2-  S210  1  0.52282759  0.36782897  0.45807470  1
  S2-  S211  1  0.48446038  0.36963016  0.95228746  1
  S2-  S212  1  0.51875027  0.62446116  0.46542028  1
  S2-  S213  1  0.47727012  0.61654408  0.94664375  1
  S2-  S214  1  0.51875353  0.86953794  0.45147244  1
  S2-  S215  1  0.47780556  0.86566277  0.95854447  1
  S2-  S216  1  0.76074484  0.10786067  0.45224355  1
  S2-  S217  1  0.73172068  0.11355370  0.96236351  1
  S2-  S218  1  0.76936678  0.37031296  0.45973019  1
  S2-  S219  1  0.73104674  0.37007023  0.96628283  1
  S2-  S220  1  0.77080880  0.62372838  0.46958445  1
  S2-  S221  1  0.73786363  0.62032620  0.96488622  1
  S2-  S222  1  0.76681703  0.86823181  0.46202335  1
  S2-  S223  1  0.73542267  0.86439824  0.96667111  1
  S2-  S224  1  0.10508656  0.00115450  0.03853777  1
  S2-  S225  1  0.14305432  -0.00100383  0.54611469  1
  S2-  S226  1  0.10540473  0.24103674  0.04172592  1
  S2-  S227  1  0.13942146  0.24410009  0.52653345  1
  S2-  S228  1  0.10384022  0.48548552  0.04300515  1
  S2-  S229  1  0.14221896  0.49122197  0.54088158  1
  S2-  S230  1  0.10481488  0.74247960  0.03490047  1
  S2-  S231  1  0.14357384  0.74696473  0.54967358  1
  S2-  S232  1  0.35154565  -0.00248789  0.04679926  1
  S2-  S233  1  0.38738656  -0.00252842  0.55010412  1
  S2-  S234  1  0.35522431  0.23923220  0.04096075  1
  S2-  S235  1  0.39282499  0.23940754  0.53022019  1
  S2-  S236  1  0.35391338  0.49115579  0.03747830  1
  S2-  S237  1  0.39375170  0.48951690  0.53986115  1
  S2-  S238  1  0.34963090  0.73769935  0.04089628  1
  S2-  S239  1  0.38773173  0.74924675  0.54865757  1
  S2-  S240  1  0.60441952  -0.01027016  0.04297678  1
  S2-  S241  1  0.64509419  -0.00561846  0.56277918  1
  S2-  S242  1  0.60640713  0.23896644  0.04169886  1
  S2-  S243  1  0.64694092  0.24076603  0.53973411  1
  S2-  S244  1  0.60606819  0.49630325  0.03956241  1
  S2-  S245  1  0.64235638  0.49352590  0.54764910  1
  S2-  S246  1  0.60179510  0.74125365  0.04369018  1
  S2-  S247  1  0.64012403  0.74794444  0.55128299  1
  S2-  S248  1  0.86354283  -0.00807860  0.05043184  1
  S2-  S249  1  0.89352725  -0.00470199  0.54678368  1
  S2-  S250  1  0.85174722  0.24161526  0.05400425  1
  S2-  S251  1  0.88629405  0.24525245  0.53668789  1
  S2-  S252  1  0.86365178  0.48874460  0.05302835  1
  S2-  S253  1  0.89548861  0.49560554  0.54222209  1
  S2-  S254  1  0.86274693  0.74493080  0.05285749  1
  S2-  S255  1  0.90131939  0.74166531  0.55309395  1
