# generated using pymatgen
data_La6Ce6Pr19Nd20Sm13(BiS2)64
_symmetry_space_group_name_H-M   'P 1'
_cell_length_a   15.99351463
_cell_length_b   16.04615521
_cell_length_c   27.42190746
_cell_angle_alpha   89.95653199
_cell_angle_beta   89.84085334
_cell_angle_gamma   89.97635394
_symmetry_Int_Tables_number   1
_chemical_formula_structural   La6Ce6Pr19Nd20Sm13(BiS2)64
_chemical_formula_sum   'La6 Ce6 Pr19 Nd20 Sm13 Bi64 S128'
_cell_volume   7037.37549847
_cell_formula_units_Z   1
loop_
 _symmetry_equiv_pos_site_id
 _symmetry_equiv_pos_as_xyz
  1  'x, y, z'
loop_
 _atom_type_symbol
 _atom_type_oxidation_number
  La3+  3.0
  Ce3+  3.0
  Pr3+  3.0
  Nd3+  3.0
  Sm3+  3.0
  Bi2+  2.0
  S2-  -2.0
loop_
 _atom_site_type_symbol
 _atom_site_label
 _atom_site_symmetry_multiplicity
 _atom_site_fract_x
 _atom_site_fract_y
 _atom_site_fract_z
 _atom_site_occupancy
  La3+  La0  1  0.11584980  0.48557910  0.42112230  1
  La3+  La1  1  0.13287818  0.74476413  0.39405301  1
  La3+  La2  1  0.85972305  0.48344506  0.39210239  1
  La3+  La3  1  -0.00921271  0.37379753  0.09838472  1
  La3+  La4  1  0.88154119  0.00185036  0.91813232  1
  La3+  La5  1  0.49772537  0.89074866  0.07762228  1
  Ce3+  Ce6  1  0.61678072  -0.00666366  0.44332026  1
  Ce3+  Ce7  1  0.37306908  0.26062325  0.92371975  1
  Ce3+  Ce8  1  0.61822347  0.75364860  0.94587137  1
  Ce3+  Ce9  1  0.23982380  0.37855977  0.05794665  1
  Ce3+  Ce10  1  0.24524449  0.62472151  0.06668654  1
  Ce3+  Ce11  1  0.49003117  0.37494725  0.56704483  1
  Pr3+  Pr12  1  0.11554027  0.50283880  0.94058308  1
  Pr3+  Pr13  1  0.86974713  0.75418692  0.94726072  1
  Pr3+  Pr14  1  0.36808764  0.50494208  0.93300876  1
  Pr3+  Pr15  1  0.87267179  0.74159683  0.43147995  1
  Pr3+  Pr16  1  0.10712292  -0.00529434  0.42869523  1
  Pr3+  Pr17  1  0.74262903  0.61612472  0.55079270  1
  Pr3+  Pr18  1  0.37558359  -0.01031547  0.42882871  1
  Pr3+  Pr19  1  -0.00756972  0.12885026  0.06801746  1
  Pr3+  Pr20  1  0.61874362  0.50083106  0.93765953  1
  Pr3+  Pr21  1  0.24641139  0.87713748  0.06858230  1
  Pr3+  Pr22  1  0.23542230  0.61743024  0.55816923  1
  Pr3+  Pr23  1  0.48951934  0.11578839  0.57745734  1
  Pr3+  Pr24  1  0.86986631  0.50111186  0.94688217  1
  Pr3+  Pr25  1  0.73785064  0.11325125  0.57820176  1
  Pr3+  Pr26  1  0.62424957  0.24164536  0.91836513  1
  Pr3+  Pr27  1  -0.00941479  0.62537824  0.10222881  1
  Pr3+  Pr28  1  -0.01227151  0.11689056  0.58484765  1
  Pr3+  Pr29  1  0.61247507  0.49478048  0.43136612  1
  Pr3+  Pr30  1  0.10980395  0.24146301  0.44014975  1
  Nd3+  Nd31  1  0.49158051  0.62710501  0.06657651  1
  Nd3+  Nd32  1  0.24092833  0.11727289  0.55086293  1
  Nd3+  Nd33  1  0.23841967  0.87215824  0.55761205  1
  Nd3+  Nd34  1  0.49530914  0.37448513  0.05994531  1
  Nd3+  Nd35  1  0.73959061  0.62569244  0.07049813  1
  Nd3+  Nd36  1  0.86687954  0.25136176  0.93427745  1
  Nd3+  Nd37  1  0.62241333  -0.01829621  0.90099984  1
  Nd3+  Nd38  1  0.11630352  0.75370107  0.94901327  1
  Nd3+  Nd39  1  0.85664233  0.23821160  0.43251262  1
  Nd3+  Nd40  1  -0.00861878  0.61750620  0.54989072  1
  Nd3+  Nd41  1  0.36698961  0.24316145  0.44130660  1
  Nd3+  Nd42  1  0.23876856  0.36777091  0.56164156  1
  Nd3+  Nd43  1  -0.00298256  0.87490055  0.08136752  1
  Nd3+  Nd44  1  0.36309861  0.49658236  0.43784903  1
  Nd3+  Nd45  1  -0.01283304  0.36613537  0.55584072  1
  Nd3+  Nd46  1  0.11589671  0.24909916  0.93718475  1
  Nd3+  Nd47  1  0.49063693  0.62012809  0.57298721  1
  Nd3+  Nd48  1  0.61548143  0.24316564  0.44610059  1
  Nd3+  Nd49  1  -0.00887064  0.87004758  0.56328847  1
  Nd3+  Nd50  1  0.37008347  0.75284956  0.93714111  1
  Sm3+  Sm51  1  0.74518182  0.12629293  0.04914946  1
  Sm3+  Sm52  1  0.48842057  0.86691864  0.57063969  1
  Sm3+  Sm53  1  0.24401917  0.12984420  0.05284660  1
  Sm3+  Sm54  1  0.86661661  -0.00757391  0.44792166  1
  Sm3+  Sm55  1  0.61649441  0.74161184  0.44549463  1
  Sm3+  Sm56  1  0.74120938  0.86902123  0.55846941  1
  Sm3+  Sm57  1  0.74190888  0.87988174  0.06056082  1
  Sm3+  Sm58  1  0.74133010  0.36862071  0.55592643  1
  Sm3+  Sm59  1  0.36589973  0.74430932  0.44826766  1
  Sm3+  Sm60  1  0.49560602  0.12852125  0.04564315  1
  Sm3+  Sm61  1  0.37310232  -0.00048191  0.93479960  1
  Sm3+  Sm62  1  0.12058875  0.00110427  0.94448531  1
  Sm3+  Sm63  1  0.73962410  0.37270777  0.06526300  1
  Bi2+  Bi64  1  0.10729493  0.14920566  0.31377304  1
  Bi2+  Bi65  1  0.04766726  0.10569348  0.80086892  1
  Bi2+  Bi66  1  0.00419287  0.36514152  0.28329963  1
  Bi2+  Bi67  1  0.02308234  0.37980296  0.79656275  1
  Bi2+  Bi68  1  -0.02642173  0.64095968  0.27567182  1
  Bi2+  Bi69  1  -0.01502775  0.61030321  0.81426598  1
  Bi2+  Bi70  1  -0.00208237  0.89594341  0.28630161  1
  Bi2+  Bi71  1  -0.09049553  0.87912376  0.80050850  1
  Bi2+  Bi72  1  0.29923306  0.13708074  0.26050734  1
  Bi2+  Bi73  1  0.25460503  0.06803203  0.81002033  1
  Bi2+  Bi74  1  0.26617877  0.37091577  0.28974511  1
  Bi2+  Bi75  1  0.32789867  0.39124478  0.75410751  1
  Bi2+  Bi76  1  0.31223683  0.62504150  0.28801221  1
  Bi2+  Bi77  1  0.23448984  0.63429633  0.79542897  1
  Bi2+  Bi78  1  0.27796511  0.88661839  0.28411789  1
  Bi2+  Bi79  1  0.31335487  0.87478673  0.82790903  1
  Bi2+  Bi80  1  0.55275074  0.14774106  0.22759807  1
  Bi2+  Bi81  1  0.42127926  0.17269797  0.77839846  1
  Bi2+  Bi82  1  0.48821134  0.34643268  0.29805159  1
  Bi2+  Bi83  1  0.50265280  0.44084028  0.81067378  1
  Bi2+  Bi84  1  0.47805059  0.53956158  0.32666946  1
  Bi2+  Bi85  1  0.52792543  0.67505540  0.81724716  1
  Bi2+  Bi86  1  0.51656053  0.85625653  0.29433200  1
  Bi2+  Bi87  1  0.50115506  0.86573272  0.77954888  1
  Bi2+  Bi88  1  0.70253808  0.04616118  0.32303101  1
  Bi2+  Bi89  1  0.77443637  0.12895693  0.79773693  1
  Bi2+  Bi90  1  0.67851325  0.31463960  0.28172711  1
  Bi2+  Bi91  1  0.76462410  0.35756997  0.76083548  1
  Bi2+  Bi92  1  0.64895997  0.60202735  0.29142307  1
  Bi2+  Bi93  1  0.79089655  0.66530832  0.75322082  1
  Bi2+  Bi94  1  0.78191546  0.87699801  0.29414276  1
  Bi2+  Bi95  1  0.71911751  0.84655643  0.72526226  1
  Bi2+  Bi96  1  0.14685214  0.02974536  0.21925824  1
  Bi2+  Bi97  1  0.17250405  -0.08065948  0.74505388  1
  Bi2+  Bi98  1  0.12175213  0.22866677  0.20633256  1
  Bi2+  Bi99  1  0.19990206  0.22626545  0.71691320  1
  Bi2+  Bi100  1  0.14754776  0.49050462  0.21685545  1
  Bi2+  Bi101  1  0.11580298  0.50334653  0.69514660  1
  Bi2+  Bi102  1  0.14287053  0.76583133  0.20741492  1
  Bi2+  Bi103  1  0.07180753  0.75126567  0.74689880  1
  Bi2+  Bi104  1  0.43716595  -0.01679015  0.21863853  1
  Bi2+  Bi105  1  0.34822717  0.00798903  0.70859717  1
  Bi2+  Bi106  1  0.45368526  0.29858868  0.18216130  1
  Bi2+  Bi107  1  0.42144168  0.27246721  0.68019843  1
  Bi2+  Bi108  1  0.36130541  0.46832931  0.19814640  1
  Bi2+  Bi109  1  0.37686598  0.57110969  0.71856249  1
  Bi2+  Bi110  1  0.40339863  0.74341630  0.21288508  1
  Bi2+  Bi111  1  0.34288001  0.76604133  0.72794396  1
  Bi2+  Bi112  1  0.69921096  0.01429464  0.20893942  1
  Bi2+  Bi113  1  0.60866551  0.01253725  0.71365530  1
  Bi2+  Bi114  1  0.82103399  0.23744723  0.21608809  1
  Bi2+  Bi115  1  0.59464234  0.25854118  0.73079330  1
  Bi2+  Bi116  1  0.56857774  0.48267582  0.20641589  1
  Bi2+  Bi117  1  0.61036092  0.45764272  0.71402121  1
  Bi2+  Bi118  1  0.60041640  0.75352918  0.20910718  1
  Bi2+  Bi119  1  0.60388686  0.68034169  0.71007597  1
  Bi2+  Bi120  1  0.89691332  -0.01780064  0.20479613  1
  Bi2+  Bi121  1  0.91610883  0.01660764  0.71618255  1
  Bi2+  Bi122  1  0.91277974  0.12112430  0.29117595  1
  Bi2+  Bi123  1  0.92982975  0.26427203  0.71793472  1
  Bi2+  Bi124  1  0.83374222  0.49474498  0.22227235  1
  Bi2+  Bi125  1  0.87043954  0.51458495  0.68825183  1
  Bi2+  Bi126  1  0.81651004  0.78420945  0.19901998  1
  Bi2+  Bi127  1  0.91461745  0.81978518  0.68825736  1
  S2-  S128  1  -0.01824102  0.22068506  0.15352181  1
  S2-  S129  1  0.06362721  0.18219161  0.67323958  1
  S2-  S130  1  -0.00605878  0.49743213  0.17511500  1
  S2-  S131  1  -0.01474834  0.39304598  0.65592777  1
  S2-  S132  1  0.15327404  0.63077630  0.15290664  1
  S2-  S133  1  -0.00737716  0.60482144  0.65157847  1
  S2-  S134  1  -0.02010371  0.76673754  0.16499834  1
  S2-  S135  1  0.02123427  0.96995662  0.64418227  1
  S2-  S136  1  0.24719155  0.12753585  0.15166982  1
  S2-  S137  1  0.27043826  0.11751670  0.64877439  1
  S2-  S138  1  0.16137590  0.37103512  0.14595170  1
  S2-  S139  1  0.20646754  0.37587780  0.65953635  1
  S2-  S140  1  0.36986910  0.61765666  0.14082403  1
  S2-  S141  1  0.23168127  0.59976429  0.65883933  1
  S2-  S142  1  0.13426831  0.89768167  0.14829017  1
  S2-  S143  1  0.26642050  0.86990890  0.65667421  1
  S2-  S144  1  0.49912682  0.06515912  0.13814262  1
  S2-  S145  1  0.61581462  0.14612057  0.65223740  1
  S2-  S146  1  0.60878179  0.36282984  0.13700076  1
  S2-  S147  1  0.48860396  0.49175266  0.64231167  1
  S2-  S148  1  0.60809324  0.61596821  0.14305667  1
  S2-  S149  1  0.49281217  0.74547141  0.64493685  1
  S2-  S150  1  0.36616528  0.87537173  0.14579160  1
  S2-  S151  1  0.48284135  0.98052602  0.64613585  1
  S2-  S152  1  0.73732044  0.15575197  0.14814438  1
  S2-  S153  1  0.85338858  0.14801143  0.65388643  1
  S2-  S154  1  0.82874949  0.37966345  0.15201905  1
  S2-  S155  1  0.74644620  0.38928135  0.65388451  1
  S2-  S156  1  0.82584593  0.61962647  0.15980305  1
  S2-  S157  1  0.74974488  0.62938992  0.65073196  1
  S2-  S158  1  0.64256262  0.88406552  0.14359955  1
  S2-  S159  1  0.72455131  0.95422293  0.64359283  1
  S2-  S160  1  0.13952514  -0.10173651  0.34442000  1
  S2-  S161  1  0.03586596  -0.03499801  0.86080146  1
  S2-  S162  1  0.12842155  0.32482748  0.35170207  1
  S2-  S163  1  0.12020101  0.25940144  0.83606507  1
  S2-  S164  1  0.01270161  0.50839364  0.33827694  1
  S2-  S165  1  0.12628126  0.49831410  0.83756140  1
  S2-  S166  1  0.14437039  0.67227955  0.29782029  1
  S2-  S167  1  0.11288020  0.73043923  0.84942399  1
  S2-  S168  1  0.31708122  0.02014898  0.33435572  1
  S2-  S169  1  0.46507409  -0.01947411  0.85113816  1
  S2-  S170  1  0.36519335  0.24633743  0.34195369  1
  S2-  S171  1  0.49388705  0.27040318  0.84959456  1
  S2-  S172  1  0.25921560  0.49579545  0.35641603  1
  S2-  S173  1  0.33938412  0.39623089  0.85388375  1
  S2-  S174  1  0.31771171  0.75832756  0.35466968  1
  S2-  S175  1  0.36646624  0.63493874  0.85953336  1
  S2-  S176  1  0.52881927  -0.00422176  0.36064319  1
  S2-  S177  1  0.63255352  0.11790438  0.83860283  1
  S2-  S178  1  0.70788270  0.20843385  0.36324517  1
  S2-  S179  1  0.75899184  0.28414426  0.85076848  1
  S2-  S180  1  0.69677577  0.45149022  0.34472635  1
  S2-  S181  1  0.63536358  0.54358169  0.84021060  1
  S2-  S182  1  0.62110124  0.74921976  0.34829340  1
  S2-  S183  1  0.61853122  0.81521384  0.85509747  1
  S2-  S184  1  0.95580191  0.00582040  0.36372938  1
  S2-  S185  1  0.77418135  -0.03054775  0.83958038  1
  S2-  S186  1  0.88920884  0.32521381  0.34534634  1
  S2-  S187  1  0.91899735  0.14935144  0.85449959  1
  S2-  S188  1  0.82992974  0.60302414  0.31364287  1
  S2-  S189  1  0.89924346  0.48123993  0.84554522  1
  S2-  S190  1  0.97002996  0.75716323  0.34782714  1
  S2-  S191  1  0.85944327  0.72105243  0.84759483  1
  S2-  S192  1  -0.01602454  0.12173908  0.46135619  1
  S2-  S193  1  -0.00229322  0.12363285  0.96253852  1
  S2-  S194  1  -0.01720476  0.36789885  0.45193671  1
  S2-  S195  1  -0.00607423  0.37253544  0.94729447  1
  S2-  S196  1  -0.00388617  0.61854715  0.44624277  1
  S2-  S197  1  -0.00660627  0.62852758  0.95382553  1
  S2-  S198  1  -0.00787975  0.86674263  0.45863094  1
  S2-  S199  1  -0.00587665  0.87926803  0.96923024  1
  S2-  S200  1  0.24172568  0.11713515  0.44650785  1
  S2-  S201  1  0.24638102  0.12633363  0.94775463  1
  S2-  S202  1  0.24287228  0.36515765  0.45724308  1
  S2-  S203  1  0.23896085  0.37477326  0.95455096  1
  S2-  S204  1  0.23626798  0.62515784  0.45274954  1
  S2-  S205  1  0.24029160  0.62847325  0.95916057  1
  S2-  S206  1  0.24136842  0.86980940  0.45348468  1
  S2-  S207  1  0.24336924  0.87845012  0.95818432  1
  S2-  S208  1  0.49120201  0.12028495  0.46148979  1
  S2-  S209  1  0.49062739  0.12582218  0.94528931  1
  S2-  S210  1  0.48983190  0.36950924  0.45529712  1
  S2-  S211  1  0.49527950  0.37800018  0.95538022  1
  S2-  S212  1  0.48981556  0.62135488  0.46135197  1
  S2-  S213  1  0.49575017  0.62804370  0.95918202  1
  S2-  S214  1  0.49277390  0.86225859  0.46143698  1
  S2-  S215  1  0.49286966  0.87654723  0.95902472  1
  S2-  S216  1  0.74074993  0.11317813  0.46817534  1
  S2-  S217  1  0.74882997  0.11662232  0.94790543  1
  S2-  S218  1  0.74048330  0.37046740  0.45362247  1
  S2-  S219  1  0.74277467  0.37731597  0.95848082  1
  S2-  S220  1  0.74403118  0.61666761  0.44461922  1
  S2-  S221  1  0.74419368  0.62772627  0.95958875  1
  S2-  S222  1  0.74272626  0.86597655  0.45358444  1
  S2-  S223  1  0.74632192  0.88051438  0.95712640  1
  S2-  S224  1  0.11993586  0.00629572  0.04728453  1
  S2-  S225  1  0.11626612  -0.00280558  0.53882268  1
  S2-  S226  1  0.11737483  0.25122007  0.04379531  1
  S2-  S227  1  0.11446125  0.24151300  0.54749502  1
  S2-  S228  1  0.11078589  0.50146242  0.04817157  1
  S2-  S229  1  0.11402148  0.48995634  0.53990124  1
  S2-  S230  1  0.11545347  0.74988885  0.05249931  1
  S2-  S231  1  0.11414012  0.74572631  0.56027302  1
  S2-  S232  1  0.36634015  0.00711394  0.03911750  1
  S2-  S233  1  0.36689827  -0.00796204  0.54008272  1
  S2-  S234  1  0.36792831  0.25160827  0.03953433  1
  S2-  S235  1  0.36742565  0.24458102  0.54711743  1
  S2-  S236  1  0.36958994  0.49610704  0.04065784  1
  S2-  S237  1  0.36229893  0.49441004  0.54366680  1
  S2-  S238  1  0.36993255  0.75363656  0.04170940  1
  S2-  S239  1  0.36162950  0.74335545  0.55034575  1
  S2-  S240  1  0.62271158  0.00685447  0.03946049  1
  S2-  S241  1  0.61162232  -0.01140307  0.54566661  1
  S2-  S242  1  0.62046798  0.24724257  0.03389894  1
  S2-  S243  1  0.61326753  0.24894196  0.54973680  1
  S2-  S244  1  0.61881735  0.50035233  0.04261994  1
  S2-  S245  1  0.61637474  0.49369605  0.54061732  1
  S2-  S246  1  0.61722876  0.75485778  0.04802771  1
  S2-  S247  1  0.61871649  0.74567062  0.54872551  1
  S2-  S248  1  0.86840039  0.00012596  0.06002004  1
  S2-  S249  1  0.86558541  -0.00798864  0.54915835  1
  S2-  S250  1  0.86857100  0.25428290  0.04242334  1
  S2-  S251  1  0.86159307  0.24440079  0.54456898  1
  S2-  S252  1  0.86924862  0.50192141  0.05211527  1
  S2-  S253  1  0.86550741  0.49205708  0.54660560  1
  S2-  S254  1  0.86728144  0.75345592  0.05368389  1
  S2-  S255  1  0.86581850  0.74554636  0.54173608  1
