# generated using pymatgen
data_La6Ce6Pr19Nd20Sm13(BiS2)64
_symmetry_space_group_name_H-M   'P 1'
_cell_length_a   16.08296363
_cell_length_b   16.16376213
_cell_length_c   27.32262042
_cell_angle_alpha   90.23921464
_cell_angle_beta   89.78619967
_cell_angle_gamma   89.97314078
_symmetry_Int_Tables_number   1
_chemical_formula_structural   La6Ce6Pr19Nd20Sm13(BiS2)64
_chemical_formula_sum   'La6 Ce6 Pr19 Nd20 Sm13 Bi64 S128'
_cell_volume   7102.70895827
_cell_formula_units_Z   1
loop_
 _symmetry_equiv_pos_site_id
 _symmetry_equiv_pos_as_xyz
  1  'x, y, z'
loop_
 _atom_type_symbol
 _atom_type_oxidation_number
  La3+  3.0
  Ce3+  3.0
  Pr3+  3.0
  Nd3+  3.0
  Sm3+  3.0
  Bi2+  2.0
  S2-  -2.0
loop_
 _atom_site_type_symbol
 _atom_site_label
 _atom_site_symmetry_multiplicity
 _atom_site_fract_x
 _atom_site_fract_y
 _atom_site_fract_z
 _atom_site_occupancy
  La3+  La0  1  0.50898466  0.38139187  0.58187458  1
  La3+  La1  1  0.50873976  0.38052216  0.07591030  1
  La3+  La2  1  0.12502726  0.75197558  0.38542800  1
  La3+  La3  1  0.50479241  0.63073747  0.57082141  1
  La3+  La4  1  0.14132354  0.00658951  0.42585185  1
  La3+  La5  1  0.49418811  0.12584584  0.61212571  1
  Ce3+  Ce6  1  0.39350524  -0.00824322  0.92439753  1
  Ce3+  Ce7  1  0.38773453  0.49119926  0.93096779  1
  Ce3+  Ce8  1  0.76101565  0.62380358  0.06936740  1
  Ce3+  Ce9  1  0.87713065  -0.00422307  0.94282070  1
  Ce3+  Ce10  1  0.38239451  0.00797814  0.44823684  1
  Ce3+  Ce11  1  0.00882238  0.87165780  0.06048795  1
  Pr3+  Pr12  1  0.26259275  0.86889550  0.06340880  1
  Pr3+  Pr13  1  0.75401995  0.13492602  0.56284282  1
  Pr3+  Pr14  1  0.00878922  0.38234328  0.55975837  1
  Pr3+  Pr15  1  0.13293009  0.24344279  0.93145172  1
  Pr3+  Pr16  1  0.50761534  0.12954772  0.06498415  1
  Pr3+  Pr17  1  0.75832371  0.86827391  0.07202379  1
  Pr3+  Pr18  1  0.00812910  0.63749855  0.55226670  1
  Pr3+  Pr19  1  0.13430100  0.50568377  0.43124444  1
  Pr3+  Pr20  1  0.63669752  0.49304722  0.94265114  1
  Pr3+  Pr21  1  0.26277354  0.12152612  0.05674286  1
  Pr3+  Pr22  1  0.88401174  0.00497452  0.43655134  1
  Pr3+  Pr23  1  0.01084688  0.62217203  0.06346554  1
  Pr3+  Pr24  1  0.13946690  0.25452331  0.42637601  1
  Pr3+  Pr25  1  0.02175232  0.36807318  0.07340184  1
  Pr3+  Pr26  1  0.63035225  0.00751259  0.44562172  1
  Pr3+  Pr27  1  0.75834752  0.63770428  0.56235192  1
  Pr3+  Pr28  1  0.87969211  0.25930185  0.43088174  1
  Pr3+  Pr29  1  0.13313806  0.49452121  0.93939743  1
  Pr3+  Pr30  1  0.50575107  0.87736009  0.58273405  1
  Nd3+  Nd31  1  0.77024048  0.36438032  0.09396862  1
  Nd3+  Nd32  1  0.87842185  0.76010324  0.43011052  1
  Nd3+  Nd33  1  0.13693360  -0.00661431  0.94149761  1
  Nd3+  Nd34  1  0.88534325  0.49223417  0.94958041  1
  Nd3+  Nd35  1  0.75261539  0.11337747  0.08254332  1
  Nd3+  Nd36  1  0.25129905  0.13528209  0.56744799  1
  Nd3+  Nd37  1  0.75330601  0.88731691  0.56599118  1
  Nd3+  Nd38  1  0.12923781  0.74783594  0.93091837  1
  Nd3+  Nd39  1  0.01271875  0.88505950  0.55836749  1
  Nd3+  Nd40  1  0.64036596  -0.00324658  0.93854222  1
  Nd3+  Nd41  1  0.39106531  0.74838983  0.92662182  1
  Nd3+  Nd42  1  0.38732795  0.25998987  0.44412380  1
  Nd3+  Nd43  1  0.25574577  0.88547417  0.56450384  1
  Nd3+  Nd44  1  0.37748727  0.75803949  0.43689720  1
  Nd3+  Nd45  1  0.25396369  0.38173074  0.56632585  1
  Nd3+  Nd46  1  0.63020067  0.75798302  0.43716946  1
  Nd3+  Nd47  1  0.88293036  0.51049083  0.44187881  1
  Nd3+  Nd48  1  0.64054273  0.74412472  0.93426515  1
  Nd3+  Nd49  1  0.62894483  0.25913538  0.43670051  1
  Nd3+  Nd50  1  0.39031692  0.23794213  0.92230358  1
  Sm3+  Sm51  1  0.75538508  0.38159294  0.55705427  1
  Sm3+  Sm52  1  0.50973223  0.62232794  0.05437738  1
  Sm3+  Sm53  1  0.00897027  0.13441385  0.55629437  1
  Sm3+  Sm54  1  0.01067218  0.12078363  0.05547874  1
  Sm3+  Sm55  1  0.63001400  0.50859904  0.44704559  1
  Sm3+  Sm56  1  0.25954779  0.36982937  0.04870274  1
  Sm3+  Sm57  1  0.88326611  0.24549937  0.95020018  1
  Sm3+  Sm58  1  0.88338134  0.74374295  0.93545897  1
  Sm3+  Sm59  1  0.63562593  0.24593314  0.95047559  1
  Sm3+  Sm60  1  0.51174321  0.87169777  0.05741267  1
  Sm3+  Sm61  1  0.26199629  0.62420747  0.04567054  1
  Sm3+  Sm62  1  0.38398344  0.50656615  0.44628282  1
  Sm3+  Sm63  1  0.25511035  0.63539373  0.55322703  1
  Bi2+  Bi64  1  -0.03298078  0.16554151  0.28820328  1
  Bi2+  Bi65  1  -0.03287520  0.13821409  0.77886144  1
  Bi2+  Bi66  1  0.02073111  0.34593981  0.31595038  1
  Bi2+  Bi67  1  -0.01705933  0.38671169  0.81831050  1
  Bi2+  Bi68  1  -0.01784747  0.58724677  0.28818169  1
  Bi2+  Bi69  1  -0.02046965  0.62680440  0.79405529  1
  Bi2+  Bi70  1  -0.00558970  0.86192218  0.27426604  1
  Bi2+  Bi71  1  -0.05831827  0.92196485  0.77488490  1
  Bi2+  Bi72  1  0.24392209  0.13034212  0.29463535  1
  Bi2+  Bi73  1  0.21939244  0.08996964  0.78905729  1
  Bi2+  Bi74  1  0.21544758  0.38951628  0.31185529  1
  Bi2+  Bi75  1  0.16226298  0.37078104  0.77171505  1
  Bi2+  Bi76  1  0.25871701  0.56630304  0.26886648  1
  Bi2+  Bi77  1  0.23269313  0.65452567  0.77035584  1
  Bi2+  Bi78  1  0.25611715  0.88470048  0.28893248  1
  Bi2+  Bi79  1  0.19044231  0.83330674  0.80702205  1
  Bi2+  Bi80  1  0.50101935  0.15455278  0.29864256  1
  Bi2+  Bi81  1  0.51160205  0.11985035  0.80054235  1
  Bi2+  Bi82  1  0.48980252  0.42571484  0.29746368  1
  Bi2+  Bi83  1  0.51322821  0.38849348  0.81394834  1
  Bi2+  Bi84  1  0.50332940  0.72800110  0.30691882  1
  Bi2+  Bi85  1  0.53616180  0.61202183  0.78860554  1
  Bi2+  Bi86  1  0.47188441  0.89954127  0.25784572  1
  Bi2+  Bi87  1  0.48438450  0.86641346  0.78820640  1
  Bi2+  Bi88  1  0.69123656  0.11349598  0.30186896  1
  Bi2+  Bi89  1  0.77557263  0.13034624  0.79650352  1
  Bi2+  Bi90  1  0.68064257  0.34992384  0.28761600  1
  Bi2+  Bi91  1  0.78224430  0.32566609  0.73372168  1
  Bi2+  Bi92  1  0.74593204  0.60491628  0.30165372  1
  Bi2+  Bi93  1  0.80750081  0.60407980  0.74201438  1
  Bi2+  Bi94  1  0.74285733  0.87433281  0.28951751  1
  Bi2+  Bi95  1  0.75415596  0.85427111  0.79340755  1
  Bi2+  Bi96  1  0.13207535  0.00794598  0.18575296  1
  Bi2+  Bi97  1  0.07671743  0.01477740  0.70520480  1
  Bi2+  Bi98  1  0.10660324  0.24319256  0.20946795  1
  Bi2+  Bi99  1  0.04605880  0.27026697  0.69495994  1
  Bi2+  Bi100  1  0.10272653  0.43674066  0.22123330  1
  Bi2+  Bi101  1  0.10326918  0.52817313  0.70696071  1
  Bi2+  Bi102  1  0.13840567  0.75370975  0.17214949  1
  Bi2+  Bi103  1  0.10472058  0.77099517  0.70884057  1
  Bi2+  Bi104  1  0.38627262  0.06720551  0.22126104  1
  Bi2+  Bi105  1  0.31253628  -0.05701636  0.73865266  1
  Bi2+  Bi106  1  0.38059455  0.27050259  0.23239933  1
  Bi2+  Bi107  1  0.36214432  0.25504445  0.72376193  1
  Bi2+  Bi108  1  0.37453681  0.45703109  0.20010672  1
  Bi2+  Bi109  1  0.36095988  0.51238180  0.71465048  1
  Bi2+  Bi110  1  0.40495797  0.65786199  0.21501944  1
  Bi2+  Bi111  1  0.36984057  0.75249671  0.71030073  1
  Bi2+  Bi112  1  0.63265126  -0.04565335  0.19898202  1
  Bi2+  Bi113  1  0.71421009  0.00051065  0.71740983  1
  Bi2+  Bi114  1  0.60866238  0.24103730  0.19924640  1
  Bi2+  Bi115  1  0.61944361  0.22650968  0.72774031  1
  Bi2+  Bi116  1  0.63527417  0.52026594  0.22042178  1
  Bi2+  Bi117  1  0.62724572  0.49010480  0.71533138  1
  Bi2+  Bi118  1  0.61135830  0.73393825  0.21193480  1
  Bi2+  Bi119  1  0.63800513  0.76085277  0.71595167  1
  Bi2+  Bi120  1  0.84144117  0.03294389  0.24554886  1
  Bi2+  Bi121  1  0.89022529  -0.04090211  0.66397793  1
  Bi2+  Bi122  1  0.85230653  0.30460437  0.23818782  1
  Bi2+  Bi123  1  0.87516944  0.17503672  0.67617982  1
  Bi2+  Bi124  1  0.82553828  0.51378403  0.19845248  1
  Bi2+  Bi125  1  0.92062432  0.45134536  0.70538977  1
  Bi2+  Bi126  1  0.87703135  0.69652019  0.21363290  1
  Bi2+  Bi127  1  0.89957983  0.76819001  0.70338729  1
  S2-  S128  1  0.02005490  0.13058599  0.15394222  1
  S2-  S129  1  0.11274418  0.13846187  0.63596587  1
  S2-  S130  1  -0.08314373  0.38054113  0.15459899  1
  S2-  S131  1  0.12070776  0.39286196  0.63611926  1
  S2-  S132  1  0.01841296  0.62626903  0.16388464  1
  S2-  S133  1  0.01408152  0.64535014  0.65280420  1
  S2-  S134  1  0.01103384  0.88063221  0.15967083  1
  S2-  S135  1  0.12687043  0.89049061  0.63822420  1
  S2-  S136  1  0.24792959  0.11114897  0.15747075  1
  S2-  S137  1  0.33030574  0.14535883  0.65849254  1
  S2-  S138  1  0.17115064  0.35708546  0.13473664  1
  S2-  S139  1  0.32519500  0.38435449  0.66124993  1
  S2-  S140  1  0.26134516  0.65189478  0.14209603  1
  S2-  S141  1  0.28166665  0.62759390  0.65113332  1
  S2-  S142  1  0.25137463  0.88744350  0.16386392  1
  S2-  S143  1  0.36170832  0.89213920  0.64740878  1
  S2-  S144  1  0.60446179  0.09156300  0.14724497  1
  S2-  S145  1  0.49798068  0.06093047  0.71378409  1
  S2-  S146  1  0.46022088  0.25140645  0.14005518  1
  S2-  S147  1  0.50064766  0.27833492  0.66502515  1
  S2-  S148  1  0.48166055  0.54813651  0.14102269  1
  S2-  S149  1  0.49741946  0.51628364  0.65242996  1
  S2-  S150  1  0.50538672  0.84193044  0.15487828  1
  S2-  S151  1  0.50801176  0.73853198  0.65040952  1
  S2-  S152  1  0.77033793  0.22718232  0.15863742  1
  S2-  S153  1  0.66526100  0.12988255  0.64983877  1
  S2-  S154  1  0.63072238  0.39164337  0.15290054  1
  S2-  S155  1  0.69032182  0.38565893  0.64827546  1
  S2-  S156  1  0.75132834  0.73957510  0.14479693  1
  S2-  S157  1  0.70807824  0.62859619  0.65849432  1
  S2-  S158  1  0.78305782  0.98037705  0.15012862  1
  S2-  S159  1  0.64948288  0.88740414  0.64822439  1
  S2-  S160  1  0.10777632  -0.08740743  0.34122602  1
  S2-  S161  1  0.11862736  -0.01743463  0.84337567  1
  S2-  S162  1  0.10899159  0.13063543  0.35213628  1
  S2-  S163  1  0.14760519  0.22475326  0.83212121  1
  S2-  S164  1  0.12693523  0.58816467  0.34269640  1
  S2-  S165  1  0.12390293  0.49343439  0.83998290  1
  S2-  S166  1  0.13284137  0.76553224  0.26797739  1
  S2-  S167  1  0.00396285  0.74149772  0.85979610  1
  S2-  S168  1  0.30782181  0.00603832  0.35879032  1
  S2-  S169  1  0.36208992  0.10614523  0.85229657  1
  S2-  S170  1  0.28157772  0.25697484  0.36067589  1
  S2-  S171  1  0.37657405  0.30919257  0.82770109  1
  S2-  S172  1  0.36171582  0.50274327  0.34776106  1
  S2-  S173  1  0.40218009  0.52496656  0.83472434  1
  S2-  S174  1  0.29311177  0.76496428  0.34921357  1
  S2-  S175  1  0.35301856  0.86695271  0.85495686  1
  S2-  S176  1  0.63231624  -0.02959708  0.34563756  1
  S2-  S177  1  0.54012279  -0.01921169  0.85628234  1
  S2-  S178  1  0.50462407  0.28719888  0.36456859  1
  S2-  S179  1  0.60016652  0.25450132  0.85294166  1
  S2-  S180  1  0.61550732  0.52519616  0.34973857  1
  S2-  S181  1  0.64066537  0.50910619  0.84159642  1
  S2-  S182  1  0.74407723  0.75564911  0.36023521  1
  S2-  S183  1  0.52419058  0.73908333  0.85581595  1
  S2-  S184  1  0.88184517  -0.04664351  0.33973826  1
  S2-  S185  1  0.76914789  0.00368842  0.86639421  1
  S2-  S186  1  0.75192538  0.25507919  0.35968504  1
  S2-  S187  1  0.88369802  0.24705817  0.85101276  1
  S2-  S188  1  0.86771288  0.49970783  0.34303236  1
  S2-  S189  1  0.88332345  0.50714930  0.85008728  1
  S2-  S190  1  0.96247372  0.73958421  0.34128727  1
  S2-  S191  1  0.76495169  0.73853176  0.86233790  1
  S2-  S192  1  0.00142429  0.13541380  0.45254435  1
  S2-  S193  1  0.00747064  0.11856802  0.94960722  1
  S2-  S194  1  0.00577177  0.38267350  0.45199602  1
  S2-  S195  1  0.01094483  0.36743748  0.96060764  1
  S2-  S196  1  0.00675183  0.63446320  0.44775234  1
  S2-  S197  1  0.00921548  0.61826474  0.95738676  1
  S2-  S198  1  0.00617492  0.87820510  0.45224900  1
  S2-  S199  1  0.00626467  0.87433074  0.95441004  1
  S2-  S200  1  0.26172831  0.13436688  0.46090178  1
  S2-  S201  1  0.25793718  0.11868193  0.95141139  1
  S2-  S202  1  0.25864496  0.38668942  0.45867937  1
  S2-  S203  1  0.25910911  0.36811806  0.94394094  1
  S2-  S204  1  0.25810455  0.62965194  0.44974531  1
  S2-  S205  1  0.25936556  0.62448060  0.94005626  1
  S2-  S206  1  0.25958696  0.88180357  0.45892333  1
  S2-  S207  1  0.25678671  0.86714966  0.95706723  1
  S2-  S208  1  0.50756552  0.13088284  0.44963189  1
  S2-  S209  1  0.51300865  0.12120051  0.95789077  1
  S2-  S210  1  0.50870181  0.39051134  0.46757964  1
  S2-  S211  1  0.50999757  0.36980370  0.95764972  1
  S2-  S212  1  0.50617206  0.63311447  0.45682077  1
  S2-  S213  1  0.50934078  0.61706827  0.95265850  1
  S2-  S214  1  0.50574596  0.87977454  0.45188211  1
  S2-  S215  1  0.51349481  0.86802209  0.95634488  1
  S2-  S216  1  0.75878155  0.12997672  0.45628642  1
  S2-  S217  1  0.75989829  0.12668724  0.96745915  1
  S2-  S218  1  0.75622829  0.38839308  0.45403353  1
  S2-  S219  1  0.76138781  0.36725726  0.95383872  1
  S2-  S220  1  0.75660408  0.63063787  0.45679981  1
  S2-  S221  1  0.76304557  0.61720542  0.96237318  1
  S2-  S222  1  0.75690700  0.88372666  0.45980063  1
  S2-  S223  1  0.76193930  0.86766281  0.96440173  1
  S2-  S224  1  0.13552418  -0.00408830  0.04728489  1
  S2-  S225  1  0.12957349  0.01160283  0.53546726  1
  S2-  S226  1  0.13564397  0.24096179  0.03803997  1
  S2-  S227  1  0.12968907  0.25867235  0.53455095  1
  S2-  S228  1  0.13936464  0.50029109  0.04515369  1
  S2-  S229  1  0.13154987  0.51267368  0.53866502  1
  S2-  S230  1  0.13463947  0.74640737  0.03874302  1
  S2-  S231  1  0.13442200  0.75645265  0.54613947  1
  S2-  S232  1  0.38817304  -0.00520818  0.05050956  1
  S2-  S233  1  0.38656600  0.01308971  0.55236898  1
  S2-  S234  1  0.37887422  0.24995731  0.03258715  1
  S2-  S235  1  0.38203244  0.25722362  0.55071959  1
  S2-  S236  1  0.37840278  0.49632861  0.03792734  1
  S2-  S237  1  0.37637491  0.50784836  0.54851678  1
  S2-  S238  1  0.38827185  0.74549598  0.04002901  1
  S2-  S239  1  0.37964539  0.75664827  0.54363384  1
  S2-  S240  1  0.63325836  -0.00857226  0.04443583  1
  S2-  S241  1  0.62357475  0.00896997  0.55031861  1
  S2-  S242  1  0.63884221  0.25211429  0.05212172  1
  S2-  S243  1  0.63385230  0.26039177  0.54341160  1
  S2-  S244  1  0.63865609  0.50153347  0.04866155  1
  S2-  S245  1  0.63678220  0.50996065  0.54931155  1
  S2-  S246  1  0.62991743  0.74414102  0.04302752  1
  S2-  S247  1  0.63291406  0.75971912  0.54272287  1
  S2-  S248  1  0.88777677  -0.00118736  0.04748766  1
  S2-  S249  1  0.88330920  0.01067550  0.54354771  1
  S2-  S250  1  0.89122534  0.24472393  0.05286949  1
  S2-  S251  1  0.88159994  0.26013829  0.54118424  1
  S2-  S252  1  0.88568967  0.49491538  0.05420651  1
  S2-  S253  1  0.88070870  0.50742101  0.54952556  1
  S2-  S254  1  0.88764759  0.74600175  0.04482991  1
  S2-  S255  1  0.88114677  0.76360006  0.54562696  1
