# generated using pymatgen
data_La6Ce6Pr19Nd20Sm13(BiS2)64
_symmetry_space_group_name_H-M   'P 1'
_cell_length_a   16.10914788
_cell_length_b   16.07307376
_cell_length_c   27.28862512
_cell_angle_alpha   90.38540224
_cell_angle_beta   89.82194000
_cell_angle_gamma   90.05567187
_symmetry_Int_Tables_number   1
_chemical_formula_structural   La6Ce6Pr19Nd20Sm13(BiS2)64
_chemical_formula_sum   'La6 Ce6 Pr19 Nd20 Sm13 Bi64 S128'
_cell_volume   7065.46977077
_cell_formula_units_Z   1
loop_
 _symmetry_equiv_pos_site_id
 _symmetry_equiv_pos_as_xyz
  1  'x, y, z'
loop_
 _atom_type_symbol
 _atom_type_oxidation_number
  La3+  3.0
  Ce3+  3.0
  Pr3+  3.0
  Nd3+  3.0
  Sm3+  3.0
  Bi2+  2.0
  S2-  -2.0
loop_
 _atom_site_type_symbol
 _atom_site_label
 _atom_site_symmetry_multiplicity
 _atom_site_fract_x
 _atom_site_fract_y
 _atom_site_fract_z
 _atom_site_occupancy
  La3+  La0  1  0.24875671  0.11759789  0.60812978  1
  La3+  La1  1  0.63357585  0.73628726  0.90720923  1
  La3+  La2  1  0.60921330  0.24214800  0.39272459  1
  La3+  La3  1  0.11724428  0.23188802  0.43483964  1
  La3+  La4  1  0.74526182  0.61207457  0.06864655  1
  La3+  La5  1  0.00415334  0.37596234  0.09936328  1
  Ce3+  Ce6  1  0.49119466  0.11372308  0.56560095  1
  Ce3+  Ce7  1  0.50617015  0.61230334  0.05757101  1
  Ce3+  Ce8  1  0.50109441  0.36717460  0.06065483  1
  Ce3+  Ce9  1  0.62636310  -0.01039643  0.94012026  1
  Ce3+  Ce10  1  0.74132665  0.61304529  0.55529182  1
  Ce3+  Ce11  1  0.62009512  0.73953341  0.43007108  1
  Pr3+  Pr12  1  0.24633836  0.11775807  0.06170755  1
  Pr3+  Pr13  1  -0.00724884  0.62675716  0.08027134  1
  Pr3+  Pr14  1  0.25093169  0.36248525  0.06981328  1
  Pr3+  Pr15  1  0.61616893  -0.01043256  0.43643030  1
  Pr3+  Pr16  1  0.25091244  0.86917395  0.06635381  1
  Pr3+  Pr17  1  -0.01147188  0.61145912  0.56442661  1
  Pr3+  Pr18  1  0.49095180  0.86122849  0.56392815  1
  Pr3+  Pr19  1  0.23856723  0.61319979  0.57263898  1
  Pr3+  Pr20  1  0.87468719  -0.01235214  0.93226588  1
  Pr3+  Pr21  1  0.12388800  0.23221351  0.91875271  1
  Pr3+  Pr22  1  0.73898388  0.36516142  0.54976479  1
  Pr3+  Pr23  1  0.00042296  0.12113406  0.05302270  1
  Pr3+  Pr24  1  0.86753462  0.73939762  0.44007732  1
  Pr3+  Pr25  1  0.11719556  -0.00783466  0.45261787  1
  Pr3+  Pr26  1  0.74018295  0.11658733  0.55626157  1
  Pr3+  Pr27  1  0.62840463  0.48808541  0.93354808  1
  Pr3+  Pr28  1  0.50471796  0.86565707  0.05233713  1
  Pr3+  Pr29  1  0.74391590  0.35453217  0.09657978  1
  Pr3+  Pr30  1  -0.01120528  0.86104411  0.57080109  1
  Nd3+  Nd31  1  -0.00090849  0.86683406  0.05745514  1
  Nd3+  Nd32  1  0.37584053  -0.01167531  0.93644079  1
  Nd3+  Nd33  1  0.12819991  -0.01828013  0.93157705  1
  Nd3+  Nd34  1  0.50312626  0.11839268  0.05490019  1
  Nd3+  Nd35  1  0.36770927  -0.00957802  0.44782579  1
  Nd3+  Nd36  1  0.12675555  0.73638509  0.93494353  1
  Nd3+  Nd37  1  0.49266167  0.36659387  0.56152196  1
  Nd3+  Nd38  1  0.24845709  0.62176754  0.06789663  1
  Nd3+  Nd39  1  0.24091999  0.36275823  0.55749923  1
  Nd3+  Nd40  1  0.23960163  0.86240267  0.57016758  1
  Nd3+  Nd41  1  0.37447059  0.24185749  0.93609897  1
  Nd3+  Nd42  1  0.73662323  0.86419021  0.56944477  1
  Nd3+  Nd43  1  0.12477406  0.48797532  0.94629153  1
  Nd3+  Nd44  1  0.37466782  0.48945559  0.93952791  1
  Nd3+  Nd45  1  -0.01121885  0.12715838  0.58160039  1
  Nd3+  Nd46  1  0.87827884  0.48613588  0.95121509  1
  Nd3+  Nd47  1  0.62757685  0.24159414  0.93609194  1
  Nd3+  Nd48  1  0.86659934  0.23331379  0.43172635  1
  Nd3+  Nd49  1  0.86607580  -0.00788447  0.44376068  1
  Nd3+  Nd50  1  0.49700700  0.61972147  0.56476069  1
  Sm3+  Sm51  1  -0.00750685  0.36358483  0.55452607  1
  Sm3+  Sm52  1  0.11550846  0.73698904  0.44909943  1
  Sm3+  Sm53  1  0.61435502  0.49498778  0.43021697  1
  Sm3+  Sm54  1  0.87591550  0.73368532  0.93857913  1
  Sm3+  Sm55  1  0.37196047  0.23955987  0.44456019  1
  Sm3+  Sm56  1  0.87851369  0.24278184  0.94365998  1
  Sm3+  Sm57  1  0.86789707  0.48214176  0.42685894  1
  Sm3+  Sm58  1  0.75443650  0.12111709  0.05480632  1
  Sm3+  Sm59  1  0.36896786  0.49027022  0.44515733  1
  Sm3+  Sm60  1  0.36508237  0.73854927  0.44411604  1
  Sm3+  Sm61  1  0.74910553  0.86489258  0.05589092  1
  Sm3+  Sm62  1  0.37674009  0.73775942  0.94251198  1
  Sm3+  Sm63  1  0.11851367  0.48693284  0.43654007  1
  Bi2+  Bi64  1  -0.00338333  0.17213371  0.30829067  1
  Bi2+  Bi65  1  0.01301769  0.16403710  0.78549297  1
  Bi2+  Bi66  1  0.01819441  0.40681975  0.29302772  1
  Bi2+  Bi67  1  0.01255236  0.47142886  0.77742869  1
  Bi2+  Bi68  1  0.00718982  0.72253982  0.27668771  1
  Bi2+  Bi69  1  0.05350197  0.65691665  0.81804881  1
  Bi2+  Bi70  1  0.06775861  0.90300505  0.31515883  1
  Bi2+  Bi71  1  0.00712150  0.87168504  0.79450896  1
  Bi2+  Bi72  1  0.21729545  0.05706205  0.28549169  1
  Bi2+  Bi73  1  0.26132846  0.13155737  0.80359204  1
  Bi2+  Bi74  1  0.28025694  0.42978854  0.27726424  1
  Bi2+  Bi75  1  0.26682626  0.45307912  0.70494760  1
  Bi2+  Bi76  1  0.23094767  0.62576342  0.29878643  1
  Bi2+  Bi77  1  0.25030181  0.61006203  0.79197402  1
  Bi2+  Bi78  1  0.34332137  0.85427302  0.28299064  1
  Bi2+  Bi79  1  0.27048101  0.83247562  0.78870884  1
  Bi2+  Bi80  1  0.45244437  0.10867139  0.28923925  1
  Bi2+  Bi81  1  0.50519666  0.12960647  0.73960361  1
  Bi2+  Bi82  1  0.47994808  0.38191702  0.28395924  1
  Bi2+  Bi83  1  0.56923527  0.37231262  0.81455252  1
  Bi2+  Bi84  1  0.50782613  0.64877532  0.27823417  1
  Bi2+  Bi85  1  0.49704812  0.55534827  0.78515814  1
  Bi2+  Bi86  1  0.54723256  0.84575189  0.30245800  1
  Bi2+  Bi87  1  0.50682936  0.94735710  0.80074607  1
  Bi2+  Bi88  1  0.72568433  0.05393576  0.28987403  1
  Bi2+  Bi89  1  0.76679593  0.20283562  0.77409829  1
  Bi2+  Bi90  1  0.76418914  0.38840605  0.28632158  1
  Bi2+  Bi91  1  0.76445544  0.39747762  0.80619512  1
  Bi2+  Bi92  1  0.72007241  0.70908726  0.28676375  1
  Bi2+  Bi93  1  0.76515925  0.59014626  0.78005906  1
  Bi2+  Bi94  1  0.73587592  0.87834241  0.34428502  1
  Bi2+  Bi95  1  0.74733111  0.87740133  0.79940932  1
  Bi2+  Bi96  1  0.08794790  -0.00751141  0.20606710  1
  Bi2+  Bi97  1  0.12883470  -0.03210646  0.72539376  1
  Bi2+  Bi98  1  0.12999406  0.24213886  0.20023980  1
  Bi2+  Bi99  1  0.12296366  0.28048467  0.71299092  1
  Bi2+  Bi100  1  0.18766513  0.54637496  0.19866247  1
  Bi2+  Bi101  1  0.09878867  0.52087537  0.66723889  1
  Bi2+  Bi102  1  0.15133897  0.80748815  0.21599674  1
  Bi2+  Bi103  1  0.11926491  0.70635288  0.71098690  1
  Bi2+  Bi104  1  0.36495278  -0.02281961  0.20042295  1
  Bi2+  Bi105  1  0.40317789  -0.03899526  0.70769576  1
  Bi2+  Bi106  1  0.30458959  0.22042149  0.24668915  1
  Bi2+  Bi107  1  0.39804130  0.33486887  0.76046473  1
  Bi2+  Bi108  1  0.38803355  0.45333490  0.17618975  1
  Bi2+  Bi109  1  0.44950008  0.51373562  0.67624154  1
  Bi2+  Bi110  1  0.36620940  0.64451546  0.19667517  1
  Bi2+  Bi111  1  0.37293640  0.70862168  0.72125847  1
  Bi2+  Bi112  1  0.56371457  -0.01602091  0.21495138  1
  Bi2+  Bi113  1  0.66503794  0.03978684  0.70469694  1
  Bi2+  Bi114  1  0.61642724  0.22625938  0.20716658  1
  Bi2+  Bi115  1  0.62399268  0.28357095  0.70674396  1
  Bi2+  Bi116  1  0.57477732  0.50318505  0.21003465  1
  Bi2+  Bi117  1  0.64448587  0.51220935  0.69911757  1
  Bi2+  Bi118  1  0.62436216  0.77784959  0.19399946  1
  Bi2+  Bi119  1  0.61242532  0.78349166  0.70042106  1
  Bi2+  Bi120  1  0.90181194  -0.02836138  0.26146874  1
  Bi2+  Bi121  1  0.87787787  -0.00715294  0.70476444  1
  Bi2+  Bi122  1  0.88392049  0.17945020  0.21819891  1
  Bi2+  Bi123  1  0.88335368  0.35006511  0.71509649  1
  Bi2+  Bi124  1  0.87741906  0.55750841  0.22404301  1
  Bi2+  Bi125  1  0.90303137  0.54269972  0.68585617  1
  Bi2+  Bi126  1  0.88298621  0.80805140  0.19821652  1
  Bi2+  Bi127  1  0.90806036  0.72016742  0.74547590  1
  S2-  S128  1  0.00870194  0.11992424  0.15321522  1
  S2-  S129  1  -0.00545058  0.09913396  0.68499689  1
  S2-  S130  1  -0.04013378  0.31830831  0.19642895  1
  S2-  S131  1  -0.01058092  0.28501148  0.64179083  1
  S2-  S132  1  0.00671820  0.52826224  0.16302612  1
  S2-  S133  1  -0.03603031  0.71201516  0.64722668  1
  S2-  S134  1  0.02136170  0.77521554  0.14102189  1
  S2-  S135  1  0.00276710  0.90660152  0.66772445  1
  S2-  S136  1  0.27020822  0.22358447  0.14221859  1
  S2-  S137  1  0.20177923  0.12515166  0.70940237  1
  S2-  S138  1  0.15417895  0.38600322  0.15463044  1
  S2-  S139  1  0.24308162  0.29081138  0.64772036  1
  S2-  S140  1  0.25408213  0.74806558  0.14055732  1
  S2-  S141  1  0.24991661  0.73374059  0.64746710  1
  S2-  S142  1  0.23428104  0.99873107  0.13800090  1
  S2-  S143  1  0.25182338  0.95020399  0.65655770  1
  S2-  S144  1  0.51277877  0.12652709  0.15410369  1
  S2-  S145  1  0.40868662  0.11739897  0.65265730  1
  S2-  S146  1  0.58638553  0.34936372  0.14638567  1
  S2-  S147  1  0.47993375  0.33667458  0.66051304  1
  S2-  S148  1  0.60804283  0.62202107  0.13908684  1
  S2-  S149  1  0.48757360  0.73585640  0.64227980  1
  S2-  S150  1  0.48296413  0.86110654  0.15207565  1
  S2-  S151  1  0.54982042  0.92966906  0.65397583  1
  S2-  S152  1  0.75184956  0.19165306  0.14515861  1
  S2-  S153  1  0.78375292  0.12125924  0.65390997  1
  S2-  S154  1  0.77373783  0.44284625  0.18460155  1
  S2-  S155  1  0.73902410  0.38214895  0.65055147  1
  S2-  S156  1  0.84189742  0.65626069  0.15010517  1
  S2-  S157  1  0.68759837  0.65381094  0.64581363  1
  S2-  S158  1  0.74370064  0.88642626  0.15345370  1
  S2-  S159  1  0.75920364  0.86593378  0.66930670  1
  S2-  S160  1  0.11039026  0.08932389  0.36727894  1
  S2-  S161  1  0.11430539  0.08189296  0.85115737  1
  S2-  S162  1  0.11299225  0.30750527  0.33956392  1
  S2-  S163  1  0.15456744  0.27017168  0.81961533  1
  S2-  S164  1  0.09191301  0.52610710  0.34239532  1
  S2-  S165  1  0.14395930  0.50052531  0.84653424  1
  S2-  S166  1  0.13214243  0.75207404  0.35246573  1
  S2-  S167  1  0.14262508  0.85379830  0.86009236  1
  S2-  S168  1  0.35136827  -0.00241698  0.34847896  1
  S2-  S169  1  0.33780542  -0.01889623  0.83959471  1
  S2-  S170  1  0.44392136  0.24617401  0.35380396  1
  S2-  S171  1  0.39004131  0.21439839  0.83765642  1
  S2-  S172  1  0.39145006  0.48819912  0.34791740  1
  S2-  S173  1  0.39131581  0.44666795  0.84330688  1
  S2-  S174  1  0.35500404  0.71943172  0.34648203  1
  S2-  S175  1  0.35909642  0.72443730  0.84535655  1
  S2-  S176  1  0.58819859  0.07682797  0.35042996  1
  S2-  S177  1  0.66197934  -0.00623945  0.84473738  1
  S2-  S178  1  0.69920397  0.22740832  0.30006120  1
  S2-  S179  1  0.63503086  0.21255208  0.83802137  1
  S2-  S180  1  0.62233645  0.40336314  0.34527566  1
  S2-  S181  1  0.62629849  0.58887732  0.85035105  1
  S2-  S182  1  0.61710441  0.62205093  0.35712376  1
  S2-  S183  1  0.58826497  0.79696461  0.80763678  1
  S2-  S184  1  0.87812882  0.09833925  0.36370129  1
  S2-  S185  1  0.88586518  -0.02433512  0.83066672  1
  S2-  S186  1  0.88641823  0.32377550  0.34514660  1
  S2-  S187  1  0.90313540  0.22488533  0.84543352  1
  S2-  S188  1  0.85198886  0.51641904  0.32914664  1
  S2-  S189  1  0.87638141  0.50813112  0.85087144  1
  S2-  S190  1  0.87134906  0.73993850  0.33960549  1
  S2-  S191  1  0.78942327  0.74702027  0.85422229  1
  S2-  S192  1  -0.01176489  0.11415037  0.47129404  1
  S2-  S193  1  -0.00248701  0.11341179  0.94903304  1
  S2-  S194  1  -0.00578471  0.36525874  0.45167213  1
  S2-  S195  1  0.00407291  0.36186367  0.94229497  1
  S2-  S196  1  -0.00752179  0.61065306  0.45368759  1
  S2-  S197  1  -0.00045648  0.61502580  0.95937719  1
  S2-  S198  1  -0.00820701  0.86526319  0.45986890  1
  S2-  S199  1  -0.00400041  0.86052429  0.95178472  1
  S2-  S200  1  0.25061922  0.11694395  0.45573712  1
  S2-  S201  1  0.25073996  0.11431182  0.95203588  1
  S2-  S202  1  0.24576105  0.36508174  0.44970359  1
  S2-  S203  1  0.24905791  0.36321913  0.95246941  1
  S2-  S204  1  0.24046639  0.61287032  0.45797761  1
  S2-  S205  1  0.25173572  0.61566136  0.95670522  1
  S2-  S206  1  0.24068822  0.86268406  0.45868689  1
  S2-  S207  1  0.25655876  0.86156128  0.95929323  1
  S2-  S208  1  0.49138826  0.11612022  0.45920811  1
  S2-  S209  1  0.50083203  0.11510238  0.94796781  1
  S2-  S210  1  0.49404720  0.36847076  0.45497728  1
  S2-  S211  1  0.50040527  0.36440447  0.95334295  1
  S2-  S212  1  0.48850253  0.61592025  0.45738499  1
  S2-  S213  1  0.50005364  0.61458465  0.95057189  1
  S2-  S214  1  0.49093863  0.86124504  0.45278952  1
  S2-  S215  1  0.50185697  0.86122340  0.94433711  1
  S2-  S216  1  0.73369239  0.12078432  0.45095389  1
  S2-  S217  1  0.75442319  0.11736108  0.95024079  1
  S2-  S218  1  0.74062942  0.36420361  0.44433697  1
  S2-  S219  1  0.75368487  0.36217369  0.94580229  1
  S2-  S220  1  0.74843305  0.60879367  0.44978011  1
  S2-  S221  1  0.75351021  0.61199185  0.95754442  1
  S2-  S222  1  0.74333051  0.86616903  0.46158882  1
  S2-  S223  1  0.75052544  0.86391057  0.95185410  1
  S2-  S224  1  0.11992275  -0.00939300  0.03791990  1
  S2-  S225  1  0.11564109  -0.00282704  0.55892325  1
  S2-  S226  1  0.12037827  0.24734293  0.04265112  1
  S2-  S227  1  0.11862820  0.23930711  0.54511316  1
  S2-  S228  1  0.12448216  0.49573974  0.05039501  1
  S2-  S229  1  0.11647354  0.48787182  0.54209360  1
  S2-  S230  1  0.12527634  0.74090012  0.03929267  1
  S2-  S231  1  0.11454692  0.73740889  0.55078778  1
  S2-  S232  1  0.37969449  -0.00601941  0.04268544  1
  S2-  S233  1  0.36511847  -0.01247533  0.55206388  1
  S2-  S234  1  0.37964150  0.24219426  0.04152214  1
  S2-  S235  1  0.36832687  0.24124817  0.54707185  1
  S2-  S236  1  0.37273369  0.49348243  0.04600790  1
  S2-  S237  1  0.36576932  0.49270198  0.54941845  1
  S2-  S238  1  0.38189674  0.73760262  0.04509406  1
  S2-  S239  1  0.36266809  0.73695216  0.54537391  1
  S2-  S240  1  0.63109282  -0.00450388  0.04736158  1
  S2-  S241  1  0.61721898  -0.01088211  0.54393643  1
  S2-  S242  1  0.62965183  0.24118384  0.04084527  1
  S2-  S243  1  0.61422570  0.24017098  0.55624667  1
  S2-  S244  1  0.62983572  0.48089436  0.04177523  1
  S2-  S245  1  0.61455573  0.49247580  0.54077174  1
  S2-  S246  1  0.62784553  0.74252709  0.03706579  1
  S2-  S247  1  0.61889975  0.74080792  0.53737201  1
  S2-  S248  1  0.87313242  -0.00876342  0.04430756  1
  S2-  S249  1  0.86602833  -0.01130228  0.55181087  1
  S2-  S250  1  0.87708649  0.25087829  0.04852435  1
  S2-  S251  1  0.86523799  0.24277025  0.54116435  1
  S2-  S252  1  0.87431140  0.48287559  0.05653478  1
  S2-  S253  1  0.86830282  0.48686795  0.53849859  1
  S2-  S254  1  0.87171501  0.74488464  0.04107931  1
  S2-  S255  1  0.86127567  0.74153392  0.54597859  1
