# generated using pymatgen
data_La6Ce6Pr19Nd20Sm13(BiS2)64
_symmetry_space_group_name_H-M   'P 1'
_cell_length_a   16.04599711
_cell_length_b   16.14142469
_cell_length_c   27.29220559
_cell_angle_alpha   90.15113913
_cell_angle_beta   89.89273399
_cell_angle_gamma   90.00570127
_symmetry_Int_Tables_number   1
_chemical_formula_structural   La6Ce6Pr19Nd20Sm13(BiS2)64
_chemical_formula_sum   'La6 Ce6 Pr19 Nd20 Sm13 Bi64 S128'
_cell_volume   7068.78762642
_cell_formula_units_Z   1
loop_
 _symmetry_equiv_pos_site_id
 _symmetry_equiv_pos_as_xyz
  1  'x, y, z'
loop_
 _atom_type_symbol
 _atom_type_oxidation_number
  La3+  3.0
  Ce3+  3.0
  Pr3+  3.0
  Nd3+  3.0
  Sm3+  3.0
  Bi2+  2.0
  S2-  -2.0
loop_
 _atom_site_type_symbol
 _atom_site_label
 _atom_site_symmetry_multiplicity
 _atom_site_fract_x
 _atom_site_fract_y
 _atom_site_fract_z
 _atom_site_occupancy
  La3+  La0  1  0.74266145  0.87816410  0.07624113  1
  La3+  La1  1  0.13186699  -0.00491713  0.91583091  1
  La3+  La2  1  0.87665062  0.49918565  0.39359022  1
  La3+  La3  1  -0.00050162  0.12982514  0.61012255  1
  La3+  La4  1  0.75141331  0.61556999  0.11020944  1
  La3+  La5  1  0.00836573  0.88893275  0.08871342  1
  Ce3+  Ce6  1  0.36201761  0.75155746  0.44896382  1
  Ce3+  Ce7  1  -0.02258369  0.88315833  0.56723503  1
  Ce3+  Ce8  1  0.62702796  0.25130801  0.94128357  1
  Ce3+  Ce9  1  0.11581783  0.50742845  0.92781046  1
  Ce3+  Ce10  1  0.50689179  0.63222088  0.05807781  1
  Ce3+  Ce11  1  0.23494057  0.63199726  0.57000656  1
  Pr3+  Pr12  1  0.00377507  0.62866893  0.06864696  1
  Pr3+  Pr13  1  0.74183146  0.12812943  0.56317520  1
  Pr3+  Pr14  1  0.49689164  0.13183376  0.06450073  1
  Pr3+  Pr15  1  0.74637157  0.12683549  0.07451029  1
  Pr3+  Pr16  1  0.13691244  0.25735857  0.91719765  1
  Pr3+  Pr17  1  0.63263652  0.76028455  0.93166154  1
  Pr3+  Pr18  1  0.74043910  0.37943788  0.55618201  1
  Pr3+  Pr19  1  0.85920667  0.25317620  0.43627429  1
  Pr3+  Pr20  1  0.73665097  0.62627676  0.56212178  1
  Pr3+  Pr21  1  0.12390951  0.75197271  0.93838417  1
  Pr3+  Pr22  1  0.37816795  0.50584550  0.93427456  1
  Pr3+  Pr23  1  0.86788610  0.25003832  0.92742263  1
  Pr3+  Pr24  1  0.60758254  -0.00069621  0.43111442  1
  Pr3+  Pr25  1  0.35379568  0.25286460  0.42889812  1
  Pr3+  Pr26  1  0.63157750  0.00589117  0.92999327  1
  Pr3+  Pr27  1  0.23513183  0.37648891  0.57020744  1
  Pr3+  Pr28  1  0.00284598  0.12905661  0.05093735  1
  Pr3+  Pr29  1  0.73697148  0.87783884  0.55965542  1
  Pr3+  Pr30  1  0.25091930  0.38266934  0.05462556  1
  Nd3+  Nd31  1  0.75264491  0.38228557  0.05497709  1
  Nd3+  Nd32  1  0.48409973  0.12792009  0.55866360  1
  Nd3+  Nd33  1  0.61635917  0.74885188  0.43383137  1
  Nd3+  Nd34  1  0.11013174  0.25080810  0.44516391  1
  Nd3+  Nd35  1  0.11598642  0.50217456  0.44116236  1
  Nd3+  Nd36  1  0.10536861  0.74972790  0.44695139  1
  Nd3+  Nd37  1  0.49044060  0.87913327  0.56431288  1
  Nd3+  Nd38  1  0.24906578  0.63132499  0.06338881  1
  Nd3+  Nd39  1  -0.01488237  0.38057508  0.56803347  1
  Nd3+  Nd40  1  0.00054626  0.38137266  0.04968195  1
  Nd3+  Nd41  1  0.50419448  0.38563315  0.05655273  1
  Nd3+  Nd42  1  0.60659701  0.25248370  0.43874525  1
  Nd3+  Nd43  1  0.61512689  0.50245786  0.43108023  1
  Nd3+  Nd44  1  0.35926655  0.50375244  0.44446756  1
  Nd3+  Nd45  1  0.87916809  0.00245949  0.94383342  1
  Nd3+  Nd46  1  0.36006471  -0.00066886  0.42961629  1
  Nd3+  Nd47  1  -0.01436762  0.62554183  0.58848437  1
  Nd3+  Nd48  1  0.25094222  0.88298150  0.05686859  1
  Nd3+  Nd49  1  0.86734096  0.50322437  0.93098855  1
  Nd3+  Nd50  1  0.87609937  0.75580773  0.95485261  1
  Sm3+  Sm51  1  0.86407555  0.75041622  0.43829377  1
  Sm3+  Sm52  1  0.37671079  0.75315344  0.94275980  1
  Sm3+  Sm53  1  0.24348076  0.12231110  0.56460185  1
  Sm3+  Sm54  1  0.10648195  0.00086571  0.44365767  1
  Sm3+  Sm55  1  0.25472678  0.13041448  0.05401322  1
  Sm3+  Sm56  1  0.62569117  0.51504840  0.92114488  1
  Sm3+  Sm57  1  0.50311897  0.88087752  0.04784486  1
  Sm3+  Sm58  1  0.37741048  0.00778584  0.93175293  1
  Sm3+  Sm59  1  0.38111280  0.25622038  0.93281257  1
  Sm3+  Sm60  1  0.49195220  0.62721682  0.56128986  1
  Sm3+  Sm61  1  0.23348882  0.88043639  0.55725663  1
  Sm3+  Sm62  1  0.85730797  0.00092619  0.43211722  1
  Sm3+  Sm63  1  0.48497851  0.37726332  0.55434164  1
  Bi2+  Bi64  1  -0.04878963  0.15572199  0.27524507  1
  Bi2+  Bi65  1  -0.04389198  0.14788411  0.81193547  1
  Bi2+  Bi66  1  0.03035869  0.33217338  0.29221512  1
  Bi2+  Bi67  1  0.00970960  0.40918961  0.79772950  1
  Bi2+  Bi68  1  0.06342859  0.60256762  0.28377499  1
  Bi2+  Bi69  1  0.05988715  0.67241257  0.80824264  1
  Bi2+  Bi70  1  0.03782195  0.87511791  0.28971249  1
  Bi2+  Bi71  1  -0.02364679  0.89410630  0.80709962  1
  Bi2+  Bi72  1  0.26266448  0.07093843  0.29836566  1
  Bi2+  Bi73  1  0.32971366  0.12370850  0.78524398  1
  Bi2+  Bi74  1  0.30067776  0.36015113  0.30458712  1
  Bi2+  Bi75  1  0.37478553  0.39368435  0.80502286  1
  Bi2+  Bi76  1  0.25913455  0.62105337  0.29721656  1
  Bi2+  Bi77  1  0.26190820  0.65759141  0.79883657  1
  Bi2+  Bi78  1  0.29242598  0.87270751  0.28887541  1
  Bi2+  Bi79  1  0.31951308  0.87015371  0.77644661  1
  Bi2+  Bi80  1  0.44975597  0.12347476  0.27655262  1
  Bi2+  Bi81  1  0.50462359  0.07364121  0.82730463  1
  Bi2+  Bi82  1  0.48069581  0.43720251  0.32064306  1
  Bi2+  Bi83  1  0.52213037  0.27144408  0.82427419  1
  Bi2+  Bi84  1  0.46273575  0.62959099  0.29149303  1
  Bi2+  Bi85  1  0.49800841  0.63232287  0.78624602  1
  Bi2+  Bi86  1  0.49149412  0.90026251  0.27680504  1
  Bi2+  Bi87  1  0.52352127  0.89951288  0.77382326  1
  Bi2+  Bi88  1  0.73711371  0.13076588  0.27915702  1
  Bi2+  Bi89  1  0.71534936  0.09474470  0.79325004  1
  Bi2+  Bi90  1  0.74205836  0.35762036  0.28655330  1
  Bi2+  Bi91  1  0.66684484  0.37198909  0.77491008  1
  Bi2+  Bi92  1  0.65523517  0.64795642  0.30647270  1
  Bi2+  Bi93  1  0.75986540  0.61173213  0.78559260  1
  Bi2+  Bi94  1  0.75470887  0.88220781  0.30366659  1
  Bi2+  Bi95  1  0.74614436  0.79939689  0.78389158  1
  Bi2+  Bi96  1  0.16857372  0.02417707  0.19536410  1
  Bi2+  Bi97  1  0.13630344  0.01434547  0.72014661  1
  Bi2+  Bi98  1  0.12736154  0.20833415  0.22477635  1
  Bi2+  Bi99  1  0.13115937  0.26695386  0.71662839  1
  Bi2+  Bi100  1  0.13912580  0.47772090  0.20078133  1
  Bi2+  Bi101  1  0.16762633  0.51732987  0.73568166  1
  Bi2+  Bi102  1  0.21018464  0.74458209  0.20845074  1
  Bi2+  Bi103  1  0.13543489  0.76691529  0.71518079  1
  Bi2+  Bi104  1  0.36526185  -0.02072738  0.19861681  1
  Bi2+  Bi105  1  0.39997180  -0.02017764  0.69198033  1
  Bi2+  Bi106  1  0.32551921  0.23625211  0.21373258  1
  Bi2+  Bi107  1  0.40345035  0.25220702  0.71065369  1
  Bi2+  Bi108  1  0.34166526  0.51338115  0.20342804  1
  Bi2+  Bi109  1  0.37038935  0.52540288  0.71599221  1
  Bi2+  Bi110  1  0.39311317  0.69872957  0.18012732  1
  Bi2+  Bi111  1  0.33871113  0.72056633  0.69276963  1
  Bi2+  Bi112  1  0.63395606  0.01157095  0.20942519  1
  Bi2+  Bi113  1  0.64525203  0.00658744  0.69909508  1
  Bi2+  Bi114  1  0.63142017  0.27624634  0.20670675  1
  Bi2+  Bi115  1  0.59234079  0.19070032  0.71632794  1
  Bi2+  Bi116  1  0.53986073  0.47143805  0.21428152  1
  Bi2+  Bi117  1  0.56999202  0.48827040  0.70934250  1
  Bi2+  Bi118  1  0.58814732  0.76376047  0.19685114  1
  Bi2+  Bi119  1  0.53215832  0.74751977  0.69323376  1
  Bi2+  Bi120  1  0.90799705  -0.00635251  0.21379977  1
  Bi2+  Bi121  1  0.86994818  -0.01986489  0.70687174  1
  Bi2+  Bi122  1  0.82481035  0.23441666  0.19479076  1
  Bi2+  Bi123  1  0.84418287  0.26970240  0.71057487  1
  Bi2+  Bi124  1  0.88758955  0.47396281  0.20685705  1
  Bi2+  Bi125  1  0.85895879  0.51385068  0.70681973  1
  Bi2+  Bi126  1  0.85740820  0.71507867  0.23343164  1
  Bi2+  Bi127  1  0.94099315  0.72029161  0.72262229  1
  S2-  S128  1  0.01775607  0.04991986  0.14094305  1
  S2-  S129  1  0.00555589  0.12429943  0.72168090  1
  S2-  S130  1  0.00991010  0.40311928  0.14909934  1
  S2-  S131  1  -0.01334958  0.28974680  0.65703482  1
  S2-  S132  1  -0.08729073  0.61673471  0.15631126  1
  S2-  S133  1  -0.01186324  0.49026023  0.65172750  1
  S2-  S134  1  -0.03686611  0.84290514  0.18891946  1
  S2-  S135  1  0.01912795  0.96364779  0.65363079  1
  S2-  S136  1  0.36020939  0.13039948  0.13447165  1
  S2-  S137  1  0.16633050  0.14390532  0.65326151  1
  S2-  S138  1  0.25553390  0.37369651  0.15499183  1
  S2-  S139  1  0.21684957  0.38210454  0.67106294  1
  S2-  S140  1  0.13775114  0.62454665  0.14144368  1
  S2-  S141  1  0.14086136  0.63185298  0.65310449  1
  S2-  S142  1  0.16492518  0.87631874  0.14361261  1
  S2-  S143  1  0.24827772  0.93457743  0.65058865  1
  S2-  S144  1  0.60591135  0.13224280  0.14481661  1
  S2-  S145  1  0.37568353  0.12695135  0.63614157  1
  S2-  S146  1  0.49649053  0.34267694  0.15345212  1
  S2-  S147  1  0.48644614  0.36661178  0.65170118  1
  S2-  S148  1  0.57933289  0.60762194  0.14498092  1
  S2-  S149  1  0.60451889  0.61512246  0.63672897  1
  S2-  S150  1  0.56878193  0.89470282  0.13855965  1
  S2-  S151  1  0.61475069  0.87259640  0.63639787  1
  S2-  S152  1  0.77269852  0.00337279  0.14898392  1
  S2-  S153  1  0.83010656  0.12576831  0.65097209  1
  S2-  S154  1  0.76059495  0.44717145  0.14726984  1
  S2-  S155  1  0.76515416  0.37616767  0.65785102  1
  S2-  S156  1  0.73663952  0.60531089  0.22616102  1
  S2-  S157  1  0.83873394  0.65032911  0.64714334  1
  S2-  S158  1  0.74645309  0.77337260  0.16047007  1
  S2-  S159  1  0.84491532  0.87379831  0.64014795  1
  S2-  S160  1  0.12913243  -0.01513044  0.34528909  1
  S2-  S161  1  0.08031819  0.03593953  0.82031897  1
  S2-  S162  1  0.21286069  0.25542999  0.36278525  1
  S2-  S163  1  0.08823776  0.25687206  0.81983525  1
  S2-  S164  1  0.04603485  0.47147574  0.35045531  1
  S2-  S165  1  0.16664159  0.46254495  0.83707343  1
  S2-  S166  1  0.07325549  0.74647029  0.34791872  1
  S2-  S167  1  0.10950949  0.84122771  0.85175297  1
  S2-  S168  1  0.48224853  0.01308504  0.35654543  1
  S2-  S169  1  0.28415239  -0.00815265  0.84941249  1
  S2-  S170  1  0.45291984  0.26096439  0.34320240  1
  S2-  S171  1  0.28685931  0.25323523  0.85080077  1
  S2-  S172  1  0.25219393  0.49668110  0.36635715  1
  S2-  S173  1  0.48602531  0.50046810  0.85403200  1
  S2-  S174  1  0.35945565  0.74903442  0.35126536  1
  S2-  S175  1  0.38911344  0.74978584  0.84507068  1
  S2-  S176  1  0.73014799  0.01445596  0.35925160  1
  S2-  S177  1  0.64872902  -0.11811294  0.85407687  1
  S2-  S178  1  0.67542122  0.24327545  0.34762398  1
  S2-  S179  1  0.72336001  0.20903523  0.86430883  1
  S2-  S180  1  0.71366879  0.50325952  0.34835232  1
  S2-  S181  1  0.73987409  0.47590218  0.84681258  1
  S2-  S182  1  0.60244309  0.82575001  0.34438033  1
  S2-  S183  1  0.63062243  0.65737305  0.84847441  1
  S2-  S184  1  0.91086672  -0.07239742  0.34245482  1
  S2-  S185  1  0.85121371  0.01429877  0.84390341  1
  S2-  S186  1  0.88113911  0.33881841  0.34834448  1
  S2-  S187  1  0.89043121  0.31395838  0.82886426  1
  S2-  S188  1  0.90496971  0.57436682  0.29677340  1
  S2-  S189  1  0.97099166  0.54075998  0.85395506  1
  S2-  S190  1  0.80093045  0.73907164  0.34562665  1
  S2-  S191  1  0.86407670  0.77752909  0.85299482  1
  S2-  S192  1  -0.01373817  0.12500252  0.43551453  1
  S2-  S193  1  0.00656036  0.13238571  0.94364167  1
  S2-  S194  1  -0.01112395  0.37654468  0.45902421  1
  S2-  S195  1  0.00082827  0.37257779  0.94477098  1
  S2-  S196  1  -0.01780960  0.62332061  0.44521678  1
  S2-  S197  1  -0.00081912  0.63124521  0.96053150  1
  S2-  S198  1  -0.01555582  0.87774405  0.45815073  1
  S2-  S199  1  0.00272213  0.88138459  0.95824569  1
  S2-  S200  1  0.23580062  0.11894318  0.45757013  1
  S2-  S201  1  0.25373938  0.13063538  0.95080962  1
  S2-  S202  1  0.23626280  0.37677923  0.46496424  1
  S2-  S203  1  0.25298048  0.38230374  0.94963993  1
  S2-  S204  1  0.23586574  0.63186304  0.46341819  1
  S2-  S205  1  0.25205848  0.62898302  0.95294867  1
  S2-  S206  1  0.23342944  0.87650446  0.45198481  1
  S2-  S207  1  0.25640533  0.87590539  0.95211176  1
  S2-  S208  1  0.48113045  0.13001385  0.45452040  1
  S2-  S209  1  0.49980400  0.12910332  0.95489601  1
  S2-  S210  1  0.48455298  0.37995194  0.45164652  1
  S2-  S211  1  0.50454915  0.37981617  0.95187511  1
  S2-  S212  1  0.48745332  0.62573890  0.45466829  1
  S2-  S213  1  0.50122883  0.63373987  0.95325482  1
  S2-  S214  1  0.48583101  0.87418979  0.45702659  1
  S2-  S215  1  0.49637579  0.88196187  0.94470403  1
  S2-  S216  1  0.73424012  0.13054008  0.45735169  1
  S2-  S217  1  0.75355130  0.12387236  0.96653789  1
  S2-  S218  1  0.73430658  0.37709547  0.45152882  1
  S2-  S219  1  0.74744641  0.37791177  0.95098635  1
  S2-  S220  1  0.73915080  0.62598981  0.45318090  1
  S2-  S221  1  0.75342476  0.63118100  0.94786026  1
  S2-  S222  1  0.73789808  0.87342266  0.45388235  1
  S2-  S223  1  0.75429165  0.88358558  0.96300543  1
  S2-  S224  1  0.13365154  0.00879292  0.03516826  1
  S2-  S225  1  0.11268022  0.00611631  0.54630915  1
  S2-  S226  1  0.12958502  0.25382960  0.04366406  1
  S2-  S227  1  0.11300812  0.24843135  0.54980087  1
  S2-  S228  1  0.12706851  0.50387153  0.03690119  1
  S2-  S229  1  0.11394233  0.50569381  0.54868907  1
  S2-  S230  1  0.12723141  0.75778561  0.04366689  1
  S2-  S231  1  0.10720315  0.75745006  0.55316048  1
  S2-  S232  1  0.37684224  0.00251220  0.03684549  1
  S2-  S233  1  0.36261216  -0.00392567  0.53658535  1
  S2-  S234  1  0.37661179  0.25989619  0.03748044  1
  S2-  S235  1  0.36021900  0.25619869  0.54062915  1
  S2-  S236  1  0.37667214  0.50889148  0.04495237  1
  S2-  S237  1  0.36334402  0.50519156  0.55355910  1
  S2-  S238  1  0.37556468  0.75745386  0.04709160  1
  S2-  S239  1  0.36450292  0.75516828  0.55454134  1
  S2-  S240  1  0.62124736  0.00669706  0.03726981  1
  S2-  S241  1  0.61031057  0.00831557  0.54060073  1
  S2-  S242  1  0.62645816  0.25814544  0.04611225  1
  S2-  S243  1  0.60941567  0.25276883  0.54815769  1
  S2-  S244  1  0.62927113  0.50608308  0.03798243  1
  S2-  S245  1  0.60808275  0.49790974  0.53811565  1
  S2-  S246  1  0.62433895  0.75601442  0.04002918  1
  S2-  S247  1  0.60944371  0.75104172  0.53794392  1
  S2-  S248  1  0.87982468  0.00301786  0.04750073  1
  S2-  S249  1  0.86179954  0.00651080  0.53811827  1
  S2-  S250  1  0.87633717  0.25415794  0.04278656  1
  S2-  S251  1  0.86479538  0.25262081  0.54375749  1
  S2-  S252  1  0.87668959  0.50526300  0.03954631  1
  S2-  S253  1  0.86262409  0.50428035  0.54873116  1
  S2-  S254  1  0.88317018  0.76114989  0.05835171  1
  S2-  S255  1  0.86617863  0.74791648  0.54056725  1
