# generated using pymatgen
data_La6Ce6Pr19Nd20Sm13(BiS2)64
_symmetry_space_group_name_H-M   'P 1'
_cell_length_a   16.01857972
_cell_length_b   16.08900159
_cell_length_c   27.23306727
_cell_angle_alpha   89.95941157
_cell_angle_beta   90.02415348
_cell_angle_gamma   89.93068058
_symmetry_Int_Tables_number   1
_chemical_formula_structural   La6Ce6Pr19Nd20Sm13(BiS2)64
_chemical_formula_sum   'La6 Ce6 Pr19 Nd20 Sm13 Bi64 S128'
_cell_volume   7018.57903533
_cell_formula_units_Z   1
loop_
 _symmetry_equiv_pos_site_id
 _symmetry_equiv_pos_as_xyz
  1  'x, y, z'
loop_
 _atom_type_symbol
 _atom_type_oxidation_number
  La3+  3.0
  Ce3+  3.0
  Pr3+  3.0
  Nd3+  3.0
  Sm3+  3.0
  Bi2+  2.0
  S2-  -2.0
loop_
 _atom_site_type_symbol
 _atom_site_label
 _atom_site_symmetry_multiplicity
 _atom_site_fract_x
 _atom_site_fract_y
 _atom_site_fract_z
 _atom_site_occupancy
  La3+  La0  1  0.24074105  0.12036283  0.10005231  1
  La3+  La1  1  0.36997061  0.25788900  0.42874762  1
  La3+  La2  1  0.11673097  0.25626321  0.42142757  1
  La3+  La3  1  0.36408098  -0.00528016  0.93539798  1
  La3+  La4  1  0.87146595  0.27461657  0.38118547  1
  La3+  La5  1  0.76427186  0.61070113  0.11750684  1
  Ce3+  Ce6  1  0.11865539  0.50124634  0.43471314  1
  Ce3+  Ce7  1  0.62753274  0.25435124  0.45218328  1
  Ce3+  Ce8  1  0.86866608  0.01155204  0.43870189  1
  Ce3+  Ce9  1  0.74140304  0.87190241  0.55950217  1
  Ce3+  Ce10  1  0.36342353  0.74231832  0.94000960  1
  Ce3+  Ce11  1  0.36656063  0.50084814  0.43685956  1
  Pr3+  Pr12  1  0.49098207  0.86738851  0.06437818  1
  Pr3+  Pr13  1  0.61560204  0.75301515  0.43862563  1
  Pr3+  Pr14  1  0.49679587  0.62913835  0.56580726  1
  Pr3+  Pr15  1  0.49879081  0.61353473  0.06287737  1
  Pr3+  Pr16  1  -0.00860217  0.86785907  0.06558425  1
  Pr3+  Pr17  1  0.73797275  0.36989480  0.04807410  1
  Pr3+  Pr18  1  0.62209315  0.50064037  0.44404606  1
  Pr3+  Pr19  1  0.24006628  0.37648255  0.56848307  1
  Pr3+  Pr20  1  0.37622875  0.00554135  0.42780813  1
  Pr3+  Pr21  1  0.86919869  0.24269945  0.92967278  1
  Pr3+  Pr22  1  0.10950930  0.74447557  0.92506096  1
  Pr3+  Pr23  1  0.61845223  0.00596285  0.44642174  1
  Pr3+  Pr24  1  0.74744075  0.12609245  0.57658313  1
  Pr3+  Pr25  1  0.73218741  0.86526681  0.06892408  1
  Pr3+  Pr26  1  0.77692007  0.62790334  0.62032673  1
  Pr3+  Pr27  1  0.86891846  0.75621285  0.43633506  1
  Pr3+  Pr28  1  0.49100754  0.37934668  0.57251545  1
  Pr3+  Pr29  1  0.36359440  0.24151705  0.93562285  1
  Pr3+  Pr30  1  0.61043403  0.49410839  0.92224616  1
  Nd3+  Nd31  1  0.86060133  0.74888378  0.94078140  1
  Nd3+  Nd32  1  0.73872873  0.38323747  0.57837926  1
  Nd3+  Nd33  1  -0.00704635  0.61859579  0.05917559  1
  Nd3+  Nd34  1  0.48817531  0.11832336  0.05848414  1
  Nd3+  Nd35  1  0.24054203  0.61574299  0.06368200  1
  Nd3+  Nd36  1  0.60998125  0.74451000  0.93222957  1
  Nd3+  Nd37  1  -0.00602228  0.13289313  0.55604799  1
  Nd3+  Nd38  1  -0.00953918  0.11290405  0.06529351  1
  Nd3+  Nd39  1  0.86219134  0.49352637  0.93979035  1
  Nd3+  Nd40  1  0.24059656  0.86709430  0.06449686  1
  Nd3+  Nd41  1  0.36433174  0.75359235  0.43742487  1
  Nd3+  Nd42  1  0.24196634  0.37085120  0.06484488  1
  Nd3+  Nd43  1  0.12070125  0.24118659  0.93866362  1
  Nd3+  Nd44  1  0.73589549  0.11966778  0.05188774  1
  Nd3+  Nd45  1  0.11535238  0.49127809  0.93479988  1
  Nd3+  Nd46  1  0.49648055  0.12811663  0.57004788  1
  Nd3+  Nd47  1  0.36148424  0.49303540  0.93190313  1
  Nd3+  Nd48  1  -0.00987083  0.36115787  0.06869362  1
  Nd3+  Nd49  1  0.24701871  0.62745826  0.56713506  1
  Nd3+  Nd50  1  0.23775913  0.88290089  0.55997071  1
  Sm3+  Sm51  1  -0.00482676  0.88064112  0.56137210  1
  Sm3+  Sm52  1  0.11960235  -0.00566104  0.94028157  1
  Sm3+  Sm53  1  -0.00381186  0.37906041  0.55710511  1
  Sm3+  Sm54  1  0.61189427  0.24053349  0.89504138  1
  Sm3+  Sm55  1  0.86667794  0.50227342  0.44962417  1
  Sm3+  Sm56  1  0.48186367  0.87952814  0.57064832  1
  Sm3+  Sm57  1  -0.00277566  0.63042445  0.55469990  1
  Sm3+  Sm58  1  0.11804497  0.75459986  0.43970780  1
  Sm3+  Sm59  1  0.86386258  -0.00561816  0.94554514  1
  Sm3+  Sm60  1  0.11901837  0.00619393  0.43514293  1
  Sm3+  Sm61  1  0.49179014  0.36813890  0.04796027  1
  Sm3+  Sm62  1  0.24641074  0.13106007  0.55313594  1
  Sm3+  Sm63  1  0.61158344  -0.00347441  0.92549435  1
  Bi2+  Bi64  1  -0.04700057  0.07167223  0.28448739  1
  Bi2+  Bi65  1  0.05929426  0.15194746  0.81221994  1
  Bi2+  Bi66  1  0.04818889  0.55118446  0.30766084  1
  Bi2+  Bi67  1  0.04200381  0.35345516  0.83144655  1
  Bi2+  Bi68  1  0.02422440  0.74241994  0.27643809  1
  Bi2+  Bi69  1  0.07533130  0.68642887  0.79020675  1
  Bi2+  Bi70  1  -0.10426666  0.88812733  0.32000112  1
  Bi2+  Bi71  1  0.03235795  0.94872737  0.80291059  1
  Bi2+  Bi72  1  0.17337379  0.10334305  0.29911385  1
  Bi2+  Bi73  1  0.25514323  0.11158097  0.78954718  1
  Bi2+  Bi74  1  0.25121952  0.38272177  0.30020406  1
  Bi2+  Bi75  1  0.22549833  0.36926181  0.78483838  1
  Bi2+  Bi76  1  0.24757675  0.57618037  0.32304030  1
  Bi2+  Bi77  1  0.27445374  0.61269525  0.78874694  1
  Bi2+  Bi78  1  0.27857781  0.81248275  0.28222592  1
  Bi2+  Bi79  1  0.21258532  0.86446129  0.78885852  1
  Bi2+  Bi80  1  0.42124082  0.11689057  0.30317736  1
  Bi2+  Bi81  1  0.49993601  0.10531216  0.78466689  1
  Bi2+  Bi82  1  0.49316891  0.29784457  0.28789145  1
  Bi2+  Bi83  1  0.47532113  0.36617051  0.77992315  1
  Bi2+  Bi84  1  0.41827591  0.61590119  0.26948972  1
  Bi2+  Bi85  1  0.52447947  0.62099685  0.79242551  1
  Bi2+  Bi86  1  0.50902040  0.88221818  0.28737330  1
  Bi2+  Bi87  1  0.44022484  0.85996383  0.78431752  1
  Bi2+  Bi88  1  0.68582449  0.09033846  0.29704956  1
  Bi2+  Bi89  1  0.86583111  0.12155649  0.79310515  1
  Bi2+  Bi90  1  0.71559633  0.37184803  0.29076647  1
  Bi2+  Bi91  1  0.88028751  0.38931099  0.76670413  1
  Bi2+  Bi92  1  0.74610937  0.59561987  0.32559340  1
  Bi2+  Bi93  1  0.80141740  0.64935046  0.81992951  1
  Bi2+  Bi94  1  0.70404707  0.87690539  0.29539726  1
  Bi2+  Bi95  1  0.77629489  0.87987192  0.77623654  1
  Bi2+  Bi96  1  0.09970504  -0.09922277  0.20436164  1
  Bi2+  Bi97  1  0.12854256  0.02189979  0.70595936  1
  Bi2+  Bi98  1  0.08777556  0.27270760  0.20989370  1
  Bi2+  Bi99  1  0.04597790  0.28250701  0.71990166  1
  Bi2+  Bi100  1  0.15890156  0.54026274  0.21298546  1
  Bi2+  Bi101  1  0.19589376  0.49531057  0.69079593  1
  Bi2+  Bi102  1  0.11172723  0.72162224  0.15686042  1
  Bi2+  Bi103  1  0.13034549  0.68173952  0.67818857  1
  Bi2+  Bi104  1  0.38483250  -0.09207482  0.19523289  1
  Bi2+  Bi105  1  0.40362130  -0.00412956  0.70619586  1
  Bi2+  Bi106  1  0.34994020  0.23272855  0.21975029  1
  Bi2+  Bi107  1  0.30209234  0.24133365  0.70654378  1
  Bi2+  Bi108  1  0.38777875  0.44964581  0.21223208  1
  Bi2+  Bi109  1  0.39947586  0.50931417  0.71419158  1
  Bi2+  Bi110  1  0.30950943  0.70917131  0.18265218  1
  Bi2+  Bi111  1  0.32627743  0.75369750  0.71313799  1
  Bi2+  Bi112  1  0.54278558  0.03783420  0.19595856  1
  Bi2+  Bi113  1  0.66634401  0.03201884  0.73881680  1
  Bi2+  Bi114  1  0.62399158  0.21457307  0.21544909  1
  Bi2+  Bi115  1  0.67518462  0.25320966  0.71588378  1
  Bi2+  Bi116  1  0.62207617  0.48326978  0.20964814  1
  Bi2+  Bi117  1  0.66166478  0.50049627  0.71871186  1
  Bi2+  Bi118  1  0.50743366  0.75154424  0.19494016  1
  Bi2+  Bi119  1  0.62529537  0.76417221  0.70899189  1
  Bi2+  Bi120  1  0.78976226  -0.00185482  0.21682066  1
  Bi2+  Bi121  1  0.84237773  -0.00387270  0.68646680  1
  Bi2+  Bi122  1  0.82655262  0.28473635  0.18281302  1
  Bi2+  Bi123  1  0.86168594  0.20941803  0.68781820  1
  Bi2+  Bi124  1  0.91810249  0.50161049  0.22356835  1
  Bi2+  Bi125  1  1.01029467  0.54041602  0.72446985  1
  Bi2+  Bi126  1  0.90944271  0.84224924  0.19226645  1
  Bi2+  Bi127  1  0.97780375  0.85445784  0.70663321  1
  S2-  S128  1  -0.02289196  0.22695378  0.14240967  1
  S2-  S129  1  -0.01275790  0.08771612  0.65396721  1
  S2-  S130  1  0.02748828  0.42223262  0.16288023  1
  S2-  S131  1  0.09927069  0.36587400  0.63767200  1
  S2-  S132  1  -0.06772560  0.61184322  0.15464550  1
  S2-  S133  1  -0.05028139  0.64362383  0.64924248  1
  S2-  S134  1  -0.00940701  0.98631516  0.14291115  1
  S2-  S135  1  0.10789426  0.88424536  0.63789061  1
  S2-  S136  1  0.14701152  0.12453375  0.19976097  1
  S2-  S137  1  0.20031220  0.14309386  0.64865794  1
  S2-  S138  1  0.22829276  0.28009367  0.15051195  1
  S2-  S139  1  0.36268665  0.37920777  0.64494453  1
  S2-  S140  1  0.26169276  0.49588639  0.13942157  1
  S2-  S141  1  0.37191238  0.63497555  0.64109099  1
  S2-  S142  1  0.23765287  0.96161154  0.14928430  1
  S2-  S143  1  0.34255915  0.88586652  0.63952309  1
  S2-  S144  1  0.40230041  0.12530722  0.14704591  1
  S2-  S145  1  0.41790935  0.14871933  0.65941023  1
  S2-  S146  1  0.50205453  0.40932543  0.14491869  1
  S2-  S147  1  0.60356904  0.37001918  0.65630045  1
  S2-  S148  1  0.59347781  0.61622388  0.14851510  1
  S2-  S149  1  0.60155017  0.62258296  0.65156494  1
  S2-  S150  1  0.60039247  0.90398225  0.14223616  1
  S2-  S151  1  0.54923970  0.88448969  0.66467154  1
  S2-  S152  1  0.76320675  0.13011868  0.15115880  1
  S2-  S153  1  0.62803180  0.12794693  0.65315330  1
  S2-  S154  1  0.74734727  0.42949753  0.14420673  1
  S2-  S155  1  0.79084536  0.46540323  0.66338566  1
  S2-  S156  1  0.75947640  0.58713524  0.22778060  1
  S2-  S157  1  0.76729647  0.64016240  0.72865133  1
  S2-  S158  1  0.77203245  0.77588656  0.15380592  1
  S2-  S159  1  0.75449750  0.79808366  0.64725971  1
  S2-  S160  1  0.07462439  -0.01919220  0.33984419  1
  S2-  S161  1  0.23587194  -0.00998826  0.86102086  1
  S2-  S162  1  0.02515287  0.20069750  0.33410390  1
  S2-  S163  1  0.23951684  0.24035827  0.85904688  1
  S2-  S164  1  0.09766183  0.40140479  0.35453994  1
  S2-  S165  1  0.23422098  0.49296695  0.85889599  1
  S2-  S166  1  0.16313896  0.76158077  0.34436471  1
  S2-  S167  1  0.24987630  0.74252933  0.86054137  1
  S2-  S168  1  0.29814298  0.00095842  0.33527546  1
  S2-  S169  1  0.47868904  -0.02260059  0.85500240  1
  S2-  S170  1  0.24958517  0.23515604  0.34991398  1
  S2-  S171  1  0.45519540  0.23375303  0.84585158  1
  S2-  S172  1  0.39528459  0.39437191  0.35940548  1
  S2-  S173  1  0.46949632  0.49367012  0.85143075  1
  S2-  S174  1  0.41577811  0.76712245  0.34209829  1
  S2-  S175  1  0.47856054  0.73796803  0.85822253  1
  S2-  S176  1  0.52297778  0.01640071  0.36080203  1
  S2-  S177  1  0.64332432  0.09611600  0.84178911  1
  S2-  S178  1  0.69185086  0.26079256  0.36119801  1
  S2-  S179  1  0.62691271  0.33232722  0.80829642  1
  S2-  S180  1  0.61282680  0.49798520  0.34117150  1
  S2-  S181  1  0.67198013  0.54264452  0.82746157  1
  S2-  S182  1  0.64656823  0.72790953  0.33966945  1
  S2-  S183  1  0.69387149  0.78354470  0.84115366  1
  S2-  S184  1  0.83366103  0.10208265  0.35570926  1
  S2-  S185  1  0.86477262  -0.03524176  0.84860496  1
  S2-  S186  1  0.86945243  0.29765601  0.27302173  1
  S2-  S187  1  0.82035244  0.26537288  0.83343882  1
  S2-  S188  1  0.84493903  0.45094460  0.35659974  1
  S2-  S189  1  0.89742654  0.50460578  0.84123546  1
  S2-  S190  1  0.88424214  0.70988440  0.33853260  1
  S2-  S191  1  0.96120249  0.74153312  0.85748254  1
  S2-  S192  1  -0.00552616  0.12908354  0.45113367  1
  S2-  S193  1  -0.00830229  0.11548786  0.95296938  1
  S2-  S194  1  -0.01673454  0.37309075  0.45444792  1
  S2-  S195  1  -0.00971757  0.36783308  0.95765410  1
  S2-  S196  1  -0.00552439  0.62833977  0.44958559  1
  S2-  S197  1  -0.00986168  0.61465519  0.95330033  1
  S2-  S198  1  -0.00288646  0.88058642  0.45591127  1
  S2-  S199  1  -0.00855027  0.87443828  0.95738655  1
  S2-  S200  1  0.24521742  0.12460418  0.44995384  1
  S2-  S201  1  0.23887950  0.11717565  0.96033463  1
  S2-  S202  1  0.24248627  0.38132548  0.45821498  1
  S2-  S203  1  0.23914776  0.36865301  0.95897981  1
  S2-  S204  1  0.24101776  0.63029613  0.45764590  1
  S2-  S205  1  0.23540294  0.61754567  0.95932139  1
  S2-  S206  1  0.24110713  0.88024927  0.45172852  1
  S2-  S207  1  0.23645889  0.86622271  0.95972141  1
  S2-  S208  1  0.49541327  0.13527389  0.46107008  1
  S2-  S209  1  0.49837490  0.12431310  0.95211166  1
  S2-  S210  1  0.49834552  0.37686888  0.46315625  1
  S2-  S211  1  0.49718589  0.35964786  0.94562662  1
  S2-  S212  1  0.49073884  0.62705326  0.45234568  1
  S2-  S213  1  0.48753357  0.61594890  0.95577706  1
  S2-  S214  1  0.49039972  0.87703655  0.45867345  1
  S2-  S215  1  0.49035994  0.86960537  0.95792316  1
  S2-  S216  1  0.74266263  0.12564149  0.46982545  1
  S2-  S217  1  0.74057828  0.12115891  0.94692396  1
  S2-  S218  1  0.74806521  0.37910848  0.46790597  1
  S2-  S219  1  0.73558488  0.36350512  0.94045072  1
  S2-  S220  1  0.74590126  0.62923597  0.45189873  1
  S2-  S221  1  0.74138297  0.62043489  0.94209740  1
  S2-  S222  1  0.74345941  0.88034469  0.45145173  1
  S2-  S223  1  0.73696774  0.87534078  0.95455853  1
  S2-  S224  1  0.11894744  -0.00504705  0.04401087  1
  S2-  S225  1  0.11750990  0.00967816  0.53959976  1
  S2-  S226  1  0.11571423  0.23893591  0.04510881  1
  S2-  S227  1  0.11854191  0.25172749  0.53554802  1
  S2-  S228  1  0.11195581  0.49139514  0.04264686  1
  S2-  S229  1  0.11767731  0.50710530  0.54237516  1
  S2-  S230  1  0.11634110  0.74382641  0.03760298  1
  S2-  S231  1  0.11934750  0.75215191  0.54237638  1
  S2-  S232  1  0.36519366  -0.00754436  0.04497075  1
  S2-  S233  1  0.36830261  0.00859407  0.53992731  1
  S2-  S234  1  0.36591291  0.24607413  0.04399801  1
  S2-  S235  1  0.36774303  0.25168494  0.54162730  1
  S2-  S236  1  0.36962414  0.49322002  0.03780646  1
  S2-  S237  1  0.36663597  0.50398437  0.54204431  1
  S2-  S238  1  0.36624757  0.74001333  0.04825400  1
  S2-  S239  1  0.36413630  0.75528302  0.54170969  1
  S2-  S240  1  0.61356659  -0.00213982  0.03416277  1
  S2-  S241  1  0.61591531  -0.00171660  0.55225554  1
  S2-  S242  1  0.61274343  0.24423442  0.05531606  1
  S2-  S243  1  0.62018250  0.25267671  0.55459661  1
  S2-  S244  1  0.61419325  0.48954887  0.03202329  1
  S2-  S245  1  0.61742560  0.50178028  0.54980770  1
  S2-  S246  1  0.61410930  0.74264576  0.03969999  1
  S2-  S247  1  0.60676352  0.76303532  0.54504338  1
  S2-  S248  1  0.85859917  -0.00822255  0.04785726  1
  S2-  S249  1  0.87048454  0.00041089  0.54701355  1
  S2-  S250  1  0.86406940  0.24101691  0.03742765  1
  S2-  S251  1  0.87046422  0.25877689  0.56349517  1
  S2-  S252  1  0.86738191  0.49489732  0.04533963  1
  S2-  S253  1  0.87425762  0.50623985  0.55303923  1
  S2-  S254  1  0.86639024  0.74229398  0.04498999  1
  S2-  S255  1  0.87536968  0.75497264  0.54433015  1
