# generated using pymatgen
data_La6Ce6Pr19Nd20Sm13(BiS2)64
_symmetry_space_group_name_H-M   'P 1'
_cell_length_a   16.19360699
_cell_length_b   16.17457577
_cell_length_c   27.15888935
_cell_angle_alpha   89.95186273
_cell_angle_beta   89.95053541
_cell_angle_gamma   90.00012266
_symmetry_Int_Tables_number   1
_chemical_formula_structural   La6Ce6Pr19Nd20Sm13(BiS2)64
_chemical_formula_sum   'La6 Ce6 Pr19 Nd20 Sm13 Bi64 S128'
_cell_volume   7113.57941613
_cell_formula_units_Z   1
loop_
 _symmetry_equiv_pos_site_id
 _symmetry_equiv_pos_as_xyz
  1  'x, y, z'
loop_
 _atom_type_symbol
 _atom_type_oxidation_number
  La3+  3.0
  Ce3+  3.0
  Pr3+  3.0
  Nd3+  3.0
  Sm3+  3.0
  Bi2+  2.0
  S2-  -2.0
loop_
 _atom_site_type_symbol
 _atom_site_label
 _atom_site_symmetry_multiplicity
 _atom_site_fract_x
 _atom_site_fract_y
 _atom_site_fract_z
 _atom_site_occupancy
  La3+  La0  1  0.63448571  0.24371758  0.92626366  1
  La3+  La1  1  0.63749803  0.73149997  0.91701820  1
  La3+  La2  1  0.49997882  0.12825067  0.56497475  1
  La3+  La3  1  0.37373431  0.73430338  0.90449989  1
  La3+  La4  1  0.13317929  0.25275033  0.38762186  1
  La3+  La5  1  0.87161013  0.25329873  0.38829121  1
  Ce3+  Ce6  1  0.25323694  0.61816675  0.05986605  1
  Ce3+  Ce7  1  0.37293364  0.25164155  0.43769351  1
  Ce3+  Ce8  1  -0.00061749  0.62450191  0.55190767  1
  Ce3+  Ce9  1  0.62731465  0.24995219  0.43450318  1
  Ce3+  Ce10  1  0.87893684  0.49276849  0.94589420  1
  Ce3+  Ce11  1  0.87950352  0.74471049  0.94526057  1
  Pr3+  Pr12  1  0.75049527  0.12795729  0.56169424  1
  Pr3+  Pr13  1  -0.00090168  0.87485191  0.55911220  1
  Pr3+  Pr14  1  0.24541454  0.12549401  0.55645396  1
  Pr3+  Pr15  1  0.12751807  0.49188991  0.94863977  1
  Pr3+  Pr16  1  0.75232603  0.11624635  0.06616998  1
  Pr3+  Pr17  1  0.62637628  -0.00526882  0.93107422  1
  Pr3+  Pr18  1  0.87370052  0.75144665  0.42822536  1
  Pr3+  Pr19  1  0.50309347  0.61878221  0.06057347  1
  Pr3+  Pr20  1  0.37661909  0.49309387  0.94094999  1
  Pr3+  Pr21  1  0.50510839  0.11839765  0.05965416  1
  Pr3+  Pr22  1  0.62149715  -0.00204110  0.44057246  1
  Pr3+  Pr23  1  0.74894272  0.62462782  0.56230758  1
  Pr3+  Pr24  1  0.88007787  0.23423257  0.92725149  1
  Pr3+  Pr25  1  0.87585395  0.50171295  0.42987560  1
  Pr3+  Pr26  1  0.12176780  0.00168532  0.43050275  1
  Pr3+  Pr27  1  0.37534711  -0.00283742  0.44550587  1
  Pr3+  Pr28  1  0.12549282  0.74531260  0.93599823  1
  Pr3+  Pr29  1  0.50376324  0.86646182  0.05171573  1
  Pr3+  Pr30  1  -0.00310468  0.12771931  0.54913693  1
  Nd3+  Nd31  1  0.00101025  0.36436612  0.06695931  1
  Nd3+  Nd32  1  0.49958054  0.87193753  0.57283431  1
  Nd3+  Nd33  1  0.75315068  0.36516903  0.06306370  1
  Nd3+  Nd34  1  0.25252652  0.11766490  0.06133645  1
  Nd3+  Nd35  1  0.25173141  0.36571415  0.06089679  1
  Nd3+  Nd36  1  0.12814189  -0.00815069  0.94630446  1
  Nd3+  Nd37  1  0.37912422  -0.00743113  0.93883553  1
  Nd3+  Nd38  1  0.75122142  0.86639318  0.05515321  1
  Nd3+  Nd39  1  0.13035295  0.50288917  0.42874921  1
  Nd3+  Nd40  1  0.25515974  0.86580144  0.05651514  1
  Nd3+  Nd41  1  0.12388064  0.23900144  0.93417085  1
  Nd3+  Nd42  1  0.62258114  0.74851179  0.44203687  1
  Nd3+  Nd43  1  0.23674893  0.62797120  0.57136329  1
  Nd3+  Nd44  1  0.62408890  0.50080770  0.44590398  1
  Nd3+  Nd45  1  0.24563135  0.37511259  0.55607657  1
  Nd3+  Nd46  1  0.00251441  0.11032104  0.07257580  1
  Nd3+  Nd47  1  0.00400994  0.86519693  0.07054144  1
  Nd3+  Nd48  1  0.75450620  0.61606638  0.06733924  1
  Nd3+  Nd49  1  0.87244485  0.00093298  0.43132048  1
  Nd3+  Nd50  1  -0.00142539  0.37242824  0.54385844  1
  Sm3+  Sm51  1  0.24686424  0.87475890  0.55958897  1
  Sm3+  Sm52  1  0.37300546  0.74917335  0.44938403  1
  Sm3+  Sm53  1  0.49580944  0.62471195  0.56399062  1
  Sm3+  Sm54  1  0.00367866  0.61795320  0.06043568  1
  Sm3+  Sm55  1  0.62862571  0.49627487  0.94763906  1
  Sm3+  Sm56  1  0.37763487  0.24250715  0.94476524  1
  Sm3+  Sm57  1  0.37301512  0.50180723  0.44900128  1
  Sm3+  Sm58  1  0.49917278  0.37500156  0.55503344  1
  Sm3+  Sm59  1  0.50458356  0.36642399  0.05016372  1
  Sm3+  Sm60  1  0.12472271  0.75433560  0.43277863  1
  Sm3+  Sm61  1  0.87871682  -0.00727096  0.94364527  1
  Sm3+  Sm62  1  0.74815205  0.87460225  0.55725052  1
  Sm3+  Sm63  1  0.75037206  0.37459404  0.55092382  1
  Bi2+  Bi64  1  0.00441546  0.11057450  0.27724786  1
  Bi2+  Bi65  1  0.03626688  0.12560543  0.77638366  1
  Bi2+  Bi66  1  0.00075532  0.39408656  0.27499248  1
  Bi2+  Bi67  1  0.04054068  0.34809169  0.77752065  1
  Bi2+  Bi68  1  -0.01545974  0.64940818  0.32327900  1
  Bi2+  Bi69  1  -0.00585658  0.63037619  0.79353273  1
  Bi2+  Bi70  1  -0.00919911  0.85605926  0.29031812  1
  Bi2+  Bi71  1  -0.01139949  0.81806307  0.83693432  1
  Bi2+  Bi72  1  0.32934028  0.12408415  0.27458938  1
  Bi2+  Bi73  1  0.22402976  0.16405334  0.80592107  1
  Bi2+  Bi74  1  0.28007417  0.39638521  0.28571932  1
  Bi2+  Bi75  1  0.23304396  0.36726674  0.80922228  1
  Bi2+  Bi76  1  0.18172614  0.66041517  0.31798057  1
  Bi2+  Bi77  1  0.18824277  0.61091391  0.78777240  1
  Bi2+  Bi78  1  0.24952487  0.86964360  0.28618035  1
  Bi2+  Bi79  1  0.16081264  0.88133548  0.79271976  1
  Bi2+  Bi80  1  0.52110096  0.16219895  0.27560347  1
  Bi2+  Bi81  1  0.46192642  0.12299721  0.77389183  1
  Bi2+  Bi82  1  0.49530277  0.34952235  0.30483369  1
  Bi2+  Bi83  1  0.52784484  0.38344811  0.76773919  1
  Bi2+  Bi84  1  0.48173699  0.56485787  0.31326085  1
  Bi2+  Bi85  1  0.51893594  0.63314074  0.78929615  1
  Bi2+  Bi86  1  0.51013680  0.90782018  0.31456045  1
  Bi2+  Bi87  1  0.51147549  0.89476117  0.78187147  1
  Bi2+  Bi88  1  0.73801060  0.10491437  0.28155625  1
  Bi2+  Bi89  1  0.72820012  0.12328171  0.79990987  1
  Bi2+  Bi90  1  0.68732571  0.39201660  0.28939612  1
  Bi2+  Bi91  1  0.79288614  0.37265256  0.77125291  1
  Bi2+  Bi92  1  0.79182942  0.63986704  0.31568116  1
  Bi2+  Bi93  1  0.77771285  0.58643990  0.79932491  1
  Bi2+  Bi94  1  0.75305633  0.82213148  0.28041621  1
  Bi2+  Bi95  1  0.76024505  0.84957103  0.78605973  1
  Bi2+  Bi96  1  0.15272158  -0.02953829  0.20421440  1
  Bi2+  Bi97  1  0.13220964  0.02084790  0.69339474  1
  Bi2+  Bi98  1  0.13988002  0.25131248  0.18436377  1
  Bi2+  Bi99  1  0.11557414  0.25985536  0.67820498  1
  Bi2+  Bi100  1  0.12015701  0.57683901  0.22315916  1
  Bi2+  Bi101  1  0.13767357  0.50909900  0.69832571  1
  Bi2+  Bi102  1  0.11349835  0.77434270  0.20802400  1
  Bi2+  Bi103  1  0.10080150  0.77974493  0.70008562  1
  Bi2+  Bi104  1  0.40098043  -0.04599556  0.20587814  1
  Bi2+  Bi105  1  0.29878291  0.00464742  0.75083776  1
  Bi2+  Bi106  1  0.38355181  0.28063721  0.21260022  1
  Bi2+  Bi107  1  0.36392859  0.27978673  0.74035732  1
  Bi2+  Bi108  1  0.37131298  0.53955080  0.21254010  1
  Bi2+  Bi109  1  0.36526615  0.49489933  0.76265756  1
  Bi2+  Bi110  1  0.35925391  0.70940713  0.26904476  1
  Bi2+  Bi111  1  0.36347639  0.73345976  0.70245729  1
  Bi2+  Bi112  1  0.60130486  -0.03803607  0.19945470  1
  Bi2+  Bi113  1  0.64227623  0.00137944  0.68994871  1
  Bi2+  Bi114  1  0.62690876  0.27411842  0.20541036  1
  Bi2+  Bi115  1  0.61106824  0.25292207  0.69122111  1
  Bi2+  Bi116  1  0.57273693  0.48996316  0.21205729  1
  Bi2+  Bi117  1  0.66423470  0.50013639  0.72262329  1
  Bi2+  Bi118  1  0.62264718  0.68065895  0.23586779  1
  Bi2+  Bi119  1  0.63575333  0.74903008  0.68889964  1
  Bi2+  Bi120  1  0.85523975  -0.03966232  0.21263975  1
  Bi2+  Bi121  1  0.91105062  -0.03216471  0.77540990  1
  Bi2+  Bi122  1  0.86420607  0.26317745  0.18584572  1
  Bi2+  Bi123  1  0.87095584  0.24569033  0.69118902  1
  Bi2+  Bi124  1  0.83295570  0.54251278  0.21469579  1
  Bi2+  Bi125  1  0.94083360  0.48611896  0.71931287  1
  Bi2+  Bi126  1  0.91686453  0.72898915  0.21165385  1
  Bi2+  Bi127  1  0.90938749  0.76755874  0.72700820  1
  S2-  S128  1  -0.00457334  0.16179937  0.16801207  1
  S2-  S129  1  -0.02059050  0.14661687  0.65025122  1
  S2-  S130  1  0.00886681  0.36598933  0.16735451  1
  S2-  S131  1  -0.02504867  0.36625062  0.64445029  1
  S2-  S132  1  -0.01971197  0.58868578  0.15664747  1
  S2-  S133  1  0.08852956  0.63754316  0.63459910  1
  S2-  S134  1  -0.00292446  0.96553444  0.15067049  1
  S2-  S135  1  0.01389978  0.91694699  0.65637530  1
  S2-  S136  1  0.23109302  0.10630492  0.16007708  1
  S2-  S137  1  0.23813844  0.15184097  0.65604803  1
  S2-  S138  1  0.25574092  0.36988478  0.15999197  1
  S2-  S139  1  0.22351247  0.38216490  0.65521035  1
  S2-  S140  1  0.24637068  0.62068347  0.15757070  1
  S2-  S141  1  0.30140159  0.60349113  0.66353449  1
  S2-  S142  1  0.27542500  0.87392734  0.15531395  1
  S2-  S143  1  0.25557002  0.82856216  0.65476758  1
  S2-  S144  1  0.50421867  0.08028214  0.15751771  1
  S2-  S145  1  0.50866384  0.11260827  0.66573641  1
  S2-  S146  1  0.51131142  0.35148450  0.14746903  1
  S2-  S147  1  0.49752061  0.34822595  0.65150395  1
  S2-  S148  1  0.50294663  0.62775311  0.16129161  1
  S2-  S149  1  0.50756008  0.65859933  0.66080160  1
  S2-  S150  1  0.50987728  0.85142125  0.15364897  1
  S2-  S151  1  0.50825106  0.88363230  0.67325346  1
  S2-  S152  1  0.76608244  0.12139745  0.16799815  1
  S2-  S153  1  0.75295961  0.11068976  0.66408984  1
  S2-  S154  1  0.77736002  0.41149057  0.15837836  1
  S2-  S155  1  0.73948509  0.34258254  0.64749137  1
  S2-  S156  1  0.73392270  0.65453518  0.16398990  1
  S2-  S157  1  0.73844619  0.62948103  0.66280392  1
  S2-  S158  1  0.74609577  0.88963351  0.15425326  1
  S2-  S159  1  0.74389805  0.88156691  0.65571870  1
  S2-  S160  1  0.12047704  0.09169488  0.34304262  1
  S2-  S161  1  0.12426631  0.03734681  0.85112894  1
  S2-  S162  1  0.10282829  0.25225859  0.27947687  1
  S2-  S163  1  0.00972249  0.24695490  0.85782500  1
  S2-  S164  1  0.12959689  0.41795404  0.34129686  1
  S2-  S165  1  0.11964013  0.47871299  0.84875150  1
  S2-  S166  1  0.13057489  0.87259704  0.35866320  1
  S2-  S167  1  0.22079044  0.74327466  0.85125877  1
  S2-  S168  1  0.38319792  0.02414701  0.34593849  1
  S2-  S169  1  0.40146700  -0.00734458  0.84046616  1
  S2-  S170  1  0.29757933  0.25305881  0.34878080  1
  S2-  S171  1  0.37380017  0.24090312  0.84713090  1
  S2-  S172  1  0.33197160  0.51339705  0.35413209  1
  S2-  S173  1  0.38927150  0.57641921  0.85334259  1
  S2-  S174  1  0.38952712  0.80206604  0.35648212  1
  S2-  S175  1  0.40966904  0.77249776  0.80356746  1
  S2-  S176  1  0.64515944  0.01267766  0.33939212  1
  S2-  S177  1  0.65385516  -0.02869013  0.83139384  1
  S2-  S178  1  0.71001073  0.23977300  0.34741515  1
  S2-  S179  1  0.58388096  0.16533759  0.83803683  1
  S2-  S180  1  0.65191091  0.52939149  0.34929907  1
  S2-  S181  1  0.63086241  0.56558531  0.85824955  1
  S2-  S182  1  0.61180599  0.79181934  0.34533131  1
  S2-  S183  1  0.60399562  0.76938056  0.81769127  1
  S2-  S184  1  0.87202812  0.08862282  0.34296239  1
  S2-  S185  1  0.86529114  0.07441256  0.85780471  1
  S2-  S186  1  0.90063314  0.25202540  0.28043993  1
  S2-  S187  1  0.76086047  0.26077562  0.85346840  1
  S2-  S188  1  0.88065034  0.41867263  0.34102351  1
  S2-  S189  1  0.86477045  0.46612274  0.84994092  1
  S2-  S190  1  0.86176798  0.87670463  0.35632804  1
  S2-  S191  1  0.79233011  0.72864371  0.86068692  1
  S2-  S192  1  -0.00420467  0.13165337  0.44330014  1
  S2-  S193  1  0.00419489  0.11303435  0.96339769  1
  S2-  S194  1  0.00305614  0.37267774  0.43954754  1
  S2-  S195  1  0.00317450  0.36694463  0.95958978  1
  S2-  S196  1  0.00248697  0.62715938  0.44784672  1
  S2-  S197  1  0.00319674  0.61923123  0.95464102  1
  S2-  S198  1  -0.00239026  0.87248275  0.45344301  1
  S2-  S199  1  0.00300063  0.87166082  0.96418085  1
  S2-  S200  1  0.25075787  0.12424149  0.45037768  1
  S2-  S201  1  0.25411074  0.11931940  0.95425003  1
  S2-  S202  1  0.25001280  0.37743239  0.45112227  1
  S2-  S203  1  0.25183295  0.36325086  0.95396916  1
  S2-  S204  1  0.24990668  0.62794767  0.45991593  1
  S2-  S205  1  0.25161958  0.61782326  0.95460636  1
  S2-  S206  1  0.25182274  0.87356348  0.45642361  1
  S2-  S207  1  0.25556329  0.86868346  0.95026794  1
  S2-  S208  1  0.49908299  0.12612016  0.45409675  1
  S2-  S209  1  0.50089797  0.12010893  0.95255440  1
  S2-  S210  1  0.49837749  0.37804214  0.44975586  1
  S2-  S211  1  0.50424064  0.36913638  0.94446561  1
  S2-  S212  1  0.49710102  0.62545809  0.45801918  1
  S2-  S213  1  0.50308067  0.62102164  0.95469379  1
  S2-  S214  1  0.49869041  0.87138164  0.46469575  1
  S2-  S215  1  0.50283161  0.86296072  0.94297438  1
  S2-  S216  1  0.74651837  0.12165226  0.45398200  1
  S2-  S217  1  0.75192189  0.11458301  0.95859300  1
  S2-  S218  1  0.75026989  0.37726115  0.44697471  1
  S2-  S219  1  0.75183821  0.37304036  0.95729058  1
  S2-  S220  1  0.74975501  0.62658451  0.45518064  1
  S2-  S221  1  0.75539814  0.61442674  0.96246243  1
  S2-  S222  1  0.74493458  0.87214968  0.45398693  1
  S2-  S223  1  0.75308768  0.87174099  0.94976147  1
  S2-  S224  1  0.13065032  -0.00974270  0.05122577  1
  S2-  S225  1  0.12416182  -0.00151985  0.54099005  1
  S2-  S226  1  0.12611339  0.24011732  0.04599499  1
  S2-  S227  1  0.12342867  0.25090429  0.54274435  1
  S2-  S228  1  0.12594661  0.49143248  0.05579870  1
  S2-  S229  1  0.12276909  0.49935546  0.53722775  1
  S2-  S230  1  0.12658428  0.74287372  0.04816906  1
  S2-  S231  1  0.12481835  0.75544044  0.53742592  1
  S2-  S232  1  0.37756025  -0.00614939  0.04578220  1
  S2-  S233  1  0.37338756  -0.00297331  0.55541597  1
  S2-  S234  1  0.37876418  0.24363808  0.04999938  1
  S2-  S235  1  0.37357530  0.25254679  0.54704731  1
  S2-  S236  1  0.37921542  0.48861038  0.04890649  1
  S2-  S237  1  0.37504656  0.49984240  0.55364824  1
  S2-  S238  1  0.37790060  0.74228049  0.04935622  1
  S2-  S239  1  0.37280718  0.74918031  0.55328648  1
  S2-  S240  1  0.62828595  -0.00737155  0.04191801  1
  S2-  S241  1  0.62350360  -0.00193188  0.54956372  1
  S2-  S242  1  0.62876634  0.24368330  0.04222472  1
  S2-  S243  1  0.62407386  0.25305360  0.54211233  1
  S2-  S244  1  0.62802753  0.49098551  0.05247225  1
  S2-  S245  1  0.62162617  0.49946307  0.55312506  1
  S2-  S246  1  0.63039995  0.74094880  0.04419530  1
  S2-  S247  1  0.62243762  0.74899193  0.54963659  1
  S2-  S248  1  0.87581377  -0.00918189  0.04836617  1
  S2-  S249  1  0.87122596  -0.00231000  0.54344593  1
  S2-  S250  1  0.87765094  0.24010555  0.04797364  1
  S2-  S251  1  0.87067550  0.25272092  0.54116025  1
  S2-  S252  1  0.88032082  0.49287135  0.05172674  1
  S2-  S253  1  0.87348889  0.49953918  0.54111324  1
  S2-  S254  1  0.87911853  0.74229780  0.05414846  1
  S2-  S255  1  0.87260126  0.75054293  0.54586656  1
