# generated using pymatgen
data_La6Ce6Pr19Nd20Sm13(BiS2)64
_symmetry_space_group_name_H-M   'P 1'
_cell_length_a   16.13480331
_cell_length_b   16.04368274
_cell_length_c   27.08448240
_cell_angle_alpha   90.57131122
_cell_angle_beta   89.76737588
_cell_angle_gamma   89.88158696
_symmetry_Int_Tables_number   1
_chemical_formula_structural   La6Ce6Pr19Nd20Sm13(BiS2)64
_chemical_formula_sum   'La6 Ce6 Pr19 Nd20 Sm13 Bi64 S128'
_cell_volume   7010.71232947
_cell_formula_units_Z   1
loop_
 _symmetry_equiv_pos_site_id
 _symmetry_equiv_pos_as_xyz
  1  'x, y, z'
loop_
 _atom_type_symbol
 _atom_type_oxidation_number
  La3+  3.0
  Ce3+  3.0
  Pr3+  3.0
  Nd3+  3.0
  Sm3+  3.0
  Bi2+  2.0
  S2-  -2.0
loop_
 _atom_site_type_symbol
 _atom_site_label
 _atom_site_symmetry_multiplicity
 _atom_site_fract_x
 _atom_site_fract_y
 _atom_site_fract_z
 _atom_site_occupancy
  La3+  La0  1  0.13016863  0.74274003  0.91616346  1
  La3+  La1  1  0.24472037  0.11017504  0.08831112  1
  La3+  La2  1  0.13338739  0.01391815  0.91395916  1
  La3+  La3  1  0.63070937  0.74825709  0.91996896  1
  La3+  La4  1  0.74327585  0.88519643  0.58875426  1
  La3+  La5  1  0.38314933  0.49348111  0.93438929  1
  Ce3+  Ce6  1  0.87815590  0.00555216  0.93800222  1
  Ce3+  Ce7  1  0.62444254  0.00128359  0.93030448  1
  Ce3+  Ce8  1  0.12667078  0.49903735  0.94258720  1
  Ce3+  Ce9  1  0.62866029  0.49580347  0.42347427  1
  Ce3+  Ce10  1  0.24809969  0.63620636  0.57356542  1
  Ce3+  Ce11  1  0.25658923  0.38079617  0.07472095  1
  Pr3+  Pr12  1  0.12197107  0.24603131  0.41868550  1
  Pr3+  Pr13  1  0.62508375  0.00164998  0.44280484  1
  Pr3+  Pr14  1  0.49842922  0.62537187  0.56556020  1
  Pr3+  Pr15  1  0.87731001  0.50424134  0.44042109  1
  Pr3+  Pr16  1  0.50502793  0.38305931  0.09121577  1
  Pr3+  Pr17  1  0.75431436  0.39198283  0.07775962  1
  Pr3+  Pr18  1  0.74696422  0.13497753  0.56800185  1
  Pr3+  Pr19  1  0.49567891  0.87273319  0.57479084  1
  Pr3+  Pr20  1  0.37845294  0.75229827  0.43521576  1
  Pr3+  Pr21  1  0.01159486  0.38682641  0.08428232  1
  Pr3+  Pr22  1  0.37022440  0.51038321  0.42899638  1
  Pr3+  Pr23  1  0.36988158  0.25589916  0.42155026  1
  Pr3+  Pr24  1  0.63508006  0.50129841  0.93541152  1
  Pr3+  Pr25  1  0.87873117  0.25794587  0.94480287  1
  Pr3+  Pr26  1  0.38129823  0.74337057  0.91960442  1
  Pr3+  Pr27  1  0.49733019  0.38402159  0.55290078  1
  Pr3+  Pr28  1  0.62067301  0.24418568  0.41448737  1
  Pr3+  Pr29  1  0.12702177  -0.00224437  0.43528756  1
  Pr3+  Pr30  1  0.24957714  0.13358009  0.56677059  1
  Nd3+  Nd31  1  0.74797515  0.37888308  0.55019484  1
  Nd3+  Nd32  1  -0.00210265  0.63393432  0.56565599  1
  Nd3+  Nd33  1  0.00921872  0.63675522  0.06771102  1
  Nd3+  Nd34  1  0.87834064  0.24281447  0.42708302  1
  Nd3+  Nd35  1  0.75170312  0.87764582  0.05505089  1
  Nd3+  Nd36  1  -0.00207257  0.89033118  0.57615194  1
  Nd3+  Nd37  1  0.62859545  0.25916807  0.94364999  1
  Nd3+  Nd38  1  0.12544222  0.75603854  0.44363992  1
  Nd3+  Nd39  1  0.37942649  0.25417124  0.95587125  1
  Nd3+  Nd40  1  0.00017594  0.13378139  0.56268615  1
  Nd3+  Nd41  1  0.12864694  0.25277666  0.94870140  1
  Nd3+  Nd42  1  0.01022603  0.88394184  0.04528319  1
  Nd3+  Nd43  1  0.50322977  0.63503806  0.06033132  1
  Nd3+  Nd44  1  0.25802306  0.63325142  0.05501401  1
  Nd3+  Nd45  1  0.87311760  -0.00238449  0.44150764  1
  Nd3+  Nd46  1  0.88213440  0.75388705  0.93207095  1
  Nd3+  Nd47  1  0.38177946  0.00562593  0.93244784  1
  Nd3+  Nd48  1  0.75341393  0.63820885  0.06323530  1
  Nd3+  Nd49  1  0.24775473  0.88352264  0.57090326  1
  Nd3+  Nd50  1  -0.00310332  0.13552223  0.06914545  1
  Sm3+  Sm51  1  0.87361571  0.75894129  0.44898308  1
  Sm3+  Sm52  1  0.37447857  0.00354949  0.44624413  1
  Sm3+  Sm53  1  0.50421217  0.13054653  0.06714642  1
  Sm3+  Sm54  1  0.49793266  0.13367923  0.55598542  1
  Sm3+  Sm55  1  0.75018480  0.12988826  0.05594096  1
  Sm3+  Sm56  1  -0.00108112  0.37496779  0.55964643  1
  Sm3+  Sm57  1  0.25444479  0.88128635  0.04149299  1
  Sm3+  Sm58  1  0.61934653  0.75343093  0.44082488  1
  Sm3+  Sm59  1  0.12399403  0.50270426  0.44969130  1
  Sm3+  Sm60  1  0.74832346  0.62989311  0.55291042  1
  Sm3+  Sm61  1  0.50226435  0.87717423  0.05458700  1
  Sm3+  Sm62  1  0.88309252  0.50438815  0.94974535  1
  Sm3+  Sm63  1  0.24892401  0.37690553  0.55661013  1
  Bi2+  Bi64  1  -0.01837513  0.05525219  0.28213393  1
  Bi2+  Bi65  1  0.00466169  0.18684016  0.78533693  1
  Bi2+  Bi66  1  -0.00523828  0.40883382  0.29428815  1
  Bi2+  Bi67  1  0.05241946  0.37671029  0.83066960  1
  Bi2+  Bi68  1  -0.02381295  0.65378627  0.31430578  1
  Bi2+  Bi69  1  -0.03513949  0.56013108  0.81276116  1
  Bi2+  Bi70  1  0.01347448  0.85654537  0.29876029  1
  Bi2+  Bi71  1  -0.04660001  0.85037405  0.78965146  1
  Bi2+  Bi72  1  0.24576206  0.10475766  0.28970334  1
  Bi2+  Bi73  1  0.27127144  0.13458089  0.77467120  1
  Bi2+  Bi74  1  0.23186851  0.38774119  0.28283381  1
  Bi2+  Bi75  1  0.24601984  0.34166548  0.80280366  1
  Bi2+  Bi76  1  0.22204086  0.71423176  0.28664883  1
  Bi2+  Bi77  1  0.25175896  0.53955339  0.78813151  1
  Bi2+  Bi78  1  0.29519502  0.89671127  0.26979809  1
  Bi2+  Bi79  1  0.22192954  0.88914666  0.78692908  1
  Bi2+  Bi80  1  0.49582347  0.09074324  0.28684382  1
  Bi2+  Bi81  1  0.46210194  0.15951291  0.79864925  1
  Bi2+  Bi82  1  0.52046602  0.39730279  0.29902073  1
  Bi2+  Bi83  1  0.49625568  0.42379698  0.80548788  1
  Bi2+  Bi84  1  0.46231608  0.66035553  0.29345136  1
  Bi2+  Bi85  1  0.50605416  0.61695046  0.77732988  1
  Bi2+  Bi86  1  0.55703613  0.89005035  0.27741402  1
  Bi2+  Bi87  1  0.48617780  0.89355998  0.78435491  1
  Bi2+  Bi88  1  0.75183762  0.08047514  0.28407434  1
  Bi2+  Bi89  1  0.65078019  0.20211504  0.80678588  1
  Bi2+  Bi90  1  0.73846836  0.33848053  0.24930138  1
  Bi2+  Bi91  1  0.78611411  0.34865471  0.79904073  1
  Bi2+  Bi92  1  0.78461320  0.64916273  0.28430847  1
  Bi2+  Bi93  1  0.69850775  0.58560131  0.75771338  1
  Bi2+  Bi94  1  0.72895271  0.82842017  0.32056901  1
  Bi2+  Bi95  1  0.71514863  1.01676391  0.79612378  1
  Bi2+  Bi96  1  0.14070082  -0.06010009  0.20117421  1
  Bi2+  Bi97  1  0.10404154  -0.02427905  0.70842135  1
  Bi2+  Bi98  1  0.11786514  0.23366404  0.20145134  1
  Bi2+  Bi99  1  0.13415631  0.22117365  0.70180127  1
  Bi2+  Bi100  1  0.10176495  0.56667513  0.23727396  1
  Bi2+  Bi101  1  0.12827604  0.42175280  0.72115869  1
  Bi2+  Bi102  1  0.13098791  0.73425186  0.18056089  1
  Bi2+  Bi103  1  0.11034612  0.70772505  0.71223115  1
  Bi2+  Bi104  1  0.48854104  -0.00188197  0.18021653  1
  Bi2+  Bi105  1  0.36631090  -0.01220468  0.71376747  1
  Bi2+  Bi106  1  0.39777462  0.26586083  0.22648246  1
  Bi2+  Bi107  1  0.39929302  0.25507230  0.70513857  1
  Bi2+  Bi108  1  0.38621049  0.53124485  0.21584509  1
  Bi2+  Bi109  1  0.38698392  0.45129184  0.70714537  1
  Bi2+  Bi110  1  0.36260957  0.75326416  0.20095230  1
  Bi2+  Bi111  1  0.36014000  0.71531375  0.71210543  1
  Bi2+  Bi112  1  0.67053119  -0.07729055  0.17558991  1
  Bi2+  Bi113  1  0.59392272  0.05335331  0.70835803  1
  Bi2+  Bi114  1  0.63891603  0.12930397  0.19064280  1
  Bi2+  Bi115  1  0.65420145  0.23446517  0.68444710  1
  Bi2+  Bi116  1  0.64129334  0.51476760  0.21187915  1
  Bi2+  Bi117  1  0.60941585  0.42219160  0.71030501  1
  Bi2+  Bi118  1  0.63968084  0.73422871  0.21799720  1
  Bi2+  Bi119  1  0.63424202  0.78882449  0.72504414  1
  Bi2+  Bi120  1  0.84819126  -0.07747900  0.23593397  1
  Bi2+  Bi121  1  0.86729977  0.06244328  0.72641777  1
  Bi2+  Bi122  1  0.87982957  0.20552892  0.23309257  1
  Bi2+  Bi123  1  0.85149656  0.24713159  0.69191942  1
  Bi2+  Bi124  1  0.88044634  0.44590690  0.20561741  1
  Bi2+  Bi125  1  0.93090602  0.42445551  0.73116552  1
  Bi2+  Bi126  1  0.92385209  0.73301042  0.21221093  1
  Bi2+  Bi127  1  0.85076321  0.67333049  0.70571732  1
  S2-  S128  1  0.09185040  0.08257027  0.14770281  1
  S2-  S129  1  -0.00695248  0.02921568  0.64658250  1
  S2-  S130  1  -0.02340752  0.25554170  0.15213120  1
  S2-  S131  1  0.00306346  0.26320956  0.63483949  1
  S2-  S132  1  0.00329767  0.53464691  0.15172553  1
  S2-  S133  1  0.00680303  0.60994240  0.66508827  1
  S2-  S134  1  0.00861117  0.84748567  0.14360387  1
  S2-  S135  1  0.02346661  0.82681035  0.67367234  1
  S2-  S136  1  0.28172724  0.16593220  0.18856850  1
  S2-  S137  1  0.23853158  0.01087345  0.64536501  1
  S2-  S138  1  0.15071646  0.37096821  0.15366692  1
  S2-  S139  1  0.25882117  0.27063443  0.63570879  1
  S2-  S140  1  0.27200754  0.61057350  0.15527818  1
  S2-  S141  1  0.28805092  0.57323983  0.66420940  1
  S2-  S142  1  0.26229764  0.94169523  0.13495335  1
  S2-  S143  1  0.24088967  0.76826041  0.64875342  1
  S2-  S144  1  0.49919220  0.22732793  0.15310497  1
  S2-  S145  1  0.45297874  0.11478323  0.65183698  1
  S2-  S146  1  0.36208170  0.38926237  0.15777286  1
  S2-  S147  1  0.51022357  0.49165518  0.63398494  1
  S2-  S148  1  0.51023290  0.53998435  0.14691739  1
  S2-  S149  1  0.48117721  0.73235792  0.64969258  1
  S2-  S150  1  0.48882054  0.76715537  0.13219014  1
  S2-  S151  1  0.60064291  0.89718586  0.65559165  1
  S2-  S152  1  0.79908913  0.12244533  0.15127584  1
  S2-  S153  1  0.75979835  0.03489169  0.65194015  1
  S2-  S154  1  0.64650263  0.36862650  0.15839530  1
  S2-  S155  1  0.75105060  0.38104262  0.65021293  1
  S2-  S156  1  0.76647487  0.53764977  0.14769572  1
  S2-  S157  1  0.72310087  0.61851158  0.65053599  1
  S2-  S158  1  0.74321664  0.76835491  0.13500959  1
  S2-  S159  1  0.79081452  0.81947986  0.68568962  1
  S2-  S160  1  0.11671130  0.09396588  0.34826571  1
  S2-  S161  1  0.07239259  -0.02901518  0.81489378  1
  S2-  S162  1  0.24867106  0.25033214  0.34398846  1
  S2-  S163  1  0.11561346  0.17052310  0.85962424  1
  S2-  S164  1  0.13585233  0.47407258  0.35145656  1
  S2-  S165  1  0.12872399  0.58411435  0.85562217  1
  S2-  S166  1  0.13926270  0.86259095  0.36485820  1
  S2-  S167  1  0.10169117  0.77018450  0.81418825  1
  S2-  S168  1  0.36383933  0.01016508  0.34614446  1
  S2-  S169  1  0.27862074  0.01474351  0.84996502  1
  S2-  S170  1  0.48380955  0.24215996  0.34147393  1
  S2-  S171  1  0.38478675  0.34612614  0.86828248  1
  S2-  S172  1  0.36161409  0.42893687  0.33535271  1
  S2-  S173  1  0.37982942  0.59861695  0.84989498  1
  S2-  S174  1  0.32621565  0.64237033  0.35905281  1
  S2-  S175  1  0.35592273  0.79624465  0.82054123  1
  S2-  S176  1  0.62790783  0.09147533  0.35501265  1
  S2-  S177  1  0.50406812  0.02004821  0.85857865  1
  S2-  S178  1  0.66656707  0.36423619  0.34474804  1
  S2-  S179  1  0.63291580  0.36857747  0.86405016  1
  S2-  S180  1  0.57752970  0.55336882  0.33535016  1
  S2-  S181  1  0.63270175  0.61125070  0.85203457  1
  S2-  S182  1  0.50725396  0.78025555  0.36260407  1
  S2-  S183  1  0.62970970  0.83833237  0.83022166  1
  S2-  S184  1  0.86857457  0.10207346  0.35945172  1
  S2-  S185  1  0.86067380  -0.03033102  0.84129818  1
  S2-  S186  1  0.99021850  0.27856716  0.35030453  1
  S2-  S187  1  0.86589253  0.22185315  0.84537039  1
  S2-  S188  1  0.86608503  0.51410916  0.33970515  1
  S2-  S189  1  0.83288504  0.49329807  0.85506732  1
  S2-  S190  1  0.87765831  0.86504518  0.37083227  1
  S2-  S191  1  0.86937436  0.73064291  0.83194375  1
  S2-  S192  1  0.00053148  0.12307098  0.45707109  1
  S2-  S193  1  -0.00203453  0.12906666  0.95997060  1
  S2-  S194  1  0.00033053  0.38057003  0.45682288  1
  S2-  S195  1  0.00344393  0.37881778  0.96821807  1
  S2-  S196  1  0.00009208  0.63236525  0.45817528  1
  S2-  S197  1  0.00344379  0.62974741  0.95777484  1
  S2-  S198  1  -0.00008644  0.87694004  0.46839398  1
  S2-  S199  1  0.00824761  0.87894893  0.93890450  1
  S2-  S200  1  0.25321380  0.12581080  0.45567433  1
  S2-  S201  1  0.25818336  0.13165401  0.95714180  1
  S2-  S202  1  0.24711806  0.38175460  0.45310970  1
  S2-  S203  1  0.24894995  0.37708710  0.96451073  1
  S2-  S204  1  0.24090023  0.62888498  0.46490102  1
  S2-  S205  1  0.25515595  0.62411455  0.95054333  1
  S2-  S206  1  0.25728435  0.87732613  0.46293295  1
  S2-  S207  1  0.25407651  0.87154862  0.93815456  1
  S2-  S208  1  0.49539840  0.12730237  0.45292226  1
  S2-  S209  1  0.50713247  0.13450178  0.96157674  1
  S2-  S210  1  0.49864210  0.37959313  0.44621554  1
  S2-  S211  1  0.50755282  0.37656053  0.97309447  1
  S2-  S212  1  0.50281805  0.62517911  0.45638622  1
  S2-  S213  1  0.50473380  0.62506868  0.95281217  1
  S2-  S214  1  0.49930812  0.88200029  0.46561471  1
  S2-  S215  1  0.50162391  0.87310420  0.94890101  1
  S2-  S216  1  0.74603310  0.13022870  0.45973643  1
  S2-  S217  1  0.75034763  0.12855887  0.95027903  1
  S2-  S218  1  0.75833851  0.37283605  0.44659005  1
  S2-  S219  1  0.75869500  0.38221132  0.96656890  1
  S2-  S220  1  0.74974172  0.63372150  0.44630414  1
  S2-  S221  1  0.76210319  0.63057849  0.95534823  1
  S2-  S222  1  0.74261473  0.87422637  0.46699615  1
  S2-  S223  1  0.75482921  0.87840471  0.94818727  1
  S2-  S224  1  0.13092818  0.00427661  0.03036862  1
  S2-  S225  1  0.12494080  0.00662746  0.54345935  1
  S2-  S226  1  0.13166517  0.24748715  0.05299664  1
  S2-  S227  1  0.12557627  0.25733463  0.53338768  1
  S2-  S228  1  0.13243780  0.51109003  0.04877763  1
  S2-  S229  1  0.12162531  0.50098310  0.55596842  1
  S2-  S230  1  0.13252423  0.75634614  0.03333707  1
  S2-  S231  1  0.11806542  0.75907822  0.54974383  1
  S2-  S232  1  0.38382573  0.00464983  0.04025838  1
  S2-  S233  1  0.37815290  0.00523254  0.54977309  1
  S2-  S234  1  0.36862935  0.24107185  0.05864371  1
  S2-  S235  1  0.37669788  0.25694381  0.53537481  1
  S2-  S236  1  0.37878140  0.50637517  0.04426861  1
  S2-  S237  1  0.36619492  0.50395826  0.53997613  1
  S2-  S238  1  0.37552831  0.75821846  0.03054729  1
  S2-  S239  1  0.37217372  0.75303771  0.54364650  1
  S2-  S240  1  0.62676072  0.00394819  0.04127125  1
  S2-  S241  1  0.61885634  0.01009225  0.54938461  1
  S2-  S242  1  0.63101901  0.25258047  0.04986651  1
  S2-  S243  1  0.62067686  0.25704609  0.54255632  1
  S2-  S244  1  0.63260729  0.51236285  0.04423465  1
  S2-  S245  1  0.63047463  0.50508761  0.53309260  1
  S2-  S246  1  0.62726425  0.75739589  0.03097521  1
  S2-  S247  1  0.62583066  0.75158112  0.54662315  1
  S2-  S248  1  0.87762506  0.00314005  0.04628667  1
  S2-  S249  1  0.86969839  0.00548493  0.54701706  1
  S2-  S250  1  0.86959838  0.25843126  0.05096393  1
  S2-  S251  1  0.87243703  0.25519581  0.53775575  1
  S2-  S252  1  0.88560405  0.51112372  0.05079233  1
  S2-  S253  1  0.87594929  0.50401586  0.54958548  1
  S2-  S254  1  0.88565304  0.75789365  0.03986540  1
  S2-  S255  1  0.87147693  0.75674452  0.55463957  1
