# generated using pymatgen
data_V21Zn22O64
_symmetry_space_group_name_H-M   'P 1'
_cell_length_a   16.98421683
_cell_length_b   8.52815924
_cell_length_c   8.52858054
_cell_angle_alpha   89.79395222
_cell_angle_beta   89.83477553
_cell_angle_gamma   89.94536697
_symmetry_Int_Tables_number   1
_chemical_formula_structural   V21Zn22O64
_chemical_formula_sum   'V21 Zn22 O64'
_cell_volume   1235.30094768
_cell_formula_units_Z   1
loop_
 _symmetry_equiv_pos_site_id
 _symmetry_equiv_pos_as_xyz
  1  'x, y, z'
loop_
 _atom_site_type_symbol
 _atom_site_label
 _atom_site_symmetry_multiplicity
 _atom_site_fract_x
 _atom_site_fract_y
 _atom_site_fract_z
 _atom_site_occupancy
  V  V0  1  0.37040658  0.25770673  0.49598615  1
  V  V1  1  0.62475740  0.50112179  0.76173809  1
  V  V2  1  0.74979387  0.24787092  0.75442204  1
  V  V3  1  0.00634383  0.00265059  -0.00427063  1
  V  V4  1  0.87699708  -0.01046457  0.75006001  1
  V  V5  1  0.24864350  -0.01002272  0.49654944  1
  V  V6  1  0.00565005  0.25066632  0.23717381  1
  V  V7  1  0.75083683  -0.00101786  0.49649698  1
  V  V8  1  0.01286908  0.73988522  0.74658502  1
  V  V9  1  0.00877136  0.49733510  0.50267102  1
  V  V10  1  0.87706860  0.25173022  0.49498279  1
  V  V11  1  0.37463981  0.00805086  0.75939330  1
  V  V12  1  0.62496147  0.00760540  0.23655559  1
  V  V13  1  0.62750023  0.74827993  0.49983155  1
  V  V14  1  0.49706150  0.76072426  0.75899714  1
  V  V15  1  0.12922725  -0.01605984  0.24364762  1
  V  V16  1  0.49514531  0.49538641  0.50610851  1
  V  V17  1  0.25121972  0.56114773  0.05857722  1
  V  V18  1  0.49623554  0.25606047  0.23701633  1
  V  V19  1  0.75127794  0.74446640  0.24137778  1
  V  V20  1  0.23189002  0.27181842  0.76133127  1
  Zn  Zn21  1  0.87871969  0.73947353  -0.00019891  1
  Zn  Zn22  1  0.75113438  0.49278283  0.00421287  1
  Zn  Zn23  1  0.13831668  0.72894947  0.49041232  1
  Zn  Zn24  1  0.44734264  -0.08862613  0.08088127  1
  Zn  Zn25  1  0.87606847  0.49786555  0.24102827  1
  Zn  Zn26  1  0.61497674  0.24523101  -0.01023700  1
  Zn  Zn27  1  0.18860021  0.36447707  0.36388464  1
  Zn  Zn28  1  0.68379047  0.37679742  0.37844713  1
  Zn  Zn29  1  0.31430346  0.62629192  0.63894365  1
  Zn  Zn30  1  0.81473861  0.61975771  0.61969747  1
  Zn  Zn31  1  0.19151266  0.87868443  0.87364458  1
  Zn  Zn32  1  0.68541424  0.87309947  0.87798613  1
  Zn  Zn33  1  0.30500988  0.14717998  0.12431328  1
  Zn  Zn34  1  0.81703869  0.11894052  0.12059630  1
  Zn  Zn35  1  0.43499156  0.87360094  0.40593964  1
  Zn  Zn36  1  0.93966632  0.86956312  0.37157203  1
  Zn  Zn37  1  0.06299402  0.11563798  0.61407192  1
  Zn  Zn38  1  0.56201394  0.12519417  0.61719150  1
  Zn  Zn39  1  0.42405213  0.38640232  0.87689366  1
  Zn  Zn40  1  0.93751727  0.37587823  0.87451161  1
  Zn  Zn41  1  0.06764627  0.61895403  0.11647738  1
  Zn  Zn42  1  0.53649534  0.65075353  0.15885273  1
  O  O43  1  0.10992179  0.22447786  0.26025531  1
  O  O44  1  0.61945849  0.23680885  0.24578070  1
  O  O45  1  0.38556958  0.77590358  0.74415628  1
  O  O46  1  0.87851753  0.77350425  0.74245252  1
  O  O47  1  0.25659950  0.01808759  0.73207111  1
  O  O48  1  0.75641748  0.00746727  0.73778550  1
  O  O49  1  0.23896141  1.01919789  0.26582459  1
  O  O50  1  0.74599600  0.98961422  0.26082507  1
  O  O51  1  -0.00221091  0.72692895  0.51326963  1
  O  O52  1  0.51016855  0.73060836  0.52740413  1
  O  O53  1  0.49179922  0.26352825  0.49169043  1
  O  O54  1  0.99289146  0.25815315  0.48753226  1
  O  O55  1  0.34298628  0.49716104  -0.01816051  1
  O  O56  1  0.86911846  0.50519714  0.00321622  1
  O  O57  1  0.15212971  0.51507620  1.01218593  1
  O  O58  1  0.62876560  0.49167623  0.97066035  1
  O  O59  1  0.51546143  0.47172057  0.29009128  1
  O  O60  1  0.99816632  0.48169108  0.25849425  1
  O  O61  1  -0.00625052  0.51873695  0.72925640  1
  O  O62  1  0.50525734  0.51121033  0.74429742  1
  O  O63  1  0.24560668  0.24671002  0.95997805  1
  O  O64  1  0.75233969  0.24400845  0.96912847  1
  O  O65  1  0.25264456  0.76189693  0.02178202  1
  O  O66  1  0.74989560  0.75071085  0.02577110  1
  O  O67  1  0.13325120  0.99130767  0.48020615  1
  O  O68  1  0.63327023  0.99243782  0.48120970  1
  O  O69  1  0.36788134  0.01769974  0.51608896  1
  O  O70  1  0.87245672  0.01727898  0.51012412  1
  O  O71  1  0.11449933  0.76426823  0.73439256  1
  O  O72  1  0.62633417  0.73528761  0.73355193  1
  O  O73  1  0.38245941  0.24053742  0.27715817  1
  O  O74  1  0.88397849  0.24424185  0.26637318  1
  O  O75  1  0.25279071  0.51622819  0.25801472  1
  O  O76  1  0.74950278  0.51719036  0.24965915  1
  O  O77  1  0.24474805  0.46877659  0.72165893  1
  O  O78  1  0.74383684  0.47978058  0.74471028  1
  O  O79  1  -0.00593522  0.22923050  0.01533634  1
  O  O80  1  0.49524410  0.27544666  0.02998183  1
  O  O81  1  0.52009000  0.76385468  0.96044847  1
  O  O82  1  0.99935305  0.75964111  0.97797470  1
  O  O83  1  0.48974990  0.98685256  0.73142816  1
  O  O84  1  0.99392689  0.98688328  0.75758372  1
  O  O85  1  0.00272393  0.00997499  0.23009873  1
  O  O86  1  0.51022816  0.02981453  0.25769738  1
  O  O87  1  0.25344567  0.78065556  0.51135758  1
  O  O88  1  0.74666627  0.75738018  0.47979810  1
  O  O89  1  0.25617221  0.23181456  0.50749984  1
  O  O90  1  0.75729241  0.24087324  0.51751353  1
  O  O91  1  0.37155816  0.23986485  0.72266553  1
  O  O92  1  0.87093670  0.22568121  0.73431712  1
  O  O93  1  0.11367516  0.77934756  0.26014525  1
  O  O94  1  0.62984397  0.76871818  0.26283432  1
  O  O95  1  0.11166619  0.49781481  0.48553055  1
  O  O96  1  0.61769391  0.50381142  0.52676231  1
  O  O97  1  0.38740768  0.48688928  0.51501389  1
  O  O98  1  0.88166907  0.47117531  0.49568110  1
  O  O99  1  0.37311256  1.03137832  0.96921945  1
  O  O100  1  0.88584168  0.99019518  0.97979735  1
  O  O101  1  0.11282369  -0.00760712  0.00960294  1
  O  O102  1  0.63072113  0.01057161  0.02761145  1
  O  O103  1  0.43396149  0.74721839  0.22823973  1
  O  O104  1  0.86476677  0.74622664  0.24772973  1
  O  O105  1  0.13394186  0.24050587  0.73586083  1
  O  O106  1  0.63256138  0.25884460  0.74902036  1
