# generated using pymatgen
data_V85Zn86O256
_symmetry_space_group_name_H-M   'P 1'
_cell_length_a   16.89878954
_cell_length_b   16.90186668
_cell_length_c   16.89599316
_cell_angle_alpha   89.99789381
_cell_angle_beta   89.96659578
_cell_angle_gamma   90.04145333
_symmetry_Int_Tables_number   1
_chemical_formula_structural   V85Zn86O256
_chemical_formula_sum   'V85 Zn86 O256'
_cell_volume   4825.84985988
_cell_formula_units_Z   1
loop_
 _symmetry_equiv_pos_site_id
 _symmetry_equiv_pos_as_xyz
  1  'x, y, z'
loop_
 _atom_site_type_symbol
 _atom_site_label
 _atom_site_symmetry_multiplicity
 _atom_site_fract_x
 _atom_site_fract_y
 _atom_site_fract_z
 _atom_site_occupancy
  V  V0  1  0.74220821  -0.00037030  0.24565527  1
  V  V1  1  0.37396306  -0.00525929  0.89267051  1
  V  V2  1  0.62481841  0.87715632  0.75233017  1
  V  V3  1  0.76486745  0.74208361  0.00469161  1
  V  V4  1  0.00042405  0.24741873  0.24672192  1
  V  V5  1  -0.00533114  -0.00158046  0.00495238  1
  V  V6  1  0.25138624  0.87603858  0.11615520  1
  V  V7  1  0.74474383  0.25336226  0.00409833  1
  V  V8  1  0.63241001  0.74446635  0.87783945  1
  V  V9  1  0.50143389  0.50685974  0.49510602  1
  V  V10  1  0.61397845  0.62461911  0.00473878  1
  V  V11  1  0.87407187  0.75020464  0.62630738  1
  V  V12  1  0.49827401  0.24998889  0.75170422  1
  V  V13  1  0.38409395  0.75521498  0.12151361  1
  V  V14  1  0.62669103  0.00530108  0.62053809  1
  V  V15  1  0.24834780  0.00716342  0.25381826  1
  V  V16  1  -0.00286947  0.12104388  0.62786527  1
  V  V17  1  0.13461823  0.74781503  0.87323519  1
  V  V18  1  0.86813650  0.50119016  0.87605797  1
  V  V19  1  0.87413826  0.24714267  0.63711352  1
  V  V20  1  0.50169047  0.12490691  0.62257018  1
  V  V21  1  0.50125235  0.75063898  0.75113511  1
  V  V22  1  0.24704799  0.61947025  0.36797328  1
  V  V23  1  0.87536611  0.37223616  0.50083519  1
  V  V24  1  0.12167371  0.11834979  0.49681190  1
  V  V25  1  0.37484824  0.24791310  0.62391906  1
  V  V26  1  0.25198567  0.50153772  0.75718822  1
  V  V27  1  0.87217504  0.37550733  0.00547691  1
  V  V28  1  0.61159210  0.49691265  0.11977072  1
  V  V29  1  0.37195197  0.24803931  0.10821750  1
  V  V30  1  0.37331688  0.62286224  0.76060232  1
  V  V31  1  0.87694584  0.00386300  0.37716068  1
  V  V32  1  0.38111147  0.62004696  0.24544478  1
  V  V33  1  -0.00010066  0.63433192  0.12449910  1
  V  V34  1  0.87450717  0.25016604  0.12404429  1
  V  V35  1  0.49006702  0.38196680  0.88604355  1
  V  V36  1  0.37559949  0.37661281  0.49654978  1
  V  V37  1  0.62295835  0.24664394  0.37556233  1
  V  V38  1  0.12565099  0.87378413  0.24987297  1
  V  V39  1  0.11935996  0.00678688  0.12493756  1
  V  V40  1  0.37451567  0.74742925  0.62353735  1
  V  V41  1  0.74558575  0.24202475  0.50047022  1
  V  V42  1  -0.00056126  0.87525795  0.37673171  1
  V  V43  1  0.49980072  0.87507083  0.37301785  1
  V  V44  1  0.12904842  0.50077929  0.13141029  1
  V  V45  1  0.62175357  0.37838526  0.75236599  1
  V  V46  1  0.87402294  0.63231921  0.24587409  1
  V  V47  1  0.50000370  0.87891594  0.88969894  1
  V  V48  1  0.87914851  0.87950897  0.50133998  1
  V  V49  1  0.50261194  0.11189642  0.12317795  1
  V  V50  1  0.24534654  0.37377898  0.63045875  1
  V  V51  1  0.12566269  0.88196712  0.75286744  1
  V  V52  1  0.86742576  0.62556102  0.75487406  1
  V  V53  1  0.12643096  0.24576815  0.37467657  1
  V  V54  1  0.50473059  0.00524074  0.49659403  1
  V  V55  1  0.37187524  0.11064893  0.74942905  1
  V  V56  1  0.74991799  0.87694122  0.62556291  1
  V  V57  1  0.75881228  0.87722351  0.11686889  1
  V  V58  1  0.87721366  0.00166365  0.87536974  1
  V  V59  1  0.12325189  0.13130196  0.00046482  1
  V  V60  1  0.00184684  0.50005150  0.00013963  1
  V  V61  1  0.62463489  0.10888325  0.00093192  1
  V  V62  1  0.01211864  0.25114479  0.75107654  1
  V  V63  1  0.25082787  0.87778806  0.62713865  1
  V  V64  1  0.13433785  0.62615540  -0.00360895  1
  V  V65  1  0.24924268  0.24440758  0.49655268  1
  V  V66  1  0.75506955  0.01062958  0.75049943  1
  V  V67  1  0.00090376  0.75108899  0.75131912  1
  V  V68  1  0.62419030  0.50717172  0.61989824  1
  V  V69  1  0.00025521  0.62421322  0.62322290  1
  V  V70  1  0.25047279  0.12757659  0.87698845  1
  V  V71  1  0.25449199  0.37345926  0.10711932  1
  V  V72  1  0.37007422  0.00611175  0.37632481  1
  V  V73  1  0.87326112  0.49920708  0.37521627  1
  V  V74  1  0.12580944  0.00111277  0.62633813  1
  V  V75  1  0.12462723  0.49694927  0.62944430  1
  V  V76  1  0.62439272  0.74819777  0.37405996  1
  V  V77  1  0.74586274  0.74624135  0.50036751  1
  V  V78  1  0.49670255  0.25489389  0.24450038  1
  V  V79  1  0.87579913  0.12398465  0.24379768  1
  V  V80  1  0.74892876  0.37564079  0.62765832  1
  V  V81  1  0.75275094  0.49476787  0.23487924  1
  V  V82  1  0.74337603  0.62090166  0.37702247  1
  V  V83  1  0.13539591  0.37619053  0.25215068  1
  V  V84  1  0.00740353  0.37500586  0.87196104  1
  Zn  Zn85  1  0.50183180  0.62701003  0.62221451  1
  Zn  Zn86  1  0.00144491  0.37634827  0.37412450  1
  Zn  Zn87  1  -0.00472250  0.87215725  0.88201301  1
  Zn  Zn88  1  -0.00506871  0.75482287  0.24632091  1
  Zn  Zn89  1  0.50126688  0.37648381  0.37003432  1
  Zn  Zn90  1  0.62508288  0.87702993  0.24379815  1
  Zn  Zn91  1  0.75348337  0.12911290  0.87452856  1
  Zn  Zn92  1  0.50344608  0.74796792  0.24702185  1
  Zn  Zn93  1  0.62399917  0.24967442  0.87849496  1
  Zn  Zn94  1  0.63026460  0.37195185  0.24328679  1
  Zn  Zn95  1  0.12534919  0.74972128  0.37714996  1
  Zn  Zn96  1  0.25708644  0.75332063  -0.00497081  1
  Zn  Zn97  1  0.37199408  0.49586818  0.36598918  1
  Zn  Zn98  1  0.12867321  0.62547679  0.49992191  1
  Zn  Zn99  1  0.74514703  0.12257699  0.37619914  1
  Zn  Zn100  1  0.24822670  0.74898982  0.49729473  1
  Zn  Zn101  1  0.00083175  0.49930812  0.49991022  1
  Zn  Zn102  1  0.74477312  0.50399215  0.75480869  1
  Zn  Zn103  1  0.13516947  0.25791889  0.87873556  1
  Zn  Zn104  1  0.37655870  0.50523584  0.90886256  1
  Zn  Zn105  1  0.37321128  0.87484091  0.49891749  1
  Zn  Zn106  1  0.37098004  0.12761798  0.24969628  1
  Zn  Zn107  1  0.18879815  0.18922809  0.18407722  1
  Zn  Zn108  1  0.18999352  0.18407252  0.68997223  1
  Zn  Zn109  1  0.19118336  0.69032039  0.18851063  1
  Zn  Zn110  1  0.18968089  0.68659544  0.68830724  1
  Zn  Zn111  1  0.68668861  0.18613938  0.18575353  1
  Zn  Zn112  1  0.68402803  0.18898100  0.68705674  1
  Zn  Zn113  1  0.68882681  0.68775312  0.18381117  1
  Zn  Zn114  1  0.68644661  0.68715516  0.68858033  1
  Zn  Zn115  1  0.31224551  0.30850255  0.30992492  1
  Zn  Zn116  1  0.31436757  0.31035209  0.81273666  1
  Zn  Zn117  1  0.31197966  0.81124052  0.30956917  1
  Zn  Zn118  1  0.31342638  0.81794388  0.80932403  1
  Zn  Zn119  1  0.81025741  0.31271877  0.31320558  1
  Zn  Zn120  1  0.81185002  0.31472028  0.81822113  1
  Zn  Zn121  1  0.81004680  0.81492694  0.31106514  1
  Zn  Zn122  1  0.81212184  0.81744838  0.81644045  1
  Zn  Zn123  1  0.18797675  0.43922087  0.44048402  1
  Zn  Zn124  1  0.19251205  0.44223656  0.94066662  1
  Zn  Zn125  1  0.18784574  0.93675472  0.44023671  1
  Zn  Zn126  1  0.18726664  0.94419581  0.93523834  1
  Zn  Zn127  1  0.68593697  0.43079888  0.43533808  1
  Zn  Zn128  1  0.68488098  0.43628048  0.94002113  1
  Zn  Zn129  1  0.68914964  0.93621835  0.43528895  1
  Zn  Zn130  1  0.69430253  0.93213812  0.93713443  1
  Zn  Zn131  1  0.30859936  0.06592481  0.06441613  1
  Zn  Zn132  1  0.31079110  0.06082872  0.56135981  1
  Zn  Zn133  1  0.31398294  0.56597315  0.06869650  1
  Zn  Zn134  1  0.31269676  0.56380994  0.56133136  1
  Zn  Zn135  1  0.81234786  0.06289643  0.06160864  1
  Zn  Zn136  1  0.81516052  0.06418109  0.56287995  1
  Zn  Zn137  1  0.81317042  0.56832661  0.05916680  1
  Zn  Zn138  1  0.81115437  0.56186119  0.56313692  1
  Zn  Zn139  1  0.43148707  0.43811308  0.17403080  1
  Zn  Zn140  1  0.43654295  0.43819998  0.68544215  1
  Zn  Zn141  1  0.43429650  0.93498469  0.19053315  1
  Zn  Zn142  1  0.44117168  0.93386860  0.68798795  1
  Zn  Zn143  1  0.94218632  0.43739597  0.18763941  1
  Zn  Zn144  1  0.93731707  0.43644887  0.69059200  1
  Zn  Zn145  1  0.93448368  0.93685493  0.18609009  1
  Zn  Zn146  1  0.93937487  0.94016474  0.69118433  1
  Zn  Zn147  1  0.05907312  0.06211031  0.31269400  1
  Zn  Zn148  1  0.06041613  0.06507951  0.81296909  1
  Zn  Zn149  1  0.06035496  0.56249775  0.31178803  1
  Zn  Zn150  1  0.06195968  0.56220395  0.81089175  1
  Zn  Zn151  1  0.56043372  0.06786937  0.31026070  1
  Zn  Zn152  1  0.56157297  0.06143902  0.81568737  1
  Zn  Zn153  1  0.56249006  0.55995936  0.30874444  1
  Zn  Zn154  1  0.55933547  0.56372518  0.81615518  1
  Zn  Zn155  1  0.43941715  0.18681892  0.43457960  1
  Zn  Zn156  1  0.44262698  0.18316455  0.93538808  1
  Zn  Zn157  1  0.43299319  0.68602370  0.43504500  1
  Zn  Zn158  1  0.44030831  0.69147176  0.93794622  1
  Zn  Zn159  1  0.93931770  0.18747989  0.43908650  1
  Zn  Zn160  1  0.93885014  0.18345506  0.93607655  1
  Zn  Zn161  1  0.93500742  0.68906848  0.43660376  1
  Zn  Zn162  1  0.94573291  0.68519889  0.93461176  1
  Zn  Zn163  1  0.06025121  0.31298609  0.06452817  1
  Zn  Zn164  1  0.06151640  0.31173108  0.56283034  1
  Zn  Zn165  1  0.06517111  0.81576189  0.06023174  1
  Zn  Zn166  1  0.06367721  0.81127483  0.56088753  1
  Zn  Zn167  1  0.56250981  0.31157852  0.06475026  1
  Zn  Zn168  1  0.56194431  0.31725718  0.56139580  1
  Zn  Zn169  1  0.57157701  0.81584903  0.06485449  1
  Zn  Zn170  1  0.56192539  0.81558003  0.55999072  1
  O  O171  1  0.12874459  0.11460092  0.11837664  1
  O  O172  1  0.12097807  0.11823917  0.62076140  1
  O  O173  1  0.12068608  0.61798557  0.12323330  1
  O  O174  1  0.11589820  0.61875233  0.62531184  1
  O  O175  1  0.61307447  0.12649031  0.11518995  1
  O  O176  1  0.61896786  0.11299418  0.62741371  1
  O  O177  1  0.62847816  0.61703475  0.11331743  1
  O  O178  1  0.62459638  0.61172614  0.62711257  1
  O  O179  1  0.37229563  0.37510468  0.38500420  1
  O  O180  1  0.38803309  0.37499563  0.87130361  1
  O  O181  1  0.38346546  0.88338832  0.37511683  1
  O  O182  1  0.38124000  0.88706491  0.87304813  1
  O  O183  1  0.87484713  0.38159282  0.38283854  1
  O  O184  1  0.88446831  0.38058429  0.88581501  1
  O  O185  1  0.87899430  0.88140649  0.38154460  1
  O  O186  1  0.87767409  0.89265768  0.87137392  1
  O  O187  1  0.25841090  -0.00646468  0.36813699  1
  O  O188  1  0.26586910  0.00724810  0.87530035  1
  O  O189  1  0.25240718  0.51349150  0.37705305  1
  O  O190  1  0.25491935  0.49238650  0.86009146  1
  O  O191  1  0.76058704  0.00060382  0.36730735  1
  O  O192  1  0.75856288  0.00080632  0.86761716  1
  O  O193  1  0.75615304  0.50483605  0.36993982  1
  O  O194  1  0.76389268  0.49373524  0.87477744  1
  O  O195  1  0.23568800  0.48627552  0.12686842  1
  O  O196  1  0.24335078  0.49247499  0.62905353  1
  O  O197  1  0.24305673  0.99420647  0.13297521  1
  O  O198  1  0.23678286  0.99386738  0.62247528  1
  O  O199  1  0.74862134  0.50390953  0.13320026  1
  O  O200  1  0.74231609  0.49288330  0.62675183  1
  O  O201  1  0.75617601  0.98808336  0.13052479  1
  O  O202  1  0.74502901  0.99817470  0.63021315  1
  O  O203  1  0.00727040  0.36252278  0.25148649  1
  O  O204  1  -0.00482532  0.36544216  0.76013174  1
  O  O205  1  0.00606512  0.87520334  0.25698217  1
  O  O206  1  0.00933293  0.86711560  0.74937848  1
  O  O207  1  0.49827633  0.36457623  0.24509017  1
  O  O208  1  0.50436418  0.36770661  0.75250508  1
  O  O209  1  0.50440027  0.87416626  0.26173067  1
  O  O210  1  0.50803359  0.86855755  0.75688524  1
  O  O211  1  0.50015820  0.13498673  0.23632320  1
  O  O212  1  0.49516808  0.13178587  0.74443077  1
  O  O213  1  0.48532230  0.62952495  0.25537443  1
  O  O214  1  0.49352018  0.63308808  0.74719441  1
  O  O215  1  0.99240194  0.13828705  0.25453518  1
  O  O216  1  1.00350675  0.13447332  0.73783971  1
  O  O217  1  0.99202842  0.62746533  0.24275485  1
  O  O218  1  0.99176734  0.63028311  0.73999880  1
  O  O219  1  0.37693928  0.24237632  0.00875406  1
  O  O220  1  0.36751747  0.25323090  0.50190016  1
  O  O221  1  0.37327310  0.74378910  0.01579051  1
  O  O222  1  0.37659219  0.75330742  0.51228296  1
  O  O223  1  0.87086157  0.25451419  0.00640852  1
  O  O224  1  0.86898452  0.25620263  0.50797470  1
  O  O225  1  0.86357165  0.74315661  -0.00917920  1
  O  O226  1  0.86441280  0.75748901  0.50443034  1
  O  O227  1  0.12985785  0.24340906  0.49380642  1
  O  O228  1  0.11449170  0.23526169  0.99876931  1
  O  O229  1  0.12720692  0.74426641  0.49643956  1
  O  O230  1  0.12603256  0.74429933  0.99045825  1
  O  O231  1  0.63413909  0.25825886  0.49246227  1
  O  O232  1  0.63441888  0.24512464  1.00205982  1
  O  O233  1  0.63728130  0.75556770  0.49155021  1
  O  O234  1  0.63160992  0.73901128  0.99626032  1
  O  O235  1  0.49138463  0.24441098  0.12836693  1
  O  O236  1  0.49531536  0.24538396  0.62934447  1
  O  O237  1  0.48786794  0.75931608  0.12682090  1
  O  O238  1  0.49462930  0.75166480  0.63097469  1
  O  O239  1  0.98678707  0.25196338  0.13288362  1
  O  O240  1  0.99328257  0.24670937  0.63345903  1
  O  O241  1  1.00587248  0.73835656  0.12476802  1
  O  O242  1  0.99316053  0.74343466  0.63051355  1
  O  O243  1  0.01042447  0.25288323  0.36997666  1
  O  O244  1  -0.00058543  0.25637956  0.86644465  1
  O  O245  1  -0.00143378  0.76299811  0.37214154  1
  O  O246  1  0.01166614  0.75362755  0.86817907  1
  O  O247  1  0.50481734  0.25195716  0.36512736  1
  O  O248  1  0.50174192  0.25703169  0.86572340  1
  O  O249  1  0.50808856  0.75733806  0.37853378  1
  O  O250  1  0.50978783  0.75841103  0.87067084  1
  O  O251  1  0.24114966  0.13783160  0.50635520  1
  O  O252  1  0.23788979  0.11908346  0.99066973  1
  O  O253  1  0.25245564  0.62704934  0.48535582  1
  O  O254  1  0.23675941  0.63096341  1.00663700  1
  O  O255  1  0.75303273  0.13814509  0.49887022  1
  O  O256  1  0.73796662  0.13196128  1.00243749  1
  O  O257  1  0.75618335  0.63429489  0.49051586  1
  O  O258  1  0.74368097  0.63794754  0.99974804  1
  O  O259  1  0.23691909  0.36255516  0.01003911  1
  O  O260  1  0.25468490  0.36500761  0.50808861  1
  O  O261  1  0.24332726  0.87678912  0.01281214  1
  O  O262  1  0.25112537  0.87258312  0.51318196  1
  O  O263  1  0.75880427  0.36536499  -0.00369638  1
  O  O264  1  0.75943445  0.36657147  0.50589837  1
  O  O265  1  0.75100856  0.86311979  0.00979212  1
  O  O266  1  0.75948578  0.86891335  0.50521350  1
  O  O267  1  0.11607458  0.48819705  0.24280350  1
  O  O268  1  0.13425325  0.50502247  0.73859493  1
  O  O269  1  0.12726613  0.99391010  0.24502764  1
  O  O270  1  0.12088345  0.98981737  0.74413469  1
  O  O271  1  0.63463383  0.50194373  0.23538630  1
  O  O272  1  0.62421825  0.49434826  0.74390676  1
  O  O273  1  0.63916765  1.00218513  0.25581641  1
  O  O274  1  0.63068900  0.99565087  0.74361427  1
  O  O275  1  0.36499628  0.00160831  0.25726031  1
  O  O276  1  0.37963721  0.00899228  0.75042432  1
  O  O277  1  0.37697041  0.51508844  0.24451973  1
  O  O278  1  0.36686734  0.51026722  0.74211823  1
  O  O279  1  0.86930149  0.00874308  0.25571501  1
  O  O280  1  0.86663558  0.00022097  0.75794287  1
  O  O281  1  0.86837665  0.50500314  0.25526785  1
  O  O282  1  0.87300789  0.50743818  0.75776692  1
  O  O283  1  0.12394264  0.36882728  0.36970893  1
  O  O284  1  0.11205197  0.37543144  0.88250516  1
  O  O285  1  0.11541914  0.87818813  0.36928192  1
  O  O286  1  0.12443732  0.87136662  0.86644285  1
  O  O287  1  0.62285751  0.36322468  0.36643549  1
  O  O288  1  0.61643169  0.37609757  0.86403523  1
  O  O289  1  0.61939298  0.86610124  0.37211838  1
  O  O290  1  0.61932524  0.87024899  0.87084426  1
  O  O291  1  0.38491689  0.12961534  0.12527470  1
  O  O292  1  0.37953781  0.12833147  0.63108079  1
  O  O293  1  0.36604523  0.64003702  0.13882136  1
  O  O294  1  0.37717062  0.63459074  0.63229577  1
  O  O295  1  0.87360088  0.13188273  0.13633827  1
  O  O296  1  0.88434411  0.13447673  0.62139922  1
  O  O297  1  0.88697663  0.61731028  0.13388967  1
  O  O298  1  0.87991323  0.62977667  0.63255741  1
  O  O299  1  0.25844296  0.25994993  0.12727886  1
  O  O300  1  0.25389065  0.25578012  0.61965639  1
  O  O301  1  0.25695965  0.76148574  0.12425471  1
  O  O302  1  0.25854897  0.75692898  0.62431382  1
  O  O303  1  0.76295743  0.24774517  0.11883019  1
  O  O304  1  0.75540634  0.25433033  0.62063831  1
  O  O305  1  0.75403559  0.75330037  0.11150607  1
  O  O306  1  0.75336664  0.75465316  0.61846592  1
  O  O307  1  0.23685501  0.25164661  0.38200926  1
  O  O308  1  0.25098897  0.23498367  0.87089492  1
  O  O309  1  0.24903230  0.73920738  0.37565089  1
  O  O310  1  0.23974725  0.75612023  0.87509972  1
  O  O311  1  0.74348539  0.24908450  0.38328324  1
  O  O312  1  0.74749078  0.24752534  0.88665437  1
  O  O313  1  0.74452039  0.74308084  0.38098910  1
  O  O314  1  0.73877365  0.75921892  0.88667333  1
  O  O315  1  0.00939122  0.11069764  -0.00586370  1
  O  O316  1  0.01022751  0.13299756  0.51481757  1
  O  O317  1  0.00931353  0.61903032  0.00773462  1
  O  O318  1  -0.00541796  0.62340002  0.51346562  1
  O  O319  1  0.51307901  0.12578123  0.01040174  1
  O  O320  1  0.49679799  0.11308728  0.50529926  1
  O  O321  1  0.51459080  0.62706695  -0.00025094  1
  O  O322  1  0.49456197  0.61115105  0.50044599  1
  O  O323  1  0.48963426  0.38227058  0.49736369  1
  O  O324  1  0.50571182  0.37001360  0.98356058  1
  O  O325  1  0.49931130  0.88658836  0.48947789  1
  O  O326  1  0.50646336  0.87277558  0.98907299  1
  O  O327  1  0.98672848  0.37533262  0.49953214  1
  O  O328  1  0.99310896  0.38100506  0.99490701  1
  O  O329  1  0.98695699  0.87197146  0.49464182  1
  O  O330  1  1.00591547  0.89146501  0.99862563  1
  O  O331  1  0.49675848  0.49584248  0.37972314  1
  O  O332  1  0.49379736  0.48699337  0.87270273  1
  O  O333  1  0.49681388  0.99565706  0.37968326  1
  O  O334  1  0.48579038  0.99261245  0.87109041  1
  O  O335  1  0.98543313  0.49944655  0.37693186  1
  O  O336  1  0.99286089  0.49304304  0.87884273  1
  O  O337  1  0.98659455  0.98952899  0.37090025  1
  O  O338  1  0.99032246  0.99904835  0.87902599  1
  O  O339  1  0.00785536  -0.00164008  0.12015931  1
  O  O340  1  0.01130110  0.00824228  0.62855697  1
  O  O341  1  0.01054746  0.50585994  0.11945335  1
  O  O342  1  0.00613679  0.50623909  0.62704724  1
  O  O343  1  0.49648704  0.01309279  0.13149282  1
  O  O344  1  0.50778934  0.00182529  0.61659807  1
  O  O345  1  0.51301086  0.50307397  0.12555477  1
  O  O346  1  0.50801655  0.49979258  0.61594679  1
  O  O347  1  0.23787143  0.36983014  0.24378975  1
  O  O348  1  0.25837956  0.38033944  0.73616632  1
  O  O349  1  0.24156003  0.88464385  0.24391138  1
  O  O350  1  0.24002190  0.87237135  0.73681320  1
  O  O351  1  0.75144460  0.39103399  0.25166636  1
  O  O352  1  0.73952063  0.37549698  0.74625431  1
  O  O353  1  0.74952659  0.88408095  0.24394900  1
  O  O354  1  0.74440153  0.88448995  0.74302376  1
  O  O355  1  0.24780638  0.11153310  0.24748978  1
  O  O356  1  0.26199375  0.12566639  0.75741699  1
  O  O357  1  0.25847541  0.62769197  0.26079686  1
  O  O358  1  0.26007328  0.61498158  0.74639228  1
  O  O359  1  0.75812883  0.11852433  0.25102449  1
  O  O360  1  0.74321870  0.11426626  0.75201768  1
  O  O361  1  0.75609203  0.61524891  0.25541274  1
  O  O362  1  0.76294222  0.62465603  0.74854499  1
  O  O363  1  0.37965334  0.11075876  0.37128063  1
  O  O364  1  0.37290499  0.11389629  0.86967815  1
  O  O365  1  0.36634116  0.62399906  0.36184800  1
  O  O366  1  0.38081745  0.62084974  0.86561578  1
  O  O367  1  0.87465886  0.11894698  0.36745529  1
  O  O368  1  0.87137176  0.11024530  0.87601778  1
  O  O369  1  0.86569113  0.61740338  0.36911513  1
  O  O370  1  0.88456726  0.61412496  0.86604505  1
  O  O371  1  0.13093735  0.37897888  0.13119736  1
  O  O372  1  0.13361179  0.38196861  0.62127582  1
  O  O373  1  0.13049455  0.88476922  0.13254170  1
  O  O374  1  0.12871621  0.88244445  0.62999657  1
  O  O375  1  0.62488979  0.39158646  0.12273520  1
  O  O376  1  0.62751788  0.38273668  0.63568391  1
  O  O377  1  0.64701377  0.86719895  0.13085305  1
  O  O378  1  0.62985631  0.88541407  0.62968823  1
  O  O379  1  0.11887014  0.25255321  0.25574481  1
  O  O380  1  0.11558129  0.24964049  0.75259311  1
  O  O381  1  0.12312166  0.76454506  0.25140381  1
  O  O382  1  0.12149991  0.75678569  0.75479170  1
  O  O383  1  0.61777378  0.25236206  0.25260830  1
  O  O384  1  0.61347353  0.25732922  0.75005103  1
  O  O385  1  0.62512177  0.74780772  0.26219618  1
  O  O386  1  0.62337458  0.75456228  0.75891535  1
  O  O387  1  0.38179877  0.24538456  0.24312074  1
  O  O388  1  0.38519564  0.24177837  0.74398616  1
  O  O389  1  0.37823583  0.74340413  0.24018212  1
  O  O390  1  0.37952959  0.74391366  0.74403696  1
  O  O391  1  0.87921052  0.24589679  0.24493569  1
  O  O392  1  0.87835994  0.25493506  0.74007862  1
  O  O393  1  0.87337428  0.73582083  0.25537183  1
  O  O394  1  0.87846081  0.74475843  0.74802249  1
  O  O395  1  0.38166725  0.49087523  0.49929218  1
  O  O396  1  0.35225762  0.48147859  1.01386385  1
  O  O397  1  0.38232883  0.99751418  0.49378482  1
  O  O398  1  0.37511839  1.00159400  0.99109108  1
  O  O399  1  0.87329197  0.49116249  0.49270884  1
  O  O400  1  0.87960968  0.49436162  0.99513281  1
  O  O401  1  0.86919613  0.99172595  0.49106835  1
  O  O402  1  0.88152464  1.00335255  0.99041425  1
  O  O403  1  0.11859177  0.00743335  0.00803918  1
  O  O404  1  0.12686796  0.01171241  0.50628105  1
  O  O405  1  0.12160086  0.50799373  0.00686868  1
  O  O406  1  0.12129950  0.50357683  0.51282791  1
  O  O407  1  0.63205532  0.01035863  -0.00148913  1
  O  O408  1  0.61887641  -0.00401863  0.50760380  1
  O  O409  1  0.63282189  0.51202530  0.01016098  1
  O  O410  1  0.61581580  0.49003453  0.50781240  1
  O  O411  1  0.36049843  0.36384391  0.12642659  1
  O  O412  1  0.36907160  0.36777126  0.61373807  1
  O  O413  1  0.36636735  0.86422794  0.13031688  1
  O  O414  1  0.36723820  0.86814265  0.62701879  1
  O  O415  1  0.87989510  0.37013330  0.11291612  1
  O  O416  1  0.86974176  0.36857843  0.61981066  1
  O  O417  1  0.85920647  0.86848496  0.13347394  1
  O  O418  1  0.87136943  0.87170753  0.61947039  1
  O  O419  1  0.11803428  0.13132292  0.38499365  1
  O  O420  1  0.13459392  0.12372225  0.88115616  1
  O  O421  1  0.13481368  0.62533524  0.37302797  1
  O  O422  1  0.11961783  0.63374076  0.88360445  1
  O  O423  1  0.62603362  0.14024702  0.37224498  1
  O  O424  1  0.62441723  0.12681870  0.88938645  1
  O  O425  1  0.63639213  0.62862153  0.37202621  1
  O  O426  1  0.62375949  0.63287409  0.88608893  1
