# generated using pymatgen
data_V85Zn86O256
_symmetry_space_group_name_H-M   'P 1'
_cell_length_a   16.99877582
_cell_length_b   16.99037274
_cell_length_c   16.99442623
_cell_angle_alpha   90.04366074
_cell_angle_beta   89.99292078
_cell_angle_gamma   89.97672391
_symmetry_Int_Tables_number   1
_chemical_formula_structural   V85Zn86O256
_chemical_formula_sum   'V85 Zn86 O256'
_cell_volume   4908.25247614
_cell_formula_units_Z   1
loop_
 _symmetry_equiv_pos_site_id
 _symmetry_equiv_pos_as_xyz
  1  'x, y, z'
loop_
 _atom_site_type_symbol
 _atom_site_label
 _atom_site_symmetry_multiplicity
 _atom_site_fract_x
 _atom_site_fract_y
 _atom_site_fract_z
 _atom_site_occupancy
  V  V0  1  0.50077647  0.87732725  0.37511560  1
  V  V1  1  0.50595436  0.26290518  0.76460381  1
  V  V2  1  0.25112379  0.50224813  0.25208151  1
  V  V3  1  0.74705371  0.87621968  0.12468410  1
  V  V4  1  0.12471419  0.87820091  0.75404928  1
  V  V5  1  0.87639415  0.87905430  -0.00698834  1
  V  V6  1  0.19827135  0.18220885  0.95438860  1
  V  V7  1  0.63452409  0.38061189  0.76328883  1
  V  V8  1  0.49904242  0.86439512  0.86464100  1
  V  V9  1  0.14328548  0.22330048  0.35186262  1
  V  V10  1  0.50526725  0.13098613  0.12588303  1
  V  V11  1  0.12417401  0.75155757  0.37653862  1
  V  V12  1  0.12009749  0.61692767  0.49964973  1
  V  V13  1  0.13379411  0.36736563  0.74407842  1
  V  V14  1  0.38232968  0.74855683  0.63673775  1
  V  V15  1  0.50084610  0.75081832  0.25284728  1
  V  V16  1  0.87118886  0.87530269  0.50109877  1
  V  V17  1  0.25158887  0.87518098  0.12519456  1
  V  V18  1  0.37271453  0.49646634  0.38427760  1
  V  V19  1  0.00245132  -0.00280333  -0.01456863  1
  V  V20  1  0.75997840  0.11017527  0.87385337  1
  V  V21  1  0.12337225  0.62598575  0.00151958  1
  V  V22  1  0.11832719  0.75546015  0.87620786  1
  V  V23  1  0.87015358  0.75210802  0.62351254  1
  V  V24  1  0.50075211  0.00372661  0.49995679  1
  V  V25  1  0.74551127  0.25331642  -0.00757384  1
  V  V26  1  0.24973746  0.75379865  0.49926423  1
  V  V27  1  0.62773597  0.12989020  0.50401351  1
  V  V28  1  0.63146693  -0.00166807  0.62971536  1
  V  V29  1  0.25253775  0.37788347  0.11887423  1
  V  V30  1  0.88479835  0.50245336  0.87707942  1
  V  V31  1  0.37554658  0.87761372  0.49907561  1
  V  V32  1  0.74996934  0.61447871  0.37063000  1
  V  V33  1  0.13217202  0.12050735  0.50354085  1
  V  V34  1  0.24880991  0.87905585  0.62484748  1
  V  V35  1  -0.00175177  0.87514678  0.37441989  1
  V  V36  1  0.74846998  0.12787012  0.37370236  1
  V  V37  1  0.00008748  0.75224725  0.74843350  1
  V  V38  1  0.50165294  0.50873486  0.51221569  1
  V  V39  1  0.37458285  -0.00211984  0.87255655  1
  V  V40  1  0.62773314  0.26003156  0.37803658  1
  V  V41  1  0.00182256  0.24927480  0.24746339  1
  V  V42  1  0.37011295  0.00698542  0.37329018  1
  V  V43  1  0.37652984  0.62438762  0.25250003  1
  V  V44  1  0.37849305  0.87187771  -0.00064699  1
  V  V45  1  0.12449428  0.37231320  0.25651261  1
  V  V46  1  0.50239225  0.13190821  0.62723599  1
  V  V47  1  0.36245398  0.25278054  0.62142668  1
  V  V48  1  0.74783285  0.74777094  0.49986946  1
  V  V49  1  0.25138722  0.00904967  0.75148417  1
  V  V50  1  0.87314030  0.12439925  0.24438752  1
  V  V51  1  0.01170493  0.35882322  0.87896440  1
  V  V52  1  0.64587319  0.49798688  0.62732611  1
  V  V53  1  0.61910232  0.13259030  -0.01179522  1
  V  V54  1  0.00070789  0.11775860  0.11522465  1
  V  V55  1  -0.00313582  0.74736950  0.24829789  1
  V  V56  1  0.50250914  0.26243838  0.25257013  1
  V  V57  1  0.49871400  0.00153522  -0.00127451  1
  V  V58  1  0.25110235  0.75048739  -0.00146332  1
  V  V59  1  0.12616921  0.87390470  0.24725340  1
  V  V60  1  0.87244700  -0.00141117  0.37096479  1
  V  V61  1  0.62756744  0.62176231  0.00352137  1
  V  V62  1  0.37772230  0.74840388  0.12483328  1
  V  V63  1  0.36914394  0.12893627  0.24940703  1
  V  V64  1  0.37669104  0.12775054  0.75287590  1
  V  V65  1  0.24938449  0.62248893  0.86527833  1
  V  V66  1  0.87138214  0.74789106  0.12668521  1
  V  V67  1  0.74808202  0.75076861  -0.00566794  1
  V  V68  1  0.74594585  0.00443271  0.24770941  1
  V  V69  1  0.62833384  0.49373045  0.14130707  1
  V  V70  1  0.62558692  0.74426482  0.37965491  1
  V  V71  1  0.62393324  0.87751502  0.25093991  1
  V  V72  1  0.62267313  0.00451256  0.12454147  1
  V  V73  1  0.75415409  0.62126829  0.87343055  1
  V  V74  1  0.12283710  0.49989832  0.12728554  1
  V  V75  1  0.63195873  0.86811895  0.74411003  1
  V  V76  1  0.37764196  0.25838824  0.12101907  1
  V  V77  1  0.87468227  0.25155252  0.11690888  1
  V  V78  1  0.76712336  0.26104292  0.50932887  1
  V  V79  1  0.50179373  0.62043183  0.12751354  1
  V  V80  1  0.37873340  0.38444559  -0.01468907  1
  V  V81  1  0.25173134  0.62673019  0.37500056  1
  V  V82  1  0.87357172  0.62279374  0.74839991  1
  V  V83  1  0.49783345  0.37603837  0.39093167  1
  V  V84  1  0.88671368  0.48370483  0.37219760  1
  Zn  Zn85  1  -0.00931517  0.47866841  0.50485950  1
  Zn  Zn86  1  0.11858522  0.00537314  0.63018238  1
  Zn  Zn87  1  -0.04841343  0.28274953  0.71631585  1
  Zn  Zn88  1  -0.00009004  0.62668234  0.61921281  1
  Zn  Zn89  1  0.75197564  0.38322630  0.13272963  1
  Zn  Zn90  1  0.00130957  0.49901875  0.00155921  1
  Zn  Zn91  1  0.41471907  0.58965018  0.78968530  1
  Zn  Zn92  1  0.86849183  0.61375973  0.24644405  1
  Zn  Zn93  1  0.28090147  0.40443722  0.57403462  1
  Zn  Zn94  1  0.51172122  0.63419332  0.63179190  1
  Zn  Zn95  1  0.61824161  0.74194154  0.86217321  1
  Zn  Zn96  1  0.00106232  0.00412285  0.49960409  1
  Zn  Zn97  1  0.26229372  0.24159721  0.47984937  1
  Zn  Zn98  1  0.87541221  0.37863416  0.00035916  1
  Zn  Zn99  1  0.24461132  0.00802019  0.25044539  1
  Zn  Zn100  1  -0.00304064  0.62365072  0.12526842  1
  Zn  Zn101  1  0.79429256  0.02946043  0.72332931  1
  Zn  Zn102  1  -0.03640539  0.11694290  0.65659743  1
  Zn  Zn103  1  0.12436196  -0.00100182  0.11946330  1
  Zn  Zn104  1  0.12432097  0.49643713  0.62949759  1
  Zn  Zn105  1  0.25342450  0.49736589  0.74210582  1
  Zn  Zn106  1  0.50417776  0.49183199  -0.03148091  1
  Zn  Zn107  1  0.19401009  0.18290071  0.14983085  1
  Zn  Zn108  1  0.09976869  0.19887616  0.68587260  1
  Zn  Zn109  1  0.18748601  0.68880318  0.18667784  1
  Zn  Zn110  1  0.18787611  0.69206890  0.68354776  1
  Zn  Zn111  1  0.69836663  0.22036848  0.19855813  1
  Zn  Zn112  1  0.79661906  0.19820962  0.69806397  1
  Zn  Zn113  1  0.68662114  0.68682923  0.19028725  1
  Zn  Zn114  1  0.68793237  0.68399056  0.68536585  1
  Zn  Zn115  1  0.31430268  0.31962823  0.30746255  1
  Zn  Zn116  1  0.29560873  0.29807850  0.81435460  1
  Zn  Zn117  1  0.31383631  0.81492223  0.31284959  1
  Zn  Zn118  1  0.30743170  0.81178668  0.81388666  1
  Zn  Zn119  1  0.80949301  0.31502962  0.30738448  1
  Zn  Zn120  1  0.81156779  0.31814561  0.82450497  1
  Zn  Zn121  1  0.80883498  0.81162804  0.31256522  1
  Zn  Zn122  1  0.83686985  0.85525092  0.78880267  1
  Zn  Zn123  1  0.12452974  0.35148578  0.49456065  1
  Zn  Zn124  1  0.18978797  0.43972371  0.93788464  1
  Zn  Zn125  1  0.18924572  0.94059997  0.43405673  1
  Zn  Zn126  1  0.18721780  0.94249579  0.93565333  1
  Zn  Zn127  1  0.68580755  0.43757048  0.44479260  1
  Zn  Zn128  1  0.69127105  0.44087882  0.93859980  1
  Zn  Zn129  1  0.68756229  0.93702510  0.43921831  1
  Zn  Zn130  1  0.68023607  0.93420692  0.93599771  1
  Zn  Zn131  1  0.31849493  0.06005704  0.06731912  1
  Zn  Zn132  1  0.30893362  0.06850375  0.56284391  1
  Zn  Zn133  1  0.31180148  0.56099942  0.05810951  1
  Zn  Zn134  1  0.31116364  0.57120783  0.56383447  1
  Zn  Zn135  1  0.81041793  0.06407008  0.05543316  1
  Zn  Zn136  1  0.81022691  0.06324368  0.55283613  1
  Zn  Zn137  1  0.81126539  0.56048949  0.06353690  1
  Zn  Zn138  1  0.81587831  0.56475173  0.55379880  1
  Zn  Zn139  1  0.44198087  0.44017975  0.19009650  1
  Zn  Zn140  1  0.43143259  0.43348617  0.69127620  1
  Zn  Zn141  1  0.43733323  0.94049032  0.18837267  1
  Zn  Zn142  1  0.44177366  0.93684662  0.68545500  1
  Zn  Zn143  1  0.93754206  0.43479856  0.19083044  1
  Zn  Zn144  1  0.94172775  0.44738655  0.68541522  1
  Zn  Zn145  1  0.93506816  0.93554076  0.18281294  1
  Zn  Zn146  1  0.94631548  0.93849076  0.68041123  1
  Zn  Zn147  1  0.05521004  0.05706445  0.30197093  1
  Zn  Zn148  1  0.07354784  0.07132776  0.82547219  1
  Zn  Zn149  1  0.06126631  0.56243315  0.31459872  1
  Zn  Zn150  1  0.06658030  0.56258523  0.80815797  1
  Zn  Zn151  1  0.55905749  0.07046205  0.31323735  1
  Zn  Zn152  1  0.56118114  0.05998095  0.80883364  1
  Zn  Zn153  1  0.56290791  0.56144378  0.31845174  1
  Zn  Zn154  1  0.57335477  0.56713616  0.80516867  1
  Zn  Zn155  1  0.43931194  0.18672017  0.43717479  1
  Zn  Zn156  1  0.41877433  0.19247203  0.93526412  1
  Zn  Zn157  1  0.43782458  0.68703184  0.44394115  1
  Zn  Zn158  1  0.44706266  0.67001025  0.93195832  1
  Zn  Zn159  1  0.94587823  0.18395990  0.42914792  1
  Zn  Zn160  1  0.93169467  0.18529022  0.92725384  1
  Zn  Zn161  1  0.93296861  0.68445588  0.43264717  1
  Zn  Zn162  1  0.93918096  0.69194842  0.93793981  1
  Zn  Zn163  1  0.06353228  0.31156433  0.05948618  1
  Zn  Zn164  1  -0.05036801  0.30739656  0.55926939  1
  Zn  Zn165  1  0.05923525  0.81459985  0.06166141  1
  Zn  Zn166  1  0.06049513  0.81493035  0.56261164  1
  Zn  Zn167  1  0.55978623  0.31802771  0.05489856  1
  Zn  Zn168  1  0.56929325  0.31475868  0.57296280  1
  Zn  Zn169  1  0.56180324  0.81091966  0.06096830  1
  Zn  Zn170  1  0.56341631  0.81521157  0.56095847  1
  O  O171  1  0.10443446  0.11717659  0.12877136  1
  O  O172  1  0.13793967  0.12343108  0.60548762  1
  O  O173  1  0.12452725  0.61890104  0.11941453  1
  O  O174  1  0.12581878  0.63269210  0.60690786  1
  O  O175  1  0.61278426  0.12437793  0.11968685  1
  O  O176  1  0.61655417  0.11685812  0.61301109  1
  O  O177  1  0.62094201  0.61786354  0.12298768  1
  O  O178  1  0.62773449  0.60515237  0.62796625  1
  O  O179  1  0.38287165  0.38832676  0.37156587  1
  O  O180  1  0.36323385  0.37032770  0.88990527  1
  O  O181  1  0.38336588  0.88245871  0.37864984  1
  O  O182  1  0.38193727  0.87643662  0.87921921  1
  O  O183  1  0.87193136  0.38493492  0.37008755  1
  O  O184  1  0.89143909  0.38759565  0.87653678  1
  O  O185  1  0.87862605  0.87699618  0.38022612  1
  O  O186  1  0.87167283  0.85705800  0.89745836  1
  O  O187  1  0.26699064  -0.00845031  0.36658524  1
  O  O188  1  0.26708828  -0.01189127  0.86616535  1
  O  O189  1  0.26236033  0.51015405  0.36803965  1
  O  O190  1  0.24683078  0.52233201  0.88028597  1
  O  O191  1  0.75169828  0.00728999  0.36744385  1
  O  O192  1  0.74247193  0.01103897  0.88310630  1
  O  O193  1  0.74876890  0.51252346  0.38163820  1
  O  O194  1  0.76619864  0.51484375  0.88326953  1
  O  O195  1  0.24077094  0.49996996  0.13219418  1
  O  O196  1  0.24343969  0.50004911  0.61884972  1
  O  O197  1  0.25052198  0.98412755  0.12751472  1
  O  O198  1  0.25276886  0.99031322  0.63283652  1
  O  O199  1  0.73403631  0.50008757  0.12467971  1
  O  O200  1  0.74362678  0.49889929  0.61449350  1
  O  O201  1  0.74181888  0.99759594  0.12831872  1
  O  O202  1  0.73286925  0.99975081  0.62005804  1
  O  O203  1  0.01285973  0.35980779  0.23590782  1
  O  O204  1  0.01585070  0.37346968  0.76717299  1
  O  O205  1  0.00556501  0.86510576  0.25130864  1
  O  O206  1  0.01718848  0.86353781  0.74097945  1
  O  O207  1  0.49768838  0.36593494  0.26212621  1
  O  O208  1  0.49797427  0.36502818  0.75248136  1
  O  O209  1  0.50448336  0.87106145  0.25585846  1
  O  O210  1  0.50572592  0.87582933  0.75969645  1
  O  O211  1  0.49071228  0.13411488  0.24166801  1
  O  O212  1  0.49628801  0.13315288  0.74237995  1
  O  O213  1  0.49730803  0.63079214  0.24507821  1
  O  O214  1  0.50609747  0.63563480  0.74393581  1
  O  O215  1  0.98855403  0.12598633  0.23598649  1
  O  O216  1  1.02845732  0.13175480  0.74861852  1
  O  O217  1  0.99931432  0.63908216  0.24939663  1
  O  O218  1  0.99462248  0.63994922  0.74821443  1
  O  O219  1  0.38520403  0.26602817  0.01609091  1
  O  O220  1  0.37525748  0.23682243  0.51566557  1
  O  O221  1  0.37160484  0.75343919  0.00851556  1
  O  O222  1  0.36624020  0.76071216  0.50006203  1
  O  O223  1  0.86900718  0.25261884  0.00264952  1
  O  O224  1  0.87116313  0.24397477  0.49310888  1
  O  O225  1  0.86944528  0.75479319  0.01254053  1
  O  O226  1  0.86935054  0.75517761  0.50367160  1
  O  O227  1  0.13167018  0.22726783  0.46224620  1
  O  O228  1  0.13750995  0.24997586  1.00001618  1
  O  O229  1  0.13212099  0.75267436  0.49175647  1
  O  O230  1  0.12779438  0.74759188  0.99389312  1
  O  O231  1  0.62712327  0.24401617  0.49563359  1
  O  O232  1  0.63141138  0.24209650  1.00781831  1
  O  O233  1  0.63281959  0.75762509  0.48864943  1
  O  O234  1  0.63479146  0.74008877  1.00454116  1
  O  O235  1  0.49895058  0.24979872  0.13484043  1
  O  O236  1  0.49697838  0.24028174  0.63192931  1
  O  O237  1  0.49708637  0.74559990  0.13600318  1
  O  O238  1  0.48481306  0.75301469  0.61460886  1
  O  O239  1  0.99081632  0.23944058  0.12247543  1
  O  O240  1  1.00170643  0.22643787  0.62741892  1
  O  O241  1  0.98994313  0.75017963  0.13191618  1
  O  O242  1  0.98929955  0.74843085  0.62949498  1
  O  O243  1  0.01574326  0.23543644  0.34944562  1
  O  O244  1  0.00530728  0.26026478  0.88419019  1
  O  O245  1  0.00217669  0.75668846  0.36593958  1
  O  O246  1  0.01109647  0.74951525  0.86694235  1
  O  O247  1  0.50303068  0.26013039  0.37337454  1
  O  O248  1  0.49132756  0.24543492  0.86115996  1
  O  O249  1  0.50755723  0.75358088  0.37319199  1
  O  O250  1  0.50328221  0.76210325  0.88635654  1
  O  O251  1  0.23987534  0.12277725  0.48841915  1
  O  O252  1  0.24099737  0.13499900  1.03765031  1
  O  O253  1  0.23985737  0.63498825  0.49199496  1
  O  O254  1  0.23923504  0.63336215  0.99748977  1
  O  O255  1  0.74235926  0.13342054  0.49081592  1
  O  O256  1  0.73625155  0.12788146  0.99189920  1
  O  O257  1  0.75494963  0.64008833  0.48533098  1
  O  O258  1  0.74433279  0.63193561  0.99841335  1
  O  O259  1  0.26109212  0.38618249  0.01321640  1
  O  O260  1  0.23370798  0.35261457  0.49081455  1
  O  O261  1  0.25738423  0.87009346  0.00661732  1
  O  O262  1  0.25461479  0.87425336  0.50671835  1
  O  O263  1  0.75071999  0.36634643  0.00470999  1
  O  O264  1  0.75080591  0.35826444  0.49539213  1
  O  O265  1  0.75353319  0.86874245  0.00560919  1
  O  O266  1  0.75960999  0.86134105  0.49005183  1
  O  O267  1  0.12865389  0.49217773  0.24660272  1
  O  O268  1  0.13172654  0.49229298  0.74917422  1
  O  O269  1  0.12583525  0.98413660  0.24293062  1
  O  O270  1  0.13653567  0.99236972  0.75170866  1
  O  O271  1  0.62174168  0.50135725  0.24006992  1
  O  O272  1  0.62763270  0.49190982  0.73774029  1
  O  O273  1  0.62669060  0.99951777  0.24461309  1
  O  O274  1  0.61680758  0.98913276  0.73897464  1
  O  O275  1  0.37688206  0.01101159  0.25626162  1
  O  O276  1  0.37371686  0.00310915  0.75563590  1
  O  O277  1  0.37365226  0.50836304  0.25845528  1
  O  O278  1  0.36555034  0.50455173  0.74249423  1
  O  O279  1  0.86495332  0.00314012  0.25091437  1
  O  O280  1  0.87071795  -0.04175542  0.75722100  1
  O  O281  1  0.87618840  0.49937400  0.26344131  1
  O  O282  1  0.88242403  0.51863973  0.75824775  1
  O  O283  1  0.12985784  0.35275154  0.35398746  1
  O  O284  1  0.11289717  0.38248770  0.87764672  1
  O  O285  1  0.12005304  0.87097905  0.36576014  1
  O  O286  1  0.13139313  0.86747335  0.86486425  1
  O  O287  1  0.61660586  0.36556201  0.38096500  1
  O  O288  1  0.61705193  0.39839320  0.86243828  1
  O  O289  1  0.61942408  0.86929435  0.36914319  1
  O  O290  1  0.61583318  0.87124966  0.86296845  1
  O  O291  1  0.38962679  0.13636730  0.12759232  1
  O  O292  1  0.38366205  0.12722265  0.63541287  1
  O  O293  1  0.38359253  0.62798206  0.13028895  1
  O  O294  1  0.37286333  0.64755349  0.62041139  1
  O  O295  1  0.88193284  0.12757580  0.12549721  1
  O  O296  1  0.85137642  0.10622610  0.64729425  1
  O  O297  1  0.87540973  0.63307788  0.12935962  1
  O  O298  1  0.87490610  0.63362285  0.63238838  1
  O  O299  1  0.26600461  0.26856291  0.13370266  1
  O  O300  1  0.26612559  0.24122355  0.62373552  1
  O  O301  1  0.25623548  0.75819550  0.12012172  1
  O  O302  1  0.25768226  0.76342927  0.61971635  1
  O  O303  1  0.76781585  0.23354487  0.10707401  1
  O  O304  1  0.74954041  0.24662173  0.60627596  1
  O  O305  1  0.75483904  0.75431259  0.11975335  1
  O  O306  1  0.76136397  0.74592514  0.61476633  1
  O  O307  1  0.24527887  0.24132044  0.35495259  1
  O  O308  1  0.27439845  0.22443155  0.89834402  1
  O  O309  1  0.24519043  0.74676926  0.37859279  1
  O  O310  1  0.23572177  0.74774999  0.88112494  1
  O  O311  1  0.74142534  0.24434775  0.38276250  1
  O  O312  1  0.74936619  0.23721899  0.89052183  1
  O  O313  1  0.74168380  0.74385372  0.37890285  1
  O  O314  1  0.74919393  0.74094742  0.89124448  1
  O  O315  1  -0.01130572  0.10502091  0.00155129  1
  O  O316  1  0.02574275  0.11858241  0.47881809  1
  O  O317  1  0.01381160  0.62864385  0.00362574  1
  O  O318  1  0.01526931  0.63460327  0.49498343  1
  O  O319  1  0.50097045  0.12398266  0.00626912  1
  O  O320  1  0.50836799  0.12225601  0.50602396  1
  O  O321  1  0.51290638  0.63790996  0.02137088  1
  O  O322  1  0.50068556  0.61230059  0.50624744  1
  O  O323  1  0.50153862  0.38171996  0.49353435  1
  O  O324  1  0.48629720  0.38161063  0.99503853  1
  O  O325  1  0.49548309  0.88427091  0.49283841  1
  O  O326  1  0.49485188  0.88234723  0.99648901  1
  O  O327  1  1.01818671  0.36931589  0.49646327  1
  O  O328  1  0.99999926  0.37947454  0.99051028  1
  O  O329  1  0.99227156  0.87791001  0.48975120  1
  O  O330  1  0.98422164  0.88250410  1.00643406  1
  O  O331  1  0.49581250  0.49512858  0.38724190  1
  O  O332  1  0.48801204  0.56281626  0.88437159  1
  O  O333  1  0.49199773  0.99771292  0.37932464  1
  O  O334  1  0.49073837  0.98820691  0.87890622  1
  O  O335  1  0.98917222  0.49809822  0.37488511  1
  O  O336  1  0.99168856  0.50750134  0.87856406  1
  O  O337  1  0.98961778  0.98931046  0.36819669  1
  O  O338  1  1.00620571  0.99658941  0.88749425  1
  O  O339  1  -0.00254830  0.00415375  0.11624184  1
  O  O340  1  0.00320793  0.01007842  0.61685897  1
  O  O341  1  0.01265793  0.50226795  0.12674339  1
  O  O342  1  0.00739788  0.51097449  0.61750112  1
  O  O343  1  0.50227344  0.01081418  0.12004595  1
  O  O344  1  0.50303592  0.01263275  0.61832581  1
  O  O345  1  0.50986532  0.51098102  0.12776123  1
  O  O346  1  0.49313555  0.49946262  0.61359415  1
  O  O347  1  0.24525475  0.38610464  0.23962855  1
  O  O348  1  0.23764917  0.38266850  0.76712587  1
  O  O349  1  0.24163612  0.87174480  0.24158679  1
  O  O350  1  0.24216648  0.87970738  0.74180088  1
  O  O351  1  0.73321543  0.32812955  0.22974409  1
  O  O352  1  0.73315532  0.37161234  0.76255118  1
  O  O353  1  0.74197348  0.88230703  0.24472208  1
  O  O354  1  0.72997183  0.87424890  0.75142267  1
  O  O355  1  0.26776911  0.12325659  0.22829700  1
  O  O356  1  0.26307512  0.10961281  0.74671093  1
  O  O357  1  0.25567320  0.62275156  0.25524793  1
  O  O358  1  0.23865866  0.62776053  0.76293686  1
  O  O359  1  0.75409846  0.12485101  0.25388276  1
  O  O360  1  0.73833383  0.12047722  0.77069640  1
  O  O361  1  0.75007414  0.63036487  0.26647359  1
  O  O362  1  0.76210409  0.63654922  0.76319373  1
  O  O363  1  0.38188644  0.11826861  0.36269458  1
  O  O364  1  0.38596570  0.11059984  0.86125259  1
  O  O365  1  0.37307523  0.61920283  0.37192465  1
  O  O366  1  0.35035846  0.64737845  0.87271484  1
  O  O367  1  0.86980337  0.11808102  0.36427652  1
  O  O368  1  0.85899827  0.11114381  0.88319500  1
  O  O369  1  0.86150830  0.62212831  0.36776964  1
  O  O370  1  0.87273224  0.62494166  0.86973620  1
  O  O371  1  0.13449417  0.38350274  0.12776802  1
  O  O372  1  0.12744427  0.37361742  0.64285370  1
  O  O373  1  0.13445535  0.86941135  0.13195860  1
  O  O374  1  0.13463332  0.87851970  0.63039212  1
  O  O375  1  0.61864649  0.39383712  0.12005010  1
  O  O376  1  0.62081739  0.39069148  0.63922928  1
  O  O377  1  0.62793188  0.88195078  0.13081944  1
  O  O378  1  0.61491333  0.88376825  0.63608377  1
  O  O379  1  0.12294620  0.24921736  0.24129919  1
  O  O380  1  0.14559619  0.26745778  0.76174673  1
  O  O381  1  0.11771307  0.75753457  0.25412146  1
  O  O382  1  0.11961604  0.75631061  0.75601787  1
  O  O383  1  0.60828647  0.23312536  0.26961774  1
  O  O384  1  0.60889856  0.26995863  0.75336061  1
  O  O385  1  0.62016662  0.75654089  0.26032629  1
  O  O386  1  0.62626563  0.76259983  0.74561423  1
  O  O387  1  0.38514697  0.24724755  0.24225482  1
  O  O388  1  0.37897502  0.24179797  0.74156094  1
  O  O389  1  0.38091653  0.74407311  0.24561336  1
  O  O390  1  0.37236295  0.76022168  0.73493215  1
  O  O391  1  0.88528349  0.24286189  0.23931315  1
  O  O392  1  0.86924376  0.23692451  0.77567414  1
  O  O393  1  0.88005243  0.75304115  0.23937386  1
  O  O394  1  0.88275135  0.75479472  0.74052282  1
  O  O395  1  0.38417792  0.50393900  0.49373968  1
  O  O396  1  0.37980804  0.48877790  1.00205818  1
  O  O397  1  0.37976967  0.99884404  0.49182894  1
  O  O398  1  0.37918609  0.99447243  0.99258340  1
  O  O399  1  0.87889936  0.50656447  0.47877181  1
  O  O400  1  0.88069447  0.50099139  0.99369647  1
  O  O401  1  0.87348323  0.99125647  0.48853855  1
  O  O402  1  0.88015144  0.98450668  1.00250065  1
  O  O403  1  0.10615757  -0.01742299  0.00517847  1
  O  O404  1  0.12719124  0.01023510  0.49740287  1
  O  O405  1  0.12556796  0.51047584  0.01062617  1
  O  O406  1  0.12228210  0.51824561  0.49440290  1
  O  O407  1  0.61557204  0.00704179  0.00728285  1
  O  O408  1  0.61944971  0.00659468  0.50395506  1
  O  O409  1  0.62034589  0.51386764  0.00359610  1
  O  O410  1  0.61129712  0.49352706  0.51487241  1
  O  O411  1  0.37100729  0.37383093  0.12573267  1
  O  O412  1  0.37347680  0.35749768  0.62381150  1
  O  O413  1  0.37014731  0.86933001  0.12191588  1
  O  O414  1  0.36951804  0.87132964  0.61721901  1
  O  O415  1  0.87314779  0.36475735  0.12198437  1
  O  O416  1  0.89407541  0.35766241  0.64512982  1
  O  O417  1  0.86467378  0.86685924  0.11817008  1
  O  O418  1  0.87949458  0.86707004  0.60672756  1
  O  O419  1  0.13714140  0.12282439  0.34831862  1
  O  O420  1  0.14877734  0.11161938  0.90115018  1
  O  O421  1  0.13026243  0.63299981  0.38074606  1
  O  O422  1  0.13111657  0.63482501  0.88366733  1
  O  O423  1  0.62606310  0.13200900  0.38818341  1
  O  O424  1  0.61844400  0.12063650  0.88748803  1
  O  O425  1  0.63446151  0.63423548  0.37370499  1
  O  O426  1  0.63953143  0.62775117  0.88467928  1
