# generated using pymatgen
data_V85Zn86O256
_symmetry_space_group_name_H-M   'P 1'
_cell_length_a   16.91667986
_cell_length_b   16.91818566
_cell_length_c   16.92334660
_cell_angle_alpha   89.94864258
_cell_angle_beta   90.04864449
_cell_angle_gamma   90.01682921
_symmetry_Int_Tables_number   1
_chemical_formula_structural   V85Zn86O256
_chemical_formula_sum   'V85 Zn86 O256'
_cell_volume   4843.44995529
_cell_formula_units_Z   1
loop_
 _symmetry_equiv_pos_site_id
 _symmetry_equiv_pos_as_xyz
  1  'x, y, z'
loop_
 _atom_site_type_symbol
 _atom_site_label
 _atom_site_symmetry_multiplicity
 _atom_site_fract_x
 _atom_site_fract_y
 _atom_site_fract_z
 _atom_site_occupancy
  V  V0  1  0.49935804  0.25553773  0.74131454  1
  V  V1  1  0.24462121  0.74720233  0.50331585  1
  V  V2  1  0.13041308  0.49718012  0.12677271  1
  V  V3  1  0.49791515  0.74957949  0.24675023  1
  V  V4  1  0.87767991  0.37571218  0.50135793  1
  V  V5  1  0.24685603  0.49301978  0.75820050  1
  V  V6  1  0.12829622  0.25743957  0.87896752  1
  V  V7  1  0.62428297  0.87478643  0.24981380  1
  V  V8  1  0.62888315  0.61519470  0.00053471  1
  V  V9  1  0.74778020  0.24936961  0.50284202  1
  V  V10  1  0.24287195  0.62269129  0.37191924  1
  V  V11  1  0.62286571  0.12893962  -0.00108973  1
  V  V12  1  -0.00679053  -0.00400420  0.50046562  1
  V  V13  1  0.49266558  0.25447132  0.25011475  1
  V  V14  1  0.75027741  0.00001745  0.24960336  1
  V  V15  1  0.00873782  0.62524095  0.62261816  1
  V  V16  1  0.24673655  0.12584203  0.87878590  1
  V  V17  1  0.12982210  0.76322558  0.87807025  1
  V  V18  1  0.88457750  0.50045897  0.87757051  1
  V  V19  1  0.25948324  0.37438148  0.12670987  1
  V  V20  1  0.50385168  0.61673272  0.12064894  1
  V  V21  1  0.74800406  0.37479288  0.63051284  1
  V  V22  1  0.49940195  0.87681712  0.37899565  1
  V  V23  1  -0.00104051  0.12547499  0.62597945  1
  V  V24  1  0.74643919  0.63081492  0.87185372  1
  V  V25  1  0.61796217  -0.00519734  0.63312700  1
  V  V26  1  0.74924525  0.49633439  0.75193766  1
  V  V27  1  0.12995484  0.49631299  0.62312431  1
  V  V28  1  0.37568635  0.38110850  -0.00864282  1
  V  V29  1  0.12250185  -0.00460494  0.62586182  1
  V  V30  1  0.39957864  0.60171570  0.28499618  1
  V  V31  1  0.87849439  0.49621382  0.37407868  1
  V  V32  1  0.87557151  0.62287353  0.24747992  1
  V  V33  1  0.12449205  0.62234034  -0.00326901  1
  V  V34  1  0.74982400  0.49436455  0.23682551  1
  V  V35  1  0.62564981  0.62204147  0.50058398  1
  V  V36  1  0.87876727  0.62772385  0.75005250  1
  V  V37  1  0.74826515  0.12436866  0.37518576  1
  V  V38  1  0.87473854  0.12584057  0.75257975  1
  V  V39  1  0.51445895  0.75093841  0.75326093  1
  V  V40  1  0.74147676  0.75497648  -0.00550636  1
  V  V41  1  0.48915131  0.13081103  0.12400069  1
  V  V42  1  0.00405958  0.25955327  0.75492009  1
  V  V43  1  0.12550680  0.00193545  0.12398049  1
  V  V44  1  0.62246000  0.26421515  0.37702507  1
  V  V45  1  0.12640870  0.36854469  0.25522031  1
  V  V46  1  0.87839731  0.75580924  0.61826175  1
  V  V47  1  -0.01007411  0.87354001  0.37735405  1
  V  V48  1  0.49513233  -0.00085203  -0.00318675  1
  V  V49  1  0.74888156  0.12748387  0.87531407  1
  V  V50  1  0.87637897  0.75052425  0.12054964  1
  V  V51  1  0.74994741  0.87666311  0.62488248  1
  V  V52  1  0.12312074  0.13726652  0.49664702  1
  V  V53  1  0.87377575  0.25054076  0.62940762  1
  V  V54  1  0.62540192  0.74870836  0.37581591  1
  V  V55  1  0.62058688  0.11575322  0.50123967  1
  V  V56  1  0.75250870  0.62412574  0.37457945  1
  V  V57  1  0.24340035  0.13327331  0.37689944  1
  V  V58  1  0.00652617  0.00226556  -0.00330642  1
  V  V59  1  0.62704299  0.37534983  0.22926389  1
  V  V60  1  0.37505799  0.62346597  0.75441044  1
  V  V61  1  0.88111324  0.87524247  -0.00363247  1
  V  V62  1  0.36994502  0.74476486  0.11614557  1
  V  V63  1  0.87771186  0.38003872  0.00713188  1
  V  V64  1  0.51125546  0.87315618  0.86921221  1
  V  V65  1  0.24691012  0.87448302  0.63097281  1
  V  V66  1  0.12162574  0.75083382  0.37972369  1
  V  V67  1  0.62255274  0.00106196  0.12515920  1
  V  V68  1  0.50475004  0.38246800  0.86161973  1
  V  V69  1  0.24918310  -0.00536387  0.25097001  1
  V  V70  1  0.00627020  0.76327560  0.75551269  1
  V  V71  1  0.24933752  0.35728981  0.62492701  1
  V  V72  1  0.00213583  0.61835068  0.11878354  1
  V  V73  1  0.49001138  0.12373150  0.62233359  1
  V  V74  1  0.25407743  0.62745213  0.88107677  1
  V  V75  1  0.87961372  -0.00221095  0.87458566  1
  V  V76  1  0.37659658  0.87752663  0.50178653  1
  V  V77  1  0.24668431  -0.00040429  0.75161494  1
  V  V78  1  0.86636045  0.25052997  0.12622046  1
  V  V79  1  0.62463241  0.49504210  0.62524628  1
  V  V80  1  0.49883523  0.62590376  0.62224221  1
  V  V81  1  0.37620509  -0.00124361  0.37428875  1
  V  V82  1  0.25320909  0.24656809  0.00642631  1
  V  V83  1  0.00113327  0.12781372  0.12368671  1
  V  V84  1  0.00117655  0.74923345  0.24745190  1
  Zn  Zn85  1  0.37387224  -0.00089976  0.87096989  1
  Zn  Zn86  1  0.00741250  0.38271289  0.87966879  1
  Zn  Zn87  1  0.74982840  0.87623420  0.12258471  1
  Zn  Zn88  1  0.36986871  0.86723668  -0.00900512  1
  Zn  Zn89  1  0.87540399  0.12631223  0.25202700  1
  Zn  Zn90  1  0.49996609  0.49858872  -0.00573431  1
  Zn  Zn91  1  0.38054994  0.35081477  0.51760598  1
  Zn  Zn92  1  0.00613154  0.50328776  0.49743555  1
  Zn  Zn93  1  0.37062391  0.12978289  0.74609357  1
  Zn  Zn94  1  0.00963235  0.36440040  0.38152500  1
  Zn  Zn95  1  0.37560906  0.75281874  0.62921780  1
  Zn  Zn96  1  0.29353222  0.45660542  0.29977910  1
  Zn  Zn97  1  0.74644662  0.25805461  0.00258948  1
  Zn  Zn98  1  0.74509424  -0.00593343  0.75361647  1
  Zn  Zn99  1  0.62566294  0.25538345  0.86941734  1
  Zn  Zn100  1  0.86970999  -0.00461927  0.38056867  1
  Zn  Zn101  1  0.37077959  0.12893027  0.24827047  1
  Zn  Zn102  1  0.24707432  0.86758490  0.12093069  1
  Zn  Zn103  1  0.00061428  0.24673830  0.25597030  1
  Zn  Zn104  1  0.75657319  0.75556093  0.49688426  1
  Zn  Zn105  1  0.44156650  0.46463643  0.43351142  1
  Zn  Zn106  1  0.12371012  0.87301698  0.24805097  1
  Zn  Zn107  1  0.18890149  0.18611015  0.18729053  1
  Zn  Zn108  1  0.17825847  0.18039422  0.69438013  1
  Zn  Zn109  1  0.18920780  0.68179256  0.19374670  1
  Zn  Zn110  1  0.18653560  0.68595215  0.69230434  1
  Zn  Zn111  1  0.68304654  0.18786428  0.18732740  1
  Zn  Zn112  1  0.68150223  0.18522362  0.68950366  1
  Zn  Zn113  1  0.68893239  0.68691597  0.18385962  1
  Zn  Zn114  1  0.69146192  0.68800599  0.68525323  1
  Zn  Zn115  1  0.33819929  0.29531787  0.36284217  1
  Zn  Zn116  1  0.31887424  0.31348316  0.81118321  1
  Zn  Zn117  1  0.31316982  0.80768129  0.30962172  1
  Zn  Zn118  1  0.31766460  0.81197896  0.81320044  1
  Zn  Zn119  1  0.81199905  0.31184418  0.31138320  1
  Zn  Zn120  1  0.81465124  0.31461390  0.81824552  1
  Zn  Zn121  1  0.81239950  0.81121423  0.30919093  1
  Zn  Zn122  1  0.81303202  0.81471055  0.80781460  1
  Zn  Zn123  1  0.19102809  0.43196140  0.44560666  1
  Zn  Zn124  1  0.18754790  0.43927280  0.94159634  1
  Zn  Zn125  1  0.18280552  0.93657835  0.43961686  1
  Zn  Zn126  1  0.19189132  0.93649683  0.94238052  1
  Zn  Zn127  1  0.69158450  0.44063469  0.43918866  1
  Zn  Zn128  1  0.69167181  0.43587978  0.93562723  1
  Zn  Zn129  1  0.68797539  0.93540935  0.44227482  1
  Zn  Zn130  1  0.68799525  0.94211866  0.93732290  1
  Zn  Zn131  1  0.30996136  0.06015295  0.06124855  1
  Zn  Zn132  1  0.30914454  0.06282041  0.55724154  1
  Zn  Zn133  1  0.31384168  0.56139222  0.06369313  1
  Zn  Zn134  1  0.30875351  0.56553397  0.55934185  1
  Zn  Zn135  1  0.81317798  0.06490212  0.06219217  1
  Zn  Zn136  1  0.80968975  0.06067577  0.56461491  1
  Zn  Zn137  1  0.81479679  0.56321004  0.05754725  1
  Zn  Zn138  1  0.81513142  0.56571499  0.56308125  1
  Zn  Zn139  1  0.44212082  0.43443439  0.18323273  1
  Zn  Zn140  1  0.41495413  0.45957292  0.64559392  1
  Zn  Zn141  1  0.43514938  0.93618559  0.18604278  1
  Zn  Zn142  1  0.43570216  0.93867898  0.69006992  1
  Zn  Zn143  1  0.94219043  0.43554837  0.18635813  1
  Zn  Zn144  1  0.93835312  0.43974448  0.68935904  1
  Zn  Zn145  1  0.93653728  0.93738089  0.18673443  1
  Zn  Zn146  1  0.93416840  0.93710249  0.68839276  1
  Zn  Zn147  1  0.06119134  0.06063980  0.31062428  1
  Zn  Zn148  1  0.06602539  0.06725398  0.81390699  1
  Zn  Zn149  1  0.06443315  0.55892023  0.30943292  1
  Zn  Zn150  1  0.06702221  0.56805088  0.80849616  1
  Zn  Zn151  1  0.56065065  0.06593533  0.31261055  1
  Zn  Zn152  1  0.55909100  0.06664922  0.81011315  1
  Zn  Zn153  1  0.57090995  0.55734425  0.30942558  1
  Zn  Zn154  1  0.56540732  0.56250275  0.80982953  1
  Zn  Zn155  1  0.44193015  0.18264988  0.43780728  1
  Zn  Zn156  1  0.43240647  0.19372939  0.92984393  1
  Zn  Zn157  1  0.43795859  0.69053867  0.44370708  1
  Zn  Zn158  1  0.44207360  0.68733808  0.93418803  1
  Zn  Zn159  1  0.93718178  0.18746562  0.43665000  1
  Zn  Zn160  1  0.93886601  0.18969785  0.94178115  1
  Zn  Zn161  1  0.94008119  0.68360080  0.43924681  1
  Zn  Zn162  1  0.94021077  0.68880649  0.93540027  1
  Zn  Zn163  1  0.06288506  0.31119379  0.06147762  1
  Zn  Zn164  1  0.06350811  0.31723701  0.56985950  1
  Zn  Zn165  1  0.06445041  0.81351643  0.05840719  1
  Zn  Zn166  1  0.06138768  0.81391267  0.56250019  1
  Zn  Zn167  1  0.55579648  0.31071670  0.05797281  1
  Zn  Zn168  1  0.55639162  0.31653308  0.55670811  1
  Zn  Zn169  1  0.56012898  0.81231496  0.06042902  1
  Zn  Zn170  1  0.56410099  0.81125847  0.56276028  1
  O  O171  1  0.11683824  0.11166566  0.12936479  1
  O  O172  1  0.11834318  0.11399934  0.61741461  1
  O  O173  1  0.12261916  0.62043821  0.11906588  1
  O  O174  1  0.11968002  0.61324723  0.63099762  1
  O  O175  1  0.61577299  0.11994027  0.11725586  1
  O  O176  1  0.61730270  0.11708305  0.61728451  1
  O  O177  1  0.61712565  0.63209657  0.11280715  1
  O  O178  1  0.62372572  0.61939977  0.61699394  1
  O  O179  1  0.35863129  0.40398770  0.37525818  1
  O  O180  1  0.39018446  0.37455453  0.87969190  1
  O  O181  1  0.37863378  0.87785251  0.37997416  1
  O  O182  1  0.38700890  0.87987793  0.87484620  1
  O  O183  1  0.87307336  0.38184464  0.38446904  1
  O  O184  1  0.88051055  0.38506954  0.88342984  1
  O  O185  1  0.88509189  0.87367657  0.37363331  1
  O  O186  1  0.87111739  0.88977839  0.87994648  1
  O  O187  1  0.25627079  -0.00298528  0.36740941  1
  O  O188  1  0.24620531  0.00713871  0.86715466  1
  O  O189  1  0.23615295  0.51991092  0.38309670  1
  O  O190  1  0.24512760  0.50857382  0.86421124  1
  O  O191  1  0.74831332  0.00546665  0.36896448  1
  O  O192  1  0.75829535  0.01092668  0.87452397  1
  O  O193  1  0.76179882  0.50508026  0.36771548  1
  O  O194  1  0.76002498  0.50728513  0.86760533  1
  O  O195  1  0.24200395  0.48951063  0.11977900  1
  O  O196  1  0.23959117  0.49904436  0.63540006  1
  O  O197  1  0.24136327  1.00188410  0.13361535  1
  O  O198  1  0.24132294  0.99442118  0.62849882  1
  O  O199  1  0.75632275  0.50636443  0.13802903  1
  O  O200  1  0.74610694  0.49681054  0.63209068  1
  O  O201  1  0.74213237  1.00086585  0.13225703  1
  O  O202  1  0.74151142  0.99307488  0.62748423  1
  O  O203  1  0.01563521  0.37484707  0.25009870  1
  O  O204  1  -0.00721428  0.36275408  0.75624351  1
  O  O205  1  -0.00152397  0.86703482  0.25742737  1
  O  O206  1  0.00068806  0.86187847  0.74700172  1
  O  O207  1  0.51517345  0.36924018  0.24510285  1
  O  O208  1  0.49811238  0.36778713  0.75748227  1
  O  O209  1  0.50413892  0.86699663  0.25641314  1
  O  O210  1  0.49789406  0.86723265  0.76002803  1
  O  O211  1  0.50003111  0.13376966  0.23993479  1
  O  O212  1  0.49505773  0.13392551  0.73997552  1
  O  O213  1  0.50309415  0.63148464  0.23875864  1
  O  O214  1  0.49363664  0.63231216  0.74878297  1
  O  O215  1  0.99573752  0.12231874  0.23830311  1
  O  O216  1  0.99329925  0.13213669  0.74463758  1
  O  O217  1  0.99436083  0.62986330  0.24215931  1
  O  O218  1  0.99665308  0.63419232  0.74089644  1
  O  O219  1  0.36188505  0.26260313  -0.00590243  1
  O  O220  1  0.36183133  0.25098441  0.46727748  1
  O  O221  1  0.38028178  0.74784059  0.01297194  1
  O  O222  1  0.36483460  0.76239224  0.50385577  1
  O  O223  1  0.87247395  0.25961960  0.00794511  1
  O  O224  1  0.86811847  0.25672608  0.50876773  1
  O  O225  1  0.87077357  0.75886532  0.00041247  1
  O  O226  1  0.87775790  0.74538762  0.51425536  1
  O  O227  1  0.11575305  0.23643864  0.50630288  1
  O  O228  1  0.13925483  0.25342255  0.99289841  1
  O  O229  1  0.13060022  0.75419410  0.49139221  1
  O  O230  1  0.12102063  0.74314422  0.98491796  1
  O  O231  1  0.63048112  0.24260526  0.49352614  1
  O  O232  1  0.62590922  0.23845665  0.99810397  1
  O  O233  1  0.62847815  0.73871435  0.49382433  1
  O  O234  1  0.63867458  0.74607753  1.00171406  1
  O  O235  1  0.50423345  0.24143718  0.13499434  1
  O  O236  1  0.50572744  0.24246801  0.63364432  1
  O  O237  1  0.49497738  0.74202268  0.13076499  1
  O  O238  1  0.50151817  0.74144837  0.63380558  1
  O  O239  1  0.99209332  0.24111369  0.12569507  1
  O  O240  1  0.99431132  0.24682836  0.63585898  1
  O  O241  1  0.99664904  0.74183266  0.12740061  1
  O  O242  1  0.99892195  0.74545342  0.63415673  1
  O  O243  1  -0.00403093  0.25227153  0.37001496  1
  O  O244  1  0.00959194  0.24782100  0.87110890  1
  O  O245  1  0.00363987  0.75369632  0.37119835  1
  O  O246  1  0.01073059  0.74737744  0.86295639  1
  O  O247  1  0.51684659  0.23785535  0.36273481  1
  O  O248  1  0.50345705  0.25987888  0.86517929  1
  O  O249  1  0.50629396  0.75323662  0.36730387  1
  O  O250  1  0.50080711  0.76398338  0.86934633  1
  O  O251  1  0.23878366  0.11928459  0.48566046  1
  O  O252  1  0.25454690  0.13422216  0.99332882  1
  O  O253  1  0.25035951  0.64070994  0.49440803  1
  O  O254  1  0.24313187  0.62120213  0.98863300  1
  O  O255  1  0.74253603  0.13002914  0.49524191  1
  O  O256  1  0.73996369  0.12459825  0.99268500  1
  O  O257  1  0.74527033  0.62818799  0.49220508  1
  O  O258  1  0.74682733  0.63346217  0.99237879  1
  O  O259  1  0.25680317  0.36966563  0.00566012  1
  O  O260  1  0.24712881  0.37056532  0.52228709  1
  O  O261  1  0.25936567  0.88080516  0.00939374  1
  O  O262  1  0.25276382  0.86726325  0.50960393  1
  O  O263  1  0.76907357  0.37350199  -0.00678767  1
  O  O264  1  0.76010353  0.37096500  0.50789825  1
  O  O265  1  0.75899243  0.87063442  -0.00136443  1
  O  O266  1  0.74874122  0.87166610  0.51471135  1
  O  O267  1  0.12341512  0.49244936  0.23537431  1
  O  O268  1  0.13992215  0.50475937  0.74413672  1
  O  O269  1  0.13135315  0.99473108  0.24286800  1
  O  O270  1  0.13466728  1.00563425  0.74020310  1
  O  O271  1  0.63349649  0.48390409  0.25109041  1
  O  O272  1  0.64185393  0.50801179  0.74094346  1
  O  O273  1  0.63241830  0.99627806  0.24701326  1
  O  O274  1  0.62697224  1.00770745  0.73691472  1
  O  O275  1  0.36646278  0.00036705  0.25522000  1
  O  O276  1  0.35869154  0.00392810  0.74778106  1
  O  O277  1  0.37176043  0.51409045  0.23483977  1
  O  O278  1  0.35998003  0.51448751  0.74074157  1
  O  O279  1  0.85990122  0.00036089  0.25125783  1
  O  O280  1  0.87545196  0.00793678  0.75905323  1
  O  O281  1  0.87083563  0.50157806  0.25585536  1
  O  O282  1  0.86730826  0.50723916  0.75527694  1
  O  O283  1  0.12886324  0.38303059  0.35977743  1
  O  O284  1  0.12459191  0.36438430  0.87919481  1
  O  O285  1  0.11411152  0.86518002  0.37245786  1
  O  O286  1  0.12797776  0.86187674  0.87761648  1
  O  O287  1  0.63061315  0.36606875  0.37534709  1
  O  O288  1  0.61038938  0.37388414  0.88023892  1
  O  O289  1  0.61909401  0.87029059  0.37097849  1
  O  O290  1  0.61099328  0.88185444  0.87646886  1
  O  O291  1  0.38577444  0.12208052  0.12763545  1
  O  O292  1  0.38609807  0.12075644  0.61949898  1
  O  O293  1  0.38647790  0.63397819  0.12236169  1
  O  O294  1  0.38457737  0.63072998  0.63164313  1
  O  O295  1  0.88108623  0.13289566  0.12688632  1
  O  O296  1  0.87859653  0.13095863  0.63149388  1
  O  O297  1  0.88435795  0.62997927  0.12516688  1
  O  O298  1  0.88235998  0.63240170  0.63315281  1
  O  O299  1  0.24649634  0.25797960  0.11667351  1
  O  O300  1  0.23577889  0.25985493  0.63627123  1
  O  O301  1  0.26723362  0.74436339  0.13416922  1
  O  O302  1  0.24668617  0.75729108  0.62064188  1
  O  O303  1  0.76188734  0.24238111  0.12264792  1
  O  O304  1  0.75249707  0.25447402  0.62321248  1
  O  O305  1  0.75945373  0.75109955  0.11424617  1
  O  O306  1  0.76183456  0.75583315  0.62476745  1
  O  O307  1  0.23929200  0.22996357  0.36031019  1
  O  O308  1  0.24518624  0.24581332  0.87848379  1
  O  O309  1  0.23907858  0.74830945  0.38198737  1
  O  O310  1  0.23690022  0.74305368  0.86729694  1
  O  O311  1  0.74230846  0.24233074  0.38033856  1
  O  O312  1  0.74778537  0.23904841  0.87710040  1
  O  O313  1  0.74439134  0.74294414  0.37409525  1
  O  O314  1  0.75908691  0.74263613  0.88159052  1
  O  O315  1  -0.00562930  0.11536678  0.01331572  1
  O  O316  1  0.00404629  0.11775471  0.50711187  1
  O  O317  1  0.01151870  0.63038685  0.00671868  1
  O  O318  1  -0.00320877  0.62126779  0.51739351  1
  O  O319  1  0.50380962  0.12207528  0.00355109  1
  O  O320  1  0.51037642  0.12651687  0.50803433  1
  O  O321  1  0.51180924  0.62371014  0.00160487  1
  O  O322  1  0.50959691  0.63071923  0.51214637  1
  O  O323  1  0.49144534  0.37825393  0.49306646  1
  O  O324  1  0.49202421  0.37622319  0.99046522  1
  O  O325  1  0.48948068  0.86755515  0.49150172  1
  O  O326  1  0.49849054  0.88211645  0.98930585  1
  O  O327  1  0.98906678  0.37909462  0.50238820  1
  O  O328  1  0.98470725  0.37113836  0.99682857  1
  O  O329  1  1.00299109  0.88333954  0.49108836  1
  O  O330  1  0.98791998  0.88361807  1.00139718  1
  O  O331  1  0.46998975  0.54764370  0.35776178  1
  O  O332  1  0.50334579  0.48751360  0.87200354  1
  O  O333  1  0.48481508  0.99529699  0.36801078  1
  O  O334  1  0.49875797  0.99318173  0.87935046  1
  O  O335  1  0.98956694  0.49767996  0.37652688  1
  O  O336  1  0.98830566  0.50403104  0.86560594  1
  O  O337  1  0.99654595  0.99088764  0.38163524  1
  O  O338  1  0.99268925  1.00966057  0.88416686  1
  O  O339  1  0.00451818  0.00505089  0.11847031  1
  O  O340  1  0.00469603  0.00277784  0.62076217  1
  O  O341  1  0.00613437  0.51375578  0.12691920  1
  O  O342  1  0.01310231  0.50665886  0.63128033  1
  O  O343  1  0.50429284  0.00556499  0.11794671  1
  O  O344  1  0.50638186  0.00836575  0.62925892  1
  O  O345  1  0.50060285  0.51302672  0.11925559  1
  O  O346  1  0.51519653  0.51686368  0.64100180  1
  O  O347  1  0.23837496  0.37633821  0.23853286  1
  O  O348  1  0.25297295  0.38952773  0.74870090  1
  O  O349  1  0.24967437  0.88242873  0.24479467  1
  O  O350  1  0.25338264  0.87979998  0.73751638  1
  O  O351  1  0.73760878  0.38080867  0.25135171  1
  O  O352  1  0.75616939  0.38469102  0.74510780  1
  O  O353  1  0.74238509  0.88205007  0.24773531  1
  O  O354  1  0.75189808  0.87704536  0.73464445  1
  O  O355  1  0.24860131  0.11205765  0.25855297  1
  O  O356  1  0.25105505  0.11707688  0.75675166  1
  O  O357  1  0.26007166  0.62684952  0.26937297  1
  O  O358  1  0.25622285  0.62034846  0.76033331  1
  O  O359  1  0.74618722  0.11737179  0.25873012  1
  O  O360  1  0.75691240  0.12370977  0.75841547  1
  O  O361  1  0.75545429  0.61856607  0.25518308  1
  O  O362  1  0.75860809  0.62175522  0.75611125  1
  O  O363  1  0.36106815  0.11244276  0.37225853  1
  O  O364  1  0.36166378  0.12109409  0.87214215  1
  O  O365  1  0.35509371  0.63862780  0.38050915  1
  O  O366  1  0.36563154  0.63022492  0.86923309  1
  O  O367  1  0.85870287  0.12204448  0.37520265  1
  O  O368  1  0.86840701  0.11846061  0.87429960  1
  O  O369  1  0.87236396  0.61748407  0.36901063  1
  O  O370  1  0.86810898  0.61960453  0.87195624  1
  O  O371  1  0.13144532  0.38200865  0.12769027  1
  O  O372  1  0.13153451  0.38787935  0.63337678  1
  O  O373  1  0.12357346  0.88648993  0.12640517  1
  O  O374  1  0.13136327  0.88711456  0.62089640  1
  O  O375  1  0.62821318  0.36985868  0.13084998  1
  O  O376  1  0.63060124  0.38883583  0.61841893  1
  O  O377  1  0.62458339  0.88195851  0.13104075  1
  O  O378  1  0.62994862  0.88596907  0.61997610  1
  O  O379  1  0.12280500  0.26592430  0.24087877  1
  O  O380  1  0.11308100  0.24657719  0.76168873  1
  O  O381  1  0.11761361  0.75114112  0.25667266  1
  O  O382  1  0.11420537  0.74682316  0.76138418  1
  O  O383  1  0.62304369  0.26234624  0.25578615  1
  O  O384  1  0.60722973  0.24497051  0.75276828  1
  O  O385  1  0.61669549  0.75310435  0.25360450  1
  O  O386  1  0.61395316  0.74225260  0.74955100  1
  O  O387  1  0.39011112  0.25085718  0.26283596  1
  O  O388  1  0.39301018  0.24619573  0.75364455  1
  O  O389  1  0.38949830  0.73468613  0.25042885  1
  O  O390  1  0.38234263  0.73858208  0.74822962  1
  O  O391  1  0.87617386  0.24939689  0.24010898  1
  O  O392  1  0.88015313  0.24371125  0.74886726  1
  O  O393  1  0.87977725  0.74222789  0.24120108  1
  O  O394  1  0.88897277  0.74690806  0.74512943  1
  O  O395  1  0.38323651  0.48758190  0.53335152  1
  O  O396  1  0.37608000  0.48623089  1.00080814  1
  O  O397  1  0.36651514  0.98551715  0.48997924  1
  O  O398  1  0.38890261  1.00079614  1.00001283  1
  O  O399  1  0.87545558  0.49249282  0.49287719  1
  O  O400  1  0.87522386  0.49122421  0.99230629  1
  O  O401  1  0.88834647  1.00522105  0.50068492  1
  O  O402  1  0.88179465  0.99409824  0.99447222  1
  O  O403  1  0.11254836  -0.00270964  0.00549714  1
  O  O404  1  0.11351045  0.00565166  0.50722113  1
  O  O405  1  0.12496256  0.51123426  0.01011194  1
  O  O406  1  0.12392454  0.49665452  0.51803849  1
  O  O407  1  0.61460828  0.00974061  0.00363011  1
  O  O408  1  0.62853982  0.01149291  0.50785325  1
  O  O409  1  0.62912534  0.51232069  -0.00243883  1
  O  O410  1  0.63112111  0.51300148  0.50763666  1
  O  O411  1  0.36461039  0.37663616  0.11825177  1
  O  O412  1  0.35467462  0.36203681  0.63542871  1
  O  O413  1  0.38025234  0.85274105  0.12914685  1
  O  O414  1  0.36688197  0.87517546  0.61769980  1
  O  O415  1  0.87858991  0.36916237  0.11550973  1
  O  O416  1  0.87023548  0.37125863  0.61979872  1
  O  O417  1  0.87278880  0.86938760  0.11486966  1
  O  O418  1  0.86859045  0.86617884  0.62677714  1
  O  O419  1  0.13508822  0.11393809  0.38241702  1
  O  O420  1  0.13867182  0.13668808  0.87311262  1
  O  O421  1  0.13094025  0.63782105  0.36968549  1
  O  O422  1  0.13184957  0.63102610  0.88244095  1
  O  O423  1  0.63346132  0.12793466  0.38271635  1
  O  O424  1  0.63189023  0.12429135  0.88251588  1
  O  O425  1  0.63279732  0.62690009  0.38141724  1
  O  O426  1  0.63981619  0.62279054  0.88047587  1
