# generated using pymatgen
data_V85Zn86O256
_symmetry_space_group_name_H-M   'P 1'
_cell_length_a   16.92197258
_cell_length_b   16.93360915
_cell_length_c   16.94208542
_cell_angle_alpha   90.04188001
_cell_angle_beta   90.00254086
_cell_angle_gamma   90.02632617
_symmetry_Int_Tables_number   1
_chemical_formula_structural   V85Zn86O256
_chemical_formula_sum   'V85 Zn86 O256'
_cell_volume   4854.75394705
_cell_formula_units_Z   1
loop_
 _symmetry_equiv_pos_site_id
 _symmetry_equiv_pos_as_xyz
  1  'x, y, z'
loop_
 _atom_site_type_symbol
 _atom_site_label
 _atom_site_symmetry_multiplicity
 _atom_site_fract_x
 _atom_site_fract_y
 _atom_site_fract_z
 _atom_site_occupancy
  V  V0  1  0.12537698  0.62531979  0.00539182  1
  V  V1  1  0.50759819  0.75505289  0.74911742  1
  V  V2  1  0.76449186  0.48973439  0.24421387  1
  V  V3  1  0.61985495  0.00231084  0.12027459  1
  V  V4  1  0.87699332  0.87276195  0.00143524  1
  V  V5  1  -0.00320959  0.64271791  0.12534677  1
  V  V6  1  0.25568209  0.86810617  0.12487501  1
  V  V7  1  0.24877260  0.62923569  0.87272330  1
  V  V8  1  0.50147790  0.49402796  0.50293458  1
  V  V9  1  0.00094230  0.00207918  0.00035135  1
  V  V10  1  0.62614761  0.87340824  0.25086914  1
  V  V11  1  0.50578183  -0.00234865  0.50690877  1
  V  V12  1  0.37033367  0.26795280  0.11569704  1
  V  V13  1  0.49942255  0.62955090  0.12240879  1
  V  V14  1  0.12760246  0.00323408  0.12458927  1
  V  V15  1  0.36257619  0.24626380  0.62543792  1
  V  V16  1  0.37394179  0.62733942  0.24325274  1
  V  V17  1  0.62766775  0.12457882  0.50755777  1
  V  V18  1  0.76158270  0.26413822  0.51390127  1
  V  V19  1  0.62208535  0.25314201  0.37332947  1
  V  V20  1  -0.00250590  0.87106352  0.37147236  1
  V  V21  1  -0.01302821  0.12126978  0.13167914  1
  V  V22  1  0.75594959  0.86999603  0.12678158  1
  V  V23  1  0.74556834  0.25220679  0.00968371  1
  V  V24  1  0.87749245  0.64166096  0.24588543  1
  V  V25  1  0.37559884  0.49906940  0.37406463  1
  V  V26  1  0.12455204  0.87300328  0.25098483  1
  V  V27  1  0.62733326  0.62552657  -0.00036428  1
  V  V28  1  -0.01752539  0.38254102  0.37211581  1
  V  V29  1  0.12571745  0.26143641  0.37320779  1
  V  V30  1  0.38431073  0.13565953  0.24913738  1
  V  V31  1  0.75139605  0.62164975  0.87195054  1
  V  V32  1  0.75596598  0.61684833  0.37181370  1
  V  V33  1  0.37466608  0.50217401  0.87042982  1
  V  V34  1  0.73662911  0.87293294  0.62583445  1
  V  V35  1  0.00269873  -0.00058677  0.49960946  1
  V  V36  1  0.87383705  0.12632235  0.74644924  1
  V  V37  1  0.50341676  0.62148724  0.62639170  1
  V  V38  1  0.00380145  0.62414718  0.62467668  1
  V  V39  1  0.13469194  -0.00578019  0.62312678  1
  V  V40  1  0.38300068  0.87063445  0.00264750  1
  V  V41  1  0.00012897  0.75378345  0.74745755  1
  V  V42  1  0.37024994  0.75194195  0.62626214  1
  V  V43  1  -0.00428365  0.24595835  0.25307626  1
  V  V44  1  0.49557592  0.12296071  0.63016762  1
  V  V45  1  0.00352192  0.87669588  0.87299995  1
  V  V46  1  -0.00649662  0.36721871  0.87631469  1
  V  V47  1  0.11999012  0.74856861  0.37238857  1
  V  V48  1  0.74633964  0.49642578  0.73537131  1
  V  V49  1  0.62914675  0.49046048  0.12590975  1
  V  V50  1  0.62602614  0.61659460  0.49929344  1
  V  V51  1  0.36911400  0.36820288  0.49936650  1
  V  V52  1  0.50611429  0.87764709  0.87485547  1
  V  V53  1  0.37967071  0.00856126  0.88060333  1
  V  V54  1  0.12604209  0.61644272  0.50040812  1
  V  V55  1  0.11998018  0.37884810  0.74682388  1
  V  V56  1  0.25326698  0.00039911  0.25124899  1
  V  V57  1  0.37761289  0.00006891  0.37555248  1
  V  V58  1  0.23785536  0.49438344  0.24601002  1
  V  V59  1  0.49902372  0.74695388  0.24770332  1
  V  V60  1  0.50009934  0.49985199  -0.00113337  1
  V  V61  1  0.49990104  0.37483593  0.87726617  1
  V  V62  1  0.23995931  0.38250764  0.62011732  1
  V  V63  1  0.25815149  0.01277640  0.74987433  1
  V  V64  1  0.75565166  0.74754019  0.00162134  1
  V  V65  1  0.75502301  0.00226781  0.25086643  1
  V  V66  1  0.75282774  0.12678735  0.37729338  1
  V  V67  1  0.73522082  -0.00463420  0.74545469  1
  V  V68  1  0.13822944  0.87566044  0.74851222  1
  V  V69  1  0.25014490  0.13079983  0.37867648  1
  V  V70  1  0.74669835  0.12649182  0.87642694  1
  V  V71  1  -0.01397934  0.49888324  0.49858860  1
  V  V72  1  0.62591064  0.74360677  0.37439273  1
  V  V73  1  0.12862284  0.13608031  0.50213046  1
  V  V74  1  -0.00170232  0.12258941  0.62827972  1
  V  V75  1  0.36861162  0.87469233  0.50433451  1
  V  V76  1  0.86975438  0.37571296  0.01196915  1
  V  V77  1  0.62419078  0.37728340  0.73594757  1
  V  V78  1  0.50127591  0.87293301  0.37674212  1
  V  V79  1  0.87444473  -0.00085710  0.87241712  1
  V  V80  1  0.13170041  0.24998774  0.87605210  1
  V  V81  1  0.49427837  0.24949046  0.74948059  1
  V  V82  1  0.25126747  0.62777771  0.37491633  1
  V  V83  1  -0.00088588  0.50260697  0.00262435  1
  V  V84  1  0.87700458  0.00467381  0.37512107  1
  Zn  Zn85  1  0.62484104  0.37051596  0.24495070  1
  Zn  Zn86  1  0.18073250  0.42635489  0.09498154  1
  Zn  Zn87  1  0.49796354  0.13012816  0.12301818  1
  Zn  Zn88  1  0.87582364  0.75433613  0.62167721  1
  Zn  Zn89  1  0.75172689  0.74778503  0.50109788  1
  Zn  Zn90  1  0.37504588  0.62615518  0.74872694  1
  Zn  Zn91  1  0.25412151  0.74834036  0.00360804  1
  Zn  Zn92  1  0.49412594  0.36605306  0.36842599  1
  Zn  Zn93  1  0.12739069  0.75179151  0.87631072  1
  Zn  Zn94  1  0.87336259  0.87401235  0.50405847  1
  Zn  Zn95  1  0.34926353  0.37768822  -0.00425682  1
  Zn  Zn96  1  0.87542620  0.62525557  0.74770776  1
  Zn  Zn97  1  0.62283912  0.25255001  0.87666486  1
  Zn  Zn98  1  -0.04431382  0.28352514  0.70928798  1
  Zn  Zn99  1  0.24351344  0.50544537  0.74308588  1
  Zn  Zn100  1  0.13027096  0.13231704  0.00432276  1
  Zn  Zn101  1  0.62950335  0.75600784  0.87058230  1
  Zn  Zn102  1  0.24670654  0.75282714  0.50503496  1
  Zn  Zn103  1  0.87203029  0.49693248  0.87309483  1
  Zn  Zn104  1  0.25758499  0.13312007  0.88161265  1
  Zn  Zn105  1  0.61598933  0.12435860  -0.00422039  1
  Zn  Zn106  1  0.86915613  0.25022680  0.13437677  1
  Zn  Zn107  1  0.18875641  0.18997700  0.19193893  1
  Zn  Zn108  1  0.17921653  0.19129500  0.69256933  1
  Zn  Zn109  1  0.18381463  0.68520256  0.18853247  1
  Zn  Zn110  1  0.18599186  0.68806105  0.68730974  1
  Zn  Zn111  1  0.68871406  0.18450037  0.19243322  1
  Zn  Zn112  1  0.68370058  0.18852637  0.68861523  1
  Zn  Zn113  1  0.68893468  0.68336481  0.18615493  1
  Zn  Zn114  1  0.68573677  0.68546239  0.68561813  1
  Zn  Zn115  1  0.30813646  0.31324630  0.31053396  1
  Zn  Zn116  1  0.31074704  0.31754049  0.80707982  1
  Zn  Zn117  1  0.31333476  0.81012425  0.31307938  1
  Zn  Zn118  1  0.31942626  0.81407436  0.81374510  1
  Zn  Zn119  1  0.81132002  0.30919240  0.31505687  1
  Zn  Zn120  1  0.80523032  0.31417782  0.81685664  1
  Zn  Zn121  1  0.81098200  0.81237106  0.31807880  1
  Zn  Zn122  1  0.81319922  0.81308221  0.81034097  1
  Zn  Zn123  1  0.18865482  0.43923656  0.43608821  1
  Zn  Zn124  1  0.18128198  0.44460144  0.92414057  1
  Zn  Zn125  1  0.18810587  0.93930205  0.43658177  1
  Zn  Zn126  1  0.19308587  0.94235598  0.93893942  1
  Zn  Zn127  1  0.69449954  0.43675783  0.43767183  1
  Zn  Zn128  1  0.68679213  0.43581960  0.93416881  1
  Zn  Zn129  1  0.68691192  0.93700448  0.44063354  1
  Zn  Zn130  1  0.68933760  0.93767566  0.93809263  1
  Zn  Zn131  1  0.31261125  0.06377068  0.06060444  1
  Zn  Zn132  1  0.31337414  0.06165080  0.56214944  1
  Zn  Zn133  1  0.31397052  0.56094895  0.06036005  1
  Zn  Zn134  1  0.31566077  0.56137227  0.56129129  1
  Zn  Zn135  1  0.80805179  0.06083060  0.05986413  1
  Zn  Zn136  1  0.81242867  0.05886434  0.56402627  1
  Zn  Zn137  1  0.81715021  0.56158261  0.06676851  1
  Zn  Zn138  1  0.81568995  0.56692199  0.56329153  1
  Zn  Zn139  1  0.44021052  0.43961253  0.18987419  1
  Zn  Zn140  1  0.43492647  0.43496580  0.68585759  1
  Zn  Zn141  1  0.43700101  0.93696056  0.18990306  1
  Zn  Zn142  1  0.43729614  0.93676502  0.69061429  1
  Zn  Zn143  1  0.98622353  0.42504941  0.17011808  1
  Zn  Zn144  1  0.93013357  0.44678184  0.68125355  1
  Zn  Zn145  1  0.93711529  0.93491563  0.18991375  1
  Zn  Zn146  1  0.93457011  0.93790656  0.68595479  1
  Zn  Zn147  1  0.06454779  0.06488698  0.31161935  1
  Zn  Zn148  1  0.06461490  0.06286801  0.81022244  1
  Zn  Zn149  1  0.05579874  0.56442791  0.31185725  1
  Zn  Zn150  1  0.06088109  0.56123895  0.81534286  1
  Zn  Zn151  1  0.56606849  0.06236593  0.31506590  1
  Zn  Zn152  1  0.55880928  0.06456238  0.81315606  1
  Zn  Zn153  1  0.56239242  0.54952275  0.30965557  1
  Zn  Zn154  1  0.56646710  0.56278215  0.81031605  1
  Zn  Zn155  1  0.43795300  0.18635324  0.44113482  1
  Zn  Zn156  1  0.43855474  0.18973568  0.94635865  1
  Zn  Zn157  1  0.43806368  0.68619410  0.43869084  1
  Zn  Zn158  1  0.43717812  0.69146658  0.93626927  1
  Zn  Zn159  1  0.93891186  0.18811183  0.43973968  1
  Zn  Zn160  1  0.93534224  0.18819341  0.94099494  1
  Zn  Zn161  1  0.93389288  0.68729548  0.43621630  1
  Zn  Zn162  1  0.93678512  0.68913980  0.93334062  1
  Zn  Zn163  1  0.05756981  0.30579536  0.06024965  1
  Zn  Zn164  1  0.03345096  0.32737693  0.57318756  1
  Zn  Zn165  1  0.06811545  0.81384575  0.06019581  1
  Zn  Zn166  1  0.06456684  0.81225435  0.55964851  1
  Zn  Zn167  1  0.55359302  0.30654504  0.06356145  1
  Zn  Zn168  1  0.56136745  0.30711043  0.55835823  1
  Zn  Zn169  1  0.56730180  0.81310513  0.06024510  1
  Zn  Zn170  1  0.56206994  0.80672432  0.56148628  1
  O  O171  1  0.12072784  0.11291606  0.12915292  1
  O  O172  1  0.12544535  0.11245212  0.61898044  1
  O  O173  1  0.11374292  0.63021773  0.11653018  1
  O  O174  1  0.11462007  0.63264583  0.61387809  1
  O  O175  1  0.62416543  0.10976013  0.13251489  1
  O  O176  1  0.61410092  0.12938617  0.61363609  1
  O  O177  1  0.62022591  0.61662569  0.11747229  1
  O  O178  1  0.61269499  0.62777968  0.61407766  1
  O  O179  1  0.37419082  0.37789946  0.38293891  1
  O  O180  1  0.37951485  0.38441716  0.87533225  1
  O  O181  1  0.38321462  0.87785310  0.38196487  1
  O  O182  1  0.38533993  0.88124126  0.88347526  1
  O  O183  1  0.88488229  0.37383935  0.37924594  1
  O  O184  1  0.88009562  0.37463564  0.88323990  1
  O  O185  1  0.88166525  0.88462274  0.37683732  1
  O  O186  1  0.88203444  0.88112843  0.87902075  1
  O  O187  1  0.25748810  0.00679691  0.37045083  1
  O  O188  1  0.26359032  -0.00032208  0.86666960  1
  O  O189  1  0.25530126  0.51214565  0.36876236  1
  O  O190  1  0.25830303  0.51381567  0.86962402  1
  O  O191  1  0.75688781  0.00339304  0.37140730  1
  O  O192  1  0.75346884  0.00373732  0.86533041  1
  O  O193  1  0.74537447  0.50983789  0.36014735  1
  O  O194  1  0.75027867  0.50835550  0.86708234  1
  O  O195  1  0.24871266  0.50958788  0.14097282  1
  O  O196  1  0.25378167  0.48741080  0.62498892  1
  O  O197  1  0.24341067  0.99216143  0.13202687  1
  O  O198  1  0.24621687  1.00178200  0.63443257  1
  O  O199  1  0.74382617  0.50298000  0.13545487  1
  O  O200  1  0.75141939  0.50503272  0.63656659  1
  O  O201  1  0.74460355  0.99449819  0.13502699  1
  O  O202  1  0.74923863  0.99033930  0.63736968  1
  O  O203  1  -0.00204009  0.36662630  0.26789698  1
  O  O204  1  0.00265771  0.38059680  0.76340102  1
  O  O205  1  0.00717327  0.88064220  0.26374764  1
  O  O206  1  0.00895075  0.87140181  0.75304514  1
  O  O207  1  0.51355914  0.39794990  0.26180759  1
  O  O208  1  0.50350926  0.37088087  0.75737619  1
  O  O209  1  0.50529983  0.86738009  0.25633138  1
  O  O210  1  0.49699280  0.86624704  0.75984336  1
  O  O211  1  0.48669705  0.11874356  0.25125870  1
  O  O212  1  0.50335783  0.13362500  0.73866704  1
  O  O213  1  0.49398216  0.62537830  0.24195624  1
  O  O214  1  0.49945483  0.62946046  0.74104489  1
  O  O215  1  0.99943861  0.12977541  0.24356646  1
  O  O216  1  0.98745662  0.11436314  0.74192441  1
  O  O217  1  0.98579302  0.62338781  0.24177776  1
  O  O218  1  1.00385387  0.63302473  0.74132765  1
  O  O219  1  0.36871497  0.25923586  0.01095947  1
  O  O220  1  0.37903697  0.26066030  0.50848691  1
  O  O221  1  0.37239663  0.76486080  -0.00164348  1
  O  O222  1  0.37638706  0.75814224  0.50703378  1
  O  O223  1  0.86542066  0.25706610  0.00452873  1
  O  O224  1  0.85917829  0.24215271  0.49863234  1
  O  O225  1  0.86345440  0.75687982  -0.00542543  1
  O  O226  1  0.86959204  0.75452717  0.50099786  1
  O  O227  1  0.11803775  0.23694807  0.49257889  1
  O  O228  1  0.11803280  0.24998755  0.98182652  1
  O  O229  1  0.12782258  0.74242305  0.48919894  1
  O  O230  1  0.13039213  0.74045409  0.99590573  1
  O  O231  1  0.63447905  0.24122316  0.49291598  1
  O  O232  1  0.63157885  0.24935284  0.99863783  1
  O  O233  1  0.62605917  0.73515555  0.49205598  1
  O  O234  1  0.63817657  0.74379138  0.99660158  1
  O  O235  1  0.47811970  0.24888134  0.12924697  1
  O  O236  1  0.49030684  0.24277413  0.63021606  1
  O  O237  1  0.50985351  0.73725683  0.13021819  1
  O  O238  1  0.49318797  0.74229764  0.63025964  1
  O  O239  1  0.99702543  0.23605121  0.13515331  1
  O  O240  1  1.01944007  0.22396745  0.62792054  1
  O  O241  1  0.99929660  0.74277889  0.11904896  1
  O  O242  1  1.00136837  0.74625360  0.63144105  1
  O  O243  1  0.00455665  0.25905543  0.37364842  1
  O  O244  1  0.00161006  0.26208937  0.87748630  1
  O  O245  1  0.00767263  0.75907607  0.37864682  1
  O  O246  1  0.00386679  0.75856844  0.86594073  1
  O  O247  1  0.51767536  0.24756104  0.38287804  1
  O  O248  1  0.49597960  0.25823583  0.86698591  1
  O  O249  1  0.50785893  0.75165740  0.36951385  1
  O  O250  1  0.50221295  0.75803989  0.86618503  1
  O  O251  1  0.24393933  0.11946937  0.48813025  1
  O  O252  1  0.24190926  0.11555818  0.99310768  1
  O  O253  1  0.24420540  0.62560186  0.49232641  1
  O  O254  1  0.24296078  0.62630816  0.99434083  1
  O  O255  1  0.74165126  0.11930497  0.49277066  1
  O  O256  1  0.74613528  0.13119606  0.99139166  1
  O  O257  1  0.74336294  0.62122014  0.49038566  1
  O  O258  1  0.74948720  0.63080267  0.99399422  1
  O  O259  1  0.23840679  0.39436101  0.00541000  1
  O  O260  1  0.25717127  0.37736815  0.50623485  1
  O  O261  1  0.25793267  0.87384510  0.00910645  1
  O  O262  1  0.26458187  0.87430314  0.49485270  1
  O  O263  1  0.75721391  0.36520859  -0.00448627  1
  O  O264  1  0.75166726  0.36406918  0.50272523  1
  O  O265  1  0.75520034  0.86789323  0.00684314  1
  O  O266  1  0.74885018  0.87513841  0.51428652  1
  O  O267  1  0.13899731  0.50809629  0.25623789  1
  O  O268  1  0.12510096  0.48494038  0.75676246  1
  O  O269  1  0.13300429  0.99382363  0.24555117  1
  O  O270  1  0.13453103  0.99421556  0.74260361  1
  O  O271  1  0.63945369  0.50438497  0.23810943  1
  O  O272  1  0.63676920  0.49307823  0.74985096  1
  O  O273  1  0.63652130  0.99221067  0.24799880  1
  O  O274  1  0.63716579  1.00231097  0.75201237  1
  O  O275  1  0.37103975  0.00561301  0.25882575  1
  O  O276  1  0.36645326  -0.00637656  0.76304999  1
  O  O277  1  0.36850193  0.51290460  0.25619011  1
  O  O278  1  0.37507350  0.50231488  0.76069113  1
  O  O279  1  0.86248224  -0.00562753  0.25852858  1
  O  O280  1  0.86596378  0.00736563  0.75676494  1
  O  O281  1  0.86257891  0.50462350  0.24220067  1
  O  O282  1  0.86162200  0.50307460  0.75114470  1
  O  O283  1  0.12508696  0.36299994  0.37811444  1
  O  O284  1  0.11438673  0.36698580  0.86867509  1
  O  O285  1  0.11936069  0.86858204  0.37208662  1
  O  O286  1  0.12102468  0.87729536  0.86646132  1
  O  O287  1  0.62729752  0.35861887  0.38031711  1
  O  O288  1  0.61364495  0.37463323  0.86499146  1
  O  O289  1  0.62150618  0.86583183  0.37157565  1
  O  O290  1  0.61121653  0.87675622  0.88143634  1
  O  O291  1  0.37498823  0.12076914  0.14227365  1
  O  O292  1  0.38251747  0.13505563  0.61802825  1
  O  O293  1  0.38568423  0.62209862  0.13153987  1
  O  O294  1  0.38706199  0.63216206  0.62274335  1
  O  O295  1  0.88436898  0.12086380  0.12336058  1
  O  O296  1  0.88443959  0.11598494  0.63389302  1
  O  O297  1  0.87849291  0.63067443  0.13716859  1
  O  O298  1  0.88947292  0.63130721  0.62661143  1
  O  O299  1  0.27266027  0.24853546  0.14089203  1
  O  O300  1  0.25880126  0.25487358  0.63218713  1
  O  O301  1  0.24525990  0.76512946  0.12834259  1
  O  O302  1  0.26552845  0.74490495  0.62391732  1
  O  O303  1  0.75131766  0.24182217  0.11506009  1
  O  O304  1  0.74620847  0.24464471  0.61213123  1
  O  O305  1  0.74486561  0.75889672  0.11570777  1
  O  O306  1  0.75079060  0.76168837  0.62744294  1
  O  O307  1  0.24043167  0.24055458  0.36978200  1
  O  O308  1  0.23602931  0.25225512  0.86874463  1
  O  O309  1  0.24496035  0.73956181  0.37807849  1
  O  O310  1  0.25188899  0.73923254  0.87434122  1
  O  O311  1  0.74350733  0.24091717  0.38478989  1
  O  O312  1  0.74623157  0.24052959  0.88465208  1
  O  O313  1  0.74122053  0.73769494  0.37506996  1
  O  O314  1  0.74864750  0.74354985  0.87934569  1
  O  O315  1  0.00381821  0.11770329  0.00984206  1
  O  O316  1  0.00860048  0.11579473  0.50447646  1
  O  O317  1  0.00458759  0.62441727  0.00278646  1
  O  O318  1  0.00531846  0.61680293  0.50079974  1
  O  O319  1  0.50389682  0.12556396  0.00873355  1
  O  O320  1  0.50585563  0.11681196  0.50798481  1
  O  O321  1  0.50538291  0.62286361  0.00492251  1
  O  O322  1  0.50643718  0.61752524  0.50592086  1
  O  O323  1  0.49229265  0.38059350  0.49702297  1
  O  O324  1  0.49977312  0.38041862  0.98635979  1
  O  O325  1  0.49591694  0.88076943  0.49634130  1
  O  O326  1  0.49352020  0.87112318  0.99336171  1
  O  O327  1  1.01092362  0.39355975  0.48294524  1
  O  O328  1  0.99132602  0.38437489  0.99199711  1
  O  O329  1  1.00281024  0.88320501  0.48793942  1
  O  O330  1  0.99609204  0.88092910  0.99464861  1
  O  O331  1  0.49056422  0.50497931  0.38931157  1
  O  O332  1  0.49432425  0.49571496  0.87755352  1
  O  O333  1  0.49634270  0.99408658  0.38338395  1
  O  O334  1  0.48767532  0.99336484  0.86800753  1
  O  O335  1  0.99896370  0.49078900  0.37989702  1
  O  O336  1  0.99439014  0.49483029  0.88578457  1
  O  O337  1  0.99402070  0.99633008  0.37899445  1
  O  O338  1  0.99617343  0.99557848  0.87962900  1
  O  O339  1  0.00708202  0.00334120  0.12322451  1
  O  O340  1  0.00994820  0.00408333  0.61857082  1
  O  O341  1  -0.01104702  0.51988759  0.10675187  1
  O  O342  1  0.00101473  0.51111676  0.60827797  1
  O  O343  1  0.51883423  -0.00515121  0.13315402  1
  O  O344  1  0.49294727  0.00902389  0.61839738  1
  O  O345  1  0.50731535  0.51152220  0.11740665  1
  O  O346  1  0.49239108  0.50655832  0.61211880  1
  O  O347  1  0.25203674  0.39503049  0.25397902  1
  O  O348  1  0.23947983  0.37947788  0.73948245  1
  O  O349  1  0.24808328  0.88115720  0.24581620  1
  O  O350  1  0.24089138  0.88034965  0.75464465  1
  O  O351  1  0.74811326  0.38628794  0.25437159  1
  O  O352  1  0.74103868  0.38712951  0.75223862  1
  O  O353  1  0.74601610  0.87877867  0.24454674  1
  O  O354  1  0.75036179  0.88618334  0.74234916  1
  O  O355  1  0.25891388  0.11841541  0.26137091  1
  O  O356  1  0.24521143  0.11526261  0.75617703  1
  O  O357  1  0.25702963  0.62306905  0.25665982  1
  O  O358  1  0.25176295  0.62382123  0.75640192  1
  O  O359  1  0.74681025  0.11556006  0.26726901  1
  O  O360  1  0.75236442  0.11419550  0.75384171  1
  O  O361  1  0.76094678  0.61976429  0.25312481  1
  O  O362  1  0.74792352  0.61511716  0.75489597  1
  O  O363  1  0.37003818  0.12226210  0.36961378  1
  O  O364  1  0.37792418  0.11191114  0.87848554  1
  O  O365  1  0.36702311  0.62163875  0.37036981  1
  O  O366  1  0.36888352  0.61959631  0.87366906  1
  O  O367  1  0.86876800  0.11236529  0.38041293  1
  O  O368  1  0.86404970  0.11790550  0.87196298  1
  O  O369  1  0.86737861  0.62638272  0.36070096  1
  O  O370  1  0.86245390  0.62454410  0.87044381  1
  O  O371  1  0.08909754  0.38264131  0.13423977  1
  O  O372  1  0.13043498  0.36668298  0.63150819  1
  O  O373  1  0.13078410  0.88494388  0.13110599  1
  O  O374  1  0.12356624  0.88639703  0.63085473  1
  O  O375  1  0.61769925  0.38760799  0.12235656  1
  O  O376  1  0.61358824  0.37243346  0.63695655  1
  O  O377  1  0.63612795  0.88371582  0.12961841  1
  O  O378  1  0.63651372  0.87132315  0.62289376  1
  O  O379  1  0.11136924  0.24061576  0.26344157  1
  O  O380  1  0.11904960  0.26287381  0.76194378  1
  O  O381  1  0.13005412  0.75635275  0.26435422  1
  O  O382  1  0.11751009  0.75999844  0.74991389  1
  O  O383  1  0.63230049  0.25033843  0.26813068  1
  O  O384  1  0.61242618  0.25731616  0.75204614  1
  O  O385  1  0.62078278  0.75318518  0.25505086  1
  O  O386  1  0.61221850  0.74579462  0.75114446  1
  O  O387  1  0.37783391  0.23710753  0.25546888  1
  O  O388  1  0.38593403  0.25699159  0.74047708  1
  O  O389  1  0.38225730  0.73608885  0.25527930  1
  O  O390  1  0.38573664  0.74878454  0.74192985  1
  O  O391  1  0.88755570  0.25066790  0.25199142  1
  O  O392  1  0.86767871  0.23205028  0.75922486  1
  O  O393  1  0.87185111  0.74052565  0.25126714  1
  O  O394  1  0.88985131  0.74973165  0.74881830  1
  O  O395  1  0.38079125  0.48934344  0.49433281  1
  O  O396  1  0.38279115  0.49999876  0.98742159  1
  O  O397  1  0.38488386  0.99310309  0.49561613  1
  O  O398  1  0.37198907  0.98881649  0.98598136  1
  O  O399  1  0.88719946  0.50386388  0.49768485  1
  O  O400  1  0.87714977  0.49229236  0.99640561  1
  O  O401  1  0.88388107  0.99699907  0.49227755  1
  O  O402  1  0.87939386  0.99350098  0.99263665  1
  O  O403  1  0.11743724  -0.00264516  0.01040534  1
  O  O404  1  0.12258672  0.00533259  0.50643561  1
  O  O405  1  0.11416601  0.51437588  -0.00364910  1
  O  O406  1  0.11929004  0.51406595  0.49177906  1
  O  O407  1  0.63498963  0.00191267  0.01787225  1
  O  O408  1  0.61274753  0.00731069  0.49623723  1
  O  O409  1  0.62112658  0.50611518  0.00497516  1
  O  O410  1  0.61770132  0.50824429  0.49292769  1
  O  O411  1  0.37568271  0.37177881  0.12162389  1
  O  O412  1  0.36495587  0.36738051  0.61796454  1
  O  O413  1  0.36802173  0.88302778  0.11601953  1
  O  O414  1  0.38333539  0.86516935  0.61506991  1
  O  O415  1  0.88721376  0.37300799  0.11330438  1
  O  O416  1  0.93115848  0.35368585  0.62328759  1
  O  O417  1  0.86290930  0.88036117  0.11997982  1
  O  O418  1  0.86298046  0.87457840  0.62386156  1
  O  O419  1  0.13315672  0.12872364  0.38323100  1
  O  O420  1  0.12042728  0.14263705  0.87100457  1
  O  O421  1  0.12961011  0.63230438  0.37873081  1
  O  O422  1  0.13344827  0.62725593  0.88139882  1
  O  O423  1  0.63149783  0.13146147  0.38540547  1
  O  O424  1  0.63589127  0.12560859  0.87447796  1
  O  O425  1  0.63041763  0.62637350  0.37863007  1
  O  O426  1  0.63592908  0.62644393  0.88176150  1
