# generated using pymatgen
data_V85Zn86O256
_symmetry_space_group_name_H-M   'P 1'
_cell_length_a   16.93338698
_cell_length_b   16.93328404
_cell_length_c   16.94214699
_cell_angle_alpha   90.01648263
_cell_angle_beta   90.06673518
_cell_angle_gamma   89.98511712
_symmetry_Int_Tables_number   1
_chemical_formula_structural   V85Zn86O256
_chemical_formula_sum   'V85 Zn86 O256'
_cell_volume   4857.95116688
_cell_formula_units_Z   1
loop_
 _symmetry_equiv_pos_site_id
 _symmetry_equiv_pos_as_xyz
  1  'x, y, z'
loop_
 _atom_site_type_symbol
 _atom_site_label
 _atom_site_symmetry_multiplicity
 _atom_site_fract_x
 _atom_site_fract_y
 _atom_site_fract_z
 _atom_site_occupancy
  V  V0  1  0.11995315  0.12551688  0.50112749  1
  V  V1  1  0.75079283  0.25063369  -0.00254982  1
  V  V2  1  0.12497566  0.62299697  0.49988297  1
  V  V3  1  0.25014268  0.62661501  0.87914627  1
  V  V4  1  0.74932859  0.75152896  0.00697405  1
  V  V5  1  0.87538445  0.62165802  0.25190291  1
  V  V6  1  0.87605447  0.61639843  0.75438035  1
  V  V7  1  -0.00124926  0.37765931  0.87320770  1
  V  V8  1  0.12599253  0.11716906  0.01705677  1
  V  V9  1  0.62849177  0.26928128  0.37376549  1
  V  V10  1  -0.00002464  0.74818347  0.75301333  1
  V  V11  1  0.13088384  0.49819420  0.62932642  1
  V  V12  1  0.25128011  0.87270937  0.12341589  1
  V  V13  1  0.12209836  0.26349989  0.37308377  1
  V  V14  1  0.37900312  0.37401404  0.50394989  1
  V  V15  1  0.49449949  0.13849129  0.11949165  1
  V  V16  1  0.00001544  0.87590177  0.37248459  1
  V  V17  1  0.50633760  0.49707895  0.49733701  1
  V  V18  1  0.37433152  0.62210421  0.25025189  1
  V  V19  1  0.74483135  0.37365543  0.12835088  1
  V  V20  1  0.12772830  0.37558847  0.75328922  1
  V  V21  1  0.25437473  0.25098320  0.50215278  1
  V  V22  1  0.37557493  0.12935144  0.24229176  1
  V  V23  1  0.24681882  0.12028479  0.37596972  1
  V  V24  1  0.86825396  0.86812384  0.49531169  1
  V  V25  1  0.75304559  0.62878986  0.38237026  1
  V  V26  1  0.73749989  0.12117211  0.37516760  1
  V  V27  1  0.25010934  0.75117667  0.50076933  1
  V  V28  1  0.75381136  0.61805850  0.87778767  1
  V  V29  1  0.37140902  0.87189142  0.00255661  1
  V  V30  1  0.12906691  0.62719059  0.00362838  1
  V  V31  1  0.75196558  0.87298596  0.62769667  1
  V  V32  1  0.25460619  0.00195585  0.24600772  1
  V  V33  1  0.49546590  0.00281006  -0.00337193  1
  V  V34  1  0.86938468  0.74461673  0.62010270  1
  V  V35  1  0.87451003  0.87699954  -0.00586230  1
  V  V36  1  0.87560840  0.37635839  -0.00337231  1
  V  V37  1  0.49746715  0.87830794  0.87503648  1
  V  V38  1  0.00173942  0.62125808  0.62575416  1
  V  V39  1  0.49964574  0.62389186  0.12476630  1
  V  V40  1  0.62919490  0.49860105  0.63149478  1
  V  V41  1  0.75094335  0.49180434  0.75340950  1
  V  V42  1  0.75772265  0.36297993  0.62232658  1
  V  V43  1  0.12565783  0.75191969  0.87915234  1
  V  V44  1  0.00234237  0.26348899  0.25284909  1
  V  V45  1  0.62366945  0.25142848  0.86156899  1
  V  V46  1  0.74369835  0.49757239  0.25256182  1
  V  V47  1  0.00411617  0.74912258  0.24881230  1
  V  V48  1  0.62434691  0.62364911  0.00051671  1
  V  V49  1  0.49522610  0.87253660  0.37635070  1
  V  V50  1  0.36869979  0.49754260  0.87125426  1
  V  V51  1  0.50054321  0.74867437  0.25223649  1
  V  V52  1  -0.00348526  0.50044434  -0.00138171  1
  V  V53  1  0.37385209  0.36859412  0.00166789  1
  V  V54  1  0.49877669  0.49828996  -0.00181063  1
  V  V55  1  -0.01133733  0.24138952  0.74573407  1
  V  V56  1  0.62974691  0.63214361  0.50296088  1
  V  V57  1  0.62887747  0.88818418  0.75255532  1
  V  V58  1  0.50049971  0.75131349  0.75093598  1
  V  V59  1  0.12467155  0.88503792  0.24594058  1
  V  V60  1  0.61502625  0.00249084  0.61153500  1
  V  V61  1  0.36959498  0.62475626  0.75058264  1
  V  V62  1  -0.00658224  0.00814003  0.00503675  1
  V  V63  1  0.62425026  0.12633099  -0.00242848  1
  V  V64  1  0.36638312  0.13276697  0.74610150  1
  V  V65  1  0.75972633  0.11264535  0.87514348  1
  V  V66  1  0.25103018  0.24375278  -0.00004896  1
  V  V67  1  0.25616280  0.37338892  0.63263354  1
  V  V68  1  0.37789418  0.87607706  0.50060794  1
  V  V69  1  0.88118303  0.35811655  0.49737532  1
  V  V70  1  0.12648204  0.23755623  0.87500964  1
  V  V71  1  0.25207916  0.62319956  0.37476768  1
  V  V72  1  0.50444086  0.37324294  0.86393839  1
  V  V73  1  0.87625155  0.11811318  0.24950684  1
  V  V74  1  -0.00354785  0.00021813  0.49519668  1
  V  V75  1  0.81062213  0.05494022  0.70042677  1
  V  V76  1  0.00062574  0.62390226  0.12538224  1
  V  V77  1  0.24568910  0.36974683  0.12636950  1
  V  V78  1  0.50267034  0.26239551  0.25501393  1
  V  V79  1  0.62602064  0.75026784  0.87405156  1
  V  V80  1  0.24342847  0.49284911  0.25004526  1
  V  V81  1  0.38065460  0.49318855  0.37466123  1
  V  V82  1  0.42531574  0.05320927  0.43194206  1
  V  V83  1  0.37573843  0.75128575  0.62741179  1
  V  V84  1  0.88170488  0.24542526  0.12548557  1
  Zn  Zn85  1  0.62902210  0.75364742  0.37966956  1
  Zn  Zn86  1  0.12092759  -0.00346234  0.62606800  1
  Zn  Zn87  1  0.24532059  0.87851487  0.62777741  1
  Zn  Zn88  1  0.50096487  0.62364962  0.62715799  1
  Zn  Zn89  1  0.37321749  0.75024207  0.12317431  1
  Zn  Zn90  1  0.62654944  0.00158632  0.12921282  1
  Zn  Zn91  1  0.00198646  0.48728008  0.49464961  1
  Zn  Zn92  1  0.36127189  0.00833850  0.87301918  1
  Zn  Zn93  1  -0.00467962  0.88169102  0.87385044  1
  Zn  Zn94  1  0.12211581  0.49461217  0.12931812  1
  Zn  Zn95  1  0.12813171  0.75123004  0.37349539  1
  Zn  Zn96  1  -0.01456729  0.12445700  0.62623813  1
  Zn  Zn97  1  0.62056018  0.49244454  0.12946054  1
  Zn  Zn98  1  0.87291539  0.75194443  0.12615458  1
  Zn  Zn99  1  0.63011341  0.88010591  0.24909599  1
  Zn  Zn100  1  0.49758057  0.12333544  0.62012462  1
  Zn  Zn101  1  0.86273776  -0.00811480  0.36283785  1
  Zn  Zn102  1  0.12563692  0.87661681  0.74718323  1
  Zn  Zn103  1  0.88164055  0.49035367  0.37841801  1
  Zn  Zn104  1  0.75514719  0.89496113  0.14010609  1
  Zn  Zn105  1  0.49305490  0.25442024  0.72029701  1
  Zn  Zn106  1  0.24076714  0.00195543  0.75300091  1
  Zn  Zn107  1  0.18677717  0.19250475  0.18829059  1
  Zn  Zn108  1  0.18366545  0.18923366  0.68424205  1
  Zn  Zn109  1  0.18826888  0.68926585  0.18718698  1
  Zn  Zn110  1  0.18968429  0.69070148  0.68991627  1
  Zn  Zn111  1  0.68749297  0.18551120  0.18851530  1
  Zn  Zn112  1  0.67901594  0.18502855  0.68563122  1
  Zn  Zn113  1  0.68419025  0.68701604  0.19129314  1
  Zn  Zn114  1  0.68914657  0.68604441  0.69003630  1
  Zn  Zn115  1  0.31573051  0.30961522  0.31506303  1
  Zn  Zn116  1  0.31287551  0.30547283  0.81502559  1
  Zn  Zn117  1  0.31576079  0.81312907  0.31246567  1
  Zn  Zn118  1  0.30859668  0.81616207  0.81688604  1
  Zn  Zn119  1  0.81098782  0.30892301  0.31287001  1
  Zn  Zn120  1  0.81163964  0.31033625  0.81524600  1
  Zn  Zn121  1  0.81168783  0.80680868  0.31016962  1
  Zn  Zn122  1  0.81158044  0.80946404  0.81277377  1
  Zn  Zn123  1  0.19102217  0.43913165  0.44104411  1
  Zn  Zn124  1  0.18633693  0.43822436  0.93865308  1
  Zn  Zn125  1  0.18715083  0.93866083  0.43600139  1
  Zn  Zn126  1  0.18628209  0.94089870  0.93701316  1
  Zn  Zn127  1  0.69714878  0.43950192  0.44147254  1
  Zn  Zn128  1  0.68521529  0.43697014  0.93858872  1
  Zn  Zn129  1  0.68847235  0.93486218  0.43084416  1
  Zn  Zn130  1  0.68624185  0.93855500  0.94450061  1
  Zn  Zn131  1  0.31176080  0.05969311  0.06300458  1
  Zn  Zn132  1  0.30520335  0.06628384  0.57585258  1
  Zn  Zn133  1  0.31207630  0.55876739  0.06224040  1
  Zn  Zn134  1  0.31264058  0.55992617  0.56477662  1
  Zn  Zn135  1  0.81349456  0.06381504  0.06294731  1
  Zn  Zn136  1  0.80653643  0.06115703  0.53719479  1
  Zn  Zn137  1  0.81384935  0.56057427  0.06583280  1
  Zn  Zn138  1  0.81622770  0.55368151  0.56115149  1
  Zn  Zn139  1  0.43053055  0.43733351  0.18287774  1
  Zn  Zn140  1  0.43870080  0.44164453  0.68726244  1
  Zn  Zn141  1  0.45589828  0.95081701  0.19464286  1
  Zn  Zn142  1  0.43248789  0.94296323  0.68915405  1
  Zn  Zn143  1  0.93273584  0.43740697  0.18516010  1
  Zn  Zn144  1  0.93901407  0.43434158  0.68325905  1
  Zn  Zn145  1  0.93830244  0.93701045  0.17722238  1
  Zn  Zn146  1  0.94739972  0.93055326  0.68078749  1
  Zn  Zn147  1  0.05927387  0.06713601  0.30899886  1
  Zn  Zn148  1  0.05903277  0.05860029  0.81696374  1
  Zn  Zn149  1  0.06220375  0.55792208  0.31679016  1
  Zn  Zn150  1  0.06502263  0.55946564  0.81445753  1
  Zn  Zn151  1  0.56351818  0.06558635  0.30497106  1
  Zn  Zn152  1  0.55459199  0.07019382  0.80921635  1
  Zn  Zn153  1  0.56509681  0.56130711  0.31585786  1
  Zn  Zn154  1  0.56187097  0.56215114  0.81255028  1
  Zn  Zn155  1  0.48395758  0.22879163  0.48105923  1
  Zn  Zn156  1  0.43455786  0.18924755  0.92730277  1
  Zn  Zn157  1  0.43954237  0.68427009  0.43971165  1
  Zn  Zn158  1  0.43625892  0.69060246  0.93817156  1
  Zn  Zn159  1  0.93423126  0.18763099  0.42915332  1
  Zn  Zn160  1  0.94145563  0.18684606  0.93617207  1
  Zn  Zn161  1  0.94100152  0.68420661  0.43501659  1
  Zn  Zn162  1  0.93552790  0.68841898  0.93821655  1
  Zn  Zn163  1  0.06400903  0.30889306  0.06406584  1
  Zn  Zn164  1  0.06329564  0.30713180  0.56617320  1
  Zn  Zn165  1  0.06195584  0.81675011  0.06362037  1
  Zn  Zn166  1  0.05876103  0.81033175  0.56178186  1
  Zn  Zn167  1  0.56208314  0.31066104  0.05744975  1
  Zn  Zn168  1  0.57933104  0.32094159  0.56501500  1
  Zn  Zn169  1  0.56354675  0.81523839  0.06689462  1
  Zn  Zn170  1  0.56134886  0.81557158  0.56610667  1
  O  O171  1  0.12319744  0.12873614  0.11516360  1
  O  O172  1  0.11934857  0.12825380  0.60812682  1
  O  O173  1  0.12015417  0.62234772  0.11870986  1
  O  O174  1  0.12517726  0.61695148  0.62186233  1
  O  O175  1  0.61468470  0.12890980  0.11354937  1
  O  O176  1  0.62353495  0.10643656  0.62528834  1
  O  O177  1  0.61225470  0.62278977  0.12029598  1
  O  O178  1  0.62780124  0.61557123  0.62000234  1
  O  O179  1  0.36916309  0.38765311  0.38481153  1
  O  O180  1  0.37844230  0.38207383  0.88086162  1
  O  O181  1  0.38482099  0.87304166  0.38434099  1
  O  O182  1  0.38365779  0.87491161  0.88358532  1
  O  O183  1  0.86465133  0.37104760  0.39374823  1
  O  O184  1  0.88296789  0.36967182  0.88849223  1
  O  O185  1  0.88107749  0.87187704  0.37990567  1
  O  O186  1  0.87503429  0.86671012  0.88876607  1
  O  O187  1  0.24480617  0.01382261  0.36604548  1
  O  O188  1  0.24846897  -0.00181166  0.86781077  1
  O  O189  1  0.25770815  0.50420166  0.36944508  1
  O  O190  1  0.25699189  0.51134944  0.87869064  1
  O  O191  1  0.74660096  0.01368188  0.37130767  1
  O  O192  1  0.74729127  0.01372204  0.87939257  1
  O  O193  1  0.75650539  0.50869904  0.36747567  1
  O  O194  1  0.74554931  0.50972203  0.86973716  1
  O  O195  1  0.24989304  0.49176311  0.13414786  1
  O  O196  1  0.23900909  0.49008432  0.62275753  1
  O  O197  1  0.25215111  0.99162881  0.13927126  1
  O  O198  1  0.23952417  0.99624725  0.63100770  1
  O  O199  1  0.74885768  0.49163095  0.13241275  1
  O  O200  1  0.74666892  0.49542964  0.63632142  1
  O  O201  1  0.73950991  1.00687782  0.11972960  1
  O  O202  1  0.75056550  0.99817130  0.63133101  1
  O  O203  1  -0.00577689  0.36301290  0.24839367  1
  O  O204  1  0.00625727  0.36845842  0.75678088  1
  O  O205  1  0.00625836  0.86956896  0.25023573  1
  O  O206  1  -0.00027082  0.85906737  0.75482508  1
  O  O207  1  0.49143906  0.36053021  0.24084927  1
  O  O208  1  0.49398727  0.37116973  0.75994561  1
  O  O209  1  0.48671451  0.85911273  0.26094420  1
  O  O210  1  0.50651471  0.87000546  0.75526534  1
  O  O211  1  0.49178436  0.13519356  0.23766178  1
  O  O212  1  0.49238077  0.13391305  0.74081727  1
  O  O213  1  0.49493877  0.62585159  0.24366395  1
  O  O214  1  0.48848448  0.63239296  0.75287429  1
  O  O215  1  0.98366413  0.13721256  0.25534589  1
  O  O216  1  1.00023950  0.13771131  0.75143226  1
  O  O217  1  0.99675179  0.63072330  0.24627465  1
  O  O218  1  0.99436558  0.62718466  0.74724042  1
  O  O219  1  0.36477305  0.25791920  -0.00841863  1
  O  O220  1  0.37083729  0.26753055  0.49123593  1
  O  O221  1  0.38031870  0.76670848  0.00313313  1
  O  O222  1  0.36944940  0.75464438  0.50579784  1
  O  O223  1  0.87393588  0.25531940  0.00728456  1
  O  O224  1  0.87793446  0.25795732  0.50140484  1
  O  O225  1  0.86580433  0.75457101  0.00278069  1
  O  O226  1  0.88365886  0.75525806  0.50905610  1
  O  O227  1  0.13183973  0.24538055  0.49228545  1
  O  O228  1  0.12865310  0.24001302  0.99469823  1
  O  O229  1  0.13365367  0.74218657  0.49787055  1
  O  O230  1  0.11581461  0.73497362  0.99480870  1
  O  O231  1  0.60808782  0.25328722  0.47444328  1
  O  O232  1  0.62981916  0.24006219  0.99128709  1
  O  O233  1  0.61965254  0.73551491  0.50375419  1
  O  O234  1  0.63002328  0.74376439  0.99381891  1
  O  O235  1  0.50145287  0.24394080  0.13016732  1
  O  O236  1  0.50710714  0.24376877  0.60372930  1
  O  O237  1  0.49639888  0.74114974  0.13318452  1
  O  O238  1  0.49457805  0.74698285  0.63468264  1
  O  O239  1  0.99258002  0.25460002  0.13642276  1
  O  O240  1  1.00166284  0.24484329  0.64140485  1
  O  O241  1  1.00009922  0.74479631  0.13632261  1
  O  O242  1  0.99138821  0.74089657  0.63448812  1
  O  O243  1  0.00771699  0.25115246  0.36323527  1
  O  O244  1  0.00768162  0.25953789  0.86954937  1
  O  O245  1  0.00234038  0.75500947  0.36244006  1
  O  O246  1  0.00723984  0.74508538  0.86681522  1
  O  O247  1  0.51053920  0.25278109  0.36045580  1
  O  O248  1  0.51049868  0.26145964  0.87986946  1
  O  O249  1  0.50033080  0.75463534  0.37021585  1
  O  O250  1  0.50633539  0.75685255  0.87004871  1
  O  O251  1  0.24463606  0.13240079  0.49409107  1
  O  O252  1  0.23756117  0.13055463  1.00616288  1
  O  O253  1  0.24255224  0.62959873  0.49800234  1
  O  O254  1  0.24008037  0.62080636  0.99505951  1
  O  O255  1  0.74973970  0.13382185  0.47447758  1
  O  O256  1  0.74269765  0.13131164  0.98968845  1
  O  O257  1  0.74265371  0.61623443  0.49407936  1
  O  O258  1  0.74693068  0.62691477  0.99396361  1
  O  O259  1  0.25542294  0.36846756  0.00412828  1
  O  O260  1  0.25830723  0.37053051  0.50924356  1
  O  O261  1  0.25693939  0.88183496  0.01278771  1
  O  O262  1  0.25996952  0.86650928  0.49616056  1
  O  O263  1  0.75925745  0.37086031  0.00260696  1
  O  O264  1  0.75941350  0.37541743  0.51639845  1
  O  O265  1  0.75534264  0.86397768  -0.00202961  1
  O  O266  1  0.76258109  0.87674854  0.50497302  1
  O  O267  1  0.14027482  0.50361366  0.25027810  1
  O  O268  1  0.12284713  0.48505068  0.74550168  1
  O  O269  1  0.13312501  0.99344480  0.25442652  1
  O  O270  1  0.11720544  0.99581784  0.74518328  1
  O  O271  1  0.63918359  0.50494408  0.24777969  1
  O  O272  1  0.63663090  0.50704321  0.74321023  1
  O  O273  1  0.57448575  0.98313796  0.23308600  1
  O  O274  1  0.62012697  0.98992007  0.74493030  1
  O  O275  1  0.36880825  0.01601841  0.24846381  1
  O  O276  1  0.37248383  0.01346767  0.75250813  1
  O  O277  1  0.36847244  0.50323080  0.25791063  1
  O  O278  1  0.37968134  0.50856358  0.76359496  1
  O  O279  1  0.88359377  0.01388052  0.24575228  1
  O  O280  1  0.87441434  -0.00483340  0.74741526  1
  O  O281  1  0.86788185  0.51035925  0.24962769  1
  O  O282  1  0.87082921  0.51031140  0.74545822  1
  O  O283  1  0.13553788  0.36223881  0.37822956  1
  O  O284  1  0.11914433  0.36883865  0.86974293  1
  O  O285  1  0.11920155  0.87286358  0.36463373  1
  O  O286  1  0.12241122  0.85717170  0.88202869  1
  O  O287  1  0.63593630  0.36896185  0.37158893  1
  O  O288  1  0.61547970  0.36659276  0.87937853  1
  O  O289  1  0.60849304  0.87252569  0.37628822  1
  O  O290  1  0.61999441  0.87146617  0.86941626  1
  O  O291  1  0.38005449  0.12781856  0.13057958  1
  O  O292  1  0.38022043  0.12343386  0.63733389  1
  O  O293  1  0.38449997  0.62407944  0.12862318  1
  O  O294  1  0.37546553  0.62890545  0.63493393  1
  O  O295  1  0.87228365  0.13826562  0.13365176  1
  O  O296  1  0.86280009  0.11051328  0.63129877  1
  O  O297  1  0.88315496  0.62644168  0.13360140  1
  O  O298  1  0.88035316  0.62818788  0.63051667  1
  O  O299  1  0.24744868  0.25663021  0.11275148  1
  O  O300  1  0.24482479  0.25925965  0.60973990  1
  O  O301  1  0.25616685  0.76654233  0.13552378  1
  O  O302  1  0.25642499  0.74843599  0.61244108  1
  O  O303  1  0.75716319  0.25582419  0.11801140  1
  O  O304  1  0.74286874  0.26539681  0.63463143  1
  O  O305  1  0.74872921  0.74015858  0.11139853  1
  O  O306  1  0.76370808  0.75115376  0.62924450  1
  O  O307  1  0.24563030  0.24019173  0.38243401  1
  O  O308  1  0.23841596  0.25601705  0.88948159  1
  O  O309  1  0.25320258  0.74264093  0.38591652  1
  O  O310  1  0.24166448  0.73556442  0.87525457  1
  O  O311  1  0.73235327  0.24283289  0.36419902  1
  O  O312  1  0.74111584  0.24513362  0.87911485  1
  O  O313  1  0.74747386  0.73334228  0.37476600  1
  O  O314  1  0.74439467  0.73749744  0.88308917  1
  O  O315  1  0.00869365  0.11706149  0.00041253  1
  O  O316  1  0.00280655  0.11794624  0.49676530  1
  O  O317  1  0.00304932  0.61689992  0.00443601  1
  O  O318  1  0.01515508  0.62859224  0.50716517  1
  O  O319  1  0.50400306  0.12560517  0.00056862  1
  O  O320  1  0.48264299  0.11230668  0.49064354  1
  O  O321  1  0.50187519  0.62031525  0.00650893  1
  O  O322  1  0.50808499  0.61341086  0.50407714  1
  O  O323  1  0.49392961  0.38907473  0.50591783  1
  O  O324  1  0.49079683  0.37939776  0.99342425  1
  O  O325  1  0.48584663  0.86912723  0.49509051  1
  O  O326  1  0.49454047  0.88561207  0.99676489  1
  O  O327  1  0.98599288  0.36962614  0.51009403  1
  O  O328  1  0.99622198  0.37994262  0.99460935  1
  O  O329  1  0.99074876  0.87964618  0.49287302  1
  O  O330  1  0.99043679  0.87962754  0.99855680  1
  O  O331  1  0.49274174  0.50258229  0.38360490  1
  O  O332  1  0.49385516  0.49256123  0.87930334  1
  O  O333  1  0.49186812  0.99529733  0.37860651  1
  O  O334  1  0.49903259  0.99667597  0.88406221  1
  O  O335  1  0.99551598  0.50203806  0.38173428  1
  O  O336  1  1.00371917  0.48621783  0.88187837  1
  O  O337  1  0.99748746  0.99325745  0.38096247  1
  O  O338  1  1.00693805  0.99485726  0.89620260  1
  O  O339  1  0.00683383  -0.00701131  0.10496242  1
  O  O340  1  -0.00177667  0.00409120  0.60756975  1
  O  O341  1  0.00244513  0.50423914  0.11818785  1
  O  O342  1  0.01392845  0.50418877  0.62346225  1
  O  O343  1  0.49341340  0.01787345  0.10490393  1
  O  O344  1  0.51225288  -0.00415163  0.62054113  1
  O  O345  1  0.49968544  0.50587503  0.11843675  1
  O  O346  1  0.51203746  0.50244906  0.62092485  1
  O  O347  1  0.26047136  0.38058308  0.23987340  1
  O  O348  1  0.24380967  0.36674653  0.74055821  1
  O  O349  1  0.24607718  0.88494698  0.24973217  1
  O  O350  1  0.24359905  0.87068658  0.74575066  1
  O  O351  1  0.76065996  0.38462201  0.23906157  1
  O  O352  1  0.76032655  0.38737637  0.74522093  1
  O  O353  1  0.74408560  0.87067483  0.25215481  1
  O  O354  1  0.74010022  0.86808059  0.74306295  1
  O  O355  1  0.25526713  0.12345406  0.25566691  1
  O  O356  1  0.26101076  0.13059029  0.74279775  1
  O  O357  1  0.25676155  0.61746139  0.25373054  1
  O  O358  1  0.26281708  0.62840059  0.75848514  1
  O  O359  1  0.76651507  0.13416080  0.25604088  1
  O  O360  1  0.75088651  0.12085421  0.75784294  1
  O  O361  1  0.75832413  0.61916411  0.25537284  1
  O  O362  1  0.75770339  0.61664815  0.75830725  1
  O  O363  1  0.36861129  0.11685267  0.37122560  1
  O  O364  1  0.37990707  0.12380820  0.85561491  1
  O  O365  1  0.37080400  0.61339125  0.37267594  1
  O  O366  1  0.36816306  0.61991345  0.87313221  1
  O  O367  1  0.86499359  0.12218039  0.36203181  1
  O  O368  1  0.85838936  0.12962211  0.87971611  1
  O  O369  1  0.86945866  0.62346799  0.36823809  1
  O  O370  1  0.86575431  0.62717104  0.86684451  1
  O  O371  1  0.14026078  0.37764248  0.11809733  1
  O  O372  1  0.13224144  0.37922210  0.63293761  1
  O  O373  1  0.13426885  0.87054178  0.13784925  1
  O  O374  1  0.12419965  0.87399200  0.62526291  1
  O  O375  1  0.64048258  0.37410018  0.11505139  1
  O  O376  1  0.64259751  0.39003503  0.62625339  1
  O  O377  1  0.63301778  0.87844873  0.12569762  1
  O  O378  1  0.63248225  0.88311793  0.63156721  1
  O  O379  1  0.11084711  0.24626211  0.25680106  1
  O  O380  1  0.11903047  0.25823701  0.75791519  1
  O  O381  1  0.11857308  0.75691026  0.25287906  1
  O  O382  1  0.11493333  0.74435283  0.76035500  1
  O  O383  1  0.61036353  0.24954426  0.25403237  1
  O  O384  1  0.61782084  0.24888862  0.75900408  1
  O  O385  1  0.60946792  0.74720090  0.25535704  1
  O  O386  1  0.61885598  0.75551615  0.75503012  1
  O  O387  1  0.38606840  0.23797440  0.25857834  1
  O  O388  1  0.37856129  0.24080204  0.75034624  1
  O  O389  1  0.38333141  0.73784021  0.25133799  1
  O  O390  1  0.38078056  0.74389032  0.74819964  1
  O  O391  1  0.88455285  0.24686640  0.24413977  1
  O  O392  1  0.89079425  0.25359224  0.75545996  1
  O  O393  1  0.88391813  0.73692949  0.24826026  1
  O  O394  1  0.88137683  0.73728039  0.74486196  1
  O  O395  1  0.38269445  0.49504004  0.49462568  1
  O  O396  1  0.37923410  0.49390344  0.98808991  1
  O  O397  1  0.36742452  0.99488203  0.49657071  1
  O  O398  1  0.37955228  0.99291944  0.99423939  1
  O  O399  1  0.88072451  0.48388890  0.50154311  1
  O  O400  1  0.88757276  0.49212153  1.00413251  1
  O  O401  1  0.88085195  0.98827636  0.48977948  1
  O  O402  1  0.88534173  0.99511760  1.00163122  1
  O  O403  1  0.12034468  0.01388682  0.00237564  1
  O  O404  1  0.11537760  0.00871854  0.49599608  1
  O  O405  1  0.11389985  0.50963845  0.00053405  1
  O  O406  1  0.12553088  0.50692093  0.50931599  1
  O  O407  1  0.61447906  0.01484253  -0.00386654  1
  O  O408  1  0.63177722  -0.00775358  0.51462758  1
  O  O409  1  0.61659694  0.50704550  0.00232015  1
  O  O410  1  0.62118244  0.50557287  0.50704001  1
  O  O411  1  0.36404425  0.38017925  0.10768362  1
  O  O412  1  0.36550015  0.38478814  0.61817728  1
  O  O413  1  0.37003997  0.87898270  0.11882068  1
  O  O414  1  0.37395506  0.86855316  0.61708899  1
  O  O415  1  0.86745416  0.36707119  0.11405827  1
  O  O416  1  0.86427958  0.37400502  0.61949466  1
  O  O417  1  0.86936109  0.87027013  0.11233605  1
  O  O418  1  0.87138818  0.86422906  0.61744381  1
  O  O419  1  0.13065263  0.13328543  0.38317662  1
  O  O420  1  0.11910355  0.13640935  0.88419517  1
  O  O421  1  0.13395911  0.62661657  0.38463932  1
  O  O422  1  0.13170710  0.62891237  0.88184998  1
  O  O423  1  0.63430353  0.13073312  0.36250959  1
  O  O424  1  0.63135739  0.13263060  0.87840557  1
  O  O425  1  0.63344100  0.62445548  0.38660027  1
  O  O426  1  0.63145033  0.62929054  0.88126008  1
