# generated using pymatgen
data_V85Zn86O256
_symmetry_space_group_name_H-M   'P 1'
_cell_length_a   16.95210161
_cell_length_b   16.94195985
_cell_length_c   16.95215486
_cell_angle_alpha   89.97000827
_cell_angle_beta   90.06622859
_cell_angle_gamma   89.94578642
_symmetry_Int_Tables_number   1
_chemical_formula_structural   V85Zn86O256
_chemical_formula_sum   'V85 Zn86 O256'
_cell_volume   4868.68370705
_cell_formula_units_Z   1
loop_
 _symmetry_equiv_pos_site_id
 _symmetry_equiv_pos_as_xyz
  1  'x, y, z'
loop_
 _atom_site_type_symbol
 _atom_site_label
 _atom_site_symmetry_multiplicity
 _atom_site_fract_x
 _atom_site_fract_y
 _atom_site_fract_z
 _atom_site_occupancy
  V  V0  1  0.87234462  0.74527120  0.12486395  1
  V  V1  1  0.38020355  0.87641372  0.50064305  1
  V  V2  1  0.61993769  0.50279699  0.12890224  1
  V  V3  1  -0.00053089  0.74741626  0.25205258  1
  V  V4  1  0.75621555  0.74755314  0.49597932  1
  V  V5  1  0.62552137  0.74695739  0.37338216  1
  V  V6  1  0.00227139  0.61845467  0.62686195  1
  V  V7  1  0.63056645  0.37883336  0.25654139  1
  V  V8  1  0.24795260  0.25008827  0.50410525  1
  V  V9  1  0.12498251  0.10932937  0.50597727  1
  V  V10  1  0.62513757  0.87615158  0.74654924  1
  V  V11  1  0.50028071  0.25324340  0.75324643  1
  V  V12  1  0.74811637  0.87409887  0.12667272  1
  V  V13  1  0.12254594  0.25129676  0.37613539  1
  V  V14  1  -0.00073732  0.38267121  0.37637528  1
  V  V15  1  0.75150988  0.00157340  0.25895298  1
  V  V16  1  -0.00507459  0.88244926  0.87628205  1
  V  V17  1  0.75878983  0.11922871  0.87688189  1
  V  V18  1  0.86771677  0.61060006  0.25765550  1
  V  V19  1  0.37713570  0.51691229  0.37039692  1
  V  V20  1  -0.01793447  -0.00474594  0.50363155  1
  V  V21  1  0.62233894  0.37809296  0.75629138  1
  V  V22  1  0.50084481  0.49021291  -0.00270283  1
  V  V23  1  0.87562469  0.37292402  -0.00021656  1
  V  V24  1  0.28567032  0.72647371  0.01527656  1
  V  V25  1  0.37701975  0.00166841  0.37909472  1
  V  V26  1  0.37552385  0.62338764  0.74891553  1
  V  V27  1  0.87385108  0.74317247  0.62682213  1
  V  V28  1  0.75121577  0.38018753  0.13039819  1
  V  V29  1  0.87478063  0.38256106  0.49952617  1
  V  V30  1  0.62257936  0.62337653  0.00153364  1
  V  V31  1  0.50347157  0.12262428  0.61212521  1
  V  V32  1  0.00070478  0.37425032  0.87441088  1
  V  V33  1  -0.00398714  0.74591353  0.75192898  1
  V  V34  1  0.25135678  0.12506985  0.87381305  1
  V  V35  1  0.37849955  0.38134135  0.49667305  1
  V  V36  1  0.12537348  0.87925313  0.74815196  1
  V  V37  1  0.62963261  0.12586453  0.00011833  1
  V  V38  1  0.25140710  0.25142647  0.00084713  1
  V  V39  1  0.88047196  0.24436006  0.13432413  1
  V  V40  1  0.37601540  0.49275728  0.87094974  1
  V  V41  1  0.12722093  0.24887694  0.87363565  1
  V  V42  1  0.50170864  0.87588668  0.87182752  1
  V  V43  1  0.24813634  0.51742427  0.24972397  1
  V  V44  1  0.12718369  0.62034517  0.50120606  1
  V  V45  1  0.24525618  0.39187888  0.62457890  1
  V  V46  1  0.50380611  0.00323863  -0.00179979  1
  V  V47  1  0.12205816  0.12036706  0.01312103  1
  V  V48  1  0.50244059  0.12708439  0.12465682  1
  V  V49  1  0.87273519  0.88173371  -0.00241174  1
  V  V50  1  0.88015271  0.12267252  0.26170199  1
  V  V51  1  0.75474345  0.87353573  0.61824126  1
  V  V52  1  0.48726503  0.73793019  0.23930518  1
  V  V53  1  0.25074511  0.74869589  0.49636408  1
  V  V54  1  0.37390109  0.87874652  0.00573509  1
  V  V55  1  0.12545073  0.75014920  0.88240604  1
  V  V56  1  0.75088956  0.37587074  0.62938335  1
  V  V57  1  0.12772033  0.74865979  0.37394918  1
  V  V58  1  0.00112673  0.61421387  0.12764186  1
  V  V59  1  0.75891359  -0.00266972  0.75155818  1
  V  V60  1  0.37587119  0.25651950  0.12618614  1
  V  V61  1  0.62391173  0.74809613  0.87500920  1
  V  V62  1  -0.01347493  0.87886159  0.37771266  1
  V  V63  1  0.24750886  0.61922318  0.86656259  1
  V  V64  1  0.00453520  0.24714922  0.74760177  1
  V  V65  1  0.12048566  0.61701060  0.00278271  1
  V  V66  1  0.62541731  0.25086784  0.87443957  1
  V  V67  1  0.61838387  0.61887350  0.49853707  1
  V  V68  1  0.62320632  0.00234497  0.61146416  1
  V  V69  1  0.87417589  0.50707728  0.87049442  1
  V  V70  1  0.61415119  0.49924169  0.62367371  1
  V  V71  1  0.37809756  0.12498380  0.74537472  1
  V  V72  1  0.12741546  0.88988055  0.24646972  1
  V  V73  1  0.75162874  0.24759977  0.00177307  1
  V  V74  1  0.50076091  0.87999940  0.37408464  1
  V  V75  1  0.87631021  0.24570336  0.62731909  1
  V  V76  1  0.62905971  0.24322508  0.38536891  1
  V  V77  1  0.37734033  -0.00004295  0.86922744  1
  V  V78  1  0.50267337  0.25454369  0.25373187  1
  V  V79  1  0.24621276  0.87982192  0.62395421  1
  V  V80  1  0.24753730  0.11881595  0.37383426  1
  V  V81  1  0.24135718  0.38011396  0.12791015  1
  V  V82  1  0.12797322  0.38745332  0.74580322  1
  V  V83  1  0.61807548  0.87536355  0.24779649  1
  V  V84  1  0.37143554  0.12516946  0.25050932  1
  Zn  Zn85  1  0.74792942  0.74661553  0.00039357  1
  Zn  Zn86  1  0.74753361  0.11737028  0.38720493  1
  Zn  Zn87  1  0.00542245  0.11149917  0.63202916  1
  Zn  Zn88  1  0.37572989  0.25339240  0.62358450  1
  Zn  Zn89  1  0.12505531  0.38210870  0.25041264  1
  Zn  Zn90  1  0.75239235  0.51090718  0.74656945  1
  Zn  Zn91  1  0.00162472  0.49446046  0.00389864  1
  Zn  Zn92  1  0.74939219  0.60717874  0.37641159  1
  Zn  Zn93  1  0.37596144  0.74975361  0.62614869  1
  Zn  Zn94  1  0.49618815  0.62642104  0.62110884  1
  Zn  Zn95  1  0.37835016  0.37237983  -0.00624631  1
  Zn  Zn96  1  0.49789189  0.37973814  0.38055958  1
  Zn  Zn97  1  0.24596587  0.00242741  0.74394555  1
  Zn  Zn98  1  0.49864947  0.74852929  0.74647008  1
  Zn  Zn99  1  0.62723508  0.00338663  0.12625672  1
  Zn  Zn100  1  0.75176836  0.62805491  0.87013421  1
  Zn  Zn101  1  0.01488558  -0.00605586  0.01323786  1
  Zn  Zn102  1  0.88132190  0.11796590  0.75444826  1
  Zn  Zn103  1  0.23432877  0.88480710  0.11693987  1
  Zn  Zn104  1  0.00358992  0.24919528  0.25076194  1
  Zn  Zn105  1  0.74519027  0.24365418  0.50696233  1
  Zn  Zn106  1  0.00240877  0.50040015  0.50196204  1
  Zn  Zn107  1  0.18939328  0.19069982  0.19054594  1
  Zn  Zn108  1  0.18716642  0.18794780  0.68478948  1
  Zn  Zn109  1  0.18532792  0.69309181  0.18137661  1
  Zn  Zn110  1  0.18633529  0.69416599  0.68582441  1
  Zn  Zn111  1  0.69223717  0.18964397  0.19219310  1
  Zn  Zn112  1  0.68808097  0.18422924  0.68817480  1
  Zn  Zn113  1  0.68485819  0.68527800  0.18957290  1
  Zn  Zn114  1  0.68675005  0.68446763  0.68861079  1
  Zn  Zn115  1  0.30900342  0.31449653  0.31401769  1
  Zn  Zn116  1  0.31052654  0.31288121  0.80701151  1
  Zn  Zn117  1  0.31071024  0.81222602  0.30897537  1
  Zn  Zn118  1  0.31019636  0.80734245  0.81849882  1
  Zn  Zn119  1  0.81438156  0.43306685  0.31740947  1
  Zn  Zn120  1  0.81276290  0.31199805  0.81187030  1
  Zn  Zn121  1  0.80985368  0.80736553  0.30950682  1
  Zn  Zn122  1  0.81135953  0.80788377  0.81042574  1
  Zn  Zn123  1  0.19369729  0.44069990  0.43141371  1
  Zn  Zn124  1  0.18959561  0.43729448  0.93678308  1
  Zn  Zn125  1  0.18761368  0.93320713  0.43134452  1
  Zn  Zn126  1  0.19106441  0.93817842  0.93477312  1
  Zn  Zn127  1  0.68350156  0.43052273  0.44501344  1
  Zn  Zn128  1  0.69073381  0.43721902  0.93875692  1
  Zn  Zn129  1  0.68932806  0.93348168  0.43769653  1
  Zn  Zn130  1  0.69032971  0.93707635  0.93902423  1
  Zn  Zn131  1  0.30783259  0.06305233  0.06246743  1
  Zn  Zn132  1  0.31392387  0.06080717  0.56145920  1
  Zn  Zn133  1  0.31464208  0.55809826  0.06078818  1
  Zn  Zn134  1  0.31363168  0.56547689  0.55752591  1
  Zn  Zn135  1  0.84779161  0.04298613  0.08283603  1
  Zn  Zn136  1  0.81136843  0.06637083  0.56599888  1
  Zn  Zn137  1  0.81032819  0.56036673  0.05927685  1
  Zn  Zn138  1  0.80754221  0.56302606  0.56412315  1
  Zn  Zn139  1  0.43684261  0.44226597  0.19037517  1
  Zn  Zn140  1  0.43371390  0.43782521  0.68882431  1
  Zn  Zn141  1  0.40359679  0.95479884  0.16967591  1
  Zn  Zn142  1  0.43931654  0.93869146  0.68275365  1
  Zn  Zn143  1  0.94321829  0.43047664  0.18665196  1
  Zn  Zn144  1  0.93896301  0.43622552  0.68909859  1
  Zn  Zn145  1  0.94037652  0.93657925  0.19018515  1
  Zn  Zn146  1  0.93661507  0.92953937  0.68370155  1
  Zn  Zn147  1  0.05768216  0.06197902  0.31895057  1
  Zn  Zn148  1  0.06433489  0.06071778  0.81866801  1
  Zn  Zn149  1  0.06659906  0.56347298  0.31371738  1
  Zn  Zn150  1  0.05831779  0.56311970  0.81437908  1
  Zn  Zn151  1  0.56106989  0.06262825  0.31168317  1
  Zn  Zn152  1  0.56791473  0.06330390  0.80721898  1
  Zn  Zn153  1  0.55938706  0.56179311  0.31379624  1
  Zn  Zn154  1  0.55914876  0.56226431  0.81308525  1
  Zn  Zn155  1  0.43523381  0.19427167  0.43686900  1
  Zn  Zn156  1  0.43925061  0.18914949  0.93600492  1
  Zn  Zn157  1  0.44016235  0.69374525  0.43335126  1
  Zn  Zn158  1  0.43789361  0.67842269  0.94766506  1
  Zn  Zn159  1  0.93799192  0.19005817  0.44177260  1
  Zn  Zn160  1  0.93978720  0.18714447  0.93979133  1
  Zn  Zn161  1  0.93927528  0.68583882  0.43792683  1
  Zn  Zn162  1  0.93918530  0.68999899  0.94102113  1
  Zn  Zn163  1  0.06302069  0.30793960  0.06171457  1
  Zn  Zn164  1  0.06365440  0.31127597  0.56150397  1
  Zn  Zn165  1  0.05895159  0.80836711  0.06552901  1
  Zn  Zn166  1  0.06142618  0.81279886  0.56210799  1
  Zn  Zn167  1  0.56500324  0.31462767  0.06455794  1
  Zn  Zn168  1  0.55887382  0.31333886  0.56793977  1
  Zn  Zn169  1  0.55774279  0.81335545  0.06230165  1
  Zn  Zn170  1  0.56233819  0.80859101  0.56145480  1
  O  O171  1  0.13101493  0.13034020  0.11200826  1
  O  O172  1  0.12152326  0.12722222  0.61265348  1
  O  O173  1  0.11280415  0.63129485  0.11471062  1
  O  O174  1  0.11438647  0.63778334  0.61412661  1
  O  O175  1  0.62151563  0.12689678  0.11981689  1
  O  O176  1  0.61494045  0.11508893  0.63206263  1
  O  O177  1  0.63351742  0.60969900  0.11970910  1
  O  O178  1  0.62297277  0.61599239  0.61686634  1
  O  O179  1  0.37410610  0.37896703  0.38362608  1
  O  O180  1  0.36714104  0.38835118  0.87190877  1
  O  O181  1  0.38021295  0.88391757  0.37710908  1
  O  O182  1  0.38120491  0.89041268  0.86843147  1
  O  O183  1  0.88527377  0.37182793  0.38727235  1
  O  O184  1  0.88105026  0.37760845  0.88189052  1
  O  O185  1  0.88839377  0.86862356  0.36917687  1
  O  O186  1  0.88448702  0.85941255  0.88544502  1
  O  O187  1  0.25830039  0.01145415  0.37760753  1
  O  O188  1  0.26100737  0.00708453  0.86921435  1
  O  O189  1  0.26021493  0.50120017  0.35833877  1
  O  O190  1  0.25887697  0.51064281  0.88059542  1
  O  O191  1  0.74670784  -0.00277903  0.36336818  1
  O  O192  1  0.74210009  0.00793846  0.86397086  1
  O  O193  1  0.74717000  0.49471156  0.38006920  1
  O  O194  1  0.76521098  0.49764841  0.87484763  1
  O  O195  1  0.26178169  0.49174069  0.13700615  1
  O  O196  1  0.24754274  0.48990396  0.62028148  1
  O  O197  1  0.29438097  0.98035573  0.13302216  1
  O  O198  1  0.25353134  0.98555409  0.62534328  1
  O  O199  1  0.74250146  0.48577867  0.11818741  1
  O  O200  1  0.74054587  0.49068343  0.62799295  1
  O  O201  1  0.75427247  0.98624804  0.13764250  1
  O  O202  1  0.74558424  0.99062806  0.63127769  1
  O  O203  1  0.00596559  0.37037322  0.25992020  1
  O  O204  1  0.00928746  0.36684317  0.75353605  1
  O  O205  1  0.00408635  0.86832732  0.25870498  1
  O  O206  1  0.00542094  0.86628471  0.75698651  1
  O  O207  1  0.50634016  0.36427335  0.24803326  1
  O  O208  1  0.50881410  0.36504353  0.74352588  1
  O  O209  1  0.51241194  0.87195285  0.25461507  1
  O  O210  1  0.50869129  0.87574758  0.75415233  1
  O  O211  1  0.49547197  0.13798389  0.24527348  1
  O  O212  1  0.49089249  0.12983460  0.74489141  1
  O  O213  1  0.49931519  0.63906958  0.25462295  1
  O  O214  1  0.48924263  0.62747478  0.74796930  1
  O  O215  1  0.98490338  0.12813951  0.25736129  1
  O  O216  1  1.00150472  0.13072531  0.75176538  1
  O  O217  1  0.99149895  0.62925127  0.24665788  1
  O  O218  1  1.00751430  0.63821253  0.74306843  1
  O  O219  1  0.37195657  0.25125221  0.00862986  1
  O  O220  1  0.36371118  0.25980913  0.50124552  1
  O  O221  1  0.37244970  0.77419001  -0.03694656  1
  O  O222  1  0.36654781  0.75941020  0.49609586  1
  O  O223  1  0.87135198  0.25334570  0.01010750  1
  O  O224  1  0.88071192  0.25949133  0.51732607  1
  O  O225  1  0.87174610  0.75130589  0.01387024  1
  O  O226  1  0.86217938  0.74341644  0.50417905  1
  O  O227  1  0.12945120  0.24038929  0.49185963  1
  O  O228  1  0.13184372  0.24092906  0.99354495  1
  O  O229  1  0.13101723  0.74869450  0.49130167  1
  O  O230  1  0.11359361  0.73957315  0.98850258  1
  O  O231  1  0.62028281  0.25684288  0.48851891  1
  O  O232  1  0.63101990  0.24598506  0.99515028  1
  O  O233  1  0.63339463  0.74559502  0.48879609  1
  O  O234  1  0.62258084  0.74090078  0.99397385  1
  O  O235  1  0.49433398  0.24733750  0.13152489  1
  O  O236  1  0.49926555  0.24072721  0.63697313  1
  O  O237  1  0.51143133  0.74834831  0.14188826  1
  O  O238  1  0.49478794  0.74711446  0.62792689  1
  O  O239  1  0.98438350  0.25362900  0.12757586  1
  O  O240  1  0.99716884  0.24933493  0.63726750  1
  O  O241  1  0.99061205  0.73960262  0.13424721  1
  O  O242  1  0.99157529  0.74612353  0.63134070  1
  O  O243  1  0.00868299  0.25929237  0.37884924  1
  O  O244  1  0.00436471  0.25453757  0.86489741  1
  O  O245  1  0.00356207  0.75960084  0.37033438  1
  O  O246  1  0.00563878  0.75385719  0.86807827  1
  O  O247  1  0.50562340  0.25440747  0.36725727  1
  O  O248  1  0.50756777  0.24456346  0.86137520  1
  O  O249  1  0.50739027  0.76166774  0.36538356  1
  O  O250  1  0.51212886  0.75595313  0.87323790  1
  O  O251  1  0.24356387  0.12989313  0.49510236  1
  O  O252  1  0.24522587  0.13134175  0.99510050  1
  O  O253  1  0.24271748  0.64140891  0.50573964  1
  O  O254  1  0.23532268  0.62586745  0.99112345  1
  O  O255  1  0.75237494  0.13125639  0.49920672  1
  O  O256  1  0.74415528  0.12909436  0.99361287  1
  O  O257  1  0.73876296  0.63206501  0.49825979  1
  O  O258  1  0.73780352  0.62525415  0.99451232  1
  O  O259  1  0.25336251  0.36923669  0.00836671  1
  O  O260  1  0.25158699  0.36935014  0.50853345  1
  O  O261  1  0.26181473  0.87323896  -0.00066481  1
  O  O262  1  0.25678505  0.86941102  0.50385168  1
  O  O263  1  0.75682858  0.36636460  0.00690656  1
  O  O264  1  0.75659034  0.36604369  0.51488575  1
  O  O265  1  0.75123286  0.86793685  0.01106720  1
  O  O266  1  0.74586378  0.86431563  0.51090105  1
  O  O267  1  0.14247195  0.50116398  0.25346197  1
  O  O268  1  0.12169255  0.48630659  0.75651495  1
  O  O269  1  0.11930705  0.98865900  0.25414658  1
  O  O270  1  0.12655456  0.98398168  0.75719863  1
  O  O271  1  0.61609407  0.48796474  0.24320727  1
  O  O272  1  0.62552766  0.49178681  0.74537696  1
  O  O273  1  0.63115878  0.99255811  0.24686464  1
  O  O274  1  0.63450007  0.98839352  0.74297842  1
  O  O275  1  0.38709021  0.01892368  0.26513183  1
  O  O276  1  0.37490564  0.00898125  0.75319020  1
  O  O277  1  0.36544937  0.49977361  0.26089539  1
  O  O278  1  0.37700722  0.51127369  0.75758873  1
  O  O279  1  0.86849770  0.01541813  0.25138375  1
  O  O280  1  0.86322643  -0.00412538  0.74619266  1
  O  O281  1  0.87714669  0.50696650  0.24780252  1
  O  O282  1  0.87477157  0.49245211  0.76719792  1
  O  O283  1  0.12032446  0.36652036  0.37834683  1
  O  O284  1  0.12200089  0.36785034  0.86874669  1
  O  O285  1  0.11504454  0.86699421  0.36381884  1
  O  O286  1  0.11847009  0.86664018  0.87326597  1
  O  O287  1  0.61764696  0.36719779  0.36937465  1
  O  O288  1  0.63202452  0.36951305  0.86281807  1
  O  O289  1  0.61863695  0.86808522  0.36963175  1
  O  O290  1  0.62119935  0.87102546  0.86712800  1
  O  O291  1  0.37899627  0.13833236  0.13349009  1
  O  O292  1  0.38241867  0.12575048  0.63105400  1
  O  O293  1  0.36334649  0.66078069  0.05299292  1
  O  O294  1  0.37445397  0.62497113  0.63372500  1
  O  O295  1  0.86170050  0.14155356  0.13895260  1
  O  O296  1  0.88303586  0.13233768  0.63239217  1
  O  O297  1  0.87794520  0.62735406  0.13392488  1
  O  O298  1  0.88278137  0.63578024  0.61947324  1
  O  O299  1  0.25890288  0.25767874  0.12181712  1
  O  O300  1  0.25122888  0.25277420  0.61209184  1
  O  O301  1  0.24264661  0.75895395  0.10514026  1
  O  O302  1  0.25425786  0.76268764  0.61597360  1
  O  O303  1  0.75706588  0.26117736  0.12230538  1
  O  O304  1  0.75954110  0.25553953  0.63046833  1
  O  O305  1  0.75518084  0.75776156  0.12897377  1
  O  O306  1  0.75455103  0.75397733  0.61783048  1
  O  O307  1  0.24440946  0.24190009  0.38614813  1
  O  O308  1  0.24854393  0.24507623  0.88028664  1
  O  O309  1  0.23935579  0.75806813  0.38254493  1
  O  O310  1  0.24147848  0.73904440  0.88976325  1
  O  O311  1  0.72928522  0.25118767  0.37890881  1
  O  O312  1  0.74527215  0.24246127  0.87997338  1
  O  O313  1  0.74251379  0.74723220  0.38131727  1
  O  O314  1  0.73561901  0.75254625  0.87818129  1
  O  O315  1  0.01971406  0.12404513  -0.00692265  1
  O  O316  1  0.00495937  0.10770967  0.49794002  1
  O  O317  1  0.00263137  0.62182704  0.01057766  1
  O  O318  1  0.00754330  0.62322697  0.50797504  1
  O  O319  1  0.50921651  0.12346427  0.00373389  1
  O  O320  1  0.49404796  0.13210324  0.51366715  1
  O  O321  1  0.51625169  0.61011846  -0.00262577  1
  O  O322  1  0.51468807  0.63289644  0.49841372  1
  O  O323  1  0.48162672  0.37256809  0.50480728  1
  O  O324  1  0.50082757  0.38436132  0.99950845  1
  O  O325  1  0.48779256  0.86788875  0.49006889  1
  O  O326  1  0.49987871  0.88445069  0.98803175  1
  O  O327  1  0.99413258  0.37878091  0.49724491  1
  O  O328  1  0.99450903  0.37281964  0.99357489  1
  O  O329  1  1.00274464  0.88319850  0.48811499  1
  O  O330  1  0.99091162  0.87363314  0.99435468  1
  O  O331  1  0.48217226  0.49664426  0.36947419  1
  O  O332  1  0.48877430  0.50213391  0.88319525  1
  O  O333  1  0.49644742  0.98773272  0.37323728  1
  O  O334  1  0.49613619  0.99843281  0.87601875  1
  O  O335  1  1.00698975  0.48719662  0.37851623  1
  O  O336  1  0.98962101  0.49218149  0.87748550  1
  O  O337  1  0.99879326  0.98615473  0.38498972  1
  O  O338  1  1.00224880  0.98480514  0.88136211  1
  O  O339  1  -0.04323608  0.00652525  0.10732353  1
  O  O340  1  -0.00174331  -0.00707435  0.60897302  1
  O  O341  1  -0.00223973  0.50990257  0.12481773  1
  O  O342  1  -0.00266588  0.51497846  0.62802710  1
  O  O343  1  0.49716768  0.01111354  0.11747752  1
  O  O344  1  0.51005234  0.01056738  0.62765884  1
  O  O345  1  0.50960794  0.49481700  0.11620347  1
  O  O346  1  0.51084940  0.50059391  0.62798615  1
  O  O347  1  0.24724409  0.38002849  0.24172690  1
  O  O348  1  0.24296351  0.37011081  0.73223214  1
  O  O349  1  0.22885214  0.86957649  0.24851394  1
  O  O350  1  0.24281158  0.87256297  0.74315338  1
  O  O351  1  0.74145520  0.37568557  0.24333650  1
  O  O352  1  0.74257269  0.37590105  0.74110329  1
  O  O353  1  0.74035120  0.87814476  0.24611470  1
  O  O354  1  0.74429760  0.87803085  0.74060339  1
  O  O355  1  0.26058532  0.13252536  0.26092698  1
  O  O356  1  0.26239527  0.12580045  0.75177168  1
  O  O357  1  0.24986265  0.61646228  0.23853548  1
  O  O358  1  0.25206432  0.63239434  0.76121326  1
  O  O359  1  0.75646102  0.11668327  0.25627300  1
  O  O360  1  0.75227884  0.11414703  0.75805147  1
  O  O361  1  0.76559601  0.62625229  0.25211818  1
  O  O362  1  0.75015074  0.62403790  0.75610972  1
  O  O363  1  0.36893588  0.12180032  0.37195264  1
  O  O364  1  0.37324276  0.11754625  0.86713541  1
  O  O365  1  0.37562867  0.61551041  0.37935421  1
  O  O366  1  0.36580930  0.61642735  0.86947552  1
  O  O367  1  0.86927652  0.13678486  0.36305746  1
  O  O368  1  0.86275981  0.12956136  0.87463496  1
  O  O369  1  0.87558079  0.62648005  0.35986410  1
  O  O370  1  0.87692880  0.60958202  0.88394889  1
  O  O371  1  0.13772663  0.36937596  0.12581532  1
  O  O372  1  0.13671569  0.37253086  0.62975139  1
  O  O373  1  0.11681673  0.87541100  0.13988727  1
  O  O374  1  0.13278997  0.86668597  0.63596742  1
  O  O375  1  0.63287438  0.38098032  0.13388297  1
  O  O376  1  0.63103910  0.37979703  0.63315229  1
  O  O377  1  0.63179636  0.87695019  0.13155538  1
  O  O378  1  0.63107538  0.87885475  0.63053864  1
  O  O379  1  0.12467463  0.24928324  0.26540927  1
  O  O380  1  0.12012695  0.25534242  0.75482805  1
  O  O381  1  0.11154622  0.75007026  0.25494405  1
  O  O382  1  0.11968399  0.75914126  0.76292510  1
  O  O383  1  0.61946660  0.25990006  0.25689071  1
  O  O384  1  0.61927146  0.25652046  0.75378930  1
  O  O385  1  0.62453088  0.75559329  0.26111516  1
  O  O386  1  0.62438462  0.76237736  0.75517227  1
  O  O387  1  0.38214303  0.24512865  0.24685838  1
  O  O388  1  0.38294551  0.24346324  0.74748788  1
  O  O389  1  0.38817678  0.75643246  0.24896133  1
  O  O390  1  0.37455739  0.73692373  0.75293951  1
  O  O391  1  0.87630016  0.24178391  0.23928470  1
  O  O392  1  0.88551820  0.25002333  0.74228497  1
  O  O393  1  0.88267101  0.74234558  0.24191984  1
  O  O394  1  0.88548829  0.75175551  0.74152904  1
  O  O395  1  0.36214155  0.49352952  0.48213195  1
  O  O396  1  0.38467414  0.49469191  0.99217545  1
  O  O397  1  0.37379400  0.99297570  0.48754781  1
  O  O398  1  0.38391161  0.99700659  0.98641570  1
  O  O399  1  0.87628274  0.48576613  0.51064579  1
  O  O400  1  0.87666948  0.48814465  0.99284993  1
  O  O401  1  0.88392535  0.99858537  0.50120386  1
  O  O402  1  0.85595266  0.98009252  0.98610566  1
  O  O403  1  0.13090752  0.01381612  0.00017651  1
  O  O404  1  0.12247242  0.00729007  0.49251722  1
  O  O405  1  0.12025658  0.51240251  -0.00672137  1
  O  O406  1  0.12988860  0.51764067  0.49268901  1
  O  O407  1  0.62132409  0.00748068  0.00363723  1
  O  O408  1  0.62815651  -0.00546137  0.51249881  1
  O  O409  1  0.62038616  0.50196258  0.00594635  1
  O  O410  1  0.62531033  0.50674174  0.51056122  1
  O  O411  1  0.37028120  0.36463182  0.12665738  1
  O  O412  1  0.36092295  0.37665544  0.61887914  1
  O  O413  1  0.39589936  0.86044537  0.10171184  1
  O  O414  1  0.37021734  0.87504283  0.61450551  1
  O  O415  1  0.86893420  0.36630806  0.12190459  1
  O  O416  1  0.86782418  0.36890270  0.62504803  1
  O  O417  1  0.86669966  0.86261350  0.12090809  1
  O  O418  1  0.86486254  0.85934952  0.62594164  1
  O  O419  1  0.13177070  0.12942265  0.38149938  1
  O  O420  1  0.13577823  0.13080056  0.87867993  1
  O  O421  1  0.11619565  0.64153246  0.38361488  1
  O  O422  1  0.12891545  0.63071188  0.87877126  1
  O  O423  1  0.62258619  0.13972945  0.37055207  1
  O  O424  1  0.63453837  0.13109881  0.87892638  1
  O  O425  1  0.62731369  0.63096405  0.37929254  1
  O  O426  1  0.62464432  0.63281984  0.88157022  1
