# generated using pymatgen
data_V85Zn86O256
_symmetry_space_group_name_H-M   'P 1'
_cell_length_a   16.95997410
_cell_length_b   16.97381332
_cell_length_c   16.98230368
_cell_angle_alpha   89.98879488
_cell_angle_beta   89.97233272
_cell_angle_gamma   90.01006966
_symmetry_Int_Tables_number   1
_chemical_formula_structural   V85Zn86O256
_chemical_formula_sum   'V85 Zn86 O256'
_cell_volume   4888.78731059
_cell_formula_units_Z   1
loop_
 _symmetry_equiv_pos_site_id
 _symmetry_equiv_pos_as_xyz
  1  'x, y, z'
loop_
 _atom_site_type_symbol
 _atom_site_label
 _atom_site_symmetry_multiplicity
 _atom_site_fract_x
 _atom_site_fract_y
 _atom_site_fract_z
 _atom_site_occupancy
  V  V0  1  0.13300308  0.37721262  0.25207408  1
  V  V1  1  0.75139305  0.62387281  0.37450842  1
  V  V2  1  0.74286906  0.24480207  0.00534184  1
  V  V3  1  0.13068676  0.62806322  0.50220224  1
  V  V4  1  0.37652086  0.87548239  0.50226055  1
  V  V5  1  0.12268625  0.50118891  0.63068965  1
  V  V6  1  0.26058371  0.00506778  0.74879741  1
  V  V7  1  0.87593891  0.87448863  0.50077025  1
  V  V8  1  0.74506159  0.12103587  0.86815973  1
  V  V9  1  0.88343049  0.62285092  0.24595158  1
  V  V10  1  -0.00075712  0.37383188  0.37892005  1
  V  V11  1  0.50548531  0.00824023  0.50055843  1
  V  V12  1  0.62613310  0.87362479  0.24774585  1
  V  V13  1  0.74100355  0.24605861  0.49952030  1
  V  V14  1  0.87245086  0.50403262  0.87713123  1
  V  V15  1  0.50640330  0.11552769  0.11182492  1
  V  V16  1  0.24688156  0.24916931  0.00263413  1
  V  V17  1  0.74934208  0.87749668  0.62936790  1
  V  V18  1  0.49635790  0.62661825  0.12401673  1
  V  V19  1  0.12173385  0.37523575  0.75576600  1
  V  V20  1  0.38299312  0.25082413  0.12701432  1
  V  V21  1  0.63265589  0.49046934  0.12769340  1
  V  V22  1  0.37518873  0.00200050  0.37759482  1
  V  V23  1  0.74978412  0.50937944  0.75222268  1
  V  V24  1  0.62924010  0.36231087  0.25262764  1
  V  V25  1  0.11178655  0.11999255  0.50309564  1
  V  V26  1  0.49515345  0.12331231  0.62980133  1
  V  V27  1  0.11162904  0.61780843  0.00247169  1
  V  V28  1  0.25688139  0.12696530  0.87267064  1
  V  V29  1  0.00084584  0.87908812  0.37898951  1
  V  V30  1  0.25360935  0.75176264  0.00440614  1
  V  V31  1  0.25136048  0.12522978  0.37549488  1
  V  V32  1  0.87513648  0.50044644  0.37490367  1
  V  V33  1  0.73987576  0.12383168  0.37841701  1
  V  V34  1  -0.00485171  0.37697080  0.87892462  1
  V  V35  1  0.62520065  0.74740093  0.37405332  1
  V  V36  1  0.11516828  0.00291231  0.62415312  1
  V  V37  1  0.49722873  0.24855412  0.75268524  1
  V  V38  1  0.24864033  0.37535395  0.62712749  1
  V  V39  1  0.38795973  0.13152681  0.25366030  1
  V  V40  1  0.25002542  0.87522384  0.62555821  1
  V  V41  1  0.37518771  0.74682365  0.63085646  1
  V  V42  1  0.63114771  0.61988538  -0.00165607  1
  V  V43  1  0.63164828  0.74213377  0.86887484  1
  V  V44  1  0.37130878  0.24509699  0.62970505  1
  V  V45  1  0.00032446  0.75459908  0.75216387  1
  V  V46  1  0.87391941  0.12502020  0.25020287  1
  V  V47  1  0.12616699  0.87813140  0.75719493  1
  V  V48  1  0.87628370  0.00002529  0.37706414  1
  V  V49  1  0.12292317  0.75014932  0.87735271  1
  V  V50  1  0.62373916  0.88097054  0.75405484  1
  V  V51  1  0.50178851  0.87396435  0.37640521  1
  V  V52  1  0.88328806  0.87519392  -0.00670241  1
  V  V53  1  0.62438785  0.49794678  0.61987560  1
  V  V54  1  0.62928269  0.00718052  0.62651215  1
  V  V55  1  0.87004297  0.37234964  0.50159559  1
  V  V56  1  0.37898940  -0.01226213  0.88644455  1
  V  V57  1  0.37575932  0.38453400  -0.00701830  1
  V  V58  1  0.13171550  0.75156797  0.37737840  1
  V  V59  1  0.48708085  0.74434177  0.24833444  1
  V  V60  1  0.12515094  0.24843894  0.37905164  1
  V  V61  1  0.00046434  0.74902393  0.24812302  1
  V  V62  1  0.26032614  0.61983009  0.88114153  1
  V  V63  1  -0.00082516  0.50006446  0.50301946  1
  V  V64  1  0.75258977  0.87480775  0.12167988  1
  V  V65  1  0.75261905  0.37147272  0.62923328  1
  V  V66  1  -0.00344994  0.62750257  0.62818189  1
  V  V67  1  0.87251801  0.00112292  0.87430279  1
  V  V68  1  0.25208558  0.38051978  0.13061699  1
  V  V69  1  0.62191060  0.24637180  0.87641807  1
  V  V70  1  0.61829353  0.62775616  0.49994655  1
  V  V71  1  0.74800897  -0.00101811  0.24209559  1
  V  V72  1  -0.00307006  0.13006527  0.12084637  1
  V  V73  1  0.12541290  0.00253683  0.12652608  1
  V  V74  1  -0.00633679  0.24054000  0.74749327  1
  V  V75  1  0.00177070  -0.00073328  -0.00639875  1
  V  V76  1  0.88026364  0.74542689  0.12334626  1
  V  V77  1  0.26336191  0.50387070  0.75633084  1
  V  V78  1  0.86685018  0.37458776  0.00642684  1
  V  V79  1  0.25372706  0.87593328  0.12435727  1
  V  V80  1  0.38468839  0.38640580  0.50142845  1
  V  V81  1  0.75718843  0.74381747  -0.00827828  1
  V  V82  1  0.49868962  0.75154834  0.75488175  1
  V  V83  1  -0.00284087  0.24965311  0.25059676  1
  V  V84  1  0.49761571  0.62091119  0.62975495  1
  Zn  Zn85  1  0.87853397  0.23458852  0.61990340  1
  Zn  Zn86  1  0.51017418  -0.02468950  -0.00264880  1
  Zn  Zn87  1  0.75100952  0.74995097  0.50167163  1
  Zn  Zn88  1  0.30128488  0.55887270  0.30337144  1
  Zn  Zn89  1  0.48548796  0.37718276  0.35726215  1
  Zn  Zn90  1  0.24970671  0.24961530  0.50310861  1
  Zn  Zn91  1  0.12439409  0.87743964  0.25095483  1
  Zn  Zn92  1  0.12629267  0.12844579  0.00062694  1
  Zn  Zn93  1  0.60977566  0.24448848  0.37556810  1
  Zn  Zn94  1  0.86804364  0.25390624  0.12762613  1
  Zn  Zn95  1  0.25118376  0.00153577  0.24900857  1
  Zn  Zn96  1  0.87178715  0.62979661  0.75528051  1
  Zn  Zn97  1  0.11115010  0.51218571  0.12827469  1
  Zn  Zn98  1  0.49686648  0.38465268  0.87062456  1
  Zn  Zn99  1  0.87381790  0.75103696  0.62648101  1
  Zn  Zn100  1  0.41838406  0.80953759  0.06997604  1
  Zn  Zn101  1  0.25466964  0.74743079  0.49782160  1
  Zn  Zn102  1  0.87307458  0.11252773  0.74275636  1
  Zn  Zn103  1  0.75683218  0.49294093  0.23988769  1
  Zn  Zn104  1  0.49316922  0.50830586  -0.00741585  1
  Zn  Zn105  1  0.62378670  0.37504651  0.75095165  1
  Zn  Zn106  1  0.12284659  0.24868424  0.87831553  1
  Zn  Zn107  1  0.18935556  0.19121496  0.18880926  1
  Zn  Zn108  1  0.18262804  0.18658199  0.68996852  1
  Zn  Zn109  1  0.18365034  0.69026796  0.18888515  1
  Zn  Zn110  1  0.18991619  0.68619048  0.69261087  1
  Zn  Zn111  1  0.68576225  0.18479784  0.18815357  1
  Zn  Zn112  1  0.68629801  0.18630092  0.68952852  1
  Zn  Zn113  1  0.69004369  0.68415437  0.18606074  1
  Zn  Zn114  1  0.68779221  0.68962075  0.68398995  1
  Zn  Zn115  1  0.31602397  0.31303550  0.31538788  1
  Zn  Zn116  1  0.31188204  0.31204045  0.81254145  1
  Zn  Zn117  1  0.31023354  0.81700386  0.31049417  1
  Zn  Zn118  1  0.30987818  0.80995000  0.81331444  1
  Zn  Zn119  1  0.80380491  0.31440186  0.31193449  1
  Zn  Zn120  1  0.81106252  0.31118046  0.81470922  1
  Zn  Zn121  1  0.81357483  0.80988730  0.31263627  1
  Zn  Zn122  1  0.81239926  0.81642938  0.81022700  1
  Zn  Zn123  1  0.19750538  0.43940318  0.44092065  1
  Zn  Zn124  1  0.18955757  0.43817424  0.94115342  1
  Zn  Zn125  1  0.18804402  0.93879990  0.44079974  1
  Zn  Zn126  1  0.19155371  0.93922090  0.93940964  1
  Zn  Zn127  1  0.63702490  0.47393573  0.40335542  1
  Zn  Zn128  1  0.68626344  0.43248972  0.93360542  1
  Zn  Zn129  1  0.68880374  0.93786271  0.43930149  1
  Zn  Zn130  1  0.69008956  0.93148281  0.93233246  1
  Zn  Zn131  1  0.31570864  0.06409966  0.06276208  1
  Zn  Zn132  1  0.30935320  0.06383496  0.56160545  1
  Zn  Zn133  1  0.29033447  0.58202792  0.10558906  1
  Zn  Zn134  1  0.31114550  0.56306968  0.56775293  1
  Zn  Zn135  1  0.68417282  0.06238053  0.05448902  1
  Zn  Zn136  1  0.81384233  0.06139110  0.56132337  1
  Zn  Zn137  1  0.81780695  0.56275268  0.06063968  1
  Zn  Zn138  1  0.80989330  0.56210918  0.56237606  1
  Zn  Zn139  1  0.44457617  0.44167772  0.18117625  1
  Zn  Zn140  1  0.43960722  0.43477015  0.68527643  1
  Zn  Zn141  1  0.43880195  0.94372800  0.19295555  1
  Zn  Zn142  1  0.43868393  0.93580265  0.69059520  1
  Zn  Zn143  1  0.94206343  0.43827245  0.18604274  1
  Zn  Zn144  1  0.93495858  0.43553963  0.69160956  1
  Zn  Zn145  1  0.93883172  0.93798023  0.18588166  1
  Zn  Zn146  1  0.93874788  0.93594776  0.68921998  1
  Zn  Zn147  1  0.06225381  0.06353108  0.31304259  1
  Zn  Zn148  1  0.06952861  0.06454003  0.81565216  1
  Zn  Zn149  1  0.10682660  0.54546865  0.33485821  1
  Zn  Zn150  1  0.06229235  0.56259748  0.81846480  1
  Zn  Zn151  1  0.56279118  0.05912825  0.30838074  1
  Zn  Zn152  1  0.55765338  0.06319598  0.81438445  1
  Zn  Zn153  1  0.46538547  0.55504715  0.32102197  1
  Zn  Zn154  1  0.56161517  0.56188683  0.81104860  1
  Zn  Zn155  1  0.43818648  0.19654415  0.44308680  1
  Zn  Zn156  1  0.43132422  0.18751697  0.93792734  1
  Zn  Zn157  1  0.43201500  0.68376242  0.43878232  1
  Zn  Zn158  1  0.44207955  0.68878302  0.93637573  1
  Zn  Zn159  1  0.93202061  0.18596649  0.43786023  1
  Zn  Zn160  1  0.93237938  0.18863524  0.93543753  1
  Zn  Zn161  1  0.94248510  0.68925686  0.43665829  1
  Zn  Zn162  1  0.93902222  0.68783402  0.93145687  1
  Zn  Zn163  1  0.05043969  0.34192004  0.07487918  1
  Zn  Zn164  1  0.06174668  0.31030355  0.56591430  1
  Zn  Zn165  1  0.06752533  0.81373002  0.06354369  1
  Zn  Zn166  1  0.06202823  0.81595951  0.56423240  1
  Zn  Zn167  1  0.55921038  0.31183914  0.06142476  1
  Zn  Zn168  1  0.56254209  0.31085039  0.56337475  1
  Zn  Zn169  1  0.57871745  0.81158932  0.05881207  1
  Zn  Zn170  1  0.56233686  0.81371864  0.56504496  1
  O  O171  1  0.11482589  0.12202367  0.12525831  1
  O  O172  1  0.13024664  0.11634221  0.61488287  1
  O  O173  1  0.12089019  0.62686463  0.10775390  1
  O  O174  1  0.11415567  0.62329791  0.62319235  1
  O  O175  1  0.61093793  0.12251983  0.12641418  1
  O  O176  1  0.61636459  0.11341687  0.62914067  1
  O  O177  1  0.62138674  0.62150633  0.11505688  1
  O  O178  1  0.62020811  0.62016748  0.61840074  1
  O  O179  1  0.36981810  0.37103558  0.39737675  1
  O  O180  1  0.37343853  0.37159829  0.88937385  1
  O  O181  1  0.38190683  0.88129798  0.38137586  1
  O  O182  1  0.36711321  0.88954704  0.87237562  1
  O  O183  1  0.87682365  0.38115452  0.38274163  1
  O  O184  1  0.87884184  0.38219698  0.87826695  1
  O  O185  1  0.87972417  0.88038198  0.38010561  1
  O  O186  1  0.87029471  0.87966992  0.88792839  1
  O  O187  1  0.25647469  0.00820002  0.37529097  1
  O  O188  1  0.25673705  0.00644706  0.86863734  1
  O  O189  1  0.21472511  0.51626443  0.36663303  1
  O  O190  1  0.24736486  0.51218470  0.87189296  1
  O  O191  1  0.75506351  0.00422546  0.36546155  1
  O  O192  1  0.76015940  0.00886706  0.88081106  1
  O  O193  1  0.74919238  0.51443650  0.36960299  1
  O  O194  1  0.75634121  0.49224000  0.86089731  1
  O  O195  1  0.23258256  0.47936592  0.11520700  1
  O  O196  1  0.24119698  0.49507926  0.63644780  1
  O  O197  1  0.24123677  0.99774717  0.12473926  1
  O  O198  1  0.24592832  0.99505998  0.63354026  1
  O  O199  1  0.73660538  0.50823054  0.12203794  1
  O  O200  1  0.74625749  0.49070096  0.63098912  1
  O  O201  1  0.74988777  0.99333718  0.13553256  1
  O  O202  1  0.73727851  0.99226296  0.61773805  1
  O  O203  1  0.00361976  0.36058039  0.26037730  1
  O  O204  1  0.00474954  0.36779524  0.75898208  1
  O  O205  1  0.00011843  0.86939524  0.26104853  1
  O  O206  1  0.01157686  0.86232360  0.74488752  1
  O  O207  1  0.52512657  0.37575423  0.23917811  1
  O  O208  1  0.50133226  0.36122751  0.74926581  1
  O  O209  1  0.50990178  0.86997975  0.25342167  1
  O  O210  1  0.51195945  0.86384127  0.74285137  1
  O  O211  1  0.49094909  0.11995182  0.24149694  1
  O  O212  1  0.49966748  0.13412363  0.73800235  1
  O  O213  1  0.50745450  0.63780925  0.23889363  1
  O  O214  1  0.50770649  0.63549596  0.73637642  1
  O  O215  1  0.99648005  0.13577429  0.24764035  1
  O  O216  1  1.00215426  0.13874090  0.75607966  1
  O  O217  1  0.98668697  0.63527395  0.25857058  1
  O  O218  1  1.00192472  0.63638942  0.74468773  1
  O  O219  1  0.36536743  0.25610767  0.00795971  1
  O  O220  1  0.36928913  0.25878162  0.51729683  1
  O  O221  1  0.35838509  0.74577927  -0.00458748  1
  O  O222  1  0.37564904  0.75708693  0.51187544  1
  O  O223  1  0.85950142  0.25453862  -0.00113326  1
  O  O224  1  0.86729158  0.25700683  0.50133207  1
  O  O225  1  0.87483155  0.75530813  0.00107703  1
  O  O226  1  0.87561552  0.76333121  0.50015138  1
  O  O227  1  0.12451987  0.24386424  0.49208139  1
  O  O228  1  0.14028652  0.25379388  1.00142668  1
  O  O229  1  0.12596376  0.74615420  0.49556533  1
  O  O230  1  0.13077627  0.74533063  0.99211850  1
  O  O231  1  0.63796618  0.25409758  0.49770814  1
  O  O232  1  0.63415577  0.25404010  0.99255235  1
  O  O233  1  0.62656698  0.74545623  0.49377792  1
  O  O234  1  0.63940362  0.74083659  0.98957232  1
  O  O235  1  0.48850098  0.23816289  0.11897641  1
  O  O236  1  0.49346660  0.24128798  0.63017747  1
  O  O237  1  0.50202674  0.74519804  0.13389131  1
  O  O238  1  0.49405624  0.74471003  0.63325362  1
  O  O239  1  0.99813974  0.24670120  0.13520910  1
  O  O240  1  0.99733797  0.25653600  0.64331164  1
  O  O241  1  0.99674625  0.75947380  0.14065642  1
  O  O242  1  0.99907342  0.74360423  0.63291993  1
  O  O243  1  0.00460476  0.25329032  0.37118629  1
  O  O244  1  0.00067244  0.25587254  0.86347730  1
  O  O245  1  0.00450469  0.76067482  0.36641898  1
  O  O246  1  0.01407677  0.74924773  0.86700967  1
  O  O247  1  0.49927044  0.26407654  0.38117189  1
  O  O248  1  0.50296433  0.24614153  0.86697765  1
  O  O249  1  0.50727646  0.75613775  0.36756735  1
  O  O250  1  0.50964565  0.74424966  0.86041378  1
  O  O251  1  0.24404201  0.12764283  0.48789848  1
  O  O252  1  0.25005872  0.13337144  0.99511417  1
  O  O253  1  0.23441274  0.62873496  0.51123751  1
  O  O254  1  0.24077239  0.63200034  0.99503446  1
  O  O255  1  0.75336715  0.13241199  0.48898291  1
  O  O256  1  0.74533614  0.13796273  0.98746683  1
  O  O257  1  0.74345908  0.62880046  0.49355139  1
  O  O258  1  0.74896048  0.63812878  1.00296122  1
  O  O259  1  0.25835424  0.36764152  0.00655043  1
  O  O260  1  0.24914730  0.37297694  0.51686848  1
  O  O261  1  0.24384670  0.86588200  0.01025747  1
  O  O262  1  0.25850264  0.87324091  0.50816810  1
  O  O263  1  0.75614477  0.35777384  -0.00962616  1
  O  O264  1  0.76221316  0.36595592  0.51021529  1
  O  O265  1  0.75937285  0.86360936  0.00668931  1
  O  O266  1  0.75757171  0.87326467  0.50835857  1
  O  O267  1  0.11004372  0.47798583  0.24320292  1
  O  O268  1  0.12662154  0.48882959  0.74880546  1
  O  O269  1  0.12415042  1.00242850  0.23693294  1
  O  O270  1  0.13299561  0.99296053  0.74675033  1
  O  O271  1  0.63237999  0.49193902  0.23050562  1
  O  O272  1  0.63411788  0.49823957  0.73795056  1
  O  O273  1  0.63322591  0.98287507  0.25491699  1
  O  O274  1  0.61604193  0.99090506  0.74120909  1
  O  O275  1  0.37367664  0.01162788  0.26179687  1
  O  O276  1  0.36373016  -0.00297094  0.75542069  1
  O  O277  1  0.38775446  0.49192442  0.26100394  1
  O  O278  1  0.36156003  0.49492987  0.74524650  1
  O  O279  1  0.86685320  0.00251640  0.25692826  1
  O  O280  1  0.88602263  -0.00559488  0.77007365  1
  O  O281  1  0.87754458  0.50494326  0.25461316  1
  O  O282  1  0.86601290  0.50161360  0.75654475  1
  O  O283  1  0.12132917  0.36394011  0.37260602  1
  O  O284  1  0.11649648  0.37445343  0.87067370  1
  O  O285  1  0.11655510  0.87083520  0.37646935  1
  O  O286  1  0.13324824  0.86874343  0.86391013  1
  O  O287  1  0.63842636  0.36726431  0.35709640  1
  O  O288  1  0.62031284  0.35985103  0.87096950  1
  O  O289  1  0.62182843  0.86749652  0.36978974  1
  O  O290  1  0.63431226  0.86160047  0.85879513  1
  O  O291  1  0.38275582  0.13045161  0.13417153  1
  O  O292  1  0.38132637  0.13279539  0.62249220  1
  O  O293  1  0.39801040  0.62018101  0.10903167  1
  O  O294  1  0.38460468  0.63454349  0.62125001  1
  O  O295  1  0.89131029  0.12884070  0.13518816  1
  O  O296  1  0.87378654  0.12160496  0.63042543  1
  O  O297  1  0.87631881  0.63113866  0.13347913  1
  O  O298  1  0.88685499  0.62617583  0.62630642  1
  O  O299  1  0.26333600  0.25081237  0.11890640  1
  O  O300  1  0.25406470  0.25823201  0.62973409  1
  O  O301  1  0.24179758  0.76316894  0.11560783  1
  O  O302  1  0.25912551  0.75515061  0.62808008  1
  O  O303  1  0.74955094  0.23936975  0.10880559  1
  O  O304  1  0.75043818  0.25593022  0.61911696  1
  O  O305  1  0.76124015  0.75579179  0.11744155  1
  O  O306  1  0.75390879  0.76096000  0.62210987  1
  O  O307  1  0.24065333  0.24326209  0.37858019  1
  O  O308  1  0.25038793  0.24318664  0.88231634  1
  O  O309  1  0.23585024  0.75644862  0.37659836  1
  O  O310  1  0.24050306  0.74049854  0.87922746  1
  O  O311  1  0.75059200  0.23840312  0.38327175  1
  O  O312  1  0.74061157  0.24243728  0.87924855  1
  O  O313  1  0.74545659  0.73984131  0.37582774  1
  O  O314  1  0.74643931  0.75126824  0.88075713  1
  O  O315  1  0.00102778  0.12175179  0.00741185  1
  O  O316  1  0.01279767  0.12555254  0.49191328  1
  O  O317  1  0.01292534  0.62940871  -0.00529817  1
  O  O318  1  0.00565923  0.62221246  0.51125897  1
  O  O319  1  0.49439085  0.12252816  0.01212124  1
  O  O320  1  0.49448164  0.11463064  0.51074118  1
  O  O321  1  0.51591993  0.63043885  0.00452760  1
  O  O322  1  0.51277641  0.63341222  0.51248204  1
  O  O323  1  0.48431417  0.37715222  0.51377135  1
  O  O324  1  0.48343867  0.37338914  0.99904493  1
  O  O325  1  0.49448017  0.88349021  0.49713985  1
  O  O326  1  0.49577917  0.86264924  1.00840609  1
  O  O327  1  0.98923568  0.37652997  0.49889057  1
  O  O328  1  0.98277138  0.35654246  0.98242935  1
  O  O329  1  0.99242227  0.87290589  0.48816126  1
  O  O330  1  0.99330770  0.88456545  1.00701756  1
  O  O331  1  0.52727419  0.48218294  0.37801006  1
  O  O332  1  0.50559827  0.49779092  0.88055422  1
  O  O333  1  0.49756128  0.99547951  0.38385455  1
  O  O334  1  0.48265962  1.00304644  0.87669912  1
  O  O335  1  0.99990846  0.49090125  0.38554227  1
  O  O336  1  0.98870355  0.48728683  0.86773932  1
  O  O337  1  0.98873452  0.99197304  0.36721967  1
  O  O338  1  0.99937856  1.00745197  0.88952282  1
  O  O339  1  0.00508244  0.00915933  0.11720454  1
  O  O340  1  0.01626553  -0.00573981  0.62959603  1
  O  O341  1  0.01935372  0.45057293  0.10901893  1
  O  O342  1  0.00322754  0.50667188  0.62399626  1
  O  O343  1  0.49316678  0.01282017  0.11916449  1
  O  O344  1  0.50366319  0.00672917  0.62048745  1
  O  O345  1  0.51734252  0.50895798  0.11328110  1
  O  O346  1  0.51047232  0.50917711  0.63135790  1
  O  O347  1  0.24382464  0.36923850  0.24538630  1
  O  O348  1  0.24139857  0.38069853  0.74564688  1
  O  O349  1  0.24312429  0.88092177  0.24260125  1
  O  O350  1  0.24321555  0.88174396  0.74414565  1
  O  O351  1  0.73934866  0.37613787  0.24070485  1
  O  O352  1  0.75004238  0.37830784  0.73849716  1
  O  O353  1  0.74825323  0.87964786  0.24373555  1
  O  O354  1  0.74352077  0.87434491  0.73613868  1
  O  O355  1  0.25656774  0.12526745  0.26308674  1
  O  O356  1  0.24389952  0.11547891  0.75841929  1
  O  O357  1  0.25454401  0.60976601  0.21132831  1
  O  O358  1  0.24321995  0.61583397  0.76783824  1
  O  O359  1  0.75427724  0.11536123  0.25355063  1
  O  O360  1  0.75213077  0.12804826  0.76385440  1
  O  O361  1  0.76420547  0.62599420  0.25772041  1
  O  O362  1  0.75308505  0.61315681  0.74106587  1
  O  O363  1  0.37010828  0.12446432  0.37173164  1
  O  O364  1  0.36193671  0.11541634  0.87772743  1
  O  O365  1  0.38206160  0.61835951  0.36805533  1
  O  O366  1  0.35869289  0.62896983  0.88042658  1
  O  O367  1  0.86663996  0.11576618  0.36927702  1
  O  O368  1  0.86595874  0.11653350  0.87176003  1
  O  O369  1  0.87024986  0.61873050  0.37232994  1
  O  O370  1  0.87909937  0.60923630  0.87379882  1
  O  O371  1  0.14321674  0.34694968  0.14384672  1
  O  O372  1  0.13031236  0.37912813  0.63425015  1
  O  O373  1  0.13230416  0.88656576  0.12805731  1
  O  O374  1  0.13283162  0.88059086  0.63327328  1
  O  O375  1  0.62565734  0.38708787  0.11916244  1
  O  O376  1  0.63408405  0.38258581  0.62416898  1
  O  O377  1  0.64499246  0.86559021  0.13475283  1
  O  O378  1  0.63160341  0.88188612  0.63267757  1
  O  O379  1  0.11726320  0.24969423  0.26497051  1
  O  O380  1  0.11598073  0.26141789  0.75252527  1
  O  O381  1  0.11634533  0.75123028  0.25973108  1
  O  O382  1  0.12219361  0.75761930  0.75767848  1
  O  O383  1  0.62924212  0.25853988  0.25100796  1
  O  O384  1  0.61459650  0.25119976  0.75574905  1
  O  O385  1  0.62449767  0.75861306  0.25635667  1
  O  O386  1  0.62113650  0.75463158  0.75409541  1
  O  O387  1  0.37171295  0.24179246  0.24144799  1
  O  O388  1  0.38091181  0.25487665  0.73867937  1
  O  O389  1  0.38883597  0.75677436  0.25346969  1
  O  O390  1  0.38337890  0.75637009  0.74014358  1
  O  O391  1  0.88052302  0.24483588  0.25110836  1
  O  O392  1  0.88701010  0.24856095  0.75043615  1
  O  O393  1  0.88195076  0.74403678  0.24538489  1
  O  O394  1  0.88581822  0.74972427  0.74984431  1
  O  O395  1  0.36814168  0.48473078  0.50958633  1
  O  O396  1  0.37134937  0.48292839  1.00716434  1
  O  O397  1  0.38271373  0.99539862  0.49639430  1
  O  O398  1  0.37353753  0.99731712  0.98831633  1
  O  O399  1  0.87903374  0.49264844  0.49463178  1
  O  O400  1  0.86461632  0.48747944  0.98915499  1
  O  O401  1  0.86855250  0.98851462  0.48458106  1
  O  O402  1  0.88614632  0.98972633  0.98940873  1
  O  O403  1  0.11904516  0.00241377  0.01045369  1
  O  O404  1  0.12948910  0.00830902  0.51130478  1
  O  O405  1  0.12424527  0.51617447  -0.00584995  1
  O  O406  1  0.11721135  0.50854463  0.51156913  1
  O  O407  1  0.62352880  -0.01063524  -0.00162504  1
  O  O408  1  0.61375578  -0.00669391  0.51026699  1
  O  O409  1  0.63363590  0.51250608  0.00094047  1
  O  O410  1  0.63376749  0.51315066  0.51406961  1
  O  O411  1  0.36971075  0.36681100  0.11963796  1
  O  O412  1  0.36450845  0.36901282  0.62170344  1
  O  O413  1  0.35897885  0.88222385  0.13511421  1
  O  O414  1  0.37038419  0.86915156  0.62099073  1
  O  O415  1  0.87284934  0.37232245  0.10975199  1
  O  O416  1  0.86792663  0.37310233  0.61804047  1
  O  O417  1  0.86808858  0.87048640  0.11690092  1
  O  O418  1  0.86829335  0.87850323  0.61687670  1
  O  O419  1  0.13212066  0.12913698  0.38058632  1
  O  O420  1  0.13912773  0.12822285  0.88135262  1
  O  O421  1  0.10766274  0.64276139  0.39252084  1
  O  O422  1  0.13073523  0.63337618  0.88352520  1
  O  O423  1  0.63604099  0.12503724  0.36774700  1
  O  O424  1  0.62899406  0.13555915  0.86979616  1
  O  O425  1  0.63395985  0.63300806  0.38515766  1
  O  O426  1  0.62777657  0.63591553  0.87978124  1
