# generated using pymatgen
data_V85Zn86O256
_symmetry_space_group_name_H-M   'P 1'
_cell_length_a   16.94643515
_cell_length_b   16.95475571
_cell_length_c   16.95780562
_cell_angle_alpha   89.97615928
_cell_angle_beta   90.00134882
_cell_angle_gamma   90.02988214
_symmetry_Int_Tables_number   1
_chemical_formula_structural   V85Zn86O256
_chemical_formula_sum   'V85 Zn86 O256'
_cell_volume   4872.36086854
_cell_formula_units_Z   1
loop_
 _symmetry_equiv_pos_site_id
 _symmetry_equiv_pos_as_xyz
  1  'x, y, z'
loop_
 _atom_site_type_symbol
 _atom_site_label
 _atom_site_symmetry_multiplicity
 _atom_site_fract_x
 _atom_site_fract_y
 _atom_site_fract_z
 _atom_site_occupancy
  V  V0  1  0.75007351  0.87740069  0.12488927  1
  V  V1  1  0.45410713  0.05410683  0.55355136  1
  V  V2  1  0.00124541  0.25063388  0.24857728  1
  V  V3  1  0.62015432  0.74902173  0.87407706  1
  V  V4  1  0.25656000  0.37154728  0.12476944  1
  V  V5  1  0.62329764  0.61488398  0.01440110  1
  V  V6  1  0.74656530  0.50118395  0.74997243  1
  V  V7  1  0.75209899  0.38183054  0.12139148  1
  V  V8  1  0.74751245  0.25098498  0.50003394  1
  V  V9  1  -0.00207201  0.74822470  0.75435499  1
  V  V10  1  0.75456307  0.51330206  0.25274157  1
  V  V11  1  -0.00265073  0.00250642  0.50143502  1
  V  V12  1  0.62634852  0.50495094  0.62010169  1
  V  V13  1  0.74364619  0.87679391  0.62714439  1
  V  V14  1  0.25255610  0.25018241  0.49896878  1
  V  V15  1  0.12337781  0.11960382  -0.00240978  1
  V  V16  1  0.50137474  0.50339695  0.49811244  1
  V  V17  1  0.87310962  0.62545632  0.75160085  1
  V  V18  1  0.00968186  0.49891867  0.50095414  1
  V  V19  1  0.37726085  -0.01135078  0.36754704  1
  V  V20  1  0.62489875  0.24974942  0.37454182  1
  V  V21  1  0.74841520  0.00100059  0.24933801  1
  V  V22  1  0.49287164  0.23698980  0.74517637  1
  V  V23  1  0.50069544  0.37712242  0.37315115  1
  V  V24  1  0.25683237  0.61863347  0.87772538  1
  V  V25  1  0.62331561  0.25214196  0.87157290  1
  V  V26  1  0.00367574  0.11488859  0.11779323  1
  V  V27  1  0.25226009  0.12706687  0.86747737  1
  V  V28  1  0.25668423  0.49406167  0.75135952  1
  V  V29  1  -0.00501179  0.62359118  0.12448613  1
  V  V30  1  0.00080455  0.37395690  0.37513057  1
  V  V31  1  0.87261260  0.74925057  0.62595317  1
  V  V32  1  0.38102759  0.38989751  -0.00400510  1
  V  V33  1  0.01196649  0.62512136  0.62545781  1
  V  V34  1  0.87525783  0.12644426  0.24825230  1
  V  V35  1  0.12237481  0.12968771  0.49810726  1
  V  V36  1  0.74834099  0.00029879  0.75258058  1
  V  V37  1  0.88155304  0.88202411  0.00139210  1
  V  V38  1  0.37299696  0.12720361  0.24246502  1
  V  V39  1  0.87319604  0.87580936  0.50210947  1
  V  V40  1  0.00153198  0.88251048  0.87696976  1
  V  V41  1  0.49814459  0.75506238  0.24659340  1
  V  V42  1  0.88073508  0.37583519  -0.00267792  1
  V  V43  1  0.37953298  0.62928632  0.75392332  1
  V  V44  1  0.37676217  0.00298005  0.87317982  1
  V  V45  1  0.25208998  0.12017542  0.36804933  1
  V  V46  1  0.87537523  0.52100200  0.37474703  1
  V  V47  1  0.49266776  -0.00366904  0.00198156  1
  V  V48  1  0.25613363  -0.00789683  0.74921388  1
  V  V49  1  0.87656823  0.25129598  0.63283077  1
  V  V50  1  0.62918967  0.63093709  0.48390774  1
  V  V51  1  0.00690595  0.37145463  0.85557938  1
  V  V52  1  0.74796734  0.37745747  0.62274400  1
  V  V53  1  0.74858163  0.75330399  0.00280361  1
  V  V54  1  0.87338248  0.00348843  0.37579875  1
  V  V55  1  0.24982761  0.86660679  0.61164708  1
  V  V56  1  0.13189531  0.88718073  0.24599646  1
  V  V57  1  0.62470918  0.12651402  -0.00166623  1
  V  V58  1  0.49744566  0.25027977  0.24220642  1
  V  V59  1  0.12568579  0.62030341  0.00306012  1
  V  V60  1  0.25718247  0.24827680  0.00054498  1
  V  V61  1  0.37283369  0.50995759  0.36719485  1
  V  V62  1  0.62076128  0.00037221  0.12695003  1
  V  V63  1  0.74988772  0.74770139  0.48509868  1
  V  V64  1  0.61758048  0.87503389  0.75076086  1
  V  V65  1  -0.00008125  0.87493640  0.37178704  1
  V  V66  1  0.48956723  0.86603698  0.87959195  1
  V  V67  1  0.37664376  0.37531777  0.50325520  1
  V  V68  1  0.50249692  0.63337754  0.62699208  1
  V  V69  1  0.12312142  -0.00386871  0.62608747  1
  V  V70  1  0.62910917  0.38078730  0.24513115  1
  V  V71  1  0.23436955  0.63248946  0.37910813  1
  V  V72  1  0.12743700  0.74514097  0.87484372  1
  V  V73  1  0.87498605  0.37561105  0.49484116  1
  V  V74  1  0.74853393  0.62674204  0.87687311  1
  V  V75  1  0.50594188  0.87118233  0.38723499  1
  V  V76  1  0.13039533  0.49048611  0.63016593  1
  V  V77  1  0.74732284  0.12539579  0.37428578  1
  V  V78  1  0.12871430  0.37503703  0.24736693  1
  V  V79  1  0.62584779  0.11391446  0.51094393  1
  V  V80  1  0.00011710  0.74602580  0.24445349  1
  V  V81  1  0.00010160  0.12881871  0.63417120  1
  V  V82  1  0.87674046  0.25069962  0.12176905  1
  V  V83  1  0.49214345  0.61363682  0.13048793  1
  V  V84  1  0.36954536  0.74833482  0.61134289  1
  Zn  Zn85  1  0.49402503  0.12829151  0.12170205  1
  Zn  Zn86  1  0.74903566  0.25229387  -0.00412256  1
  Zn  Zn87  1  0.12522402  0.49890621  0.12478746  1
  Zn  Zn88  1  0.87444760  0.49843770  0.87582400  1
  Zn  Zn89  1  0.62679818  0.87140020  0.25718465  1
  Zn  Zn90  1  0.48951275  0.38619559  0.86706225  1
  Zn  Zn91  1  0.12699787  0.25301145  0.85857623  1
  Zn  Zn92  1  0.38241917  0.23105655  0.62222029  1
  Zn  Zn93  1  0.61736265  0.37320738  0.74553136  1
  Zn  Zn94  1  0.25258714  0.88420294  0.12073754  1
  Zn  Zn95  1  0.87775469  0.00522610  0.87734298  1
  Zn  Zn96  1  0.75347962  0.12490513  0.87505118  1
  Zn  Zn97  1  0.12701673  0.87056547  0.74946079  1
  Zn  Zn98  1  0.12635638  0.25039118  0.37424398  1
  Zn  Zn99  1  0.25095471  0.36467535  0.63236061  1
  Zn  Zn100  1  0.87338076  0.74805092  0.12672138  1
  Zn  Zn101  1  0.26032627  0.75627230  0.00458130  1
  Zn  Zn102  1  0.37352899  0.75888189  0.12003504  1
  Zn  Zn103  1  0.87497526  0.12728940  0.75466899  1
  Zn  Zn104  1  0.12610434  0.75240061  0.38776356  1
  Zn  Zn105  1  0.25402480  0.50848056  0.24512530  1
  Zn  Zn106  1  -0.00006995  0.49725994  -0.00218970  1
  Zn  Zn107  1  0.18837090  0.18550323  0.18234106  1
  Zn  Zn108  1  0.19556673  0.18111659  0.68508224  1
  Zn  Zn109  1  0.18976301  0.69305847  0.19387241  1
  Zn  Zn110  1  0.19160048  0.68326184  0.69002825  1
  Zn  Zn111  1  0.68650940  0.19004513  0.18469338  1
  Zn  Zn112  1  0.68671048  0.18787899  0.68925113  1
  Zn  Zn113  1  0.68275748  0.69392402  0.19309887  1
  Zn  Zn114  1  0.68564307  0.69175039  0.68629230  1
  Zn  Zn115  1  0.31443596  0.31337799  0.31435673  1
  Zn  Zn116  1  0.31963265  0.30955192  0.81319605  1
  Zn  Zn117  1  0.31146143  0.80373033  0.30839107  1
  Zn  Zn118  1  0.31321516  0.80690558  0.80996701  1
  Zn  Zn119  1  0.81188107  0.31428660  0.31039894  1
  Zn  Zn120  1  0.80745396  0.31542186  0.81537022  1
  Zn  Zn121  1  0.81946562  0.81328856  0.30795663  1
  Zn  Zn122  1  0.81141206  0.81516346  0.81582890  1
  Zn  Zn123  1  0.18963153  0.43761003  0.43661479  1
  Zn  Zn124  1  0.18887422  0.43631482  0.93661861  1
  Zn  Zn125  1  0.18600621  0.94021092  0.43228315  1
  Zn  Zn126  1  0.18892375  0.93712623  0.93900878  1
  Zn  Zn127  1  0.68959322  0.44268001  0.43213137  1
  Zn  Zn128  1  0.64843210  0.45897295  0.91847334  1
  Zn  Zn129  1  0.68749568  0.93636092  0.43933549  1
  Zn  Zn130  1  0.68398756  0.93831430  0.93666977  1
  Zn  Zn131  1  0.30729914  0.05407841  0.06288443  1
  Zn  Zn132  1  0.29520217  0.05151907  0.55294843  1
  Zn  Zn133  1  0.31058717  0.56289399  0.06491754  1
  Zn  Zn134  1  0.31325061  0.56295966  0.55999186  1
  Zn  Zn135  1  0.81159840  0.06323288  0.06059623  1
  Zn  Zn136  1  0.80874403  0.06235584  0.56743742  1
  Zn  Zn137  1  0.81257299  0.56123746  0.06182337  1
  Zn  Zn138  1  0.81578788  0.56705865  0.55919986  1
  Zn  Zn139  1  0.43657645  0.43406964  0.18383196  1
  Zn  Zn140  1  0.43902873  0.43942946  0.68774714  1
  Zn  Zn141  1  0.43175859  0.93385260  0.18934273  1
  Zn  Zn142  1  0.43460820  0.92593003  0.69043518  1
  Zn  Zn143  1  0.93766076  0.44132912  0.18921371  1
  Zn  Zn144  1  0.93128257  0.44297083  0.68369519  1
  Zn  Zn145  1  0.93890390  0.93609317  0.18713830  1
  Zn  Zn146  1  0.93467804  0.93675456  0.69098846  1
  Zn  Zn147  1  0.05981127  0.06532412  0.31203854  1
  Zn  Zn148  1  0.06956214  0.06262288  0.81191171  1
  Zn  Zn149  1  0.06320825  0.56153045  0.30967188  1
  Zn  Zn150  1  0.06570155  0.55598978  0.81328271  1
  Zn  Zn151  1  0.55814480  0.06031682  0.31544581  1
  Zn  Zn152  1  0.56439343  0.06040517  0.81202890  1
  Zn  Zn153  1  0.56164925  0.56288248  0.30498915  1
  Zn  Zn154  1  0.55811884  0.56573268  0.81125813  1
  Zn  Zn155  1  0.43598046  0.19054712  0.42716320  1
  Zn  Zn156  1  0.43868975  0.18818817  0.93363035  1
  Zn  Zn157  1  0.44086807  0.68892054  0.43448148  1
  Zn  Zn158  1  0.43778301  0.68060979  0.94647440  1
  Zn  Zn159  1  0.93700090  0.19104788  0.44012479  1
  Zn  Zn160  1  0.93995410  0.19171541  0.93309311  1
  Zn  Zn161  1  0.96557245  0.69791084  0.45109986  1
  Zn  Zn162  1  0.93633566  0.68823005  0.94174133  1
  Zn  Zn163  1  0.06873914  0.30652419  0.05764657  1
  Zn  Zn164  1  0.06433841  0.30860915  0.67950511  1
  Zn  Zn165  1  0.08709505  0.82281938  0.05217825  1
  Zn  Zn166  1  0.06454177  0.81257332  0.56234856  1
  Zn  Zn167  1  0.56375988  0.31567186  0.06206791  1
  Zn  Zn168  1  0.56147964  0.31031958  0.56408027  1
  Zn  Zn169  1  0.55916929  0.81220760  0.06375421  1
  Zn  Zn170  1  0.56383686  0.80975062  0.56269500  1
  O  O171  1  0.11703321  0.13271757  0.10867635  1
  O  O172  1  0.11841732  0.11784836  0.61665484  1
  O  O173  1  0.11745500  0.62493499  0.11667891  1
  O  O174  1  0.11514582  0.61746174  0.62880675  1
  O  O175  1  0.62285530  0.11524023  0.11908785  1
  O  O176  1  0.62843468  0.12792954  0.60929832  1
  O  O177  1  0.61880427  0.63353134  0.11617782  1
  O  O178  1  0.61791778  0.62352482  0.61938719  1
  O  O179  1  0.38149899  0.38172350  0.38466363  1
  O  O180  1  0.37430144  0.37549749  0.89093221  1
  O  O181  1  0.37854625  0.88554867  0.37040631  1
  O  O182  1  0.38431526  0.88090278  0.86906980  1
  O  O183  1  0.87967048  0.37437075  0.38477873  1
  O  O184  1  0.88468411  0.37458543  0.88065739  1
  O  O185  1  0.88330764  0.88444695  0.37959779  1
  O  O186  1  0.88467737  0.87468833  0.88308070  1
  O  O187  1  0.26588012  0.00760072  0.38348740  1
  O  O188  1  0.25686210  0.00035936  0.86902919  1
  O  O189  1  0.26292317  0.50068210  0.37171411  1
  O  O190  1  0.24593365  0.51078640  0.86672343  1
  O  O191  1  0.75419925  0.00495907  0.36933267  1
  O  O192  1  0.75102751  0.00139662  0.86671825  1
  O  O193  1  0.76719704  0.50142495  0.36947403  1
  O  O194  1  0.74478802  0.50772806  0.86436175  1
  O  O195  1  0.24610266  0.48978784  0.12861136  1
  O  O196  1  0.24440967  0.50174214  0.63161214  1
  O  O197  1  0.23901175  0.99713898  0.12372329  1
  O  O198  1  0.24505004  0.98842594  0.63204040  1
  O  O199  1  0.76463577  0.48735745  0.13767545  1
  O  O200  1  0.74677944  0.49815497  0.62804609  1
  O  O201  1  0.74248247  0.99676460  0.12975979  1
  O  O202  1  0.75270689  0.98386490  0.63221097  1
  O  O203  1  0.00619998  0.36882168  0.25428418  1
  O  O204  1  -0.00266463  0.37659742  0.75157775  1
  O  O205  1  0.00354985  0.87127502  0.25741322  1
  O  O206  1  0.00025034  0.86309644  0.75649790  1
  O  O207  1  0.50901336  0.36966353  0.25180167  1
  O  O208  1  0.49988897  0.36644104  0.75063220  1
  O  O209  1  0.50314941  0.86794823  0.25708155  1
  O  O210  1  0.51074633  0.87608354  0.76158237  1
  O  O211  1  0.49194438  0.13351044  0.25103460  1
  O  O212  1  0.50373631  0.13767055  0.75234145  1
  O  O213  1  0.50692363  0.63629536  0.23712105  1
  O  O214  1  0.49381559  0.62301779  0.73940069  1
  O  O215  1  0.99575169  0.13301980  0.24177658  1
  O  O216  1  0.99849136  0.11863964  0.73687780  1
  O  O217  1  1.00633168  0.63728449  0.24215680  1
  O  O218  1  0.99372323  0.62786650  0.74530767  1
  O  O219  1  0.36112090  0.24922128  -0.00569832  1
  O  O220  1  0.37217410  0.25646509  0.49948989  1
  O  O221  1  0.37311451  0.75011304  0.00215204  1
  O  O222  1  0.37428958  0.74227563  0.51277961  1
  O  O223  1  0.87343347  0.25561109  0.00768690  1
  O  O224  1  0.86737483  0.25798735  0.50692900  1
  O  O225  1  0.86243596  0.75951428  0.00115592  1
  O  O226  1  0.87134245  0.75713064  0.50777914  1
  O  O227  1  0.13537407  0.23536532  0.49820756  1
  O  O228  1  0.13975010  0.24435812  0.98973556  1
  O  O229  1  0.07296857  0.73456665  0.48753260  1
  O  O230  1  0.11482639  0.73123878  0.98343026  1
  O  O231  1  0.62942661  0.24388998  0.49260167  1
  O  O232  1  0.62410034  0.24286669  0.99311757  1
  O  O233  1  0.63732601  0.74235872  0.50185524  1
  O  O234  1  0.63501167  0.74818722  0.99441941  1
  O  O235  1  0.50724358  0.24762210  0.13890568  1
  O  O236  1  0.49915157  0.24988053  0.63810265  1
  O  O237  1  0.49900275  0.74525036  0.13396464  1
  O  O238  1  0.48915022  0.73973520  0.62131905  1
  O  O239  1  0.99069936  0.24617266  0.12952847  1
  O  O240  1  0.98978964  0.24099635  0.62030265  1
  O  O241  1  1.00415446  0.74505315  0.13438788  1
  O  O242  1  0.99480724  0.74194516  0.63942981  1
  O  O243  1  0.00111658  0.25551349  0.36790527  1
  O  O244  1  0.00219204  0.26827901  0.87211657  1
  O  O245  1  -0.01073466  0.76357234  0.35881689  1
  O  O246  1  0.00320004  0.75119621  0.86550710  1
  O  O247  1  0.50739604  0.25792028  0.36531470  1
  O  O248  1  0.50536859  0.25304866  0.86306099  1
  O  O249  1  0.49352991  0.76449092  0.36627070  1
  O  O250  1  0.50868771  0.75565357  0.88307502  1
  O  O251  1  0.24238878  0.12917866  0.48877040  1
  O  O252  1  0.24329724  0.13008491  0.98887251  1
  O  O253  1  0.25525806  0.61395840  0.47701533  1
  O  O254  1  0.24231323  0.62504623  0.99283056  1
  O  O255  1  0.74125604  0.12970594  0.49569784  1
  O  O256  1  0.73539290  0.12700678  1.00126488  1
  O  O257  1  0.74232888  0.63653839  0.50440197  1
  O  O258  1  0.74408338  0.63567047  0.99979506  1
  O  O259  1  0.25767939  0.36906141  0.00503329  1
  O  O260  1  0.25783817  0.36471081  0.49933162  1
  O  O261  1  0.20127535  0.85690678  0.01281087  1
  O  O262  1  0.24238672  0.87864872  0.51262224  1
  O  O263  1  0.76501729  0.37221629  0.01069615  1
  O  O264  1  0.75604018  0.37237609  0.50231738  1
  O  O265  1  0.75458682  0.87031124  0.00487240  1
  O  O266  1  0.75306704  0.86965119  0.50867246  1
  O  O267  1  0.12585437  0.48395171  0.25003938  1
  O  O268  1  0.13976013  0.50513736  0.73986646  1
  O  O269  1  0.12118293  0.98601358  0.26242181  1
  O  O270  1  0.13693982  0.99611042  0.74270174  1
  O  O271  1  0.63712594  0.48699548  0.25892498  1
  O  O272  1  0.63601407  0.50426749  0.73718213  1
  O  O273  1  0.62904533  1.00057522  0.24184584  1
  O  O274  1  0.63518341  0.98755717  0.75565508  1
  O  O275  1  0.37957809  0.00967734  0.26332113  1
  O  O276  1  0.36417086  -0.00702059  0.75646489  1
  O  O277  1  0.37470455  0.49038864  0.26494586  1
  O  O278  1  0.36852021  0.51568632  0.74126306  1
  O  O279  1  0.86947184  0.00793844  0.25491987  1
  O  O280  1  0.86090451  -0.00139542  0.75319927  1
  O  O281  1  0.87191764  0.49890352  0.26768586  1
  O  O282  1  0.86121586  0.50633978  0.75026690  1
  O  O283  1  0.11958040  0.37217348  0.36788837  1
  O  O284  1  0.10960995  0.37625925  0.87418734  1
  O  O285  1  0.11012327  0.87470118  0.37560245  1
  O  O286  1  0.11659307  0.86252845  0.87033519  1
  O  O287  1  0.62088321  0.37005634  0.36869824  1
  O  O288  1  0.63213798  0.35672109  0.87040738  1
  O  O289  1  0.60959087  0.88250934  0.37557751  1
  O  O290  1  0.61593379  0.86734557  0.87057239  1
  O  O291  1  0.37435004  0.12093396  0.13928676  1
  O  O292  1  0.38600110  0.11014385  0.60652998  1
  O  O293  1  0.39046848  0.62422850  0.12133017  1
  O  O294  1  0.38135526  0.63246434  0.62802561  1
  O  O295  1  0.88019138  0.13353177  0.12641064  1
  O  O296  1  0.88238681  0.13444019  0.62424118  1
  O  O297  1  0.89033966  0.62920480  0.11635223  1
  O  O298  1  0.88054952  0.63048332  0.63509331  1
  O  O299  1  0.24667429  0.25865014  0.11342005  1
  O  O300  1  0.26179525  0.24466940  0.61125775  1
  O  O301  1  0.25208005  0.75656379  0.12619932  1
  O  O302  1  0.25865161  0.75124458  0.62451797  1
  O  O303  1  0.76333735  0.25887780  0.12687203  1
  O  O304  1  0.75471747  0.25706577  0.61805513  1
  O  O305  1  0.74950579  0.75943322  0.11951007  1
  O  O306  1  0.75628181  0.76041175  0.62202886  1
  O  O307  1  0.25209349  0.24135752  0.38577835  1
  O  O308  1  0.25144898  0.23982287  0.87630611  1
  O  O309  1  0.24472512  0.73804093  0.37796290  1
  O  O310  1  0.24101512  0.73829062  0.87372382  1
  O  O311  1  0.74515683  0.24511471  0.37994287  1
  O  O312  1  0.74121270  0.24386090  0.87552776  1
  O  O313  1  0.75731684  0.75860986  0.38624256  1
  O  O314  1  0.74359807  0.74633633  0.88421100  1
  O  O315  1  0.01410326  0.13589727  0.00413540  1
  O  O316  1  0.00599110  0.12174807  0.50644227  1
  O  O317  1  0.00594763  0.62038903  0.00580389  1
  O  O318  1  -0.01769432  0.60577399  0.51902343  1
  O  O319  1  0.50866936  0.11880714  0.00116823  1
  O  O320  1  0.51097247  0.12405839  0.49583848  1
  O  O321  1  0.51547659  0.62438138  0.01429355  1
  O  O322  1  0.50906360  0.62231855  0.50517959  1
  O  O323  1  0.49610400  0.38114080  0.49374882  1
  O  O324  1  0.48223517  0.36895682  1.00352926  1
  O  O325  1  0.49988198  0.86751868  0.48636934  1
  O  O326  1  0.50834115  0.88561068  0.98921232  1
  O  O327  1  0.98831681  0.38590476  0.49348442  1
  O  O328  1  0.99007128  0.37429941  1.00024150  1
  O  O329  1  0.99082754  0.88535990  0.49413623  1
  O  O330  1  0.99332512  0.86541036  0.98967513  1
  O  O331  1  0.49229005  0.49599335  0.37712785  1
  O  O332  1  0.54081862  0.48590747  0.88368514  1
  O  O333  1  0.48821497  0.98652673  0.37376060  1
  O  O334  1  0.49228457  0.99340033  0.88019631  1
  O  O335  1  0.99204503  0.49618058  0.38185379  1
  O  O336  1  0.99600294  0.48519694  0.87296004  1
  O  O337  1  0.99157940  0.99786006  0.38158692  1
  O  O338  1  1.00103228  0.98506854  0.86588893  1
  O  O339  1  -0.00683101  0.01642343  0.12570738  1
  O  O340  1  0.00226585  0.00552558  0.62002503  1
  O  O341  1  0.00411099  0.50927871  0.12507378  1
  O  O342  1  0.00921874  0.50392628  0.62181770  1
  O  O343  1  0.50585188  0.00221827  0.11831482  1
  O  O344  1  0.49786053  -0.00902467  0.61697846  1
  O  O345  1  0.50330258  0.51463138  0.13666043  1
  O  O346  1  0.50629581  0.51149542  0.61697101  1
  O  O347  1  0.24414667  0.37090062  0.24212460  1
  O  O348  1  0.26468013  0.38943595  0.74852794  1
  O  O349  1  0.23306918  0.87072627  0.25863973  1
  O  O350  1  0.24755030  0.87746568  0.74178740  1
  O  O351  1  0.74540495  0.38145130  0.24427953  1
  O  O352  1  0.74698360  0.38586628  0.74181931  1
  O  O353  1  0.74864197  0.88253782  0.24334366  1
  O  O354  1  0.74139634  0.87812441  0.74556715  1
  O  O355  1  0.25547631  0.13445296  0.26211228  1
  O  O356  1  0.24939651  0.11090239  0.76093441  1
  O  O357  1  0.24411582  0.62117623  0.26850677  1
  O  O358  1  0.25916712  0.61710152  0.75841119  1
  O  O359  1  0.75515388  0.12140398  0.25385243  1
  O  O360  1  0.75072074  0.11288429  0.74776852  1
  O  O361  1  0.74602657  0.61223582  0.24212219  1
  O  O362  1  0.75340635  0.62118584  0.75403150  1
  O  O363  1  0.36940534  0.11589471  0.36760256  1
  O  O364  1  0.36775187  0.11065446  0.87656444  1
  O  O365  1  0.37798333  0.61099928  0.37450474  1
  O  O366  1  0.36883438  0.62651608  0.86751260  1
  O  O367  1  0.86782851  0.12305994  0.37059571  1
  O  O368  1  0.87407200  0.12304660  0.87237665  1
  O  O369  1  0.88627659  0.61720633  0.38395458  1
  O  O370  1  0.86690802  0.62353713  0.86968101  1
  O  O371  1  0.13395904  0.37383742  0.13086904  1
  O  O372  1  0.13103814  0.38682371  0.62264906  1
  O  O373  1  0.11598028  0.87973948  0.14642154  1
  O  O374  1  0.12904216  0.87774844  0.62767553  1
  O  O375  1  0.63868319  0.36991469  0.13337663  1
  O  O376  1  0.63169296  0.38558786  0.62207492  1
  O  O377  1  0.63052412  0.88877885  0.12331862  1
  O  O378  1  0.63159079  0.86479135  0.63787480  1
  O  O379  1  0.11927771  0.25837183  0.25065472  1
  O  O380  1  0.13419644  0.25179664  0.74413016  1
  O  O381  1  0.11043029  0.76097592  0.26003531  1
  O  O382  1  0.11643109  0.74421261  0.75942477  1
  O  O383  1  0.62233982  0.25905334  0.25658439  1
  O  O384  1  0.61666076  0.25043949  0.75506793  1
  O  O385  1  0.60881590  0.75591222  0.25100055  1
  O  O386  1  0.63119513  0.75655531  0.76676463  1
  O  O387  1  0.38627946  0.24154246  0.25799372  1
  O  O388  1  0.38693437  0.24635321  0.74382777  1
  O  O389  1  0.39230869  0.75153336  0.24688841  1
  O  O390  1  0.37104952  0.73435759  0.73896064  1
  O  O391  1  0.88054139  0.24529816  0.24288653  1
  O  O392  1  0.86711236  0.25162767  0.73532518  1
  O  O393  1  0.89277690  0.75649533  0.24214844  1
  O  O394  1  0.88021412  0.74552088  0.74817163  1
  O  O395  1  0.38293161  0.49411548  0.48999068  1
  O  O396  1  0.37397941  0.48851302  1.00121030  1
  O  O397  1  0.38650722  1.00537139  0.49063409  1
  O  O398  1  0.38700496  1.00585679  0.99185058  1
  O  O399  1  0.87703140  0.49270282  0.48969628  1
  O  O400  1  0.87668853  0.49024305  0.99565430  1
  O  O401  1  0.87590169  0.99636508  0.49601692  1
  O  O402  1  0.87035446  0.98591194  0.99766857  1
  O  O403  1  0.12365240  0.02123038  -0.01202868  1
  O  O404  1  0.11988532  0.01076808  0.50507541  1
  O  O405  1  0.12258459  0.50931651  -0.00028397  1
  O  O406  1  0.11429902  0.49563731  0.50573538  1
  O  O407  1  0.61563289  0.00736963  0.00545031  1
  O  O408  1  0.62905068  0.01471195  0.49925723  1
  O  O409  1  0.64442032  0.51802162  0.01646764  1
  O  O410  1  0.62242135  0.50819102  0.50360287  1
  O  O411  1  0.36412590  0.37572065  0.11547655  1
  O  O412  1  0.37423341  0.37920818  0.60883472  1
  O  O413  1  0.36828331  0.87601770  0.12236609  1
  O  O414  1  0.36672253  0.85574594  0.62830957  1
  O  O415  1  0.87365178  0.36828827  0.12020007  1
  O  O416  1  0.87007579  0.37082755  0.61312850  1
  O  O417  1  0.86867489  0.87444043  0.11746719  1
  O  O418  1  0.86827475  0.86827463  0.62148186  1
  O  O419  1  0.13270937  0.12541866  0.38071971  1
  O  O420  1  0.13246086  0.13071796  0.87975251  1
  O  O421  1  0.13112622  0.62325778  0.37871057  1
  O  O422  1  0.13216430  0.62733445  0.87923371  1
  O  O423  1  0.62999510  0.13021697  0.38029473  1
  O  O424  1  0.62489724  0.13340387  0.88284022  1
  O  O425  1  0.62171868  0.62029309  0.38540186  1
  O  O426  1  0.62950729  0.63363359  0.88851662  1
