# generated using pymatgen
data_V85Zn86O256
_symmetry_space_group_name_H-M   'P 1'
_cell_length_a   16.99796242
_cell_length_b   16.96925245
_cell_length_c   16.98804414
_cell_angle_alpha   89.91617073
_cell_angle_beta   90.00348059
_cell_angle_gamma   89.93152880
_symmetry_Int_Tables_number   1
_chemical_formula_structural   V85Zn86O256
_chemical_formula_sum   'V85 Zn86 O256'
_cell_volume   4900.06883129
_cell_formula_units_Z   1
loop_
 _symmetry_equiv_pos_site_id
 _symmetry_equiv_pos_as_xyz
  1  'x, y, z'
loop_
 _atom_site_type_symbol
 _atom_site_label
 _atom_site_symmetry_multiplicity
 _atom_site_fract_x
 _atom_site_fract_y
 _atom_site_fract_z
 _atom_site_occupancy
  V  V0  1  0.00386996  0.50827231  -0.00202948  1
  V  V1  1  0.62092294  0.37313924  0.74784559  1
  V  V2  1  0.87913709  0.24889938  0.13077100  1
  V  V3  1  -0.01665047  0.62608724  0.63237994  1
  V  V4  1  0.00196358  0.37312803  0.87515424  1
  V  V5  1  0.37257592  0.12925739  0.25716441  1
  V  V6  1  0.47791084  0.79353789  0.21552807  1
  V  V7  1  0.50618263  0.00359453  0.50816941  1
  V  V8  1  -0.01177208  0.74988625  0.75166592  1
  V  V9  1  0.13748218  0.73800204  0.87772256  1
  V  V10  1  0.62025001  0.50983881  0.62648677  1
  V  V11  1  0.11805390  0.74557114  0.36234973  1
  V  V12  1  0.87924741  0.12538774  0.25082016  1
  V  V13  1  0.38833936  0.74542864  0.61822918  1
  V  V14  1  0.62396438  0.12491994  0.00256483  1
  V  V15  1  0.48745055  0.62676929  0.13233500  1
  V  V16  1  0.37022398  0.37469316  0.00424898  1
  V  V17  1  0.37794412  0.25034241  0.63520816  1
  V  V18  1  0.87423725  -0.00647272  0.37907618  1
  V  V19  1  0.74717981  0.00185568  0.73861742  1
  V  V20  1  0.87828095  0.12717552  0.75422996  1
  V  V21  1  0.75234333  0.62701020  0.87341441  1
  V  V22  1  0.26060148  -0.00089624  0.74641193  1
  V  V23  1  0.87517401  0.37555213  -0.00000538  1
  V  V24  1  0.51465084  0.87303855  0.37589641  1
  V  V25  1  0.75124080  0.37719481  0.12537836  1
  V  V26  1  0.62900819  0.37699378  0.25052880  1
  V  V27  1  0.25002837  0.49300301  0.24739105  1
  V  V28  1  0.00045665  0.86986612  0.36357963  1
  V  V29  1  0.74592341  -0.00335208  0.24980906  1
  V  V30  1  0.75255486  0.25289927  0.50150430  1
  V  V31  1  0.50461845  0.13002437  0.63313008  1
  V  V32  1  0.12324928  0.25111450  0.36910077  1
  V  V33  1  0.50101524  0.25619058  0.25226334  1
  V  V34  1  0.12464304  -0.00356448  0.62657316  1
  V  V35  1  0.49641658  0.50794091  0.50604544  1
  V  V36  1  0.49651791  0.37046582  0.87158552  1
  V  V37  1  0.36671458  0.50799053  0.87845030  1
  V  V38  1  -0.00325894  -0.01468018  0.50556286  1
  V  V39  1  0.12402104  0.50286248  0.62670439  1
  V  V40  1  0.24508257  0.24784892  0.00207731  1
  V  V41  1  0.50011925  0.50063265  -0.00059593  1
  V  V42  1  0.12179371  0.62671316  0.50246300  1
  V  V43  1  0.25132723  0.87113513  0.61441203  1
  V  V44  1  0.12226359  0.37059524  0.24085604  1
  V  V45  1  0.75248849  0.51186158  0.24840576  1
  V  V46  1  0.62849910  0.12437062  0.50542294  1
  V  V47  1  0.48361786  0.87896208  0.87059319  1
  V  V48  1  0.87443958  0.38056869  0.50135549  1
  V  V49  1  0.12096064  0.12717425  0.50370161  1
  V  V50  1  0.75588011  0.76051342  -0.00225945  1
  V  V51  1  0.24882986  0.50941768  0.75197589  1
  V  V52  1  0.24827913  0.24993862  0.50219633  1
  V  V53  1  0.87363742  0.50591236  0.37091705  1
  V  V54  1  0.49981592  0.37791232  0.37684816  1
  V  V55  1  0.87522436  -0.00505367  0.88640094  1
  V  V56  1  0.24452852  0.11369473  0.37592162  1
  V  V57  1  0.73908763  0.87004733  0.12641242  1
  V  V58  1  0.37274083  0.50368055  0.37109594  1
  V  V59  1  0.50346849  0.12888687  0.12843491  1
  V  V60  1  0.24748332  0.62524375  0.37169210  1
  V  V61  1  0.62625290  0.63136175  0.48642974  1
  V  V62  1  0.12616656  0.24299250  0.87543821  1
  V  V63  1  0.88466910  0.76124918  0.12025619  1
  V  V64  1  0.25632596  0.11932788  0.87460587  1
  V  V65  1  0.24833425  0.37555180  0.62687847  1
  V  V66  1  0.75004657  0.12546869  0.87598621  1
  V  V67  1  0.62663474  0.25344305  0.37814702  1
  V  V68  1  0.01987740  -0.00502764  0.00219126  1
  V  V69  1  0.62305804  0.62906405  0.00352258  1
  V  V70  1  0.74981571  0.25119370  0.00058319  1
  V  V71  1  0.12642549  0.50322211  0.12055333  1
  V  V72  1  -0.00108585  0.12640549  0.62549927  1
  V  V73  1  0.62117182  0.25147316  0.87272140  1
  V  V74  1  0.37396908  0.37491310  0.50094358  1
  V  V75  1  0.87360232  0.50192142  0.87360018  1
  V  V76  1  0.62253832  0.75822302  0.86941306  1
  V  V77  1  0.38306016  -0.00098584  0.37757107  1
  V  V78  1  0.75182073  0.50380136  0.74640414  1
  V  V79  1  0.36366089  0.25514843  0.12949457  1
  V  V80  1  0.75556411  0.85682492  0.61770472  1
  V  V81  1  0.88296379  0.63054520  0.24291145  1
  V  V82  1  0.01089022  0.12457538  0.11968954  1
  V  V83  1  -0.00099665  0.37130581  0.37066192  1
  V  V84  1  0.38957623  0.62214878  0.74142402  1
  Zn  Zn85  1  0.87674747  0.25543338  0.62763533  1
  Zn  Zn86  1  0.76367066  0.75755714  0.47175050  1
  Zn  Zn87  1  0.20506120  -0.07240322  0.08856512  1
  Zn  Zn88  1  0.50517444  0.75086139  0.74397729  1
  Zn  Zn89  1  0.49536831  0.00261889  -0.01076675  1
  Zn  Zn90  1  0.75009933  0.37997925  0.62557242  1
  Zn  Zn91  1  0.75267231  0.12448493  0.37550196  1
  Zn  Zn92  1  0.00389814  0.63078103  0.12083325  1
  Zn  Zn93  1  0.38256031  0.12576442  0.75545806  1
  Zn  Zn94  1  0.37414717  0.87335222  0.02565332  1
  Zn  Zn95  1  0.25169913  0.74577621  0.50004248  1
  Zn  Zn96  1  0.14028627  -0.10065908  0.24021319  1
  Zn  Zn97  1  0.38284053  0.87231973  0.50144621  1
  Zn  Zn98  1  0.12524076  0.37591653  0.75182055  1
  Zn  Zn99  1  0.12451401  0.86754186  0.74762457  1
  Zn  Zn100  1  -0.00209437  0.50113051  0.50055534  1
  Zn  Zn101  1  0.00135154  0.86967353  0.87965659  1
  Zn  Zn102  1  0.00197771  0.25109033  0.75031248  1
  Zn  Zn103  1  0.62556498  0.50114116  0.12443134  1
  Zn  Zn104  1  0.62401719  -0.00524731  0.12804525  1
  Zn  Zn105  1  0.25793421  0.74569281  0.01502472  1
  Zn  Zn106  1  0.62449532  0.88192237  0.74347221  1
  Zn  Zn107  1  0.18891532  0.07650970  0.19750926  1
  Zn  Zn108  1  0.18739191  0.18728460  0.69231871  1
  Zn  Zn109  1  0.18567812  0.68226845  0.18749363  1
  Zn  Zn110  1  0.18806539  0.68982203  0.69141442  1
  Zn  Zn111  1  0.69267540  0.18881881  0.19058150  1
  Zn  Zn112  1  0.69009843  0.19126540  0.68730485  1
  Zn  Zn113  1  0.63383366  0.74478142  0.33288221  1
  Zn  Zn114  1  0.68659701  0.68444409  0.68551293  1
  Zn  Zn115  1  0.30721340  0.31269497  0.31548556  1
  Zn  Zn116  1  0.30896863  0.31666135  0.81389470  1
  Zn  Zn117  1  0.30840588  0.80580564  0.21100497  1
  Zn  Zn118  1  0.31320075  0.80842417  0.80202531  1
  Zn  Zn119  1  0.81339491  0.31456016  0.31273622  1
  Zn  Zn120  1  0.81044011  0.31474091  0.81257503  1
  Zn  Zn121  1  0.81543099  0.81198233  0.30328612  1
  Zn  Zn122  1  0.81139941  0.81745060  0.81010753  1
  Zn  Zn123  1  0.18469438  0.43828169  0.43926029  1
  Zn  Zn124  1  0.18764164  0.43531005  0.93791489  1
  Zn  Zn125  1  0.22569352  0.90048323  0.38602154  1
  Zn  Zn126  1  0.19379298  0.92409539  0.92094412  1
  Zn  Zn127  1  0.69015790  0.44722636  0.43853607  1
  Zn  Zn128  1  0.68577959  0.43892801  0.93610286  1
  Zn  Zn129  1  0.69082826  0.93725763  0.44297076  1
  Zn  Zn130  1  0.68623266  0.94078850  0.93685488  1
  Zn  Zn131  1  0.31708017  0.07027460  0.05776570  1
  Zn  Zn132  1  0.31490396  0.06376076  0.56214898  1
  Zn  Zn133  1  0.30266775  0.56445532  0.06813364  1
  Zn  Zn134  1  0.31049333  0.56455231  0.56200907  1
  Zn  Zn135  1  0.81137345  0.06187563  0.06572321  1
  Zn  Zn136  1  0.81751202  0.06482589  0.56153250  1
  Zn  Zn137  1  0.81257907  0.56808529  0.06143886  1
  Zn  Zn138  1  0.82055946  0.59261218  0.54184140  1
  Zn  Zn139  1  0.43719038  0.44172981  0.18622286  1
  Zn  Zn140  1  0.43672306  0.43673441  0.68827783  1
  Zn  Zn141  1  0.40561957  0.96905803  0.16233534  1
  Zn  Zn142  1  0.44031962  0.93522244  0.68384740  1
  Zn  Zn143  1  0.94128438  0.43761601  0.18638027  1
  Zn  Zn144  1  0.93594552  0.44066715  0.68955990  1
  Zn  Zn145  1  0.94055094  0.93966664  0.18412645  1
  Zn  Zn146  1  0.93122238  0.93549550  0.69120128  1
  Zn  Zn147  1  0.05370877  0.06324131  0.31677249  1
  Zn  Zn148  1  0.06563065  0.06077922  0.81422240  1
  Zn  Zn149  1  0.06007646  0.55791168  0.31035044  1
  Zn  Zn150  1  0.06206019  0.56569513  0.81200235  1
  Zn  Zn151  1  0.56433884  0.06668363  0.31583655  1
  Zn  Zn152  1  0.56305125  0.06116099  0.81357306  1
  Zn  Zn153  1  0.56368508  0.55908997  0.31236091  1
  Zn  Zn154  1  0.56303721  0.56273147  0.81737530  1
  Zn  Zn155  1  0.43852742  0.18942873  0.44344327  1
  Zn  Zn156  1  0.43526419  0.18892279  0.93902290  1
  Zn  Zn157  1  0.43657709  0.68882046  0.42913286  1
  Zn  Zn158  1  0.40038497  0.66951984  0.96044624  1
  Zn  Zn159  1  0.93667103  0.18797454  0.43821819  1
  Zn  Zn160  1  0.93958990  0.18516251  0.94254154  1
  Zn  Zn161  1  0.93569005  0.68887763  0.43872977  1
  Zn  Zn162  1  0.93601035  0.68961079  0.93355098  1
  Zn  Zn163  1  0.06176548  0.31063329  0.06088493  1
  Zn  Zn164  1  0.05973201  0.31429368  0.56263620  1
  Zn  Zn165  1  0.07159057  0.81182221  0.05752543  1
  Zn  Zn166  1  0.05977460  0.80658712  0.56615056  1
  Zn  Zn167  1  0.56100348  0.31346790  0.06323590  1
  Zn  Zn168  1  0.56150574  0.31571102  0.56459565  1
  Zn  Zn169  1  0.55826097  0.80958430  0.05194486  1
  Zn  Zn170  1  0.57428400  0.81643939  0.56249819  1
  O  O171  1  0.10755092  0.13425174  0.13439302  1
  O  O172  1  0.11388607  0.12075555  0.62572686  1
  O  O173  1  0.11984701  0.60724170  0.12751707  1
  O  O174  1  0.12473448  0.61478969  0.62061038  1
  O  O175  1  0.62127986  0.13523922  0.11564166  1
  O  O176  1  0.61761471  0.13744224  0.61622703  1
  O  O177  1  0.61567389  0.62117723  0.10535570  1
  O  O178  1  0.62362513  0.61263488  0.61596853  1
  O  O179  1  0.37733726  0.38340106  0.38240447  1
  O  O180  1  0.38147765  0.38171689  0.88044203  1
  O  O181  1  0.38561856  0.89579463  0.38465190  1
  O  O182  1  0.38552046  0.87792170  0.85907091  1
  O  O183  1  0.88242906  0.38092288  0.37959615  1
  O  O184  1  0.88127668  0.37862455  0.88178052  1
  O  O185  1  0.88819837  0.88148453  0.37000133  1
  O  O186  1  0.88092382  0.89267348  0.86902441  1
  O  O187  1  0.26566675  0.01204160  0.38967569  1
  O  O188  1  0.24430385  0.00913104  0.85953361  1
  O  O189  1  0.25560428  0.50161141  0.37114417  1
  O  O190  1  0.25802606  0.49283362  0.86589397  1
  O  O191  1  0.76003166  -0.00034977  0.37048285  1
  O  O192  1  0.76150271  0.00707741  0.87166132  1
  O  O193  1  0.76337762  0.48980669  0.36034312  1
  O  O194  1  0.75239817  0.50822656  0.87078904  1
  O  O195  1  0.24143179  0.49789876  0.13487312  1
  O  O196  1  0.24240160  0.49512969  0.63049551  1
  O  O197  1  0.25822478  1.01391397  0.13510571  1
  O  O198  1  0.24133337  0.99556189  0.62561353  1
  O  O199  1  0.75011881  0.49389875  0.12926565  1
  O  O200  1  0.73825966  0.49956803  0.63541666  1
  O  O201  1  0.74909845  0.99119905  0.13160221  1
  O  O202  1  0.75129826  1.01313202  0.63950804  1
  O  O203  1  0.00866090  0.37593447  0.25940831  1
  O  O204  1  -0.00117979  0.37350145  0.76410225  1
  O  O205  1  0.00593691  0.88428478  0.26366348  1
  O  O206  1  -0.00019470  0.85989969  0.74525954  1
  O  O207  1  0.50747341  0.37468411  0.25650545  1
  O  O208  1  0.50749818  0.38065291  0.76078650  1
  O  O209  1  0.49307304  0.88816178  0.27441331  1
  O  O210  1  0.50639490  0.87593474  0.75605761  1
  O  O211  1  0.49591704  0.14081580  0.25141024  1
  O  O212  1  0.50158360  0.12218734  0.73753466  1
  O  O213  1  0.50645353  0.60894411  0.22834805  1
  O  O214  1  0.49259929  0.62122769  0.74577640  1
  O  O215  1  0.98585616  0.11754016  0.23759908  1
  O  O216  1  0.99327793  0.12536591  0.74506574  1
  O  O217  1  0.98636021  0.61412395  0.24108145  1
  O  O218  1  1.00127021  0.63263438  0.73887879  1
  O  O219  1  0.36981680  0.25730393  0.00829988  1
  O  O220  1  0.36710380  0.25636720  0.50844887  1
  O  O221  1  0.36956414  0.77107447  -0.01568608  1
  O  O222  1  0.37236470  0.74899172  0.50476499  1
  O  O223  1  0.86817864  0.25514141  0.00691922  1
  O  O224  1  0.86765509  0.25960923  0.50065424  1
  O  O225  1  0.86629348  0.74636502  0.00748260  1
  O  O226  1  0.85088100  0.69888012  0.50718084  1
  O  O227  1  0.12918460  0.24659381  0.49586854  1
  O  O228  1  0.13879219  0.25636565  0.99393327  1
  O  O229  1  0.12306539  0.73455098  0.49897024  1
  O  O230  1  0.13500914  0.75115425  0.98343214  1
  O  O231  1  0.63349159  0.24890761  0.49693743  1
  O  O232  1  0.62914273  0.24397649  0.99395954  1
  O  O233  1  0.63470269  0.73134986  0.50743998  1
  O  O234  1  0.63273564  0.74454887  0.98811104  1
  O  O235  1  0.49447645  0.24628395  0.13313277  1
  O  O236  1  0.48932685  0.24356679  0.61973193  1
  O  O237  1  0.49583788  0.73486950  0.11686452  1
  O  O238  1  0.49105262  0.75766648  0.62216605  1
  O  O239  1  0.98856034  0.23795469  0.11585697  1
  O  O240  1  0.99790017  0.24139065  0.62875462  1
  O  O241  1  0.98721649  0.74856756  0.10959346  1
  O  O242  1  0.99795877  0.73517994  0.63511177  1
  O  O243  1  0.00761106  0.26218242  0.38292514  1
  O  O244  1  0.00851294  0.25475928  0.87783345  1
  O  O245  1  0.00128777  0.76204456  0.38170674  1
  O  O246  1  0.00465609  0.74865423  0.86386013  1
  O  O247  1  0.50501134  0.25905065  0.37307195  1
  O  O248  1  0.50360162  0.26285110  0.88021997  1
  O  O249  1  0.50639513  0.77209906  0.39172049  1
  O  O250  1  0.51243311  0.76631343  0.86728655  1
  O  O251  1  0.24172738  0.13065336  0.49614460  1
  O  O252  1  0.25745377  0.13683932  0.98829005  1
  O  O253  1  0.23823965  0.61892493  0.48976981  1
  O  O254  1  0.28982482  0.63384852  0.98593246  1
  O  O255  1  0.74557227  0.13532149  0.50020042  1
  O  O256  1  0.74214007  0.13050782  0.99599687  1
  O  O257  1  0.72020877  0.59524466  0.48743451  1
  O  O258  1  0.74042930  0.63338239  0.99261677  1
  O  O259  1  0.26392812  0.36533729  -0.00632309  1
  O  O260  1  0.25355349  0.37098963  0.50755592  1
  O  O261  1  0.25567238  0.87811130  0.00219534  1
  O  O262  1  0.25341135  0.87318572  0.50546525  1
  O  O263  1  0.75391983  0.37187960  0.00622169  1
  O  O264  1  0.76096489  0.37240444  0.49898679  1
  O  O265  1  0.74818798  0.86564970  0.00211090  1
  O  O266  1  0.74824759  0.86685001  0.51136379  1
  O  O267  1  0.12884670  0.48885581  0.24257117  1
  O  O268  1  0.13236153  0.49957196  0.74435732  1
  O  O269  1  0.13932711  1.01011872  0.27409990  1
  O  O270  1  0.12955853  0.99898614  0.73690301  1
  O  O271  1  0.63648215  0.49422038  0.24895355  1
  O  O272  1  0.62677384  0.49322372  0.74468454  1
  O  O273  1  0.64363073  1.01388861  0.25106881  1
  O  O274  1  0.64544937  1.00440906  0.75668793  1
  O  O275  1  0.38282601  0.02266119  0.26280696  1
  O  O276  1  0.36251237  0.00437474  0.73682696  1
  O  O277  1  0.36406396  0.49009740  0.26083939  1
  O  O278  1  0.36878566  0.50418491  0.75451907  1
  O  O279  1  0.86851788  0.00566478  0.25854088  1
  O  O280  1  0.86859028  0.01231967  0.76009650  1
  O  O281  1  0.87054077  0.50178723  0.25243643  1
  O  O282  1  0.86175219  0.49248780  0.76095681  1
  O  O283  1  0.11650649  0.37090462  0.37193177  1
  O  O284  1  0.11716426  0.36490185  0.87468753  1
  O  O285  1  0.11191305  0.85950371  0.38116377  1
  O  O286  1  0.11777642  0.86243365  0.86447073  1
  O  O287  1  0.62084822  0.37299757  0.37127645  1
  O  O288  1  0.61585301  0.37222098  0.86908787  1
  O  O289  1  0.61527269  0.88201835  0.37533337  1
  O  O290  1  0.63095042  0.86657625  0.86860403  1
  O  O291  1  0.38524811  0.13894240  0.13789518  1
  O  O292  1  0.38441922  0.13564940  0.62523851  1
  O  O293  1  0.38995173  0.61217417  0.12930899  1
  O  O294  1  0.37393205  0.63262127  0.62881801  1
  O  O295  1  0.87899971  0.13238870  0.13092794  1
  O  O296  1  0.88624317  0.12694818  0.63381351  1
  O  O297  1  0.87773287  0.63606474  0.12768126  1
  O  O298  1  0.88725709  0.60757641  0.63536718  1
  O  O299  1  0.26336248  0.24710352  0.11625908  1
  O  O300  1  0.25401078  0.25520686  0.62088532  1
  O  O301  1  0.25441911  0.74563078  0.13222316  1
  O  O302  1  0.25702926  0.75726427  0.62197788  1
  O  O303  1  0.75962184  0.25641099  0.11967431  1
  O  O304  1  0.75339872  0.25650356  0.61322107  1
  O  O305  1  0.76163231  0.76078433  0.11239462  1
  O  O306  1  0.75740806  0.75742707  0.63430977  1
  O  O307  1  0.24196375  0.24385721  0.38593855  1
  O  O308  1  0.24413064  0.24518053  0.88093921  1
  O  O309  1  0.23372029  0.73219539  0.38213116  1
  O  O310  1  0.23618746  0.74972159  0.85892371  1
  O  O311  1  0.74724528  0.25098429  0.38677563  1
  O  O312  1  0.74342204  0.24515269  0.88163073  1
  O  O313  1  0.73882811  0.75891323  0.36301543  1
  O  O314  1  0.74683888  0.74524664  0.87825338  1
  O  O315  1  0.00055267  0.11621277  0.01250504  1
  O  O316  1  0.00164286  0.11962332  0.50967519  1
  O  O317  1  -0.00433043  0.61034189  -0.00273572  1
  O  O318  1  0.00567244  0.62166035  0.51653668  1
  O  O319  1  0.50598354  0.12639500  0.01025392  1
  O  O320  1  0.51053808  0.12381012  0.50914111  1
  O  O321  1  0.50039342  0.61588575  0.00244974  1
  O  O322  1  0.50783212  0.61305971  0.49392395  1
  O  O323  1  0.49273037  0.38307000  0.49445164  1
  O  O324  1  0.49192165  0.38039231  0.99344768  1
  O  O325  1  0.50639323  0.88908978  0.49676923  1
  O  O326  1  0.50109699  0.87847539  0.97954342  1
  O  O327  1  0.98715915  0.37805151  0.49527025  1
  O  O328  1  0.99512340  0.37979827  0.98900485  1
  O  O329  1  1.00108971  0.88344113  0.50013909  1
  O  O330  1  1.00153626  0.89278385  0.99819969  1
  O  O331  1  0.48996411  0.49616770  0.38061359  1
  O  O332  1  0.49353601  0.49097541  0.88455467  1
  O  O333  1  0.49991351  1.00222248  0.38831793  1
  O  O334  1  0.50288749  0.98564972  0.87287222  1
  O  O335  1  0.99334730  0.48701909  0.37699574  1
  O  O336  1  0.99630728  0.49281743  0.87878075  1
  O  O337  1  0.99431871  0.98879117  0.38656276  1
  O  O338  1  0.99269489  1.00588333  0.88855113  1
  O  O339  1  -0.00482332  0.01210255  0.11094531  1
  O  O340  1  0.00211305  0.00503264  0.62293358  1
  O  O341  1  0.00746942  0.49663702  0.11239962  1
  O  O342  1  0.00863004  0.50923261  0.62891994  1
  O  O343  1  0.51206294  0.02586210  0.14484549  1
  O  O344  1  0.49880435  0.01117576  0.61477875  1
  O  O345  1  0.50312381  0.50205628  0.11091026  1
  O  O346  1  0.50499954  0.49446497  0.61529859  1
  O  O347  1  0.23691095  0.38438624  0.25807688  1
  O  O348  1  0.24916549  0.38700139  0.74220920  1
  O  O349  1  0.24349797  0.86680171  0.27904983  1
  O  O350  1  0.24915331  0.88269571  0.73151572  1
  O  O351  1  0.74808239  0.38027195  0.24068644  1
  O  O352  1  0.73948900  0.38665750  0.75268136  1
  O  O353  1  0.75311843  0.88497276  0.23690629  1
  O  O354  1  0.75192231  0.89106244  0.74383394  1
  O  O355  1  0.26143856  0.13844177  0.26836334  1
  O  O356  1  0.25351478  0.11733163  0.75565996  1
  O  O357  1  0.23945664  0.60602032  0.26464358  1
  O  O358  1  0.26189239  0.61196020  0.74217571  1
  O  O359  1  0.76367441  0.11971510  0.25174018  1
  O  O360  1  0.75735706  0.12094349  0.75676756  1
  O  O361  1  0.76591667  0.61152152  0.24471316  1
  O  O362  1  0.74067933  0.61194621  0.75979007  1
  O  O363  1  0.37031175  0.12372205  0.37401032  1
  O  O364  1  0.36336692  0.13032397  0.87128164  1
  O  O365  1  0.36366261  0.61196524  0.38034718  1
  O  O366  1  0.38701638  0.60867018  0.85948382  1
  O  O367  1  0.87717413  0.11771452  0.36683925  1
  O  O368  1  0.87179709  0.12008607  0.87000318  1
  O  O369  1  0.88558205  0.61071077  0.36178610  1
  O  O370  1  0.85897183  0.61882458  0.88058394  1
  O  O371  1  0.11766702  0.37739802  0.13716722  1
  O  O372  1  0.12665434  0.38754038  0.62614965  1
  O  O373  1  0.11481302  0.88111316  0.13268650  1
  O  O374  1  0.13170704  0.88136529  0.62298861  1
  O  O375  1  0.63218235  0.37691534  0.13075758  1
  O  O376  1  0.62526772  0.38334068  0.63398154  1
  O  O377  1  0.63467457  0.87571680  0.11562852  1
  O  O378  1  0.64623905  0.87544611  0.62914100  1
  O  O379  1  0.12829493  0.25896659  0.26777433  1
  O  O380  1  0.12357009  0.25544719  0.76045480  1
  O  O381  1  0.11425972  0.73452815  0.26362719  1
  O  O382  1  0.11263481  0.74801812  0.75352872  1
  O  O383  1  0.62317985  0.25733029  0.25812316  1
  O  O384  1  0.63140237  0.26499688  0.75625827  1
  O  O385  1  0.57191155  0.76187602  0.24090781  1
  O  O386  1  0.62443568  0.74864278  0.75788244  1
  O  O387  1  0.37913335  0.24974352  0.24707004  1
  O  O388  1  0.36953194  0.25101005  0.73785031  1
  O  O389  1  0.40520561  0.74573926  0.26319864  1
  O  O390  1  0.38081062  0.73767720  0.73825576  1
  O  O391  1  0.87063650  0.24274869  0.23950746  1
  O  O392  1  0.87456802  0.23872270  0.75093695  1
  O  O393  1  0.87630736  0.74256483  0.23114870  1
  O  O394  1  0.88887459  0.74909230  0.75875889  1
  O  O395  1  0.37978907  0.49513350  0.49515165  1
  O  O396  1  0.37990893  0.49061021  0.99345718  1
  O  O397  1  0.39030706  1.00649533  0.49472922  1
  O  O398  1  0.39452784  0.98792488  1.04194115  1
  O  O399  1  0.87448609  0.49674326  0.48867099  1
  O  O400  1  0.88137417  0.49344560  0.99395990  1
  O  O401  1  0.88314643  1.00679006  0.48742464  1
  O  O402  1  0.87573386  1.00722572  0.98723734  1
  O  O403  1  0.11816176  -0.00158841  -0.00717831  1
  O  O404  1  0.11127241  0.01064426  0.51639436  1
  O  O405  1  0.11712246  0.48964928  0.00890392  1
  O  O406  1  0.12044582  0.50785668  0.50880122  1
  O  O407  1  0.62185207  0.01475372  0.00357312  1
  O  O408  1  0.62298596  0.01716805  0.49739187  1
  O  O409  1  0.61488713  0.50758321  -0.00396735  1
  O  O410  1  0.61061332  0.49700074  0.50804030  1
  O  O411  1  0.38238238  0.36767691  0.11502705  1
  O  O412  1  0.36960560  0.36874900  0.62003739  1
  O  O413  1  0.40381918  0.85632629  0.15176401  1
  O  O414  1  0.36888152  0.86619102  0.61995865  1
  O  O415  1  0.87275192  0.36685437  0.12034701  1
  O  O416  1  0.87290355  0.37683756  0.61583046  1
  O  O417  1  0.87062229  0.86436015  0.12779619  1
  O  O418  1  0.85195499  0.88900897  0.62610554  1
  O  O419  1  0.12838975  0.13432141  0.38419980  1
  O  O420  1  0.13559730  0.13713631  0.87007043  1
  O  O421  1  0.12336641  0.62373605  0.38454964  1
  O  O422  1  0.12333712  0.63845899  0.87168585  1
  O  O423  1  0.62886309  0.13727919  0.38654919  1
  O  O424  1  0.62734707  0.13227068  0.88281049  1
  O  O425  1  0.61281766  0.63430569  0.38177453  1
  O  O426  1  0.63166019  0.63286702  0.88246302  1
