# generated using pymatgen
data_V85Zn86O256
_symmetry_space_group_name_H-M   'P 1'
_cell_length_a   16.90964617
_cell_length_b   16.92473147
_cell_length_c   16.93012587
_cell_angle_alpha   89.94976680
_cell_angle_beta   90.14716265
_cell_angle_gamma   89.95870702
_symmetry_Int_Tables_number   1
_chemical_formula_structural   V85Zn86O256
_chemical_formula_sum   'V85 Zn86 O256'
_cell_volume   4845.23427848
_cell_formula_units_Z   1
loop_
 _symmetry_equiv_pos_site_id
 _symmetry_equiv_pos_as_xyz
  1  'x, y, z'
loop_
 _atom_site_type_symbol
 _atom_site_label
 _atom_site_symmetry_multiplicity
 _atom_site_fract_x
 _atom_site_fract_y
 _atom_site_fract_z
 _atom_site_occupancy
  V  V0  1  0.24827294  0.75365586  0.49448643  1
  V  V1  1  0.50215308  -0.00264231  -0.00152074  1
  V  V2  1  0.11893781  0.12322327  0.00992810  1
  V  V3  1  0.62179296  0.24749510  0.86824014  1
  V  V4  1  0.01528335  0.87402416  0.86977098  1
  V  V5  1  0.24210986  0.74865634  -0.00135671  1
  V  V6  1  0.37591168  0.50325117  0.87181578  1
  V  V7  1  0.62081702  0.38236899  0.24761975  1
  V  V8  1  0.61973852  0.49605548  0.62266234  1
  V  V9  1  0.50078392  0.37061215  0.38888215  1
  V  V10  1  0.11873849  0.49962173  0.12030995  1
  V  V11  1  0.00049330  0.62617534  0.62583815  1
  V  V12  1  -0.00459916  0.50061428  0.49220491  1
  V  V13  1  0.87657065  0.75861376  0.62753907  1
  V  V14  1  0.50489076  0.12568687  0.62874766  1
  V  V15  1  0.63132976  0.74928608  0.37318677  1
  V  V16  1  0.00191941  0.24517624  0.24706415  1
  V  V17  1  0.37725159  0.00052020  0.37307683  1
  V  V18  1  0.75082161  0.24584835  0.00035989  1
  V  V19  1  0.24666866  0.00110938  0.74668228  1
  V  V20  1  0.37788776  0.49370520  0.38865876  1
  V  V21  1  0.25257655  0.49995933  0.24826055  1
  V  V22  1  0.74054793  0.75187990  -0.00426774  1
  V  V23  1  0.12318996  0.49451871  0.62853494  1
  V  V24  1  0.75426097  0.61006497  0.37751296  1
  V  V25  1  -0.00359522  0.13375694  0.62186143  1
  V  V26  1  0.87776672  0.61684379  0.25463832  1
  V  V27  1  0.74143875  0.62872093  0.87394016  1
  V  V28  1  0.11691590  0.87655790  0.26746469  1
  V  V29  1  0.25494353  0.37545899  0.62338636  1
  V  V30  1  0.87854935  -0.00259695  0.86994375  1
  V  V31  1  0.11562553  -0.00296582  0.62353361  1
  V  V32  1  0.73714527  0.00052612  0.74659696  1
  V  V33  1  -0.07221750  0.93784345  0.43882346  1
  V  V34  1  0.37742029  0.13413580  0.74732386  1
  V  V35  1  0.24625311  0.87515431  0.62843591  1
  V  V36  1  0.87539454  0.13328572  0.74613174  1
  V  V37  1  0.12455919  0.62956988  0.49861510  1
  V  V38  1  0.37489408  0.74542340  0.12937053  1
  V  V39  1  0.37652855  0.87656364  0.49952646  1
  V  V40  1  0.75367593  0.24950810  0.50128746  1
  V  V41  1  0.87734059  0.74603751  0.12576891  1
  V  V42  1  0.37577333  0.36809329  0.00164168  1
  V  V43  1  0.50793943  0.49662253  0.00866037  1
  V  V44  1  0.87615487  0.87416952  -0.00477104  1
  V  V45  1  0.75368448  0.74605791  0.50290044  1
  V  V46  1  0.24857081  0.62930321  0.87128537  1
  V  V47  1  0.50583407  0.87380566  0.37302370  1
  V  V48  1  0.49466410  0.62671024  0.62914205  1
  V  V49  1  0.12498725  0.37405840  0.24978482  1
  V  V50  1  0.74631891  0.13101773  0.37285092  1
  V  V51  1  0.74396199  0.37933246  0.12293389  1
  V  V52  1  0.62717026  0.12816848  0.49845388  1
  V  V53  1  0.50642032  0.25111255  0.24850194  1
  V  V54  1  0.75776760  0.37023023  0.62697429  1
  V  V55  1  0.87779372  0.50171277  0.88558755  1
  V  V56  1  0.51670021  -0.00078656  0.50200438  1
  V  V57  1  0.23717058  0.88069126  0.12558437  1
  V  V58  1  0.75410841  -0.00115681  0.25257373  1
  V  V59  1  0.12365664  0.25007570  0.37619062  1
  V  V60  1  0.61678292  0.61826468  0.49826824  1
  V  V61  1  0.74217290  0.87787075  0.62497664  1
  V  V62  1  0.49816893  0.12875774  0.12199153  1
  V  V63  1  0.49851008  0.37115908  0.86459991  1
  V  V64  1  0.37432146  0.87529617  -0.00015542  1
  V  V65  1  0.75189235  0.12478748  0.87550450  1
  V  V66  1  0.87474746  0.37567252  0.49422812  1
  V  V67  1  0.00733628  0.38264057  0.87462901  1
  V  V68  1  0.37705235  0.13072997  0.24731765  1
  V  V69  1  0.12545408  0.25191006  0.86700134  1
  V  V70  1  0.11675545  0.62373811  -0.00330793  1
  V  V71  1  0.12079742  0.12160466  0.49867892  1
  V  V72  1  0.25321512  0.36749740  0.12450126  1
  V  V73  1  0.25072784  0.12450183  0.37598410  1
  V  V74  1  0.24966010  0.12573942  0.87521389  1
  V  V75  1  0.87751034  0.12513588  0.25530759  1
  V  V76  1  0.75164615  0.87674549  0.12762052  1
  V  V77  1  0.75137950  0.49856250  0.75011811  1
  V  V78  1  0.87944680  0.24960991  0.12437248  1
  V  V79  1  0.61431808  0.85815511  0.75316744  1
  V  V80  1  0.24820145  0.62648460  0.37341048  1
  V  V81  1  0.01731840  0.75507047  0.75084180  1
  V  V82  1  0.25821173  0.25443546  0.50033537  1
  V  V83  1  0.24764162  0.49664365  0.75212713  1
  V  V84  1  0.87651003  0.62608612  0.75100525  1
  Zn  Zn85  1  0.50160664  0.74700671  0.25009063  1
  Zn  Zn86  1  0.74938460  0.49819506  0.24709121  1
  Zn  Zn87  1  0.50358732  0.85679518  0.87829696  1
  Zn  Zn88  1  0.25222313  0.24712477  0.00245690  1
  Zn  Zn89  1  0.24211115  0.00378758  0.24550047  1
  Zn  Zn90  1  0.62646337  0.12301409  0.00070146  1
  Zn  Zn91  1  -0.00549589  0.37746810  0.37152422  1
  Zn  Zn92  1  0.00930186  0.74724747  0.26771469  1
  Zn  Zn93  1  0.37673210  -0.00236286  0.87116618  1
  Zn  Zn94  1  0.44224595  0.70183448  0.78767938  1
  Zn  Zn95  1  0.37810313  0.75319019  0.62774845  1
  Zn  Zn96  1  0.38556498  0.25847359  0.62395843  1
  Zn  Zn97  1  0.01099607  -0.00405554  0.01037065  1
  Zn  Zn98  1  -0.00150868  0.62256982  0.12478273  1
  Zn  Zn99  1  0.62346123  0.36898792  0.74615602  1
  Zn  Zn100  1  0.51476012  0.61793601  0.13498250  1
  Zn  Zn101  1  0.62839763  0.00139564  0.12351205  1
  Zn  Zn102  1  0.37751745  0.62460440  0.25120635  1
  Zn  Zn103  1  0.62461242  0.62508669  0.00331419  1
  Zn  Zn104  1  0.62892187  0.87577610  0.24981600  1
  Zn  Zn105  1  0.88055680  0.37713948  0.00254304  1
  Zn  Zn106  1  0.00006553  0.25796292  0.74580725  1
  Zn  Zn107  1  0.18930946  0.18650930  0.18827235  1
  Zn  Zn108  1  0.18735542  0.18785389  0.68526538  1
  Zn  Zn109  1  0.18426946  0.69125865  0.18716522  1
  Zn  Zn110  1  0.19795001  0.68551025  0.68559543  1
  Zn  Zn111  1  0.68491426  0.19069957  0.18584045  1
  Zn  Zn112  1  0.68708842  0.18609739  0.68392381  1
  Zn  Zn113  1  0.69103356  0.68476274  0.18794576  1
  Zn  Zn114  1  0.68481664  0.68469937  0.68704165  1
  Zn  Zn115  1  0.31584728  0.31163291  0.31307881  1
  Zn  Zn116  1  0.31045677  0.31438287  0.81086861  1
  Zn  Zn117  1  0.30939197  0.81487576  0.31013056  1
  Zn  Zn118  1  0.30574776  0.81447510  0.81284563  1
  Zn  Zn119  1  0.80949337  0.31256255  0.31350715  1
  Zn  Zn120  1  0.81549423  0.31476864  0.81550718  1
  Zn  Zn121  1  0.84731425  0.80021829  0.32989953  1
  Zn  Zn122  1  0.81247001  0.81292509  0.80940710  1
  Zn  Zn123  1  0.18580839  0.43831716  0.43845922  1
  Zn  Zn124  1  0.18695712  0.43796262  0.93886243  1
  Zn  Zn125  1  0.18614380  0.94133523  0.43751615  1
  Zn  Zn126  1  0.18983153  0.94240310  0.93855701  1
  Zn  Zn127  1  0.68131766  0.43201956  0.43858622  1
  Zn  Zn128  1  0.68899913  0.43285629  0.93499692  1
  Zn  Zn129  1  0.72310436  0.92483717  0.42378558  1
  Zn  Zn130  1  0.68655176  0.93699755  0.93393996  1
  Zn  Zn131  1  0.31381108  0.06198881  0.06150995  1
  Zn  Zn132  1  0.31580050  0.06315708  0.56167344  1
  Zn  Zn133  1  0.31198881  0.55936295  0.06019742  1
  Zn  Zn134  1  0.31038812  0.56127688  0.56209062  1
  Zn  Zn135  1  0.84702790  0.04868564  0.07770229  1
  Zn  Zn136  1  0.81242422  0.06043791  0.56427004  1
  Zn  Zn137  1  0.80806351  0.56504037  0.06328551  1
  Zn  Zn138  1  0.81241570  0.56083172  0.56424745  1
  Zn  Zn139  1  0.43367120  0.43509049  0.18960471  1
  Zn  Zn140  1  0.43511115  0.44300759  0.68618354  1
  Zn  Zn141  1  0.43684534  0.93711603  0.18584578  1
  Zn  Zn142  1  0.43695765  0.94197649  0.68604761  1
  Zn  Zn143  1  0.93685416  0.43432512  0.18709133  1
  Zn  Zn144  1  0.93756413  0.43769028  0.68859394  1
  Zn  Zn145  1  0.94114554  0.93906315  0.18929102  1
  Zn  Zn146  1  0.93626932  0.93886676  0.68783241  1
  Zn  Zn147  1  0.05790566  0.05514936  0.31451454  1
  Zn  Zn148  1  0.06278070  0.06341111  0.81084934  1
  Zn  Zn149  1  0.06477072  0.56304257  0.31120413  1
  Zn  Zn150  1  0.06488821  0.56376616  0.81159393  1
  Zn  Zn151  1  0.56883514  0.06167166  0.31228737  1
  Zn  Zn152  1  0.56097391  0.06037522  0.81547052  1
  Zn  Zn153  1  0.55947351  0.55985296  0.31451582  1
  Zn  Zn154  1  0.56426307  0.55573140  0.81197918  1
  Zn  Zn155  1  0.44069698  0.18825093  0.43730048  1
  Zn  Zn156  1  0.43692856  0.18717272  0.93566820  1
  Zn  Zn157  1  0.43622974  0.68728345  0.43845679  1
  Zn  Zn158  1  0.43315282  0.68357366  0.95336545  1
  Zn  Zn159  1  0.93579586  0.18760989  0.43704948  1
  Zn  Zn160  1  0.93999592  0.19044707  0.93441445  1
  Zn  Zn161  1  0.93744674  0.68959818  0.43750570  1
  Zn  Zn162  1  0.93612644  0.69285894  0.93342092  1
  Zn  Zn163  1  0.06383567  0.30991389  0.05678086  1
  Zn  Zn164  1  0.06590821  0.31277493  0.56102698  1
  Zn  Zn165  1  0.05879573  0.81071273  0.06093463  1
  Zn  Zn166  1  0.05922255  0.81579193  0.55409077  1
  Zn  Zn167  1  0.56273668  0.30928418  0.06055651  1
  Zn  Zn168  1  0.56900743  0.30626520  0.56442743  1
  Zn  Zn169  1  0.56263828  0.81032816  0.06552597  1
  Zn  Zn170  1  0.56652658  0.80955497  0.56272481  1
  O  O171  1  0.12908436  0.13090391  0.10896995  1
  O  O172  1  0.11907753  0.11935221  0.61683708  1
  O  O173  1  0.12451408  0.61704904  0.11750395  1
  O  O174  1  0.12087281  0.61691078  0.61689046  1
  O  O175  1  0.61208205  0.12423026  0.12256695  1
  O  O176  1  0.61966120  0.12444877  0.61205199  1
  O  O177  1  0.62709180  0.62818715  0.11754504  1
  O  O178  1  0.61787897  0.61712904  0.61796044  1
  O  O179  1  0.38429506  0.38511701  0.37160620  1
  O  O180  1  0.38091469  0.38007388  0.88059907  1
  O  O181  1  0.38421580  0.88148714  0.37775674  1
  O  O182  1  0.37097158  0.87577726  0.88978037  1
  O  O183  1  0.87396819  0.37427418  0.38886461  1
  O  O184  1  0.88289948  0.38549168  0.87843155  1
  O  O185  1  0.84041555  0.89392629  0.39343572  1
  O  O186  1  0.88172787  0.88134105  0.87394843  1
  O  O187  1  0.26095261  0.00643909  0.37296776  1
  O  O188  1  0.25139662  0.00808956  0.86454902  1
  O  O189  1  0.25791684  0.50323144  0.36900513  1
  O  O190  1  0.25593057  0.50284535  0.86935333  1
  O  O191  1  0.74269812  0.01918997  0.36431527  1
  O  O192  1  0.75411255  0.00664886  0.86439149  1
  O  O193  1  0.74518106  0.50771289  0.37663056  1
  O  O194  1  0.75861127  0.50433479  0.86997451  1
  O  O195  1  0.24325482  0.49261677  0.13249926  1
  O  O196  1  0.24436447  0.49637517  0.63130384  1
  O  O197  1  0.25802877  0.98372020  0.12727316  1
  O  O198  1  0.24300276  0.99524055  0.62779773  1
  O  O199  1  0.75351694  0.48322354  0.12267559  1
  O  O200  1  0.74173847  0.49333215  0.63063706  1
  O  O201  1  0.75374948  0.99212748  0.12977022  1
  O  O202  1  0.75429790  0.98775299  0.63278960  1
  O  O203  1  0.00621368  0.36523734  0.25199417  1
  O  O204  1  -0.00657131  0.37367563  0.76598818  1
  O  O205  1  0.01416875  0.87289271  0.24375548  1
  O  O206  1  -0.00117754  0.86678446  0.75579221  1
  O  O207  1  0.50320748  0.36806723  0.25285733  1
  O  O208  1  0.49941375  0.37866066  0.76118666  1
  O  O209  1  0.50465230  0.87409471  0.26221296  1
  O  O210  1  0.51046746  0.87821902  0.74942210  1
  O  O211  1  0.49713159  0.13113465  0.24552788  1
  O  O212  1  0.49116695  0.11547201  0.74095892  1
  O  O213  1  0.49519125  0.62742960  0.25005644  1
  O  O214  1  0.50355291  0.61923139  0.73499651  1
  O  O215  1  0.99304149  0.13607363  0.25595870  1
  O  O216  1  0.99180155  0.12760136  0.74229961  1
  O  O217  1  0.99439647  0.62924252  0.24976255  1
  O  O218  1  0.99631651  0.63269851  0.74481515  1
  O  O219  1  0.37342815  0.26371969  -0.00431753  1
  O  O220  1  0.36172090  0.24370130  0.50199700  1
  O  O221  1  0.36137701  0.75587939  0.01083387  1
  O  O222  1  0.36687323  0.75797144  0.50295977  1
  O  O223  1  0.87006273  0.24985003  0.00773465  1
  O  O224  1  0.86369001  0.25728533  0.49934037  1
  O  O225  1  0.86737641  0.75599431  0.00496407  1
  O  O226  1  0.86054691  0.73885589  0.51471510  1
  O  O227  1  0.13427219  0.24119177  0.49475217  1
  O  O228  1  0.12921817  0.24011190  0.98788707  1
  O  O229  1  0.12910818  0.73756162  0.50151870  1
  O  O230  1  0.13555948  0.74160065  1.00701357  1
  O  O231  1  0.64096688  0.24188528  0.50095278  1
  O  O232  1  0.63342538  0.24762906  0.98887546  1
  O  O233  1  0.63342569  0.73969478  0.49268616  1
  O  O234  1  0.63753803  0.75289043  0.99749761  1
  O  O235  1  0.49975018  0.24099787  0.13268148  1
  O  O236  1  0.50036501  0.23383412  0.62036896  1
  O  O237  1  0.48844154  0.74883353  0.12746164  1
  O  O238  1  0.49965871  0.73253780  0.62074847  1
  O  O239  1  0.99238762  0.25550069  0.13321720  1
  O  O240  1  1.00760134  0.23889286  0.62845452  1
  O  O241  1  0.98509875  0.74810096  0.12452393  1
  O  O242  1  0.99263206  0.74747659  0.62929622  1
  O  O243  1  0.00762913  0.25323545  0.36795997  1
  O  O244  1  0.00768844  0.26052967  0.86999252  1
  O  O245  1  -0.04348110  0.77041938  0.36533960  1
  O  O246  1  -0.00199006  0.76065904  0.86228704  1
  O  O247  1  0.49222459  0.26427789  0.36681448  1
  O  O248  1  0.50904424  0.25836565  0.87997069  1
  O  O249  1  0.51025260  0.75768124  0.37760485  1
  O  O250  1  0.48961022  0.74370625  0.87813191  1
  O  O251  1  0.24359817  0.13099612  0.49454717  1
  O  O252  1  0.24581634  0.12609029  0.99131592  1
  O  O253  1  0.24353939  0.63219935  0.49575989  1
  O  O254  1  0.24307277  0.63201345  0.99463003  1
  O  O255  1  0.74647486  0.13003502  0.49574663  1
  O  O256  1  0.75244453  0.13693430  0.99646844  1
  O  O257  1  0.74113786  0.62749519  0.49689149  1
  O  O258  1  0.75101357  0.63442140  0.99036869  1
  O  O259  1  0.25754843  0.37476218  0.00749552  1
  O  O260  1  0.24488639  0.36607990  0.50806274  1
  O  O261  1  0.25305570  0.87000467  0.00821715  1
  O  O262  1  0.25384149  0.86972146  0.50337201  1
  O  O263  1  0.75264427  0.36324332  0.00481016  1
  O  O264  1  0.75480580  0.36896014  0.50514648  1
  O  O265  1  0.75544019  0.86956343  0.00355179  1
  O  O266  1  0.73782054  0.86023166  0.51672953  1
  O  O267  1  0.13577752  0.49456151  0.24517764  1
  O  O268  1  0.13105206  0.50260731  0.73843255  1
  O  O269  1  0.12621017  0.98541222  0.25224303  1
  O  O270  1  0.13814628  1.00918667  0.73852400  1
  O  O271  1  0.62478402  0.48634959  0.25205872  1
  O  O272  1  0.63426828  0.49464949  0.74209329  1
  O  O273  1  0.63865643  0.99875662  0.24469220  1
  O  O274  1  0.63514426  0.99822720  0.75012280  1
  O  O275  1  0.37860006  0.00867453  0.26081970  1
  O  O276  1  0.36279696  0.00917282  0.74910825  1
  O  O277  1  0.36239790  0.50058916  0.25659422  1
  O  O278  1  0.36754150  0.49792187  0.76405381  1
  O  O279  1  0.86347217  0.01249214  0.24815789  1
  O  O280  1  0.86600532  0.00603787  0.75672435  1
  O  O281  1  0.87361336  0.51183573  0.24440948  1
  O  O282  1  0.86960485  0.50813519  0.75627102  1
  O  O283  1  0.12546043  0.36818027  0.36673124  1
  O  O284  1  0.11581947  0.37006818  0.87728391  1
  O  O285  1  0.12712548  0.87341735  0.36677137  1
  O  O286  1  0.11492449  0.88021480  0.87765060  1
  O  O287  1  0.60741385  0.37788331  0.36770629  1
  O  O288  1  0.61658564  0.36669923  0.87147302  1
  O  O289  1  0.62429209  0.86613951  0.37639905  1
  O  O290  1  0.62239712  0.87775418  0.85760522  1
  O  O291  1  0.38645293  0.11839060  0.13442387  1
  O  O292  1  0.38269576  0.12772125  0.63160879  1
  O  O293  1  0.37080462  0.63635483  0.12523559  1
  O  O294  1  0.39274283  0.61971801  0.61595472  1
  O  O295  1  0.86345427  0.14447410  0.14195728  1
  O  O296  1  0.88550311  0.11992711  0.63319981  1
  O  O297  1  0.87690948  0.62946925  0.12987023  1
  O  O298  1  0.88153697  0.63124519  0.63177105  1
  O  O299  1  0.24783979  0.26341355  0.12456457  1
  O  O300  1  0.24844162  0.25972199  0.61752656  1
  O  O301  1  0.25499348  0.76109598  0.12033653  1
  O  O302  1  0.24730131  0.75930426  0.61064072  1
  O  O303  1  0.75429800  0.25860465  0.11784173  1
  O  O304  1  0.74814701  0.26036530  0.61819264  1
  O  O305  1  0.75856998  0.75603948  0.11549343  1
  O  O306  1  0.75477997  0.75347829  0.62253712  1
  O  O307  1  0.24496724  0.24497644  0.38038114  1
  O  O308  1  0.24410452  0.24384724  0.87622120  1
  O  O309  1  0.25620196  0.74179199  0.38577208  1
  O  O310  1  0.25026889  0.74101293  0.88557887  1
  O  O311  1  0.74997945  0.24001364  0.38250487  1
  O  O312  1  0.74655577  0.24516323  0.88195852  1
  O  O313  1  0.74737018  0.74006544  0.38665905  1
  O  O314  1  0.75778106  0.73998966  0.88204923  1
  O  O315  1  0.01638797  0.12533485  -0.00851355  1
  O  O316  1  0.00999592  0.13256220  0.50694276  1
  O  O317  1  0.01342401  0.63189606  -0.00236946  1
  O  O318  1  0.00540877  0.62030990  0.50346252  1
  O  O319  1  0.49785356  0.11772274  0.00704610  1
  O  O320  1  0.50867952  0.11899157  0.50258939  1
  O  O321  1  0.50050520  0.60555697  0.00411090  1
  O  O322  1  0.51148438  0.62533434  0.50547107  1
  O  O323  1  0.50372140  0.36681084  0.48775992  1
  O  O324  1  0.49392306  0.38142028  0.99345083  1
  O  O325  1  0.49993364  0.88079793  0.49204921  1
  O  O326  1  0.49189539  0.87979468  1.00040997  1
  O  O327  1  0.99215281  0.38203028  0.50094949  1
  O  O328  1  0.99782808  0.37119640  0.98198726  1
  O  O329  1  0.98134706  0.87688747  0.50170046  1
  O  O330  1  0.99404885  0.87614685  0.98901918  1
  O  O331  1  0.48575240  0.48844062  0.37385610  1
  O  O332  1  0.49298357  0.49238479  0.88193102  1
  O  O333  1  0.49767116  0.99304272  0.38027589  1
  O  O334  1  0.49628180  0.99777938  0.88862774  1
  O  O335  1  1.00795654  0.49733575  0.38859223  1
  O  O336  1  0.99453346  0.49126752  0.87096497  1
  O  O337  1  0.98835692  0.98735725  0.37354789  1
  O  O338  1  0.99307569  0.99232059  0.87237601  1
  O  O339  1  -0.04561527  0.01000830  0.10609991  1
  O  O340  1  0.01174723  0.00913394  0.63229396  1
  O  O341  1  0.01476693  0.49918058  0.12937797  1
  O  O342  1  0.00698863  0.50477761  0.61799733  1
  O  O343  1  0.50193392  0.00441716  0.11459969  1
  O  O344  1  0.49444897  0.01178178  0.61146660  1
  O  O345  1  0.49388689  0.49645464  0.11152776  1
  O  O346  1  0.51193183  0.50659714  0.62699750  1
  O  O347  1  0.24688911  0.38035486  0.24407412  1
  O  O348  1  0.24988587  0.38768550  0.74312551  1
  O  O349  1  0.23942717  0.87692295  0.23966419  1
  O  O350  1  0.24983109  0.88470975  0.73577879  1
  O  O351  1  0.73980623  0.37417882  0.24339634  1
  O  O352  1  0.75217634  0.37976880  0.74235978  1
  O  O353  1  0.75410780  0.88472681  0.24253458  1
  O  O354  1  0.73908951  0.87981484  0.74377271  1
  O  O355  1  0.25921776  0.12343577  0.25559130  1
  O  O356  1  0.25643625  0.12060469  0.75426974  1
  O  O357  1  0.24936611  0.61822862  0.25792192  1
  O  O358  1  0.24475630  0.61079946  0.75910961  1
  O  O359  1  0.75271457  0.12451430  0.25624316  1
  O  O360  1  0.75641658  0.11715456  0.75075687  1
  O  O361  1  0.75586297  0.61898140  0.26151466  1
  O  O362  1  0.75493670  0.62017976  0.75610066  1
  O  O363  1  0.37339623  0.11795814  0.36918694  1
  O  O364  1  0.36483444  0.12420913  0.86792243  1
  O  O365  1  0.36573824  0.61283952  0.37715858  1
  O  O366  1  0.36229368  0.61621386  0.88144723  1
  O  O367  1  0.86537869  0.13356515  0.36223374  1
  O  O368  1  0.87160030  0.11826302  0.86693289  1
  O  O369  1  0.86527512  0.62291018  0.36881320  1
  O  O370  1  0.87006072  0.61831044  0.86926465  1
  O  O371  1  0.13174359  0.38066084  0.12811607  1
  O  O372  1  0.13443182  0.38758130  0.61906141  1
  O  O373  1  0.13603068  0.87651202  0.12012339  1
  O  O374  1  0.13303996  0.88645861  0.61319002  1
  O  O375  1  0.63170547  0.36759332  0.13356464  1
  O  O376  1  0.63380088  0.38058367  0.62589609  1
  O  O377  1  0.64004616  0.87360494  0.12723603  1
  O  O378  1  0.63045256  0.87075024  0.63861767  1
  O  O379  1  0.11900337  0.25227933  0.25452853  1
  O  O380  1  0.12494725  0.24579506  0.76292963  1
  O  O381  1  0.12354040  0.76752828  0.24647130  1
  O  O382  1  0.11598936  0.74596479  0.74087992  1
  O  O383  1  0.61211285  0.25767741  0.25081718  1
  O  O384  1  0.63151615  0.24945591  0.76341555  1
  O  O385  1  0.62907931  0.75130941  0.26491643  1
  O  O386  1  0.62366442  0.75903544  0.75069958  1
  O  O387  1  0.38406530  0.23686718  0.25398747  1
  O  O388  1  0.37054902  0.23805785  0.74662254  1
  O  O389  1  0.37465868  0.74918300  0.24209128  1
  O  O390  1  0.35398584  0.74519829  0.73827549  1
  O  O391  1  0.88378665  0.24902124  0.24593898  1
  O  O392  1  0.87403539  0.23637598  0.75383546  1
  O  O393  1  0.86556946  0.73354149  0.23707742  1
  O  O394  1  0.87985136  0.74273010  0.74211214  1
  O  O395  1  0.36851245  0.49581218  0.48694149  1
  O  O396  1  0.38098827  0.49012322  0.98996007  1
  O  O397  1  0.38397658  0.99710089  0.48745955  1
  O  O398  1  0.38129398  0.99062176  0.99887218  1
  O  O399  1  0.88546258  0.49313088  0.50504432  1
  O  O400  1  0.87304531  0.50156890  0.98847009  1
  O  O401  1  0.88510448  1.00876400  0.49672467  1
  O  O402  1  0.86410189  0.99118200  0.97718405  1
  O  O403  1  0.12609444  0.01697836  -0.00217430  1
  O  O404  1  0.12978508  0.01352958  0.50770063  1
  O  O405  1  0.13179465  0.50991318  0.00980591  1
  O  O406  1  0.12023163  0.51087897  0.50706104  1
  O  O407  1  0.61740045  0.00123089  0.00191570  1
  O  O408  1  0.61817830  0.00466231  0.49475647  1
  O  O409  1  0.60978187  0.49362103  -0.00482859  1
  O  O410  1  0.62962758  0.50691982  0.50971395  1
  O  O411  1  0.36463125  0.38107268  0.11512060  1
  O  O412  1  0.36197179  0.37552962  0.62777698  1
  O  O413  1  0.36772564  0.86700917  0.11718042  1
  O  O414  1  0.36550770  0.87859942  0.61554280  1
  O  O415  1  0.86766544  0.36477356  0.12356900  1
  O  O416  1  0.86425628  0.38112890  0.61521910  1
  O  O417  1  0.86511723  0.86513133  0.11957573  1
  O  O418  1  0.86313699  0.86379169  0.63437865  1
  O  O419  1  0.12882129  0.12754073  0.38106857  1
  O  O420  1  0.13598742  0.13095328  0.87727945  1
  O  O421  1  0.13967016  0.61857743  0.38283955  1
  O  O422  1  0.13803933  0.61717012  0.88378011  1
  O  O423  1  0.62931834  0.12618156  0.38825818  1
  O  O424  1  0.63258462  0.13030636  0.87736608  1
  O  O425  1  0.63039974  0.62864928  0.38206600  1
  O  O426  1  0.63857039  0.61640720  0.87867082  1
