# generated using pymatgen
data_V85Zn86O256
_symmetry_space_group_name_H-M   'P 1'
_cell_length_a   16.94596824
_cell_length_b   16.95208495
_cell_length_c   16.96339920
_cell_angle_alpha   90.01977676
_cell_angle_beta   89.96908549
_cell_angle_gamma   90.06782975
_symmetry_Int_Tables_number   1
_chemical_formula_structural   V85Zn86O256
_chemical_formula_sum   'V85 Zn86 O256'
_cell_volume   4873.06267485
_cell_formula_units_Z   1
loop_
 _symmetry_equiv_pos_site_id
 _symmetry_equiv_pos_as_xyz
  1  'x, y, z'
loop_
 _atom_site_type_symbol
 _atom_site_label
 _atom_site_symmetry_multiplicity
 _atom_site_fract_x
 _atom_site_fract_y
 _atom_site_fract_z
 _atom_site_occupancy
  V  V0  1  0.49498473  0.36756574  0.86573311  1
  V  V1  1  0.62561813  0.62443567  0.50127991  1
  V  V2  1  0.75533273  0.87645771  0.62337850  1
  V  V3  1  0.75065686  0.23157600  0.50101130  1
  V  V4  1  0.38032872  0.37872408  0.48589282  1
  V  V5  1  0.38073036  0.25266045  0.62999343  1
  V  V6  1  0.13247439  0.24543147  0.87148898  1
  V  V7  1  0.25135413  0.75074262  0.00109161  1
  V  V8  1  0.49814150  0.87246134  0.37769002  1
  V  V9  1  0.75691376  0.37035519  0.62264139  1
  V  V10  1  0.75463482  0.87209206  0.12507138  1
  V  V11  1  0.25727329  0.60951628  0.37947195  1
  V  V12  1  -0.00057158  0.37511592  0.37444603  1
  V  V13  1  0.24211270  0.63026685  0.87466632  1
  V  V14  1  0.87399661  -0.00346984  0.87569259  1
  V  V15  1  0.86950558  0.49634253  0.37749716  1
  V  V16  1  0.73493685  0.48376154  0.23654929  1
  V  V17  1  0.87520141  0.14182884  0.74850563  1
  V  V18  1  0.74902812  0.62076001  0.37862730  1
  V  V19  1  0.49975538  0.62440284  0.62773518  1
  V  V20  1  0.87701883  0.62504588  0.75717900  1
  V  V21  1  0.49822152  0.75607941  0.75754493  1
  V  V22  1  0.37145620  0.87658091  0.49988094  1
  V  V23  1  0.38409024  -0.00857886  0.87780148  1
  V  V24  1  0.25636518  0.87314954  0.12655571  1
  V  V25  1  0.37278273  0.75155717  0.62644930  1
  V  V26  1  0.64146301  0.14476765  0.02780808  1
  V  V27  1  0.00000822  0.62817071  0.12502498  1
  V  V28  1  0.25472733  0.37826076  0.62249661  1
  V  V29  1  0.74781409  0.50227096  0.74921491  1
  V  V30  1  -0.00252752  0.14446761  0.62773822  1
  V  V31  1  0.75121437  0.00242895  0.74764897  1
  V  V32  1  0.00125465  0.50370415  0.50078888  1
  V  V33  1  0.62338100  -0.00714101  0.12620880  1
  V  V34  1  0.62425195  0.00289820  0.61525700  1
  V  V35  1  0.12625218  0.24750467  0.37379221  1
  V  V36  1  0.85843193  0.47027594  0.88761697  1
  V  V37  1  0.61790241  0.63296347  -0.00221817  1
  V  V38  1  0.37009410  0.24777390  0.11763892  1
  V  V39  1  0.12509678  0.37007565  0.74481912  1
  V  V40  1  0.62214633  0.37241301  0.74835527  1
  V  V41  1  0.12285267  0.00185093  0.62617529  1
  V  V42  1  0.74602709  0.12784228  0.87541197  1
  V  V43  1  0.00540623  0.36885524  0.86919740  1
  V  V44  1  0.50144115  -0.01056020  -0.00081498  1
  V  V45  1  0.61692888  0.24126971  0.86655934  1
  V  V46  1  0.13425446  0.37868805  0.24990216  1
  V  V47  1  0.75291922  0.75236330  0.50176438  1
  V  V48  1  0.37427738  0.62555246  0.75169199  1
  V  V49  1  0.12532133  0.73978491  0.38609375  1
  V  V50  1  0.13088408  0.50212980  0.12956080  1
  V  V51  1  -0.00645860  0.87431665  0.38340798  1
  V  V52  1  0.86731151  0.62278940  0.24752132  1
  V  V53  1  -0.00393151  0.24722815  0.24712679  1
  V  V54  1  0.49885955  0.49755998  0.49084913  1
  V  V55  1  0.04229394  -0.03209061  -0.04901487  1
  V  V56  1  0.12366315  0.87371130  0.25449932  1
  V  V57  1  -0.01908377  0.13492857  0.09922520  1
  V  V58  1  -0.00717952  -0.00208609  0.50555484  1
  V  V59  1  0.24151960  0.36903424  0.11205945  1
  V  V60  1  0.87512071  0.12500982  0.25930055  1
  V  V61  1  0.11590234  -0.00056608  0.12679942  1
  V  V62  1  0.49509644  0.11919437  0.13299827  1
  V  V63  1  0.00491657  0.62694064  0.62528106  1
  V  V64  1  0.24824990  0.50369322  0.75025026  1
  V  V65  1  0.37684258  0.50005463  0.88264887  1
  V  V66  1  0.13227187  0.13102110  0.00181425  1
  V  V67  1  0.12501412  0.50447977  0.62429825  1
  V  V68  1  -0.01936815  0.47501580  0.01623915  1
  V  V69  1  0.62220723  0.87823923  0.75392771  1
  V  V70  1  0.75317071  0.75523720  -0.00468809  1
  V  V71  1  0.11845781  0.62704513  -0.00341754  1
  V  V72  1  0.50771144  0.13453444  0.62132439  1
  V  V73  1  0.24579027  0.87687432  0.62879909  1
  V  V74  1  0.25099644  0.00120311  0.25352941  1
  V  V75  1  0.74995403  0.00222973  0.26004354  1
  V  V76  1  0.00668898  0.75852149  0.76548814  1
  V  V77  1  -0.00141958  0.74940545  0.25394001  1
  V  V78  1  0.25501659  0.24909025  0.49788672  1
  V  V79  1  0.62544925  0.86701676  0.25397097  1
  V  V80  1  0.54743921  0.45572713  0.01774661  1
  V  V81  1  0.25615821  0.00825838  0.75103273  1
  V  V82  1  0.50224803  0.26850045  0.25442380  1
  V  V83  1  0.87884881  0.75327950  0.62473431  1
  V  V84  1  0.63279299  0.25007586  0.37471204  1
  Zn  Zn85  1  0.74678829  0.63134250  0.87276784  1
  Zn  Zn86  1  0.62293602  0.74831416  0.37902733  1
  Zn  Zn87  1  0.62467230  0.49811604  0.62690374  1
  Zn  Zn88  1  0.38563959  0.13284337  0.75592427  1
  Zn  Zn89  1  0.86954805  -0.00274075  0.38305046  1
  Zn  Zn90  1  0.49146573  0.74132680  0.25021114  1
  Zn  Zn91  1  0.50139773  0.00492178  0.49665579  1
  Zn  Zn92  1  0.37366827  0.00168066  0.37623565  1
  Zn  Zn93  1  0.12452307  0.12624710  0.50103239  1
  Zn  Zn94  1  0.88282875  0.88057491  -0.00078934  1
  Zn  Zn95  1  0.87468263  0.36777617  0.50629129  1
  Zn  Zn96  1  0.12115423  0.88157854  0.77388081  1
  Zn  Zn97  1  0.87673129  0.75390924  0.12386602  1
  Zn  Zn98  1  0.36450580  0.36658412  -0.00780431  1
  Zn  Zn99  1  0.24382393  0.74437186  0.50537766  1
  Zn  Zn100  1  0.62127894  0.75972240  0.87532795  1
  Zn  Zn101  1  0.37584661  0.74508632  0.12655646  1
  Zn  Zn102  1  0.26654706  0.13340580  0.88793329  1
  Zn  Zn103  1  0.25133312  0.12288325  0.37615093  1
  Zn  Zn104  1  0.36059228  0.61250127  0.24435549  1
  Zn  Zn105  1  0.49498703  0.62263285  0.12228608  1
  Zn  Zn106  1  0.37243066  0.12989459  0.25551617  1
  Zn  Zn107  1  0.18365260  0.18670138  0.18486967  1
  Zn  Zn108  1  0.19124989  0.18799894  0.68443175  1
  Zn  Zn109  1  0.18877339  0.68694759  0.19499279  1
  Zn  Zn110  1  0.18206689  0.69294995  0.69223009  1
  Zn  Zn111  1  0.68493205  0.18494806  0.19899889  1
  Zn  Zn112  1  0.68826211  0.18940035  0.68494250  1
  Zn  Zn113  1  0.65150123  0.65265368  0.20926078  1
  Zn  Zn114  1  0.68577676  0.68983377  0.68806133  1
  Zn  Zn115  1  0.31467978  0.31196641  0.30718390  1
  Zn  Zn116  1  0.30748464  0.31290897  0.80985798  1
  Zn  Zn117  1  0.31211524  0.80450853  0.31172675  1
  Zn  Zn118  1  0.30916874  0.81465239  0.81364200  1
  Zn  Zn119  1  0.81122677  0.31048101  0.31362793  1
  Zn  Zn120  1  0.80213591  0.31511543  0.82915095  1
  Zn  Zn121  1  0.81131943  0.81071938  0.31355960  1
  Zn  Zn122  1  0.81462792  0.81506670  0.80961345  1
  Zn  Zn123  1  0.18481673  0.43491805  0.44087165  1
  Zn  Zn124  1  0.17867465  0.44396469  0.93825176  1
  Zn  Zn125  1  0.18286378  0.93495512  0.44002709  1
  Zn  Zn126  1  0.21096139  0.94103463  0.94017160  1
  Zn  Zn127  1  0.68095152  0.43156014  0.43533528  1
  Zn  Zn128  1  0.69099135  0.42676300  0.94313285  1
  Zn  Zn129  1  0.68803874  0.93307768  0.43891081  1
  Zn  Zn130  1  0.68677070  0.94293643  0.93944495  1
  Zn  Zn131  1  0.31356145  0.05668241  0.06514135  1
  Zn  Zn132  1  0.31741628  0.06617848  0.56346962  1
  Zn  Zn133  1  0.30966993  0.56265463  0.06167362  1
  Zn  Zn134  1  0.31258778  0.56506940  0.55581559  1
  Zn  Zn135  1  0.81230514  0.05804395  0.06319021  1
  Zn  Zn136  1  0.81865443  0.06396894  0.56775138  1
  Zn  Zn137  1  0.80463803  0.56713010  0.06325904  1
  Zn  Zn138  1  0.81628899  0.56222042  0.56737284  1
  Zn  Zn139  1  0.42547651  0.43747992  0.17676697  1
  Zn  Zn140  1  0.43644506  0.44050420  0.68560596  1
  Zn  Zn141  1  0.43701924  0.93223860  0.19231801  1
  Zn  Zn142  1  0.43848658  0.94223089  0.68534981  1
  Zn  Zn143  1  0.93829208  0.44013277  0.19241740  1
  Zn  Zn144  1  0.93553044  0.43740336  0.69338298  1
  Zn  Zn145  1  0.93680258  0.94052419  0.19160318  1
  Zn  Zn146  1  0.93694772  0.94015306  0.69326599  1
  Zn  Zn147  1  0.06021727  0.06300330  0.31414750  1
  Zn  Zn148  1  0.06729887  0.07280686  0.80287940  1
  Zn  Zn149  1  0.06152624  0.56314436  0.31278116  1
  Zn  Zn150  1  0.05444565  0.55614711  0.81750316  1
  Zn  Zn151  1  0.56313827  0.06302670  0.31739343  1
  Zn  Zn152  1  0.55878320  0.06018385  0.80420903  1
  Zn  Zn153  1  0.52684689  0.52993974  0.28269793  1
  Zn  Zn154  1  0.56329542  0.56206349  0.82183142  1
  Zn  Zn155  1  0.44099070  0.18640764  0.43509021  1
  Zn  Zn156  1  0.44955446  0.18176673  0.94245602  1
  Zn  Zn157  1  0.43499840  0.68898337  0.43787775  1
  Zn  Zn158  1  0.43306825  0.69179181  0.93730486  1
  Zn  Zn159  1  0.93604198  0.18634069  0.43948977  1
  Zn  Zn160  1  0.95413394  0.17134606  0.92397554  1
  Zn  Zn161  1  0.93632364  0.68498374  0.44033302  1
  Zn  Zn162  1  0.93386202  0.68699425  0.94109572  1
  Zn  Zn163  1  -0.04733160  0.30562898  0.05714092  1
  Zn  Zn164  1  0.06607419  0.31885258  0.55705795  1
  Zn  Zn165  1  0.06880915  0.81043543  0.06391009  1
  Zn  Zn166  1  0.06150115  0.81550449  0.56652952  1
  Zn  Zn167  1  0.58478640  0.29298736  0.07856206  1
  Zn  Zn168  1  0.57076679  0.31346720  0.55541738  1
  Zn  Zn169  1  0.56122810  0.80800324  0.06653150  1
  Zn  Zn170  1  0.56268722  0.81345563  0.56609507  1
  O  O171  1  0.11481880  0.12132795  0.11327050  1
  O  O172  1  0.11363989  0.12048591  0.62589890  1
  O  O173  1  0.11927911  0.62043386  0.12223268  1
  O  O174  1  0.11215233  0.62238377  0.63193061  1
  O  O175  1  0.61553239  0.10368088  0.13577900  1
  O  O176  1  0.61628790  0.11898916  0.62549123  1
  O  O177  1  0.62985083  0.62175715  0.09837229  1
  O  O178  1  0.61706775  0.62549481  0.61796365  1
  O  O179  1  0.37015109  0.37302205  0.38728819  1
  O  O180  1  0.37868811  0.38140439  0.86982369  1
  O  O181  1  0.37932561  0.87346579  0.38425174  1
  O  O182  1  0.37164450  0.89199439  0.87303520  1
  O  O183  1  0.88026164  0.38649236  0.37393802  1
  O  O184  1  0.90317765  0.37389897  0.83957404  1
  O  O185  1  0.88958412  0.87366214  0.37285914  1
  O  O186  1  0.87207433  0.89233354  0.87222007  1
  O  O187  1  0.24572396  0.00003121  0.36758213  1
  O  O188  1  0.26711678  0.00918529  0.86817985  1
  O  O189  1  0.24460266  0.51060864  0.38200896  1
  O  O190  1  0.25239876  0.51022403  0.86929729  1
  O  O191  1  0.74986931  -0.00648453  0.36462689  1
  O  O192  1  0.75368697  0.01033636  0.86811221  1
  O  O193  1  0.75567115  0.50197485  0.37389514  1
  O  O194  1  0.75376998  0.51100449  0.86113533  1
  O  O195  1  0.23602874  0.49222546  0.12003910  1
  O  O196  1  0.24502507  0.49934864  0.62849102  1
  O  O197  1  0.24018827  0.99213548  0.13315691  1
  O  O198  1  0.24605969  0.99660665  0.63125520  1
  O  O199  1  0.75274227  0.50019828  0.13825086  1
  O  O200  1  0.75025955  0.49448252  0.63675254  1
  O  O201  1  0.74154592  0.98992213  0.13331716  1
  O  O202  1  0.74663228  0.99355121  0.62698325  1
  O  O203  1  0.00595258  0.36690026  0.25622557  1
  O  O204  1  0.02068227  0.38198225  0.74790846  1
  O  O205  1  0.00431498  0.86863912  0.25859126  1
  O  O206  1  0.00182992  0.86247156  0.74846381  1
  O  O207  1  0.50240925  0.36510551  0.23601956  1
  O  O208  1  0.51303772  0.38370278  0.75228888  1
  O  O209  1  0.50858530  0.87034297  0.25962664  1
  O  O210  1  0.50952266  0.86716804  0.73762429  1
  O  O211  1  0.49517941  0.12032136  0.24032034  1
  O  O212  1  0.49934999  0.12221517  0.72820821  1
  O  O213  1  0.53968806  0.63359820  0.23511704  1
  O  O214  1  0.49507746  0.63143485  0.74542679  1
  O  O215  1  0.99376897  0.13184364  0.24686845  1
  O  O216  1  0.99277459  0.12996871  0.73590375  1
  O  O217  1  0.98988330  0.62940771  0.24487825  1
  O  O218  1  0.99522978  0.63342810  0.74730404  1
  O  O219  1  0.38230088  0.24685765  0.01393258  1
  O  O220  1  0.37122981  0.25876248  0.50651377  1
  O  O221  1  0.35561844  0.74387698  0.00276184  1
  O  O222  1  0.37179765  0.76109878  0.50939426  1
  O  O223  1  0.92134511  0.20246208  0.02789364  1
  O  O224  1  0.85647453  0.25245925  0.48892524  1
  O  O225  1  0.86832939  0.75877444  0.00279792  1
  O  O226  1  0.86894876  0.74233896  0.51681756  1
  O  O227  1  0.13563938  0.25278931  0.49075300  1
  O  O228  1  0.12177695  0.23007727  0.99289521  1
  O  O229  1  0.12151149  0.75302698  0.48913675  1
  O  O230  1  0.13102225  0.73420681  1.00331927  1
  O  O231  1  0.64120768  0.24813810  0.49228869  1
  O  O232  1  0.59867307  0.23414060  0.97383484  1
  O  O233  1  0.63494732  0.74288436  0.50512448  1
  O  O234  1  0.63269398  0.74723749  0.99569390  1
  O  O235  1  0.49820174  0.23836994  0.13558871  1
  O  O236  1  0.49743341  0.24277947  0.61748846  1
  O  O237  1  0.49375112  0.74772109  0.12927576  1
  O  O238  1  0.49414834  0.74058014  0.63223143  1
  O  O239  1  1.00849738  0.24066653  0.14148886  1
  O  O240  1  1.00433889  0.24240750  0.61843862  1
  O  O241  1  1.00023324  0.74152674  0.13205167  1
  O  O242  1  0.99514934  0.74491687  0.63221647  1
  O  O243  1  0.00721588  0.25395186  0.36939657  1
  O  O244  1  0.01899412  0.25429523  0.87314801  1
  O  O245  1  0.00620388  0.75324961  0.37566666  1
  O  O246  1  -0.00575668  0.75004972  0.86311131  1
  O  O247  1  0.49270068  0.25448070  0.35649794  1
  O  O248  1  0.49734919  0.26062568  0.86466555  1
  O  O249  1  0.50212816  0.75960512  0.37464275  1
  O  O250  1  0.49563873  0.75314414  0.86056391  1
  O  O251  1  0.24842637  0.13883057  0.50194797  1
  O  O252  1  0.23713806  0.11817683  1.00295369  1
  O  O253  1  0.24635472  0.62868321  0.48819342  1
  O  O254  1  0.23767869  0.62687791  0.99221737  1
  O  O255  1  0.75330453  0.13283879  0.50380886  1
  O  O256  1  0.73878804  0.11572166  0.99158075  1
  O  O257  1  0.74479189  0.63133928  0.50323871  1
  O  O258  1  0.74460640  0.63985177  0.99501495  1
  O  O259  1  0.24122186  0.37478721  0.00875282  1
  O  O260  1  0.25775163  0.36760955  0.50441667  1
  O  O261  1  0.24099946  0.86195984  0.01311817  1
  O  O262  1  0.25431585  0.87269096  0.51067820  1
  O  O263  1  0.79549619  0.38855661  -0.06977721  1
  O  O264  1  0.75195657  0.37519331  0.51131698  1
  O  O265  1  0.75014672  0.87269207  0.00742289  1
  O  O266  1  0.74884057  0.86116857  0.50785057  1
  O  O267  1  0.11638711  0.49043343  0.24236710  1
  O  O268  1  0.13040375  0.49606227  0.74394373  1
  O  O269  1  0.13138776  0.99570329  0.24582968  1
  O  O270  1  0.13342848  1.00113352  0.73903456  1
  O  O271  1  0.63585173  0.49484446  0.25086526  1
  O  O272  1  0.63240898  0.49606708  0.75050218  1
  O  O273  1  0.63084382  0.98815034  0.24761167  1
  O  O274  1  0.63122430  0.99469037  0.73695105  1
  O  O275  1  0.35933372  -0.00340833  0.25169381  1
  O  O276  1  0.37239686  0.00272457  0.75900582  1
  O  O277  1  0.41645267  0.51346859  0.25457240  1
  O  O278  1  0.36849712  0.50668826  0.75880173  1
  O  O279  1  0.86586561  0.00400411  0.25746422  1
  O  O280  1  0.86768531  0.01020432  0.75469854  1
  O  O281  1  0.87133383  0.50912517  0.25888940  1
  O  O282  1  0.86806415  0.50667416  0.76169437  1
  O  O283  1  0.12015291  0.36679943  0.36928418  1
  O  O284  1  0.12295471  0.37003433  0.86428893  1
  O  O285  1  0.11401559  0.86542179  0.37247967  1
  O  O286  1  0.11231119  0.91414603  0.88629973  1
  O  O287  1  0.61723090  0.35231404  0.38404048  1
  O  O288  1  0.61592776  0.36500903  0.86792544  1
  O  O289  1  0.61713078  0.87110261  0.37109313  1
  O  O290  1  0.62970363  0.88027587  0.85810706  1
  O  O291  1  0.37980760  0.12887732  0.12835804  1
  O  O292  1  0.38543200  0.13642969  0.62705216  1
  O  O293  1  0.37601814  0.62358272  0.12620594  1
  O  O294  1  0.38025689  0.63101199  0.63133628  1
  O  O295  1  0.88708527  0.10592283  0.13908361  1
  O  O296  1  0.88941146  0.12693026  0.63311443  1
  O  O297  1  0.88138870  0.62700606  0.13297524  1
  O  O298  1  0.88545068  0.63071406  0.63766097  1
  O  O299  1  0.25658283  0.25714998  0.12874271  1
  O  O300  1  0.25886391  0.25651862  0.61561939  1
  O  O301  1  0.24481355  0.75715664  0.12015189  1
  O  O302  1  0.25214151  0.75989782  0.62768782  1
  O  O303  1  0.68125630  0.22649148  0.09344387  1
  O  O304  1  0.74645904  0.25540454  0.60978910  1
  O  O305  1  0.75175121  0.76568871  0.11440154  1
  O  O306  1  0.75836699  0.75675270  0.62247073  1
  O  O307  1  0.24370113  0.25023854  0.38058548  1
  O  O308  1  0.24020659  0.24897149  0.87613517  1
  O  O309  1  0.23268349  0.74989636  0.38024226  1
  O  O310  1  0.25047914  0.73847650  0.88083394  1
  O  O311  1  0.74090739  0.24779158  0.38173204  1
  O  O312  1  0.73507304  0.23438155  0.87760557  1
  O  O313  1  0.75287815  0.74171069  0.38779977  1
  O  O314  1  0.74994866  0.75594837  0.88450631  1
  O  O315  1  0.02168385  0.09511994  -0.00492698  1
  O  O316  1  0.00125350  0.11986671  0.51300193  1
  O  O317  1  0.00265889  0.62376421  0.00994185  1
  O  O318  1  -0.00531485  0.61624178  0.51273919  1
  O  O319  1  0.51378915  0.11555760  0.01906255  1
  O  O320  1  0.49374718  0.12133819  0.51541656  1
  O  O321  1  0.51321100  0.63533719  -0.00293291  1
  O  O322  1  0.50527035  0.62043043  0.50809480  1
  O  O323  1  0.49531551  0.39012244  0.50890430  1
  O  O324  1  0.48863773  0.37360504  0.98560985  1
  O  O325  1  0.49123351  0.87470108  0.49583859  1
  O  O326  1  0.51338107  0.89045007  1.00120013  1
  O  O327  1  0.99384203  0.38208682  0.49309906  1
  O  O328  1  1.01367958  0.37544718  0.98182425  1
  O  O329  1  1.00400848  0.88492502  0.49580061  1
  O  O330  1  1.00333485  0.88747013  1.00490066  1
  O  O331  1  0.50908669  0.50419829  0.39412998  1
  O  O332  1  0.49214192  0.48714715  0.88145146  1
  O  O333  1  0.49804700  0.98575992  0.37776960  1
  O  O334  1  0.49257755  1.00383083  0.88207546  1
  O  O335  1  0.99273220  0.49797180  0.38328162  1
  O  O336  1  0.98844129  0.48663134  0.88766039  1
  O  O337  1  1.00357710  0.99118600  0.38763777  1
  O  O338  1  0.98932321  1.01133390  0.86709618  1
  O  O339  1  0.01258886  0.00808897  0.13241778  1
  O  O340  1  0.00739947  0.00283837  0.62238055  1
  O  O341  1  0.00966496  0.51561103  0.12480172  1
  O  O342  1  0.00170173  0.50795767  0.62092924  1
  O  O343  1  0.50348443  -0.00099420  0.12183752  1
  O  O344  1  0.50920698  0.00826876  0.62018026  1
  O  O345  1  0.50150349  0.49565117  0.09844983  1
  O  O346  1  0.50077919  0.51514493  0.62256780  1
  O  O347  1  0.23764001  0.37170819  0.24266310  1
  O  O348  1  0.24298102  0.38435488  0.74217182  1
  O  O349  1  0.24124227  0.87892347  0.24651822  1
  O  O350  1  0.24431121  0.88765643  0.74700643  1
  O  O351  1  0.75558501  0.38525804  0.24857284  1
  O  O352  1  0.73912131  0.38269818  0.74816196  1
  O  O353  1  0.74651682  0.88113940  0.24472381  1
  O  O354  1  0.74403663  0.88063169  0.74081735  1
  O  O355  1  0.24828524  0.11469305  0.25015780  1
  O  O356  1  0.25616683  0.11452787  0.74706365  1
  O  O357  1  0.24430787  0.62384709  0.27191880  1
  O  O358  1  0.25246999  0.62452829  0.75740181  1
  O  O359  1  0.75981530  0.11425481  0.24540082  1
  O  O360  1  0.75528522  0.12055487  0.75393927  1
  O  O361  1  0.75247419  0.61570960  0.25781481  1
  O  O362  1  0.75832844  0.62012517  0.74596475  1
  O  O363  1  0.37034815  0.12009998  0.37304849  1
  O  O364  1  0.38136294  0.11890127  0.87290921  1
  O  O365  1  0.35932237  0.62573532  0.37968075  1
  O  O366  1  0.36728699  0.61831786  0.87018305  1
  O  O367  1  0.88246586  0.11712962  0.36339820  1
  O  O368  1  0.86623803  0.11946240  0.86676714  1
  O  O369  1  0.86988801  0.61445195  0.37005273  1
  O  O370  1  0.87215312  0.62943497  0.86197197  1
  O  O371  1  0.12862990  0.38427695  0.13510727  1
  O  O372  1  0.13442910  0.38146308  0.62804851  1
  O  O373  1  0.12850394  0.88261214  0.13542602  1
  O  O374  1  0.13546609  0.88355628  0.62670752  1
  O  O375  1  0.62541915  0.39678599  0.05222099  1
  O  O376  1  0.63529050  0.37615699  0.63294188  1
  O  O377  1  0.63084609  0.87994584  0.13419856  1
  O  O378  1  0.63585370  0.88111417  0.63152604  1
  O  O379  1  0.11937926  0.25629902  0.25832441  1
  O  O380  1  0.13459054  0.25894476  0.75577373  1
  O  O381  1  0.11614863  0.75387315  0.26260091  1
  O  O382  1  0.11174713  0.75877140  0.75565155  1
  O  O383  1  0.61247385  0.25039396  0.25978361  1
  O  O384  1  0.62798688  0.25891266  0.75686877  1
  O  O385  1  0.63709901  0.76342075  0.25525230  1
  O  O386  1  0.61596792  0.76035485  0.74846295  1
  O  O387  1  0.38548109  0.25089072  0.23725002  1
  O  O388  1  0.37025588  0.25337434  0.73340657  1
  O  O389  1  0.37384927  0.73547110  0.24852729  1
  O  O390  1  0.37919763  0.74740881  0.74523571  1
  O  O391  1  0.88338878  0.24067425  0.25367530  1
  O  O392  1  0.86260143  0.23944492  0.75811241  1
  O  O393  1  0.87775516  0.73667744  0.25047126  1
  O  O394  1  0.88317147  0.74529726  0.74179478  1
  O  O395  1  0.38960531  0.49373827  0.50553093  1
  O  O396  1  0.36330873  0.49398456  0.98452084  1
  O  O397  1  0.37415998  0.98647525  0.50084737  1
  O  O398  1  0.38499572  1.00331852  0.98832959  1
  O  O399  1  0.88303681  0.49864982  0.49401759  1
  O  O400  1  0.87964986  0.51797936  0.98538341  1
  O  O401  1  0.88794542  1.00114549  0.50127979  1
  O  O402  1  0.87446993  1.00048301  0.98584893  1
  O  O403  1  0.13288446  0.00195773  0.01046018  1
  O  O404  1  0.11892765  0.00379884  0.51319559  1
  O  O405  1  0.10946515  0.50789063  0.01083611  1
  O  O406  1  0.10934670  0.49317645  0.50851294  1
  O  O407  1  0.62266939  0.00900220  0.01293252  1
  O  O408  1  0.62569492  -0.00552121  0.51212603  1
  O  O409  1  0.62122641  0.51911934  -0.02839584  1
  O  O410  1  0.61682059  0.50676481  0.50719176  1
  O  O411  1  0.35974059  0.36708666  0.11765952  1
  O  O412  1  0.37155771  0.37106577  0.61807584  1
  O  O413  1  0.35895878  0.87349992  0.12959127  1
  O  O414  1  0.36353955  0.87306985  0.62222683  1
  O  O415  1  0.91723569  0.40797584  0.08601425  1
  O  O416  1  0.86128826  0.37711438  0.63002815  1
  O  O417  1  0.86801619  0.87676398  0.12421964  1
  O  O418  1  0.86440668  0.86800918  0.63192817  1
  O  O419  1  0.12539907  0.13761997  0.37855922  1
  O  O420  1  0.13229289  0.12963150  0.88072215  1
  O  O421  1  0.12476881  0.63696086  0.37563562  1
  O  O422  1  0.12965272  0.61574601  0.88448321  1
  O  O423  1  0.60674614  0.14898872  0.37721862  1
  O  O424  1  0.63081898  0.12736103  0.86553286  1
  O  O425  1  0.63321871  0.62856896  0.39404568  1
  O  O426  1  0.62702725  0.63955086  0.87979620  1
