# generated using pymatgen
data_V85Zn86O256
_symmetry_space_group_name_H-M   'P 1'
_cell_length_a   16.93621654
_cell_length_b   16.92982292
_cell_length_c   16.93971919
_cell_angle_alpha   89.96558720
_cell_angle_beta   90.03611777
_cell_angle_gamma   89.98898654
_symmetry_Int_Tables_number   1
_chemical_formula_structural   V85Zn86O256
_chemical_formula_sum   'V85 Zn86 O256'
_cell_volume   4857.07542493
_cell_formula_units_Z   1
loop_
 _symmetry_equiv_pos_site_id
 _symmetry_equiv_pos_as_xyz
  1  'x, y, z'
loop_
 _atom_site_type_symbol
 _atom_site_label
 _atom_site_symmetry_multiplicity
 _atom_site_fract_x
 _atom_site_fract_y
 _atom_site_fract_z
 _atom_site_occupancy
  V  V0  1  0.37772616  0.49827249  0.87558743  1
  V  V1  1  0.37209345  0.24483949  0.62096435  1
  V  V2  1  0.74436014  0.63287559  0.37707820  1
  V  V3  1  0.62187694  0.50509193  0.62828573  1
  V  V4  1  0.87298639  0.62381774  0.25464130  1
  V  V5  1  0.49844045  0.37555014  0.37553194  1
  V  V6  1  0.49552881  -0.00359378  0.49923135  1
  V  V7  1  -0.00896335  0.49874962  0.50401803  1
  V  V8  1  0.01042039  0.87517884  0.37188639  1
  V  V9  1  0.87691776  0.11663951  0.75187349  1
  V  V10  1  0.76010201  0.50074718  0.75609852  1
  V  V11  1  0.37863537  0.00406843  0.36583403  1
  V  V12  1  0.37175139  0.37085804  0.49886282  1
  V  V13  1  0.12350717  0.50328423  0.12005904  1
  V  V14  1  0.62116434  0.74907130  0.87298561  1
  V  V15  1  0.62801933  0.12575469  0.50070478  1
  V  V16  1  0.74857290  0.37520977  0.12476807  1
  V  V17  1  0.62336388  0.37192703  0.24976089  1
  V  V18  1  0.63878497  -0.00362537  0.62416357  1
  V  V19  1  0.24798522  0.74272953  0.49551887  1
  V  V20  1  -0.00430369  0.49963922  -0.00932137  1
  V  V21  1  -0.01116825  0.37326519  0.37941516  1
  V  V22  1  0.87372969  0.75300478  0.12642638  1
  V  V23  1  0.25298251  0.37171558  0.62312327  1
  V  V24  1  0.12905760  0.37495574  0.74845022  1
  V  V25  1  0.50317167  0.36673200  0.87703201  1
  V  V26  1  0.23800886  -0.00183414  0.74674871  1
  V  V27  1  0.62642716  0.36869023  0.75113628  1
  V  V28  1  0.00239479  0.12566569  0.11987953  1
  V  V29  1  0.25127893  0.24338789  0.00740220  1
  V  V30  1  0.25012595  0.75313492  0.00021275  1
  V  V31  1  0.48267454  0.24530762  0.24644319  1
  V  V32  1  0.50210652  0.24549205  0.75327689  1
  V  V33  1  0.87140068  0.37908110  -0.00573755  1
  V  V34  1  0.37293864  0.62644555  0.25743945  1
  V  V35  1  -0.00239759  0.37869413  0.87465758  1
  V  V36  1  0.62185787  0.63138987  0.50069917  1
  V  V37  1  0.62173024  0.86324945  0.25325929  1
  V  V38  1  0.12679957  0.24939937  0.88038399  1
  V  V39  1  0.50098692  0.86299135  0.37541695  1
  V  V40  1  0.49838537  0.49906205  0.00192919  1
  V  V41  1  0.50059725  0.62845776  0.13284012  1
  V  V42  1  0.50246981  0.12091618  0.62615434  1
  V  V43  1  0.74968193  0.87892796  0.12401611  1
  V  V44  1  0.24496521  0.50562614  0.25842737  1
  V  V45  1  0.61820361  0.00270732  0.12277640  1
  V  V46  1  0.12026868  0.84675833  0.75696633  1
  V  V47  1  0.37321981  0.11834106  0.75261469  1
  V  V48  1  0.87430168  0.74576406  0.64103034  1
  V  V49  1  -0.00025422  0.25511925  0.74547173  1
  V  V50  1  0.13190454  0.25234422  0.37633117  1
  V  V51  1  0.87670903  0.25268815  0.61753353  1
  V  V52  1  0.75881642  0.37836315  0.61883571  1
  V  V53  1  0.62491095  0.24914815  0.37449762  1
  V  V54  1  0.63000488  0.87457408  0.74608035  1
  V  V55  1  -0.00259851  0.62270766  0.12818774  1
  V  V56  1  0.11964385  -0.00278952  0.12851005  1
  V  V57  1  0.88652799  0.88831648  -0.01119212  1
  V  V58  1  0.25430840  0.37708540  0.12293892  1
  V  V59  1  0.24407392  0.87789950  0.61792878  1
  V  V60  1  0.00847754  0.75365712  0.25025621  1
  V  V61  1  0.62290521  0.49878364  0.12703124  1
  V  V62  1  0.62056638  0.13034114  -0.00266365  1
  V  V63  1  0.74815195  0.75321830  -0.00049645  1
  V  V64  1  0.10241018  0.64577018  -0.02606654  1
  V  V65  1  0.24532376  0.87405982  0.13934119  1
  V  V66  1  0.38458264  0.62725447  0.74474800  1
  V  V67  1  0.87743245  -0.00241916  0.37499251  1
  V  V68  1  0.37860953  0.75051019  0.13058647  1
  V  V69  1  0.00592343  -0.00064668  0.50591360  1
  V  V70  1  0.87388691  0.12341684  0.24826024  1
  V  V71  1  0.49996335  0.88277168  0.87834470  1
  V  V72  1  0.48295813  0.12253803  0.12436099  1
  V  V73  1  0.75142538  0.12554321  0.37566832  1
  V  V74  1  0.13517751  0.12383959  0.49976856  1
  V  V75  1  0.86961182  0.87075998  0.50605685  1
  V  V76  1  0.25357461  0.49751443  0.74987912  1
  V  V77  1  0.12715317  0.50532742  0.62148616  1
  V  V78  1  0.37505905  0.88180375  0.00169967  1
  V  V79  1  0.38070974  0.75507381  0.61921852  1
  V  V80  1  0.62428883  0.62486175  0.00022097  1
  V  V81  1  0.75956354  0.62245023  0.87274483  1
  V  V82  1  0.25444314  0.62875504  0.87775526  1
  V  V83  1  0.87208655  0.25090059  0.12381598  1
  V  V84  1  0.49833142  0.50391063  0.50416437  1
  Zn  Zn85  1  0.74891881  0.49980768  0.25417396  1
  Zn  Zn86  1  0.74651031  0.75424632  0.50397305  1
  Zn  Zn87  1  0.36951116  0.50491341  0.37964021  1
  Zn  Zn88  1  0.86909697  0.49914506  0.38338721  1
  Zn  Zn89  1  0.06976576  0.07559349  -0.03557362  1
  Zn  Zn90  1  0.74149661  0.25415912  -0.01248328  1
  Zn  Zn91  1  -0.00042333  0.25246253  0.25069921  1
  Zn  Zn92  1  0.00544569  0.12330328  0.62156428  1
  Zn  Zn93  1  0.26389513  0.13861031  0.37124682  1
  Zn  Zn94  1  0.12116043  0.37659937  0.24900688  1
  Zn  Zn95  1  0.24557518  0.12090359  0.87760306  1
  Zn  Zn96  1  0.37512700  0.37116779  0.00355785  1
  Zn  Zn97  1  -0.00006728  0.63649151  0.62603360  1
  Zn  Zn98  1  0.24710723  0.00981916  0.25415266  1
  Zn  Zn99  1  0.75399779  0.25663885  0.49653372  1
  Zn  Zn100  1  0.13649571  0.74728481  0.36432319  1
  Zn  Zn101  1  0.50271142  0.74794025  0.74522997  1
  Zn  Zn102  1  0.36902077  -0.00150374  0.87767902  1
  Zn  Zn103  1  0.74658773  -0.00152542  0.25218353  1
  Zn  Zn104  1  0.76176854  -0.00867851  0.75569688  1
  Zn  Zn105  1  0.74984529  0.12558705  0.87414445  1
  Zn  Zn106  1  0.12690214  0.61923137  0.48457191  1
  Zn  Zn107  1  0.18718305  0.18508541  0.19251691  1
  Zn  Zn108  1  0.18866783  0.18637969  0.68560690  1
  Zn  Zn109  1  0.18689307  0.68371471  0.18250686  1
  Zn  Zn110  1  0.20011280  0.68334277  0.68219838  1
  Zn  Zn111  1  0.68563821  0.18687267  0.18440135  1
  Zn  Zn112  1  0.69216584  0.18833218  0.68696831  1
  Zn  Zn113  1  0.68846565  0.68846801  0.18862280  1
  Zn  Zn114  1  0.69503748  0.68875285  0.68523742  1
  Zn  Zn115  1  0.30771770  0.32114849  0.31098129  1
  Zn  Zn116  1  0.31533374  0.30750660  0.81494653  1
  Zn  Zn117  1  0.32287707  0.81476778  0.31570937  1
  Zn  Zn118  1  0.30996755  0.81428503  0.81072201  1
  Zn  Zn119  1  0.81135607  0.31104398  0.31015593  1
  Zn  Zn120  1  0.81167277  0.30760889  0.81139954  1
  Zn  Zn121  1  0.81408134  0.81190948  0.31530673  1
  Zn  Zn122  1  0.81059072  0.81308307  0.81598199  1
  Zn  Zn123  1  0.18475609  0.43340769  0.43847319  1
  Zn  Zn124  1  0.18531477  0.43932966  0.93883508  1
  Zn  Zn125  1  0.19089828  0.93643096  0.43695761  1
  Zn  Zn126  1  0.15455191  0.94591953  0.91966907  1
  Zn  Zn127  1  0.68594751  0.44371014  0.43713476  1
  Zn  Zn128  1  0.68495652  0.43701657  0.93623490  1
  Zn  Zn129  1  0.68696024  0.93908027  0.43531872  1
  Zn  Zn130  1  0.68939841  0.94479194  0.93716871  1
  Zn  Zn131  1  0.30064294  0.05823875  0.06431231  1
  Zn  Zn132  1  0.31402703  0.05846488  0.55754284  1
  Zn  Zn133  1  0.31140896  0.56433795  0.06321040  1
  Zn  Zn134  1  0.31539642  0.56469468  0.56447245  1
  Zn  Zn135  1  0.80796780  0.06198618  0.05945314  1
  Zn  Zn136  1  0.81800047  0.06476627  0.56251112  1
  Zn  Zn137  1  0.81034500  0.56212892  0.06421171  1
  Zn  Zn138  1  0.81101563  0.56677765  0.56635159  1
  Zn  Zn139  1  0.43419153  0.43953989  0.19050459  1
  Zn  Zn140  1  0.44002271  0.43510017  0.68768215  1
  Zn  Zn141  1  0.43990383  0.93527273  0.18894979  1
  Zn  Zn142  1  0.43972232  0.93411990  0.68817314  1
  Zn  Zn143  1  0.93788440  0.43761642  0.18957130  1
  Zn  Zn144  1  0.96913248  0.48725670  0.72422250  1
  Zn  Zn145  1  0.93856498  0.93902405  0.18512925  1
  Zn  Zn146  1  0.94647914  0.93017733  0.68601794  1
  Zn  Zn147  1  0.06414718  0.06479808  0.31009849  1
  Zn  Zn148  1  0.05875094  0.05980980  0.79846059  1
  Zn  Zn149  1  0.06153769  0.56274428  0.31610400  1
  Zn  Zn150  1  0.05806677  0.65849994  0.80123920  1
  Zn  Zn151  1  0.56173526  0.06126727  0.30810795  1
  Zn  Zn152  1  0.56554463  0.05665587  0.81309040  1
  Zn  Zn153  1  0.56088371  0.56239758  0.31662962  1
  Zn  Zn154  1  0.56580021  0.56004887  0.81260429  1
  Zn  Zn155  1  0.44257946  0.18624060  0.43820118  1
  Zn  Zn156  1  0.43286984  0.18481922  0.94052665  1
  Zn  Zn157  1  0.43646069  0.68756129  0.44232865  1
  Zn  Zn158  1  0.43779741  0.69003753  0.94105453  1
  Zn  Zn159  1  0.94168631  0.18621335  0.43779504  1
  Zn  Zn160  1  0.92988598  0.19687889  0.93281603  1
  Zn  Zn161  1  0.94274988  0.68634613  0.43854924  1
  Zn  Zn162  1  0.93205471  0.69607096  0.94099045  1
  Zn  Zn163  1  0.06265556  0.31261769  0.06383532  1
  Zn  Zn164  1  0.06520331  0.31433078  0.55840167  1
  Zn  Zn165  1  0.06184833  0.81614802  0.06578391  1
  Zn  Zn166  1  0.06228821  0.81167431  0.56252900  1
  Zn  Zn167  1  0.55630651  0.30785255  0.06635209  1
  Zn  Zn168  1  0.56238059  0.31380670  0.56524700  1
  Zn  Zn169  1  0.56074410  0.81356710  0.06295631  1
  Zn  Zn170  1  0.56237875  0.81541524  0.56252124  1
  O  O171  1  0.11171993  0.11914336  0.12842560  1
  O  O172  1  0.12502609  0.13466844  0.60425467  1
  O  O173  1  0.11620562  0.61578445  0.11642639  1
  O  O174  1  0.13357805  0.61059318  0.61920037  1
  O  O175  1  0.61493753  0.11865940  0.12178509  1
  O  O176  1  0.62141449  0.11799019  0.62170969  1
  O  O177  1  0.61810714  0.62053191  0.12291859  1
  O  O178  1  0.63070672  0.61124962  0.62092128  1
  O  O179  1  0.38012702  0.37746064  0.38365193  1
  O  O180  1  0.38595784  0.38218197  0.87404205  1
  O  O181  1  0.39514732  0.88485646  0.37260229  1
  O  O182  1  0.38151111  0.87203011  0.88352691  1
  O  O183  1  0.88465612  0.37701578  0.37212362  1
  O  O184  1  0.88115121  0.37015240  0.88501993  1
  O  O185  1  0.88270187  0.88163554  0.38247889  1
  O  O186  1  0.87169517  0.87251588  0.88992973  1
  O  O187  1  0.27137205  -0.00999892  0.37515064  1
  O  O188  1  0.24733771  0.00038611  0.86193894  1
  O  O189  1  0.24869680  0.49418037  0.36183898  1
  O  O190  1  0.26454676  0.50130754  0.87258070  1
  O  O191  1  0.75886183  0.00771963  0.37350683  1
  O  O192  1  0.73770016  0.01339940  0.86523062  1
  O  O193  1  0.75211273  0.51140688  0.37306572  1
  O  O194  1  0.74311187  0.50636724  0.86410932  1
  O  O195  1  0.24064661  0.49643624  0.12752875  1
  O  O196  1  0.24889230  0.49195063  0.62865300  1
  O  O197  1  0.24406198  0.98983713  0.13524025  1
  O  O198  1  0.26003411  0.98273122  0.62699292  1
  O  O199  1  0.73955668  0.49401067  0.12902060  1
  O  O200  1  0.74519117  0.49259888  0.63480448  1
  O  O201  1  0.74138084  0.98962854  0.12756856  1
  O  O202  1  0.74101979  1.00319334  0.62690316  1
  O  O203  1  0.00173282  0.37662502  0.26414299  1
  O  O204  1  0.00828434  0.37597214  0.75588373  1
  O  O205  1  -0.00938515  0.86470972  0.25838333  1
  O  O206  1  0.02412413  0.87526393  0.74823195  1
  O  O207  1  0.50346933  0.36451939  0.25183219  1
  O  O208  1  0.50693035  0.36770654  0.75678869  1
  O  O209  1  0.51228106  0.87684987  0.26060304  1
  O  O210  1  0.50960586  0.87018972  0.75941089  1
  O  O211  1  0.50110898  0.13797254  0.24086125  1
  O  O212  1  0.49456028  0.12550432  0.74542816  1
  O  O213  1  0.49294294  0.61748860  0.23884167  1
  O  O214  1  0.48846288  0.62561914  0.75594618  1
  O  O215  1  0.98701623  0.12678581  0.24081956  1
  O  O216  1  0.99510817  0.13611408  0.74133581  1
  O  O217  1  0.99051910  0.63115491  0.24617819  1
  O  O218  1  1.00458725  0.59456539  0.73204894  1
  O  O219  1  0.35574804  0.25394305  -0.00337772  1
  O  O220  1  0.38420456  0.25803088  0.50876620  1
  O  O221  1  0.36887620  0.75340215  0.01255725  1
  O  O222  1  0.36706921  0.74801529  0.51247114  1
  O  O223  1  0.87044622  0.26275258  0.00786274  1
  O  O224  1  0.87597973  0.24684785  0.51302895  1
  O  O225  1  0.86482295  0.75904843  0.00891779  1
  O  O226  1  0.87485778  0.76479904  0.49677308  1
  O  O227  1  0.11920935  0.23921070  0.48634389  1
  O  O228  1  0.13494905  0.25867492  0.99076150  1
  O  O229  1  0.14075676  0.74717093  0.50219253  1
  O  O230  1  0.13587454  0.74103050  1.01402209  1
  O  O231  1  0.62367699  0.24347172  0.49390648  1
  O  O232  1  0.62457059  0.23541646  1.00976096  1
  O  O233  1  0.62530226  0.73516527  0.51019295  1
  O  O234  1  0.62939551  0.74551777  0.99360560  1
  O  O235  1  0.49536259  0.24017888  0.13833114  1
  O  O236  1  0.49132366  0.24381450  0.63289225  1
  O  O237  1  0.49183904  0.73993351  0.12164172  1
  O  O238  1  0.48490969  0.75564447  0.62478743  1
  O  O239  1  0.98880381  0.24690997  0.12823611  1
  O  O240  1  0.99511660  0.25775608  0.63352322  1
  O  O241  1  0.99226675  0.74478260  0.13193336  1
  O  O242  1  0.98211603  0.75245739  0.61847234  1
  O  O243  1  0.00345894  0.26135811  0.37424192  1
  O  O244  1  0.00594782  0.25839950  0.86385986  1
  O  O245  1  -0.00044783  0.75868496  0.36560238  1
  O  O246  1  0.03668677  0.70389286  0.90279334  1
  O  O247  1  0.50539441  0.25352249  0.36384119  1
  O  O248  1  0.49243259  0.25797028  0.86902024  1
  O  O249  1  0.49786406  0.76405031  0.38024958  1
  O  O250  1  0.51092747  0.75338773  0.87486704  1
  O  O251  1  0.23929938  0.11999324  0.49045093  1
  O  O252  1  0.24887254  0.13944987  0.99984634  1
  O  O253  1  0.25234415  0.63925354  0.50080510  1
  O  O254  1  0.24773330  0.63472721  0.99379311  1
  O  O255  1  0.74521699  0.12840764  0.49428489  1
  O  O256  1  0.73194962  0.12794189  1.00374236  1
  O  O257  1  0.73951391  0.62428569  0.49431189  1
  O  O258  1  0.74226210  0.62974471  0.99501390  1
  O  O259  1  0.25041820  0.36984259  0.00697003  1
  O  O260  1  0.26497095  0.37899759  0.50505693  1
  O  O261  1  0.25693726  0.86095431  0.00924222  1
  O  O262  1  0.24754937  0.86742740  0.51343232  1
  O  O263  1  0.75431956  0.37549134  0.00550886  1
  O  O264  1  0.74323158  0.37760378  0.51523349  1
  O  O265  1  0.74975569  0.87125480  0.00886719  1
  O  O266  1  0.76576049  0.87613353  0.49326861  1
  O  O267  1  0.12968358  0.50216281  0.23886552  1
  O  O268  1  0.13962641  0.48763429  0.73827878  1
  O  O269  1  0.12640402  1.00206842  0.23655013  1
  O  O270  1  0.13862090  1.00531966  0.73330160  1
  O  O271  1  0.62037438  0.48621809  0.24622989  1
  O  O272  1  0.62882565  0.48878286  0.74420086  1
  O  O273  1  0.62686895  0.99329335  0.23872575  1
  O  O274  1  0.62309973  0.99189544  0.73805515  1
  O  O275  1  0.37939164  -0.00050188  0.26376577  1
  O  O276  1  0.36949292  0.00850117  0.74801047  1
  O  O277  1  0.36469862  0.50851584  0.25212455  1
  O  O278  1  0.37400547  0.50514205  0.75556852  1
  O  O279  1  0.87195108  0.00749132  0.25511302  1
  O  O280  1  0.88145959  0.01213050  0.73966048  1
  O  O281  1  0.87319227  0.51465124  0.24898860  1
  O  O282  1  0.85784627  0.49158074  0.75256181  1
  O  O283  1  0.11492485  0.36500852  0.37522854  1
  O  O284  1  0.12062715  0.36900628  0.86829664  1
  O  O285  1  0.11399538  0.87030798  0.37740424  1
  O  O286  1  0.14144879  0.85213959  0.85491312  1
  O  O287  1  0.61923130  0.37070933  0.36858007  1
  O  O288  1  0.61199385  0.37902965  0.86679803  1
  O  O289  1  0.61850069  0.88030499  0.36093930  1
  O  O290  1  0.61749471  0.86720939  0.87253256  1
  O  O291  1  0.38456746  0.11878462  0.12029724  1
  O  O292  1  0.38029736  0.12868556  0.62795684  1
  O  O293  1  0.38236876  0.63093015  0.13175186  1
  O  O294  1  0.37025969  0.63956027  0.63412487  1
  O  O295  1  0.87567219  0.13152012  0.13028012  1
  O  O296  1  0.88215388  0.13537308  0.63092945  1
  O  O297  1  0.87652279  0.63205876  0.13240878  1
  O  O298  1  0.87517579  0.64163531  0.62390056  1
  O  O299  1  0.23757555  0.25994829  0.11339748  1
  O  O300  1  0.26520658  0.25362582  0.62793792  1
  O  O301  1  0.25776343  0.75401730  0.12038384  1
  O  O302  1  0.25957409  0.75752847  0.61565286  1
  O  O303  1  0.75998522  0.25617210  0.12405571  1
  O  O304  1  0.75694358  0.26270740  0.62314673  1
  O  O305  1  0.75174276  0.76101022  0.12073108  1
  O  O306  1  0.76613083  0.75174155  0.62107609  1
  O  O307  1  0.23573577  0.25756167  0.37621381  1
  O  O308  1  0.24220269  0.25028656  0.88541119  1
  O  O309  1  0.25474763  0.76289212  0.39280256  1
  O  O310  1  0.26123866  0.73912470  0.88612492  1
  O  O311  1  0.74354994  0.24536433  0.37724661  1
  O  O312  1  0.75096443  0.23958317  0.87507705  1
  O  O313  1  0.75193200  0.73745289  0.37969341  1
  O  O314  1  0.73760428  0.74271848  0.87857961  1
  O  O315  1  -0.00971336  0.13733850  0.01359274  1
  O  O316  1  0.00940312  0.11553783  0.49928939  1
  O  O317  1  -0.00523445  0.61524883  0.01203773  1
  O  O318  1  0.00532445  0.61443249  0.50568959  1
  O  O319  1  0.50424299  0.13254720  0.01728767  1
  O  O320  1  0.50938186  0.11705943  0.50667604  1
  O  O321  1  0.50452133  0.61959252  0.01049451  1
  O  O322  1  0.50502565  0.61235550  0.49688505  1
  O  O323  1  0.49156503  0.38250912  0.49781059  1
  O  O324  1  0.49752360  0.37771424  0.99380342  1
  O  O325  1  0.51408958  0.88409744  0.48356592  1
  O  O326  1  0.48785172  0.86747954  0.99213322  1
  O  O327  1  1.00189575  0.38087173  0.48642098  1
  O  O328  1  0.99164245  0.38072409  0.99671745  1
  O  O329  1  0.99479986  0.88114918  0.49116679  1
  O  O330  1  0.98484317  0.87075903  1.00394719  1
  O  O331  1  0.49708807  0.49118956  0.38514692  1
  O  O332  1  0.49215122  0.49327581  0.87957768  1
  O  O333  1  0.49528646  0.99641037  0.37990236  1
  O  O334  1  0.49466449  0.98560254  0.87339708  1
  O  O335  1  0.99659876  0.48926834  0.38396453  1
  O  O336  1  0.99883881  0.49542301  0.88881183  1
  O  O337  1  0.99535960  0.99364033  0.37898920  1
  O  O338  1  1.05305954  0.99637582  0.88768749  1
  O  O339  1  0.00965185  0.00799439  0.12504757  1
  O  O340  1  0.00185223  -0.00151134  0.60882160  1
  O  O341  1  0.00621337  0.50194959  0.11804469  1
  O  O342  1  0.01549260  0.48616003  0.61461553  1
  O  O343  1  0.50320458  0.01413942  0.13228958  1
  O  O344  1  0.50587551  0.00219628  0.61670040  1
  O  O345  1  0.50331680  0.50542148  0.12070584  1
  O  O346  1  0.50950107  0.49387424  0.61733934  1
  O  O347  1  0.24333107  0.38568726  0.24008753  1
  O  O348  1  0.25053351  0.37686218  0.74448511  1
  O  O349  1  0.25481893  0.87208292  0.24074963  1
  O  O350  1  0.24168076  0.87828528  0.73959811  1
  O  O351  1  0.73991999  0.37645057  0.24451963  1
  O  O352  1  0.74249092  0.38212561  0.74455808  1
  O  O353  1  0.73981163  0.87427149  0.24431402  1
  O  O354  1  0.73478033  0.87520280  0.75543940  1
  O  O355  1  0.24947561  0.12435240  0.26055897  1
  O  O356  1  0.25756222  0.11702904  0.74854045  1
  O  O357  1  0.25991580  0.61611133  0.24091835  1
  O  O358  1  0.26382781  0.61765181  0.75806472  1
  O  O359  1  0.75976438  0.12517541  0.25412819  1
  O  O360  1  0.76995738  0.12507089  0.74351635  1
  O  O361  1  0.75480337  0.62480138  0.25749274  1
  O  O362  1  0.74286157  0.60896916  0.75775308  1
  O  O363  1  0.37908911  0.10915077  0.38261612  1
  O  O364  1  0.37109091  0.11997587  0.86650372  1
  O  O365  1  0.38104235  0.62565032  0.36136829  1
  O  O366  1  0.37184139  0.61723435  0.87154527  1
  O  O367  1  0.87290724  0.11995240  0.36746730  1
  O  O368  1  0.88270758  0.12749774  0.85467218  1
  O  O369  1  0.86876873  0.62336268  0.36907178  1
  O  O370  1  0.85863290  0.63196257  0.87999048  1
  O  O371  1  0.13002609  0.38901922  0.12306760  1
  O  O372  1  0.13749600  0.37697405  0.62666345  1
  O  O373  1  0.13199291  0.88491050  0.12569500  1
  O  O374  1  0.14044509  0.86444000  0.63373697  1
  O  O375  1  0.62654398  0.37715788  0.13206697  1
  O  O376  1  0.63243498  0.38327382  0.63285203  1
  O  O377  1  0.62662900  0.88104637  0.13356928  1
  O  O378  1  0.62127742  0.88371839  0.63324985  1
  O  O379  1  0.11886788  0.25351948  0.26322556  1
  O  O380  1  0.11889553  0.25618739  0.75306347  1
  O  O381  1  0.11194740  0.74797180  0.24349090  1
  O  O382  1  0.12279309  0.74187847  0.74380255  1
  O  O383  1  0.61892171  0.25955570  0.25272541  1
  O  O384  1  0.61994828  0.26129306  0.74269600  1
  O  O385  1  0.62351820  0.76449259  0.24517814  1
  O  O386  1  0.62386772  0.75384810  0.75569782  1
  O  O387  1  0.38498667  0.25434131  0.25607477  1
  O  O388  1  0.37987665  0.23576279  0.74386809  1
  O  O389  1  0.37199281  0.74262359  0.23885487  1
  O  O390  1  0.37548210  0.74295853  0.74067151  1
  O  O391  1  0.87586841  0.24252536  0.24139249  1
  O  O392  1  0.88477648  0.24626089  0.73885832  1
  O  O393  1  0.87915666  0.74029212  0.24550888  1
  O  O394  1  0.87479645  0.75617609  0.74049273  1
  O  O395  1  0.38244925  0.49439971  0.50092003  1
  O  O396  1  0.38083920  0.49874895  0.99216233  1
  O  O397  1  0.39105282  0.99873809  0.49365093  1
  O  O398  1  0.36495088  0.98485613  0.99971139  1
  O  O399  1  0.88688339  0.50255244  0.50467933  1
  O  O400  1  0.87998163  0.48718776  1.00878477  1
  O  O401  1  0.88362913  0.99159436  0.49506992  1
  O  O402  1  0.87254929  0.98750773  1.00362412  1
  O  O403  1  0.14240416  0.00432644  0.02336001  1
  O  O404  1  0.12002574  0.01416909  0.48861540  1
  O  O405  1  0.11431038  0.51124577  0.00197495  1
  O  O406  1  0.11935242  0.49886163  0.50611337  1
  O  O407  1  0.62380733  0.00890459  0.01574161  1
  O  O408  1  0.62026263  0.00578277  0.50618874  1
  O  O409  1  0.61778983  0.50478267  0.00641441  1
  O  O410  1  0.61684680  0.50601707  0.50935723  1
  O  O411  1  0.35897053  0.38149034  0.12411688  1
  O  O412  1  0.37290630  0.36557278  0.61985594  1
  O  O413  1  0.37103485  0.86797994  0.12157522  1
  O  O414  1  0.36400001  0.86086607  0.63309593  1
  O  O415  1  0.86960355  0.36822517  0.12135185  1
  O  O416  1  0.85900601  0.37021588  0.62958725  1
  O  O417  1  0.86410947  0.87188394  0.12236756  1
  O  O418  1  0.87901316  0.86970179  0.61095780  1
  O  O419  1  0.12126106  0.13893017  0.38163901  1
  O  O420  1  0.12446366  0.14291927  0.87227787  1
  O  O421  1  0.12458009  0.63416063  0.37204990  1
  O  O422  1  0.14784688  0.61093411  0.87633575  1
  O  O423  1  0.63009228  0.12935623  0.37838070  1
  O  O424  1  0.60921153  0.12180310  0.89651991  1
  O  O425  1  0.63100103  0.62022835  0.38671896  1
  O  O426  1  0.62833540  0.63142896  0.88100916  1
