# generated using pymatgen
data_V85Zn86O256
_symmetry_space_group_name_H-M   'P 1'
_cell_length_a   16.92105650
_cell_length_b   16.92045697
_cell_length_c   16.92102034
_cell_angle_alpha   90.01025025
_cell_angle_beta   90.05156735
_cell_angle_gamma   90.06407329
_symmetry_Int_Tables_number   1
_chemical_formula_structural   V85Zn86O256
_chemical_formula_sum   'V85 Zn86 O256'
_cell_volume   4844.68624772
_cell_formula_units_Z   1
loop_
 _symmetry_equiv_pos_site_id
 _symmetry_equiv_pos_as_xyz
  1  'x, y, z'
loop_
 _atom_site_type_symbol
 _atom_site_label
 _atom_site_symmetry_multiplicity
 _atom_site_fract_x
 _atom_site_fract_y
 _atom_site_fract_z
 _atom_site_occupancy
  V  V0  1  0.62402877  0.37790771  0.25786069  1
  V  V1  1  0.12621815  0.49898460  0.62302363  1
  V  V2  1  0.50444749  0.89100481  0.37399710  1
  V  V3  1  0.74227444  0.61945381  0.38095990  1
  V  V4  1  0.11457768  0.24848763  0.87288490  1
  V  V5  1  0.25038597  0.37392435  0.62309259  1
  V  V6  1  0.75048420  0.49910129  0.75042269  1
  V  V7  1  0.75722810  0.75428041  -0.00240626  1
  V  V8  1  0.24893975  0.24960361  0.49448642  1
  V  V9  1  0.00074311  0.62384236  0.62295376  1
  V  V10  1  0.25025392  -0.00220192  0.74623748  1
  V  V11  1  0.62537904  0.25040397  0.87841880  1
  V  V12  1  0.37843988  0.87749925  -0.00124886  1
  V  V13  1  0.93862828  -0.06282600  0.93568917  1
  V  V14  1  0.88230507  0.24920717  0.63447763  1
  V  V15  1  0.88600437  -0.00201766  0.37951891  1
  V  V16  1  0.87651392  0.37628742  0.00161206  1
  V  V17  1  0.12015716  0.37209943  0.74863786  1
  V  V18  1  0.62429190  0.37452307  0.74505247  1
  V  V19  1  0.12089031  0.87516573  0.74765280  1
  V  V20  1  0.11973422  0.11763755  0.49706479  1
  V  V21  1  0.37906297  0.89028920  0.49317561  1
  V  V22  1  0.74332227  0.62433869  0.87461220  1
  V  V23  1  0.37599110  0.50152093  0.36669358  1
  V  V24  1  0.38817161  0.37516284  0.49243447  1
  V  V25  1  0.11919170  0.37929500  0.24865343  1
  V  V26  1  0.62485360  0.51577863  0.62104702  1
  V  V27  1  0.87783339  0.12741683  0.25202716  1
  V  V28  1  -0.00021702  0.11758416  0.62829960  1
  V  V29  1  0.00168960  0.49773075  0.49453530  1
  V  V30  1  0.37737605  -0.00152455  0.87425145  1
  V  V31  1  0.75091925  0.24957229  0.00511895  1
  V  V32  1  0.11992908  0.62901456  0.00552961  1
  V  V33  1  0.50847283  0.75518620  0.25398924  1
  V  V34  1  0.00437493  0.10726700  0.12758595  1
  V  V35  1  0.49916868  0.62817542  0.12534693  1
  V  V36  1  0.25619835  0.86505677  0.62306204  1
  V  V37  1  0.62840233  0.50155478  0.12916916  1
  V  V38  1  0.74551672  -0.01115639  0.25365211  1
  V  V39  1  0.49779074  0.24867337  0.75037905  1
  V  V40  1  0.37279963  0.25179382  0.12786179  1
  V  V41  1  0.37122717  0.11177588  0.25243054  1
  V  V42  1  0.50264405  0.12617767  0.12603129  1
  V  V43  1  0.88779069  0.25074382  0.13023572  1
  V  V44  1  0.49878335  0.11876362  0.62007159  1
  V  V45  1  0.25520780  0.62539786  0.86796392  1
  V  V46  1  0.37340922  0.12412613  0.74885530  1
  V  V47  1  0.26029510  0.74787211  0.48792796  1
  V  V48  1  0.24912499  0.75249701  0.00105404  1
  V  V49  1  0.25187779  0.11351781  0.36914089  1
  V  V50  1  0.12167858  0.75344824  0.87555524  1
  V  V51  1  0.86482667  0.62276542  0.24152076  1
  V  V52  1  0.37293592  0.37603342  -0.00103421  1
  V  V53  1  0.48991958  0.75914464  0.75074344  1
  V  V54  1  0.49773715  0.37595496  0.87533517  1
  V  V55  1  0.87338318  0.74958253  0.62203596  1
  V  V56  1  0.75009107  0.87457318  0.12286381  1
  V  V57  1  0.62276827  0.11297259  0.49937735  1
  V  V58  1  0.11834028  0.24922487  0.36790698  1
  V  V59  1  0.87690371  0.50030365  0.87505442  1
  V  V60  1  0.47664058  0.63026893  0.62947952  1
  V  V61  1  0.49662885  0.25369915  0.25816740  1
  V  V62  1  0.24822641  0.12595072  0.87483735  1
  V  V63  1  0.87469058  0.37428815  0.49870326  1
  V  V64  1  0.75173748  0.37739440  0.13335021  1
  V  V65  1  0.88054675  0.87758250  0.50209646  1
  V  V66  1  0.24293789  0.88945626  0.12983206  1
  V  V67  1  0.75597196  0.12233651  0.87229585  1
  V  V68  1  0.12445668  0.63538874  0.49142986  1
  V  V69  1  0.62604036  -0.00754430  0.63664694  1
  V  V70  1  0.62301407  0.25156463  0.37790849  1
  V  V71  1  0.75020135  0.24811780  0.50234659  1
  V  V72  1  0.49948302  0.50079372  0.00001641  1
  V  V73  1  0.37412059  0.75270441  0.12806844  1
  V  V74  1  0.00964440  0.73877136  0.24952782  1
  V  V75  1  0.12332585  0.88850574  0.25445944  1
  V  V76  1  0.37387242  0.24941181  0.62271452  1
  V  V77  1  0.62224364  0.77130613  0.86889600  1
  V  V78  1  -0.00130362  0.75011800  0.75186217  1
  V  V79  1  0.00161433  0.50431088  0.00661089  1
  V  V80  1  0.24673008  0.25156529  -0.00016186  1
  V  V81  1  0.75037987  0.12090954  0.37576555  1
  V  V82  1  0.50296241  -0.00136209  -0.00277886  1
  V  V83  1  0.12212437  0.11330435  0.00435346  1
  V  V84  1  0.24834138  0.38507983  0.13039869  1
  Zn  Zn85  1  0.25680927  0.50524707  0.74315174  1
  Zn  Zn86  1  0.50468784  0.51145352  0.49461297  1
  Zn  Zn87  1  0.86907558  0.49732602  0.36567563  1
  Zn  Zn88  1  0.88828799  0.12102401  0.76102128  1
  Zn  Zn89  1  0.00678425  0.86811765  0.37962965  1
  Zn  Zn90  1  -0.00571790  0.36902472  0.36846920  1
  Zn  Zn91  1  0.74587709  0.87089034  0.62828485  1
  Zn  Zn92  1  0.36737231  0.62245772  0.24677841  1
  Zn  Zn93  1  -0.00225062  0.37354937  0.87134041  1
  Zn  Zn94  1  0.88151102  0.75192612  0.12136918  1
  Zn  Zn95  1  0.62315991  0.75080607  0.38269377  1
  Zn  Zn96  1  0.87537387  0.62307520  0.74843767  1
  Zn  Zn97  1  0.37965479  0.50823273  0.86814730  1
  Zn  Zn98  1  0.12168573  -0.00641598  0.61742352  1
  Zn  Zn99  1  0.62384522  0.62954017  -0.00081862  1
  Zn  Zn100  1  0.12857583  0.51484103  0.13585990  1
  Zn  Zn101  1  0.24409458  0.62048363  0.36044447  1
  Zn  Zn102  1  0.74987708  0.37436756  0.62441653  1
  Zn  Zn103  1  0.62256072  -0.00756510  0.13089742  1
  Zn  Zn104  1  0.74406754  0.74798659  0.50012746  1
  Zn  Zn105  1  0.75690232  -0.01690221  0.76134308  1
  Zn  Zn106  1  0.62792976  0.12407594  0.00409217  1
  Zn  Zn107  1  0.18552926  0.18953218  0.18789444  1
  Zn  Zn108  1  0.18317285  0.18775559  0.68639346  1
  Zn  Zn109  1  0.18938524  0.69496940  0.19006281  1
  Zn  Zn110  1  0.18807315  0.68850628  0.68248388  1
  Zn  Zn111  1  0.68965095  0.18739663  0.19148665  1
  Zn  Zn112  1  0.68796218  0.18621961  0.68679200  1
  Zn  Zn113  1  0.68867070  0.68980340  0.18799521  1
  Zn  Zn114  1  0.68750663  0.69393041  0.69401163  1
  Zn  Zn115  1  0.30873310  0.31424618  0.31301446  1
  Zn  Zn116  1  0.30861080  0.31637425  0.81107788  1
  Zn  Zn117  1  0.31398856  0.81679892  0.31103772  1
  Zn  Zn118  1  0.31171367  0.81289730  0.81401488  1
  Zn  Zn119  1  0.81058698  0.31010097  0.31392552  1
  Zn  Zn120  1  0.81207124  0.31107438  0.81310332  1
  Zn  Zn121  1  0.81635518  0.80579618  0.31462384  1
  Zn  Zn122  1  0.81408980  0.81598188  0.81025723  1
  Zn  Zn123  1  0.19003727  0.43785403  0.43362050  1
  Zn  Zn124  1  0.18535061  0.44036274  0.93677547  1
  Zn  Zn125  1  0.19020186  0.93480096  0.43457090  1
  Zn  Zn126  1  0.18735043  0.93524995  0.93549962  1
  Zn  Zn127  1  0.68950435  0.44146251  0.43920505  1
  Zn  Zn128  1  0.68726997  0.43725614  0.94137684  1
  Zn  Zn129  1  0.69113827  0.93085800  0.44249419  1
  Zn  Zn130  1  0.69086345  0.94023501  0.94403301  1
  Zn  Zn131  1  0.31426046  0.06542383  0.06314715  1
  Zn  Zn132  1  0.30644466  0.06109180  0.56145666  1
  Zn  Zn133  1  0.31160988  0.56589873  0.05714159  1
  Zn  Zn134  1  0.31211130  0.55967806  0.55313222  1
  Zn  Zn135  1  0.81574148  0.05811975  0.06243023  1
  Zn  Zn136  1  0.81333891  0.05889909  0.56672445  1
  Zn  Zn137  1  0.81011425  0.56443905  0.06171971  1
  Zn  Zn138  1  0.81232349  0.56149531  0.56143223  1
  Zn  Zn139  1  0.44000174  0.43645565  0.18792168  1
  Zn  Zn140  1  0.43687777  0.44181161  0.68488954  1
  Zn  Zn141  1  0.43930207  0.93589145  0.18706701  1
  Zn  Zn142  1  0.43732047  0.93431008  0.68216623  1
  Zn  Zn143  1  0.94209283  0.44141665  0.18685145  1
  Zn  Zn144  1  0.93876397  0.43655344  0.68538684  1
  Zn  Zn145  1  0.93289661  0.93207018  0.19102353  1
  Zn  Zn146  1  0.93342033  0.93919518  0.69380201  1
  Zn  Zn147  1  0.06277363  0.06375359  0.30935049  1
  Zn  Zn148  1  0.06176946  0.06001309  0.81123483  1
  Zn  Zn149  1  0.05927113  0.56140308  0.31251923  1
  Zn  Zn150  1  0.06597588  0.56234870  0.81331180  1
  Zn  Zn151  1  0.56240096  0.06420519  0.31095125  1
  Zn  Zn152  1  0.56334849  0.06371518  0.81480937  1
  Zn  Zn153  1  0.55659938  0.56313316  0.31111966  1
  Zn  Zn154  1  0.55878308  0.56538834  0.80657964  1
  Zn  Zn155  1  0.43616052  0.18240604  0.43626098  1
  Zn  Zn156  1  0.43595359  0.18683416  0.93941998  1
  Zn  Zn157  1  0.43916232  0.68590630  0.43833420  1
  Zn  Zn158  1  0.44043996  0.69295573  0.93646039  1
  Zn  Zn159  1  0.93893492  0.18603721  0.44196887  1
  Zn  Zn160  1  0.93835730  0.18324180  0.94646129  1
  Zn  Zn161  1  0.93240343  0.68750847  0.42988509  1
  Zn  Zn162  1  0.93596891  0.68772996  0.93399213  1
  Zn  Zn163  1  0.06379805  0.31466590  0.06037780  1
  Zn  Zn164  1  0.06138622  0.30824096  0.56006816  1
  Zn  Zn165  1  0.05768816  0.81799173  0.06695675  1
  Zn  Zn166  1  0.06222913  0.81145129  0.56152113  1
  Zn  Zn167  1  0.56233635  0.31331387  0.06655487  1
  Zn  Zn168  1  0.56328725  0.30787497  0.56370113  1
  Zn  Zn169  1  0.56899638  0.81439306  0.06092746  1
  Zn  Zn170  1  0.55590891  0.80570372  0.56027633  1
  O  O171  1  0.11229542  0.12828554  0.12104330  1
  O  O172  1  0.11581199  0.12477215  0.61576491  1
  O  O173  1  0.13050786  0.62982424  0.10949360  1
  O  O174  1  0.12009724  0.61911929  0.61426720  1
  O  O175  1  0.61125903  0.12989954  0.12621461  1
  O  O176  1  0.61694277  0.12057054  0.61903109  1
  O  O177  1  0.61800617  0.61749621  0.12446852  1
  O  O178  1  0.62857038  0.61545393  0.62780731  1
  O  O179  1  0.37044387  0.38396547  0.38275085  1
  O  O180  1  0.38165492  0.37031743  0.88443766  1
  O  O181  1  0.38144490  0.87443380  0.38551265  1
  O  O182  1  0.36667014  0.88225526  0.89093010  1
  O  O183  1  0.87550517  0.37637558  0.38187887  1
  O  O184  1  0.87472928  0.38202447  0.88148285  1
  O  O185  1  0.87606718  0.88287992  0.38214007  1
  O  O186  1  0.88260484  0.87252278  0.87877896  1
  O  O187  1  0.24743752  0.01437073  0.37443312  1
  O  O188  1  0.25595032  0.00623308  0.86701906  1
  O  O189  1  0.26906044  0.50415511  0.38625616  1
  O  O190  1  0.24794861  0.51775184  0.87624631  1
  O  O191  1  0.75628370  0.00336232  0.37011726  1
  O  O192  1  0.73985513  0.01935737  0.87606491  1
  O  O193  1  0.75153714  0.51240977  0.37455182  1
  O  O194  1  0.75532992  0.50408968  0.87231240  1
  O  O195  1  0.24617904  0.48840162  0.11404607  1
  O  O196  1  0.24283994  0.49173773  0.61987916  1
  O  O197  1  0.25403894  0.98764834  0.12306151  1
  O  O198  1  0.24666117  0.98909098  0.63087934  1
  O  O199  1  0.74022676  0.49005725  0.12037203  1
  O  O200  1  0.73963738  0.49791535  0.63044586  1
  O  O201  1  0.74975712  0.99412882  0.13441556  1
  O  O202  1  0.73279787  1.00285553  0.62713915  1
  O  O203  1  0.01332626  0.37351004  0.24941401  1
  O  O204  1  0.01491052  0.37865050  0.75058312  1
  O  O205  1  0.01286544  0.87206986  0.25142814  1
  O  O206  1  0.01333462  0.86572772  0.74109112  1
  O  O207  1  0.51084602  0.36352748  0.24319276  1
  O  O208  1  0.50724497  0.36865013  0.75414310  1
  O  O209  1  0.49331089  0.86978304  0.26453159  1
  O  O210  1  0.49695803  0.85968753  0.74531153  1
  O  O211  1  0.49244879  0.13343859  0.24439011  1
  O  O212  1  0.49280959  0.13078763  0.74440507  1
  O  O213  1  0.49259195  0.63316951  0.23747001  1
  O  O214  1  0.50154089  0.63340867  0.73656010  1
  O  O215  1  0.99340898  0.12461590  0.23787950  1
  O  O216  1  1.00539181  0.12772989  0.73373260  1
  O  O217  1  0.99560252  0.63385594  0.25013537  1
  O  O218  1  1.00228566  0.63122776  0.74138801  1
  O  O219  1  0.36769593  0.25524098  0.00719035  1
  O  O220  1  0.36758235  0.25479554  0.50108338  1
  O  O221  1  0.37379050  0.76007074  0.00837713  1
  O  O222  1  0.36230280  0.75629574  0.49799922  1
  O  O223  1  0.87070288  0.25714316  0.01088727  1
  O  O224  1  0.87082359  0.25891767  0.50517846  1
  O  O225  1  0.86111334  0.74303596  -0.00019120  1
  O  O226  1  0.87419322  0.75507718  0.50735264  1
  O  O227  1  0.13329042  0.24188241  0.49273565  1
  O  O228  1  0.13091631  0.24434433  0.99308542  1
  O  O229  1  0.13597863  0.74305974  0.50288533  1
  O  O230  1  0.12574531  0.74803925  0.99201631  1
  O  O231  1  0.63106422  0.24282994  0.49606015  1
  O  O232  1  0.63034095  0.25172564  0.99394959  1
  O  O233  1  0.63034340  0.75502853  0.49744897  1
  O  O234  1  0.62997478  0.74952634  0.98380242  1
  O  O235  1  0.49345301  0.24446590  0.13302690  1
  O  O236  1  0.49422347  0.23947191  0.63129433  1
  O  O237  1  0.49539440  0.74612467  0.12738102  1
  O  O238  1  0.49816116  0.73997050  0.63837359  1
  O  O239  1  0.98911564  0.24904222  0.12287980  1
  O  O240  1  0.99084199  0.23944329  0.61953873  1
  O  O241  1  0.99660483  0.75663135  0.14219886  1
  O  O242  1  0.99359061  0.74319243  0.63198888  1
  O  O243  1  0.01408800  0.25047542  0.38110125  1
  O  O244  1  0.01119966  0.25014820  0.88120949  1
  O  O245  1  -0.00561094  0.75267332  0.35632729  1
  O  O246  1  0.00768677  0.74313307  0.86052048  1
  O  O247  1  0.50526813  0.24589127  0.36495458  1
  O  O248  1  0.50689646  0.25428562  0.87184464  1
  O  O249  1  0.49918727  0.75492379  0.36653809  1
  O  O250  1  0.51454092  0.74621480  0.86674678  1
  O  O251  1  0.24519146  0.13454088  0.49253954  1
  O  O252  1  0.24423702  0.13361354  0.99789768  1
  O  O253  1  0.24392471  0.63815575  0.50003502  1
  O  O254  1  0.24146479  0.63437474  0.99114388  1
  O  O255  1  0.74324796  0.12878732  0.49530949  1
  O  O256  1  0.74922389  0.13296666  0.99357756  1
  O  O257  1  0.75509258  0.62494000  0.48477712  1
  O  O258  1  0.74483016  0.63140480  0.99157290  1
  O  O259  1  0.25267405  0.36930264  0.00394568  1
  O  O260  1  0.25373020  0.36327189  0.50417910  1
  O  O261  1  0.25445714  0.87191316  0.01079835  1
  O  O262  1  0.25698849  0.86594491  0.50192255  1
  O  O263  1  0.75558604  0.36957188  0.01185332  1
  O  O264  1  0.75785321  0.36826461  0.50222198  1
  O  O265  1  0.74860511  0.86603738  0.00755832  1
  O  O266  1  0.76409668  0.87146627  0.50890565  1
  O  O267  1  0.12268902  0.48628451  0.25011223  1
  O  O268  1  0.13075177  0.49285283  0.74136754  1
  O  O269  1  0.12416388  0.98776945  0.24791312  1
  O  O270  1  0.13220367  0.98935623  0.74844766  1
  O  O271  1  0.61546000  0.49138036  0.23756421  1
  O  O272  1  0.62810484  0.49209933  0.74007011  1
  O  O273  1  0.64064802  1.01013873  0.24803015  1
  O  O274  1  0.62652238  1.00590973  0.73899524  1
  O  O275  1  0.37681566  0.01303887  0.24486761  1
  O  O276  1  0.37070821  0.00365384  0.75336725  1
  O  O277  1  0.37851532  0.49708810  0.26258816  1
  O  O278  1  0.36772447  0.48795026  0.75776228  1
  O  O279  1  0.86712046  0.01012743  0.25804948  1
  O  O280  1  0.86601919  0.01177353  0.74179186  1
  O  O281  1  0.88504983  0.51761636  0.24890811  1
  O  O282  1  0.86879404  0.49838860  0.75572157  1
  O  O283  1  0.12553699  0.36885333  0.36387809  1
  O  O284  1  0.12586587  0.36684722  0.86684892  1
  O  O285  1  0.12638619  0.87679078  0.35985531  1
  O  O286  1  0.13414437  0.86102014  0.86401994  1
  O  O287  1  0.63130794  0.37249551  0.36361378  1
  O  O288  1  0.62063478  0.36704075  0.86826142  1
  O  O289  1  0.60787945  0.87789546  0.38086505  1
  O  O290  1  0.62573443  0.86934547  0.87574414  1
  O  O291  1  0.38322082  0.13236935  0.13157378  1
  O  O292  1  0.38038087  0.12850592  0.62622291  1
  O  O293  1  0.38195237  0.63562635  0.12058568  1
  O  O294  1  0.37847558  0.61919690  0.62996008  1
  O  O295  1  0.88429658  0.13029905  0.13175740  1
  O  O296  1  0.88823183  0.13199556  0.61980164  1
  O  O297  1  0.86833156  0.62914690  0.13652377  1
  O  O298  1  0.88415859  0.62940059  0.62477523  1
  O  O299  1  0.25372562  0.25931876  0.11765619  1
  O  O300  1  0.25454283  0.25181846  0.61491824  1
  O  O301  1  0.25925809  0.75999235  0.11801352  1
  O  O302  1  0.24896717  0.76049304  0.61550115  1
  O  O303  1  0.75789234  0.25585282  0.12213006  1
  O  O304  1  0.75894247  0.24854957  0.61765620  1
  O  O305  1  0.74725973  0.75503167  0.11301145  1
  O  O306  1  0.76497787  0.74392199  0.62549035  1
  O  O307  1  0.24010336  0.24495769  0.38119551  1
  O  O308  1  0.24328835  0.24422478  0.88192456  1
  O  O309  1  0.25292568  0.74781438  0.38535629  1
  O  O310  1  0.24286236  0.74340281  0.88063504  1
  O  O311  1  0.74333991  0.24131116  0.38206489  1
  O  O312  1  0.74195485  0.24776921  0.88432145  1
  O  O313  1  0.74645198  0.73619255  0.37415958  1
  O  O314  1  0.73929333  0.74326903  0.87786307  1
  O  O315  1  0.00791331  0.12720753  0.01730057  1
  O  O316  1  0.01058494  0.12715121  0.50991765  1
  O  O317  1  0.00863096  0.61886969  -0.00766779  1
  O  O318  1  0.00581964  0.61946219  0.50199060  1
  O  O319  1  0.49936172  0.11964705  0.01037813  1
  O  O320  1  0.50858476  0.13034046  0.50938496  1
  O  O321  1  0.50184145  0.62109243  0.00934630  1
  O  O322  1  0.49397592  0.62787166  0.52227249  1
  O  O323  1  0.48948478  0.37118864  0.50299972  1
  O  O324  1  0.49425196  0.38036949  0.99733842  1
  O  O325  1  0.48555135  0.87335450  0.48931979  1
  O  O326  1  0.49037690  0.88613790  1.00830527  1
  O  O327  1  0.99359245  0.38119249  0.49742512  1
  O  O328  1  0.99408480  0.38388497  0.99615618  1
  O  O329  1  0.98853580  0.87055108  0.49702169  1
  O  O330  1  1.00158732  0.88142379  0.99487126  1
  O  O331  1  0.48621762  0.50386382  0.37957402  1
  O  O332  1  0.50221768  0.49430541  0.88198589  1
  O  O333  1  0.49852853  0.99028867  0.37143658  1
  O  O334  1  0.49374265  1.00823388  0.88842450  1
  O  O335  1  0.99531496  0.49612623  0.38658459  1
  O  O336  1  0.99184901  0.49972515  0.88165828  1
  O  O337  1  0.98834553  0.99881778  0.37090366  1
  O  O338  1  0.99557799  0.99794593  0.87515630  1
  O  O339  1  -0.00389260  0.00932192  0.12900946  1
  O  O340  1  0.00297791  0.01342448  0.62474747  1
  O  O341  1  0.00739344  0.49868270  0.11045725  1
  O  O342  1  0.00509770  0.50399015  0.61394580  1
  O  O343  1  0.50065309  0.00907805  0.11862450  1
  O  O344  1  0.50846076  0.01237625  0.62996333  1
  O  O345  1  0.50353580  0.50880927  0.11969231  1
  O  O346  1  0.50986189  0.51363926  0.62723881  1
  O  O347  1  0.23895777  0.37197477  0.23935115  1
  O  O348  1  0.23865559  0.37296962  0.73830444  1
  O  O349  1  0.23962637  0.87038543  0.23847370  1
  O  O350  1  0.24501408  0.87591406  0.74080947  1
  O  O351  1  0.74239752  0.37020178  0.24011295  1
  O  O352  1  0.73997862  0.37983628  0.74968275  1
  O  O353  1  0.75407768  0.88457809  0.24963474  1
  O  O354  1  0.74613541  0.87121165  0.74247571  1
  O  O355  1  0.25932760  0.13267094  0.25622006  1
  O  O356  1  0.25452000  0.11901587  0.75214778  1
  O  O357  1  0.25357990  0.62611194  0.24707142  1
  O  O358  1  0.24347496  0.62747870  0.76427997  1
  O  O359  1  0.75916853  0.11932299  0.25718166  1
  O  O360  1  0.74803621  0.13249529  0.76873956  1
  O  O361  1  0.76055691  0.62649556  0.25437547  1
  O  O362  1  0.75165057  0.61700226  0.75784135  1
  O  O363  1  0.36491465  0.13068099  0.36395808  1
  O  O364  1  0.36759478  0.12057610  0.86965708  1
  O  O365  1  0.37305923  0.61342023  0.37293291  1
  O  O366  1  0.35858030  0.62810710  0.88404433  1
  O  O367  1  0.87272703  0.11983948  0.37010158  1
  O  O368  1  0.86011161  0.13782554  0.87598832  1
  O  O369  1  0.86345849  0.62138128  0.36319175  1
  O  O370  1  0.86260425  0.61646230  0.87286170  1
  O  O371  1  0.13085576  0.37495627  0.13498742  1
  O  O372  1  0.12936306  0.37670890  0.62874089  1
  O  O373  1  0.13774012  0.87383361  0.13287702  1
  O  O374  1  0.13358703  0.87454512  0.63095283  1
  O  O375  1  0.63264299  0.37951123  0.13433388  1
  O  O376  1  0.62429155  0.37596188  0.63670387  1
  O  O377  1  0.64017931  0.87591243  0.12691684  1
  O  O378  1  0.61757936  0.89238564  0.61860694  1
  O  O379  1  0.12790985  0.26155882  0.25833853  1
  O  O380  1  0.13007050  0.25722608  0.76131897  1
  O  O381  1  0.11291604  0.75799609  0.24776799  1
  O  O382  1  0.11954189  0.75529619  0.75404956  1
  O  O383  1  0.61849543  0.25636887  0.25734343  1
  O  O384  1  0.62017051  0.25664521  0.75696026  1
  O  O385  1  0.61065238  0.74826080  0.25072248  1
  O  O386  1  0.61692111  0.74878497  0.76471041  1
  O  O387  1  0.38211755  0.24983927  0.24529858  1
  O  O388  1  0.37771384  0.24475112  0.74379626  1
  O  O389  1  0.38269427  0.75398848  0.23655206  1
  O  O390  1  0.39055923  0.74927786  0.76342713  1
  O  O391  1  0.86996678  0.23646383  0.24493486  1
  O  O392  1  0.87215263  0.24654172  0.73763310  1
  O  O393  1  0.88287716  0.73619344  0.24719687  1
  O  O394  1  0.88511675  0.74592509  0.74310248  1
  O  O395  1  0.38231187  0.48935741  0.49439843  1
  O  O396  1  0.38341159  0.49446191  0.99531869  1
  O  O397  1  0.36958290  0.98907585  0.49711086  1
  O  O398  1  0.38154609  0.99595005  0.99650714  1
  O  O399  1  0.88161249  0.48628343  0.50277590  1
  O  O400  1  0.88132508  0.49646920  0.99598961  1
  O  O401  1  0.87100714  0.99244858  0.49115958  1
  O  O402  1  0.87756982  0.99759277  0.99201654  1
  O  O403  1  0.13295395  0.01453854  -0.00366602  1
  O  O404  1  0.13289467  0.01346739  0.49895561  1
  O  O405  1  0.11688343  0.51185784  -0.00284706  1
  O  O406  1  0.11753498  0.50242757  0.50441967  1
  O  O407  1  0.61590599  0.00424549  0.00633452  1
  O  O408  1  0.62808780  0.01080758  0.50760992  1
  O  O409  1  0.61603008  0.49756155  0.01278693  1
  O  O410  1  0.62078600  0.49114362  0.51821775  1
  O  O411  1  0.36686362  0.37225576  0.11991131  1
  O  O412  1  0.37012647  0.36763145  0.61551665  1
  O  O413  1  0.36631346  0.87177283  0.11851832  1
  O  O414  1  0.36805284  0.87840359  0.60811750  1
  O  O415  1  0.86941155  0.36950789  0.12588072  1
  O  O416  1  0.87474866  0.36570060  0.61829099  1
  O  O417  1  0.85798066  0.86891689  0.13337634  1
  O  O418  1  0.87873781  0.86487435  0.61877418  1
  O  O419  1  0.12945235  0.13143820  0.37816328  1
  O  O420  1  0.12912295  0.13137833  0.88090420  1
  O  O421  1  0.12696745  0.61667620  0.38828607  1
  O  O422  1  0.13312019  0.63646404  0.88070864  1
  O  O423  1  0.62781400  0.12972509  0.38346879  1
  O  O424  1  0.63019593  0.13919702  0.87869668  1
  O  O425  1  0.63878958  0.62376009  0.36497951  1
  O  O426  1  0.63624373  0.61903967  0.87598763  1
