# generated using pymatgen
data_V85Zn86O256
_symmetry_space_group_name_H-M   'P 1'
_cell_length_a   16.95794619
_cell_length_b   16.96093922
_cell_length_c   16.95072127
_cell_angle_alpha   90.05508756
_cell_angle_beta   90.00927128
_cell_angle_gamma   89.95043412
_symmetry_Int_Tables_number   1
_chemical_formula_structural   V85Zn86O256
_chemical_formula_sum   'V85 Zn86 O256'
_cell_volume   4875.40798621
_cell_formula_units_Z   1
loop_
 _symmetry_equiv_pos_site_id
 _symmetry_equiv_pos_as_xyz
  1  'x, y, z'
loop_
 _atom_site_type_symbol
 _atom_site_label
 _atom_site_symmetry_multiplicity
 _atom_site_fract_x
 _atom_site_fract_y
 _atom_site_fract_z
 _atom_site_occupancy
  V  V0  1  0.19242684  0.58179565  0.93294535  1
  V  V1  1  0.74842832  0.62350972  0.36923831  1
  V  V2  1  0.79563894  0.18416368  0.93514210  1
  V  V3  1  0.92791530  0.67658064  0.29467004  1
  V  V4  1  0.25113786  -0.00366740  0.74038197  1
  V  V5  1  0.00061649  0.75330683  0.74926618  1
  V  V6  1  0.24912643  0.50753272  0.74942025  1
  V  V7  1  0.37646686  0.37537074  0.00526518  1
  V  V8  1  0.62572226  0.12991598  -0.00207309  1
  V  V9  1  0.36866536  0.75397642  0.12697717  1
  V  V10  1  0.36429803  0.50502111  0.38040795  1
  V  V11  1  0.49744808  0.25388530  0.26370564  1
  V  V12  1  0.62384457  0.62614458  -0.00000615  1
  V  V13  1  0.37267379  0.12074040  0.25177140  1
  V  V14  1  0.25549317  0.37640856  0.62046308  1
  V  V15  1  0.37452903  0.00004920  0.87270323  1
  V  V16  1  0.37550442  0.50432918  0.87548796  1
  V  V17  1  0.37751781  0.63433491  0.75126057  1
  V  V18  1  0.35987692  0.87613719  0.50556394  1
  V  V19  1  0.01505462  0.62488675  0.11514460  1
  V  V20  1  0.00462628  0.62409886  0.62355366  1
  V  V21  1  0.24725121  0.48679033  0.23516969  1
  V  V22  1  0.85255133  0.12044065  0.24778333  1
  V  V23  1  0.49701612  0.74996768  0.25318409  1
  V  V24  1  -0.00011662  0.49185316  0.49548983  1
  V  V25  1  0.36242977  0.62646001  0.25633729  1
  V  V26  1  -0.00468225  0.24074404  0.25604654  1
  V  V27  1  -0.00124202  0.37302349  0.88527079  1
  V  V28  1  0.12778404  0.50168370  0.61413630  1
  V  V29  1  0.62762578  0.25731858  0.38171972  1
  V  V30  1  0.25225881  0.25000491  0.00544862  1
  V  V31  1  0.75114620  0.87812804  0.62802542  1
  V  V32  1  0.50017670  0.49984301  0.49309488  1
  V  V33  1  0.18490444  0.68735922  0.43083441  1
  V  V34  1  0.87676122  0.49752808  0.88486692  1
  V  V35  1  0.24086315  0.75279541  -0.00065543  1
  V  V36  1  0.87837532  0.74265416  0.12255386  1
  V  V37  1  0.08834787  0.87175894  0.28625492  1
  V  V38  1  0.75511582  0.36975678  0.11094470  1
  V  V39  1  0.49968269  0.87280786  0.87129651  1
  V  V40  1  0.50454745  0.11231396  0.62193920  1
  V  V41  1  0.74855840  0.74751647  0.50312175  1
  V  V42  1  -0.00080704  0.25017481  0.74314412  1
  V  V43  1  0.62108910  0.87588356  0.74526093  1
  V  V44  1  0.50105102  0.00143194  -0.00134479  1
  V  V45  1  0.37489974  0.12633082  0.74695616  1
  V  V46  1  0.49976522  0.62636968  0.12876700  1
  V  V47  1  0.87407058  -0.00175222  0.87933888  1
  V  V48  1  0.49956556  0.62919815  0.62776858  1
  V  V49  1  0.63151292  -0.00099132  0.12422969  1
  V  V50  1  0.50035905  0.49998392  0.00112647  1
  V  V51  1  0.37893048  0.25212419  0.12756688  1
  V  V52  1  0.12869452  0.24551128  0.87332976  1
  V  V53  1  0.62568312  0.87653042  0.24709134  1
  V  V54  1  0.37950613  0.37427390  0.49225663  1
  V  V55  1  0.87917400  0.48640728  0.37181000  1
  V  V56  1  0.49940221  0.25208024  0.74448873  1
  V  V57  1  0.37425748  0.87591410  0.00088866  1
  V  V58  1  0.12901887  0.87512736  0.74734893  1
  V  V59  1  0.75133298  0.50036252  0.74747725  1
  V  V60  1  0.87390769  0.62538852  0.74845795  1
  V  V61  1  -0.00397101  0.12535387  0.62227641  1
  V  V62  1  0.12681583  0.37325898  0.74699289  1
  V  V63  1  0.62574890  0.37585595  0.74661319  1
  V  V64  1  0.25011707  0.12466432  0.87171966  1
  V  V65  1  0.62184747  0.74746520  0.37475720  1
  V  V66  1  0.62715873  0.11395391  0.50218188  1
  V  V67  1  0.75020245  0.62584020  0.87413562  1
  V  V68  1  0.87069104  0.12923427  0.74947813  1
  V  V69  1  0.10849667  0.37692145  0.24439080  1
  V  V70  1  0.12262429  -0.00209703  0.62097261  1
  V  V71  1  0.36598255  -0.00038291  0.37561539  1
  V  V72  1  0.61799430  0.74968260  0.86974826  1
  V  V73  1  0.75497771  0.49552087  0.24836834  1
  V  V74  1  0.62635392  0.24649529  0.87371966  1
  V  V75  1  0.50381899  0.88758501  0.38684134  1
  V  V76  1  0.75700664  0.24530328  0.49981917  1
  V  V77  1  -0.00888287  -0.00390181  0.48951824  1
  V  V78  1  0.62611525  0.49886055  0.12682258  1
  V  V79  1  0.74527722  0.00524682  0.75173452  1
  V  V80  1  0.75022927  0.75348722  -0.00016504  1
  V  V81  1  0.76185187  0.37069282  0.62326400  1
  V  V82  1  0.24251343  0.89267951  0.13606859  1
  V  V83  1  0.13114512  0.11853683  0.01430613  1
  V  V84  1  0.00639721  -0.00544373  0.00962382  1
  Zn  Zn85  1  0.49962665  0.37538857  0.87293849  1
  Zn  Zn86  1  0.83488050  0.00256168  0.35669466  1
  Zn  Zn87  1  0.87728055  0.87394171  0.48978882  1
  Zn  Zn88  1  0.88063821  0.36240876  0.49686234  1
  Zn  Zn89  1  0.87546110  0.75297900  0.62618607  1
  Zn  Zn90  1  0.37541128  0.24883885  0.62110042  1
  Zn  Zn91  1  0.24584513  0.12620346  0.37460011  1
  Zn  Zn92  1  0.01737882  0.50074798  0.00229041  1
  Zn  Zn93  1  0.12650695  0.25349712  0.37622128  1
  Zn  Zn94  1  0.50266702  0.12574409  0.12855695  1
  Zn  Zn95  1  -0.00166347  0.12417105  0.12774800  1
  Zn  Zn96  1  0.87551047  0.25240854  0.11478183  1
  Zn  Zn97  1  0.62120822  0.37624734  0.25321603  1
  Zn  Zn98  1  0.36894679  0.76085036  0.62575805  1
  Zn  Zn99  1  0.88076718  0.87226268  0.00180387  1
  Zn  Zn100  1  0.12842394  0.74766042  0.87345835  1
  Zn  Zn101  1  0.62596073  0.49928663  0.62089287  1
  Zn  Zn102  1  0.75552607  0.87421061  0.12867012  1
  Zn  Zn103  1  0.24960952  0.24552110  0.49713551  1
  Zn  Zn104  1  0.62476942  0.62124471  0.50077665  1
  Zn  Zn105  1  0.12559821  0.12644965  0.49285022  1
  Zn  Zn106  1  0.00191242  0.87454073  0.87618793  1
  Zn  Zn107  1  0.19058417  0.19462318  0.19318432  1
  Zn  Zn108  1  0.18720934  0.18622224  0.67928839  1
  Zn  Zn109  1  0.17986021  0.69555233  0.20830525  1
  Zn  Zn110  1  0.18757389  0.69237989  0.68289395  1
  Zn  Zn111  1  0.68030934  0.19560219  0.18231023  1
  Zn  Zn112  1  0.68863890  0.18879230  0.68275602  1
  Zn  Zn113  1  0.68922981  0.68770945  0.18875163  1
  Zn  Zn114  1  0.68345724  0.68899022  0.68705840  1
  Zn  Zn115  1  0.31072631  0.31410366  0.31657100  1
  Zn  Zn116  1  0.31456798  0.31620332  0.81195018  1
  Zn  Zn117  1  0.30830254  0.81588307  0.31652192  1
  Zn  Zn118  1  0.30823310  0.81262433  0.81493900  1
  Zn  Zn119  1  0.80832541  0.30764161  0.30869307  1
  Zn  Zn120  1  0.81769575  0.31774070  0.80783929  1
  Zn  Zn121  1  0.81040812  0.81849978  0.31396108  1
  Zn  Zn122  1  0.81253850  0.81456177  0.81425311  1
  Zn  Zn123  1  0.18850987  0.43529842  0.43060950  1
  Zn  Zn124  1  0.18959223  0.41899076  0.93710206  1
  Zn  Zn125  1  0.18241003  0.93766684  0.43406407  1
  Zn  Zn126  1  0.18833453  0.93498989  0.93590217  1
  Zn  Zn127  1  0.68923545  0.43427980  0.43813955  1
  Zn  Zn128  1  0.68582649  0.43814030  0.93379831  1
  Zn  Zn129  1  0.69408121  0.93267196  0.43945228  1
  Zn  Zn130  1  0.68922876  0.93808223  0.93461527  1
  Zn  Zn131  1  0.31786584  0.06697369  0.06366172  1
  Zn  Zn132  1  0.31654366  0.05996655  0.55658781  1
  Zn  Zn133  1  0.31734008  0.56477357  0.06908061  1
  Zn  Zn134  1  0.29363760  0.60338913  0.57114376  1
  Zn  Zn135  1  0.81858835  0.05754178  0.07170074  1
  Zn  Zn136  1  0.81092246  0.06269136  0.56741705  1
  Zn  Zn137  1  0.81416704  0.56490722  0.06504630  1
  Zn  Zn138  1  0.81443410  0.55924929  0.55998685  1
  Zn  Zn139  1  0.43591615  0.43752847  0.19108225  1
  Zn  Zn140  1  0.43812940  0.44448679  0.68239360  1
  Zn  Zn141  1  0.44063436  0.93848018  0.18971386  1
  Zn  Zn142  1  0.43871097  0.93657903  0.68603243  1
  Zn  Zn143  1  0.93618615  0.44233033  0.17944685  1
  Zn  Zn144  1  0.93950567  0.43814196  0.68981973  1
  Zn  Zn145  1  0.93609985  0.93546148  0.19084586  1
  Zn  Zn146  1  0.93542168  0.93985335  0.68676985  1
  Zn  Zn147  1  0.06865443  0.05857533  0.30979614  1
  Zn  Zn148  1  0.06204016  0.06091409  0.81454796  1
  Zn  Zn149  1  0.07118447  0.55870097  0.31442497  1
  Zn  Zn150  1  0.05735280  0.55690985  0.80505582  1
  Zn  Zn151  1  0.62061744  0.04899960  0.32988099  1
  Zn  Zn152  1  0.56356700  0.06416551  0.81155542  1
  Zn  Zn153  1  0.56084388  0.56105912  0.31326932  1
  Zn  Zn154  1  0.56075631  0.56168247  0.81128515  1
  Zn  Zn155  1  0.43758596  0.18437447  0.43952021  1
  Zn  Zn156  1  0.44053725  0.18808114  0.93443955  1
  Zn  Zn157  1  0.43310469  0.69041308  0.43990368  1
  Zn  Zn158  1  0.43402649  0.68771121  0.93976955  1
  Zn  Zn159  1  0.93514772  0.17678087  0.42837677  1
  Zn  Zn160  1  0.95782025  0.18159150  0.93546893  1
  Zn  Zn161  1  0.93748684  0.68396868  0.45617944  1
  Zn  Zn162  1  0.94224310  0.68587442  0.93749052  1
  Zn  Zn163  1  0.06614234  0.30930219  0.07163629  1
  Zn  Zn164  1  0.06531437  0.31172294  0.56025302  1
  Zn  Zn165  1  0.06410929  0.81271963  0.07286143  1
  Zn  Zn166  1  0.06999237  0.81573228  0.55124572  1
  Zn  Zn167  1  0.56319073  0.31444146  0.06428258  1
  Zn  Zn168  1  0.56399898  0.31390923  0.56221652  1
  Zn  Zn169  1  0.55970178  0.81206185  0.06183573  1
  Zn  Zn170  1  0.56237832  0.80846807  0.56460025  1
  O  O171  1  0.13112947  0.12801504  0.11598050  1
  O  O172  1  0.11171724  0.11431292  0.62790099  1
  O  O173  1  0.11229328  0.63328824  0.13407110  1
  O  O174  1  0.11448029  0.61082082  0.63696259  1
  O  O175  1  0.62202148  0.11845824  0.11528530  1
  O  O176  1  0.61251666  0.13125595  0.61721703  1
  O  O177  1  0.62015235  0.61904690  0.12015972  1
  O  O178  1  0.61238777  0.62275118  0.62513356  1
  O  O179  1  0.37476845  0.38527661  0.38652036  1
  O  O180  1  0.37515046  0.38672428  0.88500682  1
  O  O181  1  0.38737785  0.88255347  0.38127038  1
  O  O182  1  0.38024518  0.88107626  0.87923911  1
  O  O183  1  0.87016103  0.38435866  0.37469575  1
  O  O184  1  0.88714185  0.38436862  0.87018125  1
  O  O185  1  0.85107826  0.89345473  0.38165630  1
  O  O186  1  0.87990569  0.88418251  0.87756758  1
  O  O187  1  0.26328307  -0.00070380  0.37522467  1
  O  O188  1  0.25523448  0.00570307  0.86434544  1
  O  O189  1  0.26204064  0.49592870  0.36144314  1
  O  O190  1  0.25368224  0.50521552  0.87343865  1
  O  O191  1  0.72083282  0.01030882  0.36751865  1
  O  O192  1  0.76355690  -0.00406107  0.86603270  1
  O  O193  1  0.75779808  0.50490943  0.36953706  1
  O  O194  1  0.75702159  0.50566568  0.86830385  1
  O  O195  1  0.25618465  0.49841245  0.13689534  1
  O  O196  1  0.24328708  0.49951753  0.63121198  1
  O  O197  1  0.25767240  0.99038201  0.11893905  1
  O  O198  1  0.24080040  1.00762673  0.63549443  1
  O  O199  1  0.74644971  0.49615583  0.13176647  1
  O  O200  1  0.74742005  0.49326222  0.62996929  1
  O  O201  1  0.73508955  0.99188093  0.11524708  1
  O  O202  1  0.75217921  0.99138919  0.64039523  1
  O  O203  1  0.00409743  0.37072671  0.24452196  1
  O  O204  1  0.00493315  0.36648216  0.75561619  1
  O  O205  1  -0.01106274  0.86789358  0.26259426  1
  O  O206  1  0.00591448  0.86738797  0.74886742  1
  O  O207  1  0.50211248  0.35921824  0.24292974  1
  O  O208  1  0.50779878  0.37046978  0.74875494  1
  O  O209  1  0.50584468  0.86636830  0.25814278  1
  O  O210  1  0.50951025  0.88072388  0.75732232  1
  O  O211  1  0.48868212  0.14574615  0.24663878  1
  O  O212  1  0.49754631  0.13283712  0.74184454  1
  O  O213  1  0.49246522  0.63139972  0.24550376  1
  O  O214  1  0.49291719  0.61947268  0.73875356  1
  O  O215  1  0.99993415  0.13363359  0.24610706  1
  O  O216  1  0.99345000  0.13221744  0.74728978  1
  O  O217  1  0.99423061  0.61920835  0.24145938  1
  O  O218  1  0.99154372  0.62944025  0.74228303  1
  O  O219  1  0.37371039  0.25564542  0.00424469  1
  O  O220  1  0.37681697  0.26142716  0.50266532  1
  O  O221  1  0.36877021  0.75539693  0.00921548  1
  O  O222  1  0.38193569  0.77318359  0.49923289  1
  O  O223  1  0.86861764  0.23486097  -0.00936177  1
  O  O224  1  0.86181014  0.24366022  0.49170651  1
  O  O225  1  0.86690020  0.74880722  0.00303652  1
  O  O226  1  0.86171566  0.75337639  0.50519365  1
  O  O227  1  0.12802947  0.24712878  0.49672889  1
  O  O228  1  0.13617361  0.24251271  0.99671465  1
  O  O229  1  0.12267209  0.73303351  0.49991579  1
  O  O230  1  0.13806277  0.75348419  1.00033038  1
  O  O231  1  0.63346341  0.24871342  0.49666762  1
  O  O232  1  0.61937717  0.23878649  0.99189579  1
  O  O233  1  0.63481459  0.74476216  0.49591684  1
  O  O234  1  0.63057484  0.74463199  0.99385759  1
  O  O235  1  0.49029766  0.24946707  0.12741264  1
  O  O236  1  0.50031665  0.24675013  0.63649465  1
  O  O237  1  0.48820478  0.74782029  0.13074858  1
  O  O238  1  0.49258392  0.73322836  0.62138397  1
  O  O239  1  0.99374324  0.24766026  0.13519206  1
  O  O240  1  1.00406501  0.24411191  0.63673225  1
  O  O241  1  0.99216741  0.73731015  0.12097110  1
  O  O242  1  0.99934965  0.74122516  0.63365919  1
  O  O243  1  -0.00306365  0.24984008  0.35937309  1
  O  O244  1  0.00834550  0.25585638  0.86466437  1
  O  O245  1  -0.02185881  0.73118017  0.36007350  1
  O  O246  1  0.00448697  0.74905701  0.86052151  1
  O  O247  1  0.50113650  0.25252668  0.36690094  1
  O  O248  1  0.50792207  0.25236385  0.86212756  1
  O  O249  1  0.50502401  0.75522235  0.37024918  1
  O  O250  1  0.51107971  0.75426935  0.88205897  1
  O  O251  1  0.24711561  0.12594799  0.49895327  1
  O  O252  1  0.24932815  0.13238865  0.99295025  1
  O  O253  1  0.23656521  0.61006193  0.47500423  1
  O  O254  1  0.25553860  0.63397213  1.00040799  1
  O  O255  1  0.73498662  0.13210029  0.51400227  1
  O  O256  1  0.74217475  0.11982063  0.99988063  1
  O  O257  1  0.75127899  0.62944647  0.48914309  1
  O  O258  1  0.74407043  0.63332236  0.99298867  1
  O  O259  1  0.26107509  0.35810925  -0.00184056  1
  O  O260  1  0.25981048  0.37925939  0.50815055  1
  O  O261  1  0.25837854  0.86957717  0.00528278  1
  O  O262  1  0.26145015  0.88200292  0.50168129  1
  O  O263  1  0.74657803  0.38238872  0.01235067  1
  O  O264  1  0.75495830  0.36648838  0.50811264  1
  O  O265  1  0.74912893  0.86114701  -0.00075695  1
  O  O266  1  0.74442597  0.86519847  0.51391562  1
  O  O267  1  0.13791920  0.48882533  0.24984878  1
  O  O268  1  0.13261844  0.49157083  0.74314607  1
  O  O269  1  0.11469569  0.96866347  0.25968070  1
  O  O270  1  0.13149009  0.99484164  0.74515958  1
  O  O271  1  0.63381676  0.49877155  0.24506276  1
  O  O272  1  0.63261534  0.49073561  0.75166309  1
  O  O273  1  0.60999971  0.98973826  0.23343241  1
  O  O274  1  0.63630839  0.99132095  0.76037259  1
  O  O275  1  0.38787611  0.01081815  0.26110721  1
  O  O276  1  0.36738497  0.00399796  0.75275636  1
  O  O277  1  0.36860726  0.50745630  0.25554483  1
  O  O278  1  0.36814791  0.50205062  0.76015326  1
  O  O279  1  0.86686586  0.01582293  0.23824128  1
  O  O280  1  0.87168204  0.01243835  0.75962748  1
  O  O281  1  0.86300532  0.49660302  0.25545697  1
  O  O282  1  0.87103912  0.50785277  0.75777367  1
  O  O283  1  0.13312080  0.37259301  0.35088428  1
  O  O284  1  0.11914647  0.36527502  0.86501217  1
  O  O285  1  0.10805581  0.86839580  0.38727401  1
  O  O286  1  0.12277664  0.87435801  0.85947286  1
  O  O287  1  0.62446286  0.36274127  0.37438884  1
  O  O288  1  0.62564343  0.36505576  0.86406776  1
  O  O289  1  0.61644050  0.86726679  0.36830389  1
  O  O290  1  0.62083656  0.86753008  0.86781933  1
  O  O291  1  0.38225057  0.13345732  0.13134632  1
  O  O292  1  0.38835481  0.12580063  0.62941293  1
  O  O293  1  0.38158669  0.63534094  0.13426275  1
  O  O294  1  0.38935419  0.61041880  0.63828647  1
  O  O295  1  0.87552971  0.13263620  0.13434237  1
  O  O296  1  0.88705532  0.12188768  0.63660794  1
  O  O297  1  0.88208825  0.63624203  0.12261158  1
  O  O298  1  0.88036386  0.62356250  0.63626795  1
  O  O299  1  0.26699473  0.24437980  0.11658214  1
  O  O300  1  0.25413266  0.26412300  0.62561829  1
  O  O301  1  0.26067479  0.75539459  0.12107971  1
  O  O302  1  0.26894285  0.71029444  0.61320758  1
  O  O303  1  0.74849461  0.26603932  0.12162492  1
  O  O304  1  0.74827391  0.26014572  0.61567435  1
  O  O305  1  0.75536795  0.74708533  0.11440230  1
  O  O306  1  0.75026160  0.75430253  0.61863368  1
  O  O307  1  0.24941316  0.24629857  0.37830890  1
  O  O308  1  0.24815605  0.24453027  0.88023878  1
  O  O309  1  0.25199489  0.75014873  0.38609926  1
  O  O310  1  0.24805413  0.75072663  0.88901960  1
  O  O311  1  0.73928528  0.25133573  0.38450359  1
  O  O312  1  0.74405259  0.25255975  0.87220512  1
  O  O313  1  0.74340994  0.74101345  0.38144801  1
  O  O314  1  0.74189765  0.74467052  0.88078347  1
  O  O315  1  0.01566649  0.11643008  0.00572353  1
  O  O316  1  -0.00185658  0.11695025  0.50884913  1
  O  O317  1  0.00771720  0.62376185  0.00909013  1
  O  O318  1  -0.00548913  0.60973006  0.51711421  1
  O  O319  1  0.50856725  0.11751323  -0.00167851  1
  O  O320  1  0.50824566  0.13029912  0.51618846  1
  O  O321  1  0.50358044  0.62006227  0.00813147  1
  O  O322  1  0.49789427  0.61819855  0.51064838  1
  O  O323  1  0.49010275  0.38657373  0.50978488  1
  O  O324  1  0.49402262  0.38123909  0.99576733  1
  O  O325  1  0.50668014  0.87458662  0.48812529  1
  O  O326  1  0.49516689  0.88220530  0.99213833  1
  O  O327  1  0.99455971  0.38700683  0.50934101  1
  O  O328  1  1.01334277  0.37574789  0.98806102  1
  O  O329  1  0.99254798  0.89131824  0.51193338  1
  O  O330  1  1.00343311  0.88074842  0.99675590  1
  O  O331  1  0.49112608  0.50550661  0.38702875  1
  O  O332  1  0.49268696  0.49741492  0.88206497  1
  O  O333  1  0.50606255  0.98636102  0.37197745  1
  O  O334  1  0.49648602  0.99642902  0.88263401  1
  O  O335  1  0.99272880  0.50617614  0.38370641  1
  O  O336  1  0.99440706  0.49074239  0.87695788  1
  O  O337  1  0.99711199  1.00536813  0.39147426  1
  O  O338  1  0.98780295  1.00276105  0.88317698  1
  O  O339  1  -0.00553540  0.00105232  0.11218798  1
  O  O340  1  0.00585265  0.00896443  0.62471522  1
  O  O341  1  -0.00356371  0.51735119  0.11751293  1
  O  O342  1  0.00833728  0.50411766  0.62227349  1
  O  O343  1  0.50649419  -0.00011343  0.10953551  1
  O  O344  1  0.50486424  0.01450056  0.63289852  1
  O  O345  1  0.50537583  0.50513279  0.12122206  1
  O  O346  1  0.50545243  0.50904350  0.61468432  1
  O  O347  1  0.25754480  0.38629651  0.24323469  1
  O  O348  1  0.24957613  0.38675223  0.74266971  1
  O  O349  1  0.26422838  0.88025890  0.23432223  1
  O  O350  1  0.24303881  0.88418007  0.74974985  1
  O  O351  1  0.74415132  0.38213314  0.24102151  1
  O  O352  1  0.74484395  0.37931418  0.74277700  1
  O  O353  1  0.72914050  0.86531748  0.24482313  1
  O  O354  1  0.74326015  0.88160457  0.74667269  1
  O  O355  1  0.26875915  0.13227271  0.25063003  1
  O  O356  1  0.25615020  0.11969081  0.75162818  1
  O  O357  1  0.25989098  0.61713565  0.24214674  1
  O  O358  1  0.25957944  0.61179773  0.75086684  1
  O  O359  1  0.75372748  0.13203027  0.24305389  1
  O  O360  1  0.75733353  0.11825425  0.74434392  1
  O  O361  1  0.74475349  0.61596288  0.26209342  1
  O  O362  1  0.75616496  0.62216263  0.75399090  1
  O  O363  1  0.37910686  0.11413261  0.36970510  1
  O  O364  1  0.37162291  0.11972968  0.86680424  1
  O  O365  1  0.37996013  0.61879498  0.36519192  1
  O  O366  1  0.38242027  0.61281690  0.86760501  1
  O  O367  1  0.87131706  0.11735978  0.35290516  1
  O  O368  1  0.86826453  0.12259194  0.87454614  1
  O  O369  1  0.87030845  0.61905437  0.36639418  1
  O  O370  1  0.87273694  0.61974687  0.86452201  1
  O  O371  1  0.13017580  0.37087755  0.14459880  1
  O  O372  1  0.13606174  0.38278367  0.62910708  1
  O  O373  1  0.14390619  0.87939464  0.11869318  1
  O  O374  1  0.12040883  0.88785946  0.63440919  1
  O  O375  1  0.63370590  0.38422213  0.12501158  1
  O  O376  1  0.63341009  0.37527918  0.63678268  1
  O  O377  1  0.62134056  0.88150834  0.12994261  1
  O  O378  1  0.63209156  0.86730035  0.63883101  1
  O  O379  1  0.11070182  0.25819615  0.24930781  1
  O  O380  1  0.11968062  0.25329038  0.75243635  1
  O  O381  1  0.13043724  0.78574192  0.24672146  1
  O  O382  1  0.11993158  0.75883701  0.74700572  1
  O  O383  1  0.61205654  0.24910506  0.25993180  1
  O  O384  1  0.62023610  0.25542181  0.75495264  1
  O  O385  1  0.61530505  0.75368426  0.25301006  1
  O  O386  1  0.62903435  0.75946968  0.76148517  1
  O  O387  1  0.38259348  0.25131947  0.24420573  1
  O  O388  1  0.38396122  0.24627043  0.74879766  1
  O  O389  1  0.37689477  0.74426102  0.24585724  1
  O  O390  1  0.37099723  0.73717267  0.75163380  1
  O  O391  1  0.88139735  0.24017244  0.24792919  1
  O  O392  1  0.88379946  0.23747346  0.75711644  1
  O  O393  1  0.86531943  0.74221858  0.24273162  1
  O  O394  1  0.88178679  0.74247095  0.74978066  1
  O  O395  1  0.38098772  0.49637276  0.49153047  1
  O  O396  1  0.37823554  0.49431357  0.99566072  1
  O  O397  1  0.38044212  0.98765203  0.48998804  1
  O  O398  1  0.38380777  0.99807929  0.99257649  1
  O  O399  1  0.88203759  0.49674434  0.48873307  1
  O  O400  1  0.87646301  0.50734938  0.98582270  1
  O  O401  1  0.88525973  1.00281624  0.50416367  1
  O  O402  1  0.88253832  0.99711432  0.99436176  1
  O  O403  1  0.11883809  0.00843691  -0.00843545  1
  O  O404  1  0.11285941  0.00183628  0.50864212  1
  O  O405  1  0.13713862  0.50808946  -0.01427563  1
  O  O406  1  0.11838159  0.49104110  0.50817285  1
  O  O407  1  0.61905972  0.00861310  -0.00061822  1
  O  O408  1  0.62639163  0.01595762  0.50247234  1
  O  O409  1  0.61974203  0.50748007  0.00358411  1
  O  O410  1  0.61647791  0.50094330  0.49893120  1
  O  O411  1  0.38059901  0.36992172  0.11166226  1
  O  O412  1  0.36635137  0.37896424  0.61785687  1
  O  O413  1  0.37434312  0.86958085  0.11827787  1
  O  O414  1  0.37860427  0.87767340  0.61139709  1
  O  O415  1  0.85998026  0.37408255  0.12321870  1
  O  O416  1  0.86474809  0.37751427  0.62635994  1
  O  O417  1  0.87317702  0.85881004  0.12246223  1
  O  O418  1  0.86018648  0.87297263  0.62882631  1
  O  O419  1  0.12767208  0.12981440  0.37346258  1
  O  O420  1  0.13154848  0.12993654  0.88110971  1
  O  O421  1  0.13075384  0.64439232  0.35420540  1
  O  O422  1  0.12686734  0.62675480  0.86646016  1
  O  O423  1  0.61061769  0.14023039  0.39771611  1
  O  O424  1  0.62561680  0.13785603  0.87885984  1
  O  O425  1  0.63212848  0.62977689  0.37710841  1
  O  O426  1  0.62818873  0.63220247  0.87787014  1
