# generated using pymatgen
data_V85Zn86O256
_symmetry_space_group_name_H-M   'P 1'
_cell_length_a   17.00187904
_cell_length_b   16.97808293
_cell_length_c   16.97163400
_cell_angle_alpha   89.97636165
_cell_angle_beta   90.01179638
_cell_angle_gamma   89.92338372
_symmetry_Int_Tables_number   1
_chemical_formula_structural   V85Zn86O256
_chemical_formula_sum   'V85 Zn86 O256'
_cell_volume   4899.01530176
_cell_formula_units_Z   1
loop_
 _symmetry_equiv_pos_site_id
 _symmetry_equiv_pos_as_xyz
  1  'x, y, z'
loop_
 _atom_site_type_symbol
 _atom_site_label
 _atom_site_symmetry_multiplicity
 _atom_site_fract_x
 _atom_site_fract_y
 _atom_site_fract_z
 _atom_site_occupancy
  V  V0  1  0.49947848  0.25077286  0.24871491  1
  V  V1  1  0.87365700  0.75224263  0.62543656  1
  V  V2  1  0.86274029  0.87568148  -0.00022304  1
  V  V3  1  0.88303969  0.23662772  0.13622751  1
  V  V4  1  0.24171682  0.25407488  0.49933423  1
  V  V5  1  0.32741745  0.68161748  0.19226803  1
  V  V6  1  0.12973999  0.49396662  0.62218714  1
  V  V7  1  0.50144386  0.87630288  0.37023647  1
  V  V8  1  0.11990502  0.75160722  0.37498574  1
  V  V9  1  0.13538232  0.87377936  0.74113423  1
  V  V10  1  0.37869483  0.50660194  0.36967224  1
  V  V11  1  0.87657568  0.37240256  0.49688038  1
  V  V12  1  0.11771805  0.00864462  0.12112922  1
  V  V13  1  0.25169382  0.62738809  0.88032820  1
  V  V14  1  0.12289562  0.37267942  0.75421802  1
  V  V15  1  0.25811575  0.62839150  0.37790608  1
  V  V16  1  0.00345508  0.87720306  0.88007360  1
  V  V17  1  0.37289888  0.75348678  0.62658938  1
  V  V18  1  0.62448039  0.62509332  0.01177143  1
  V  V19  1  0.48739848  0.13001396  0.63476021  1
  V  V20  1  0.25050657  0.25740790  -0.00260454  1
  V  V21  1  0.87452267  0.49973441  0.37159272  1
  V  V22  1  0.37563529  0.62485875  0.75268330  1
  V  V23  1  0.37938271  0.88057847  0.50498400  1
  V  V24  1  0.00439645  0.24660509  0.74791436  1
  V  V25  1  0.07505461  0.18986376  0.93658321  1
  V  V26  1  0.62426124  0.24930205  0.37351809  1
  V  V27  1  0.75107417  0.50003221  0.75176926  1
  V  V28  1  0.74744285  -0.02223125  0.24446068  1
  V  V29  1  0.50422412  0.50357373  0.00944599  1
  V  V30  1  0.12241611  0.62619655  0.00276934  1
  V  V31  1  0.62572726  0.62555925  0.50101913  1
  V  V32  1  0.75055432  0.24761719  0.49613957  1
  V  V33  1  0.62429709  0.38388731  0.24680599  1
  V  V34  1  0.87515350  0.88169279  0.49443929  1
  V  V35  1  0.74859206  -0.00159672  0.74374761  1
  V  V36  1  0.87635675  0.25087053  0.62302739  1
  V  V37  1  0.36755974  0.27225704  0.12286511  1
  V  V38  1  0.75074558  0.62416719  0.37366549  1
  V  V39  1  0.50072573  0.62700884  0.62751758  1
  V  V40  1  0.87436763  0.62539300  0.75236926  1
  V  V41  1  0.24939085  0.12620349  0.38255974  1
  V  V42  1  0.24966000  0.49980467  0.74795164  1
  V  V43  1  0.74616607  0.38059348  0.12473939  1
  V  V44  1  0.37443826  0.12452108  0.24331933  1
  V  V45  1  0.48917814  0.88703898  0.87497405  1
  V  V46  1  0.00054937  0.75101630  0.75162358  1
  V  V47  1  0.49949281  0.49999044  0.50192247  1
  V  V48  1  0.50053624  0.75348167  0.75309868  1
  V  V49  1  0.00322795  0.37409262  0.35907634  1
  V  V50  1  0.30454775  0.32347979  0.67113835  1
  V  V51  1  0.38234175  0.00354121  0.37845958  1
  V  V52  1  0.62416160  0.75533410  0.37234372  1
  V  V53  1  0.12975275  0.75189078  0.88068133  1
  V  V54  1  -0.00168649  0.75082193  0.23515698  1
  V  V55  1  0.62183465  -0.01538445  0.12563713  1
  V  V56  1  -0.00006984  0.50413945  0.00218709  1
  V  V57  1  0.62474276  0.75194243  0.88058060  1
  V  V58  1  0.74582619  0.24900701  0.00366270  1
  V  V59  1  0.50535092  0.73988634  0.23875119  1
  V  V60  1  0.62288809  0.37013024  0.74899408  1
  V  V61  1  0.85816196  0.74945315  0.11587883  1
  V  V62  1  0.13311196  0.00626351  0.61698870  1
  V  V63  1  0.12555878  0.49138422  0.13038886  1
  V  V64  1  0.74532206  0.12208788  0.87315573  1
  V  V65  1  0.87795910  0.62432812  0.24293720  1
  V  V66  1  0.62060895  0.24863036  0.87223378  1
  V  V67  1  0.12583402  0.62460074  0.50156927  1
  V  V68  1  0.62649514  0.50043357  0.62566354  1
  V  V69  1  0.00074117  0.62384197  0.62618002  1
  V  V70  1  0.50226996  0.37679905  0.87954016  1
  V  V71  1  0.25055021  0.75700328  0.50639808  1
  V  V72  1  0.87682742  0.12211134  0.74632192  1
  V  V73  1  0.74997297  0.11756720  0.36318397  1
  V  V74  1  0.74970742  0.74895950  0.50098457  1
  V  V75  1  0.37207035  0.37220269  0.49709962  1
  V  V76  1  0.61672462  0.11427513  0.49998304  1
  V  V77  1  0.37559188  0.49333703  0.87940648  1
  V  V78  1  0.12236019  0.25085289  0.35739172  1
  V  V79  1  0.74880294  0.62916107  0.88049420  1
  V  V80  1  0.36497191  0.87028583  0.01376365  1
  V  V81  1  0.25096359  -0.00336200  0.24445567  1
  V  V82  1  0.00162508  0.49815950  0.49917341  1
  V  V83  1  0.75043167  0.37447386  0.62360269  1
  V  V84  1  0.87515401  0.37604636  0.00017707  1
  Zn  Zn85  1  0.61825706  -0.00406354  0.62152766  1
  Zn  Zn86  1  0.25738233  0.11928594  0.88305785  1
  Zn  Zn87  1  0.62424562  0.87805104  0.74945343  1
  Zn  Zn88  1  0.00470051  0.00595713  0.49269841  1
  Zn  Zn89  1  0.00544804  0.12412247  0.61454583  1
  Zn  Zn90  1  0.62263996  0.12042382  0.00457717  1
  Zn  Zn91  1  0.00104042  0.00780908  0.00260626  1
  Zn  Zn92  1  0.91481180  0.04395894  0.31638730  1
  Zn  Zn93  1  0.87640126  0.50006233  0.87587353  1
  Zn  Zn94  1  0.00325350  0.37357793  0.87891462  1
  Zn  Zn95  1  0.26034698  0.00041213  0.75589543  1
  Zn  Zn96  1  0.12265300  0.87598166  0.24826697  1
  Zn  Zn97  1  -0.00544485  0.87486623  0.37164609  1
  Zn  Zn98  1  0.25987137  0.48997774  0.23440767  1
  Zn  Zn99  1  0.50300175  0.37722533  0.37758877  1
  Zn  Zn100  1  0.74550311  0.87526698  0.62568837  1
  Zn  Zn101  1  0.24764131  0.85846231  0.12773879  1
  Zn  Zn102  1  0.37809462  0.11529160  0.76072961  1
  Zn  Zn103  1  0.49126821  0.00209838  0.00157705  1
  Zn  Zn104  1  0.50403773  0.12448923  0.12446849  1
  Zn  Zn105  1  0.74460201  0.50531249  0.24303888  1
  Zn  Zn106  1  0.87656220  -0.00180029  0.87531530  1
  Zn  Zn107  1  0.19224599  0.18312844  0.18473903  1
  Zn  Zn108  1  0.18826309  0.17878212  0.69568590  1
  Zn  Zn109  1  0.16652914  0.66964714  0.19554394  1
  Zn  Zn110  1  0.18842978  0.68673010  0.68957069  1
  Zn  Zn111  1  0.68611731  0.18681351  0.18389571  1
  Zn  Zn112  1  0.68568900  0.18666725  0.68430617  1
  Zn  Zn113  1  0.68770182  0.69298486  0.19016044  1
  Zn  Zn114  1  0.68723195  0.68931140  0.69161952  1
  Zn  Zn115  1  0.31455996  0.31471040  0.31000693  1
  Zn  Zn116  1  0.34180031  0.27845625  0.84343667  1
  Zn  Zn117  1  0.31411106  0.81710946  0.31762801  1
  Zn  Zn118  1  0.31344552  0.81358788  0.81708289  1
  Zn  Zn119  1  0.81106591  0.31198315  0.31014400  1
  Zn  Zn120  1  0.81150644  0.31079924  0.81378730  1
  Zn  Zn121  1  0.81324338  0.80862275  0.31071056  1
  Zn  Zn122  1  0.81126966  0.81384093  0.81558413  1
  Zn  Zn123  1  0.20706031  0.42108176  0.39854879  1
  Zn  Zn124  1  0.18966420  0.43247408  0.94119219  1
  Zn  Zn125  1  0.19212502  0.93586766  0.43439834  1
  Zn  Zn126  1  0.19391705  0.94031257  0.94259571  1
  Zn  Zn127  1  0.68828487  0.43773020  0.43462292  1
  Zn  Zn128  1  0.68698607  0.44080602  0.93819975  1
  Zn  Zn129  1  0.69168738  0.93541165  0.43462006  1
  Zn  Zn130  1  0.68167079  0.93927173  0.93534435  1
  Zn  Zn131  1  0.31054619  0.06132238  0.05647526  1
  Zn  Zn132  1  0.31164297  0.06213920  0.56712609  1
  Zn  Zn133  1  0.30972482  0.55323890  0.05543388  1
  Zn  Zn134  1  0.31310037  0.56262795  0.56073163  1
  Zn  Zn135  1  0.80824347  0.05735105  0.06630344  1
  Zn  Zn136  1  0.81146906  0.06746038  0.55835044  1
  Zn  Zn137  1  0.81090736  0.56357439  0.06173166  1
  Zn  Zn138  1  0.81434041  0.56188624  0.56197951  1
  Zn  Zn139  1  0.44247894  0.44168037  0.19132387  1
  Zn  Zn140  1  0.44366691  0.43999301  0.69319621  1
  Zn  Zn141  1  0.43833817  0.93238444  0.18844468  1
  Zn  Zn142  1  0.44057820  0.94570192  0.68249228  1
  Zn  Zn143  1  0.93530104  0.43893755  0.17949258  1
  Zn  Zn144  1  0.93951196  0.43651485  0.68863394  1
  Zn  Zn145  1  0.93787206  0.93118272  0.18004457  1
  Zn  Zn146  1  0.94369409  0.93825108  0.68476460  1
  Zn  Zn147  1  0.07398038  0.06261191  0.31476955  1
  Zn  Zn148  1  0.06549994  0.05333847  0.80728443  1
  Zn  Zn149  1  0.05934545  0.56603849  0.31353683  1
  Zn  Zn150  1  0.06192739  0.56036105  0.81638760  1
  Zn  Zn151  1  0.56570425  0.06054249  0.30618116  1
  Zn  Zn152  1  0.56114725  0.06434718  0.80607492  1
  Zn  Zn153  1  0.56123521  0.56698760  0.31306447  1
  Zn  Zn154  1  0.56465987  0.56300864  0.81598025  1
  Zn  Zn155  1  0.43647371  0.19055425  0.43871600  1
  Zn  Zn156  1  0.43848906  0.18611688  0.94935903  1
  Zn  Zn157  1  0.44076550  0.69189423  0.43870495  1
  Zn  Zn158  1  0.43845093  0.68897094  0.94248021  1
  Zn  Zn159  1  0.95827349  0.16910869  0.41008848  1
  Zn  Zn160  1  0.91539965  0.18724740  0.93903426  1
  Zn  Zn161  1  0.93754203  0.68837675  0.43623108  1
  Zn  Zn162  1  0.93859221  0.68969857  0.93832728  1
  Zn  Zn163  1  0.05870887  0.31703890  0.07390256  1
  Zn  Zn164  1  0.06188166  0.31303560  0.56048715  1
  Zn  Zn165  1  0.06679563  0.81819271  0.06275008  1
  Zn  Zn166  1  0.05934123  0.81422021  0.56193640  1
  Zn  Zn167  1  0.56046133  0.31329310  0.06323356  1
  Zn  Zn168  1  0.56114083  0.30969860  0.56061932  1
  Zn  Zn169  1  0.55868062  0.81380366  0.05650234  1
  Zn  Zn170  1  0.56109832  0.81645775  0.56095147  1
  O  O171  1  0.12612452  0.10766861  0.13233376  1
  O  O172  1  0.12443594  0.10980645  0.62629906  1
  O  O173  1  0.12268125  0.61993572  0.10540569  1
  O  O174  1  0.11859209  0.61843820  0.62245245  1
  O  O175  1  0.62276031  0.11603806  0.12368839  1
  O  O176  1  0.62664298  0.12469481  0.60743234  1
  O  O177  1  0.63621599  0.62930094  0.11059410  1
  O  O178  1  0.62084615  0.62087250  0.62168223  1
  O  O179  1  0.38288396  0.38666497  0.38416788  1
  O  O180  1  0.39106122  0.38066707  0.87015814  1
  O  O181  1  0.38169997  0.88436224  0.38324570  1
  O  O182  1  0.38758308  0.87340306  0.87898246  1
  O  O183  1  0.88018512  0.37977186  0.37849598  1
  O  O184  1  0.87352514  0.37412735  0.88924684  1
  O  O185  1  0.87252485  0.86516705  0.39102361  1
  O  O186  1  0.88418243  0.87264343  0.88473631  1
  O  O187  1  0.25804585  0.00807220  0.36815847  1
  O  O188  1  0.23835506  0.00697268  0.86945441  1
  O  O189  1  0.26150637  0.52142531  0.38650722  1
  O  O190  1  0.25895821  0.50155713  0.87021451  1
  O  O191  1  0.73847637  0.00680575  0.35702447  1
  O  O192  1  0.75007595  0.00892105  0.86510731  1
  O  O193  1  0.75737205  0.50680037  0.37127011  1
  O  O194  1  0.75214014  0.50794226  0.86744572  1
  O  O195  1  0.23305686  0.50292753  0.12263736  1
  O  O196  1  0.23916953  0.50981896  0.63272774  1
  O  O197  1  0.24560530  1.00284703  0.13811859  1
  O  O198  1  0.23690461  0.99945160  0.62950787  1
  O  O199  1  0.75252321  0.48551792  0.12421946  1
  O  O200  1  0.74562608  0.49395899  0.62976990  1
  O  O201  1  0.73844588  0.99791168  0.13691612  1
  O  O202  1  0.75007423  1.00167991  0.63591054  1
  O  O203  1  -0.00578618  0.38287960  0.26073110  1
  O  O204  1  0.00486997  0.36531585  0.75542362  1
  O  O205  1  -0.00053089  0.86297978  0.25206199  1
  O  O206  1  0.00670515  0.86904904  0.76053585  1
  O  O207  1  0.50708576  0.36603739  0.25218986  1
  O  O208  1  0.51624180  0.38038097  0.76007943  1
  O  O209  1  0.49209409  0.86144252  0.26496673  1
  O  O210  1  0.50027127  0.86828487  0.75984300  1
  O  O211  1  0.49391208  0.13816800  0.25087863  1
  O  O212  1  0.49665630  0.13160307  0.73997904  1
  O  O213  1  0.50037663  0.64012482  0.25080155  1
  O  O214  1  0.49479957  0.63206225  0.74850022  1
  O  O215  1  0.98578103  0.12967201  0.30313591  1
  O  O216  1  0.99232738  0.13011983  0.74719670  1
  O  O217  1  0.98379410  0.63446995  0.25538366  1
  O  O218  1  0.99446451  0.63008101  0.74699056  1
  O  O219  1  0.36685535  0.25966511  0.01562975  1
  O  O220  1  0.36792289  0.26561923  0.49441929  1
  O  O221  1  0.38378086  0.77054208  -0.00277991  1
  O  O222  1  0.36838101  0.75648421  0.50600311  1
  O  O223  1  0.85986386  0.25839219  0.00556454  1
  O  O224  1  0.86664368  0.25970976  0.50374988  1
  O  O225  1  0.87636231  0.75606715  0.00939913  1
  O  O226  1  0.86896392  0.75260153  0.50870183  1
  O  O227  1  0.13935864  0.25611791  0.49832287  1
  O  O228  1  0.12727046  0.24692921  1.00622730  1
  O  O229  1  0.13131739  0.74634458  0.49631015  1
  O  O230  1  0.11955280  0.74291602  0.98769104  1
  O  O231  1  0.63019674  0.24656776  0.48591649  1
  O  O232  1  0.63513534  0.24996969  0.99413959  1
  O  O233  1  0.63034473  0.74363310  0.49430233  1
  O  O234  1  0.61600920  0.74073038  0.98764128  1
  O  O235  1  0.48525595  0.25240151  0.13112605  1
  O  O236  1  0.50848200  0.22806216  0.61589708  1
  O  O237  1  0.50681763  0.75434025  0.14059123  1
  O  O238  1  0.49527550  0.74510770  0.63386296  1
  O  O239  1  0.98169148  0.25099184  0.12163117  1
  O  O240  1  0.99319686  0.24826289  0.63222839  1
  O  O241  1  0.99691994  0.75101024  0.13314549  1
  O  O242  1  0.99280822  0.74352249  0.63074576  1
  O  O243  1  0.01701732  0.26260274  0.38020462  1
  O  O244  1  0.00692803  0.24722514  0.87588427  1
  O  O245  1  0.00726714  0.75071849  0.36835286  1
  O  O246  1  0.00898881  0.75491593  0.86842837  1
  O  O247  1  0.50752890  0.25294584  0.36684537  1
  O  O248  1  0.51624926  0.26080428  0.88537073  1
  O  O249  1  0.50846828  0.75463055  0.36925199  1
  O  O250  1  0.50489300  0.75641765  0.86751503  1
  O  O251  1  0.26325018  0.13694119  0.48877485  1
  O  O252  1  0.25555832  0.14462448  1.00144295  1
  O  O253  1  0.24594277  0.63780976  0.49559873  1
  O  O254  1  0.24138084  0.61768175  0.98547014  1
  O  O255  1  0.73760147  0.13074106  0.49062830  1
  O  O256  1  0.74998845  0.13154319  0.98879975  1
  O  O257  1  0.74552249  0.62980276  0.49527615  1
  O  O258  1  0.74189335  0.61821483  0.98632036  1
  O  O259  1  0.23915677  0.35846351  0.01123830  1
  O  O260  1  0.25942390  0.36880516  0.49315992  1
  O  O261  1  0.26011059  0.86901422  0.00563736  1
  O  O262  1  0.26158225  0.86224323  0.49330810  1
  O  O263  1  0.75237914  0.36947747  0.00516004  1
  O  O264  1  0.75496474  0.36946967  0.50356794  1
  O  O265  1  0.76490264  0.87623441  -0.01251837  1
  O  O266  1  0.75871292  0.86661086  0.50281969  1
  O  O267  1  0.12443324  0.52314802  0.23041654  1
  O  O268  1  0.12943337  0.49457124  0.74327145  1
  O  O269  1  0.13573470  0.99628335  0.24532348  1
  O  O270  1  0.12547961  0.98435066  0.73756649  1
  O  O271  1  0.62340487  0.48776645  0.25634343  1
  O  O272  1  0.63180167  0.49388157  0.74435890  1
  O  O273  1  0.63402326  0.99853267  0.23737372  1
  O  O274  1  0.63549859  1.00013996  0.74594713  1
  O  O275  1  0.37040015  0.00682338  0.25713839  1
  O  O276  1  0.37480408  0.00091715  0.75027469  1
  O  O277  1  0.37854392  0.50136831  0.26538899  1
  O  O278  1  0.37100504  0.50447230  0.75992513  1
  O  O279  1  0.85533698  -0.01263535  0.24070041  1
  O  O280  1  0.87065205  0.00743760  0.75014979  1
  O  O281  1  0.87307121  0.50970792  0.25082229  1
  O  O282  1  0.86990221  0.50680964  0.75141544  1
  O  O283  1  0.11357091  0.36137557  0.37813576  1
  O  O284  1  0.12514012  0.38270665  0.85708645  1
  O  O285  1  0.12812055  0.85916990  0.37287495  1
  O  O286  1  0.12041913  0.86697354  0.86898599  1
  O  O287  1  0.62504804  0.36568605  0.36769427  1
  O  O288  1  0.62440343  0.36966454  0.86673690  1
  O  O289  1  0.61715842  0.86287876  0.38312054  1
  O  O290  1  0.61472122  0.86634349  0.87322527  1
  O  O291  1  0.37741689  0.12565409  0.13871129  1
  O  O292  1  0.38558428  0.12810531  0.62487761  1
  O  O293  1  0.37208445  0.62182839  0.12686807  1
  O  O294  1  0.38146238  0.63052809  0.63271097  1
  O  O295  1  0.86826982  0.13814133  0.11890835  1
  O  O296  1  0.86899613  0.13313570  0.63713536  1
  O  O297  1  0.87001461  0.63840692  0.12867123  1
  O  O298  1  0.87963436  0.63430486  0.62988520  1
  O  O299  1  0.26472076  0.24832890  0.12514019  1
  O  O300  1  0.24800858  0.25357799  0.61909045  1
  O  O301  1  0.25553757  0.73627196  0.14457085  1
  O  O302  1  0.25832009  0.74482639  0.61717698  1
  O  O303  1  0.75276445  0.25896610  0.11704365  1
  O  O304  1  0.75504571  0.25697577  0.61871183  1
  O  O305  1  0.76064776  0.75429392  0.12435069  1
  O  O306  1  0.75851832  0.74910516  0.62146857  1
  O  O307  1  0.24283161  0.24475270  0.38057617  1
  O  O308  1  0.24141696  0.25863235  0.89514902  1
  O  O309  1  0.24557015  0.74218615  0.38107663  1
  O  O310  1  0.24107600  0.73925920  0.86911347  1
  O  O311  1  0.74096078  0.24038003  0.37479483  1
  O  O312  1  0.74176416  0.24292513  0.88143433  1
  O  O313  1  0.74196553  0.74396102  0.37905744  1
  O  O314  1  0.73721114  0.74084580  0.86716081  1
  O  O315  1  0.00677206  0.13045767  -0.01507873  1
  O  O316  1  -0.01997929  0.11753912  0.50509025  1
  O  O317  1  0.00986634  0.61574364  -0.01083027  1
  O  O318  1  0.00536953  0.61943020  0.50504936  1
  O  O319  1  0.50347376  0.11849781  0.00609119  1
  O  O320  1  0.51526750  0.12801765  0.49573273  1
  O  O321  1  0.50876552  0.61206708  -0.00623947  1
  O  O322  1  0.50681111  0.62104441  0.50786354  1
  O  O323  1  0.49316939  0.38302666  0.50173283  1
  O  O324  1  0.51182061  0.38912005  0.98803800  1
  O  O325  1  0.48929414  0.86755637  0.48477270  1
  O  O326  1  0.49388512  0.87961191  0.98639067  1
  O  O327  1  0.99233857  0.38198116  0.49489068  1
  O  O328  1  0.99061170  0.38039659  0.99884918  1
  O  O329  1  0.98355710  0.87248553  0.49895791  1
  O  O330  1  0.99502396  0.87317909  0.98795366  1
  O  O331  1  0.49480590  0.50252519  0.38435163  1
  O  O332  1  0.49431046  0.49383003  0.87860022  1
  O  O333  1  0.49054819  0.99314653  0.36679486  1
  O  O334  1  0.50715781  0.98804539  0.87432654  1
  O  O335  1  0.99553669  0.49463566  0.37999706  1
  O  O336  1  0.99686035  0.49529666  0.88623670  1
  O  O337  1  1.00251970  0.98863215  0.37659036  1
  O  O338  1  0.99845337  0.99074567  0.87823209  1
  O  O339  1  0.01264487  -0.00226766  0.12466590  1
  O  O340  1  0.01593040  -0.00087400  0.62124136  1
  O  O341  1  0.00814283  0.49968363  0.11103578  1
  O  O342  1  0.00576305  0.50647519  0.62051062  1
  O  O343  1  0.51207488  -0.00094128  0.13004603  1
  O  O344  1  0.50546270  0.02175173  0.62204679  1
  O  O345  1  0.49703394  0.49527222  0.10791307  1
  O  O346  1  0.50738278  0.50726848  0.62224751  1
  O  O347  1  0.24320130  0.39548954  0.28991014  1
  O  O348  1  0.24225800  0.37818895  0.73764594  1
  O  O349  1  0.25114754  0.88423184  0.25027321  1
  O  O350  1  0.23622964  0.87034734  0.75260044  1
  O  O351  1  0.74093934  0.37748037  0.24219966  1
  O  O352  1  0.74299913  0.37965626  0.74515117  1
  O  O353  1  0.74256166  0.87988549  0.25476216  1
  O  O354  1  0.74978655  0.88520601  0.74894357  1
  O  O355  1  0.25985194  0.11990894  0.26158356  1
  O  O356  1  0.25866687  0.12475168  0.75935129  1
  O  O357  1  0.26135271  0.62420708  0.25600427  1
  O  O358  1  0.25503002  0.61867054  0.76062256  1
  O  O359  1  0.74417466  0.12249815  0.26162502  1
  O  O360  1  0.75513851  0.12083000  0.75580982  1
  O  O361  1  0.75990920  0.62575859  0.25447237  1
  O  O362  1  0.75476745  0.61988351  0.75824785  1
  O  O363  1  0.37318395  0.11953545  0.36742478  1
  O  O364  1  0.37019836  0.16689744  0.86504018  1
  O  O365  1  0.36963215  0.62056199  0.38420188  1
  O  O366  1  0.36900269  0.61849300  0.87177335  1
  O  O367  1  0.84864262  0.11753161  0.38531876  1
  O  O368  1  0.86270118  0.12313238  0.86198343  1
  O  O369  1  0.86933694  0.62049057  0.36732909  1
  O  O370  1  0.86594665  0.62710286  0.86995482  1
  O  O371  1  0.11959851  0.39251092  0.13273288  1
  O  O372  1  0.11562081  0.38904296  0.63391142  1
  O  O373  1  0.13229954  0.88237576  0.13006707  1
  O  O374  1  0.12197696  0.87321496  0.63845328  1
  O  O375  1  0.63264665  0.36755951  0.13590338  1
  O  O376  1  0.62934258  0.37808372  0.63124726  1
  O  O377  1  0.62287520  0.88548130  0.12048263  1
  O  O378  1  0.62682571  0.87787708  0.62842710  1
  O  O379  1  0.13038306  0.24841400  0.25941580  1
  O  O380  1  0.11193789  0.25746684  0.74000872  1
  O  O381  1  0.11301999  0.74648047  0.25842662  1
  O  O382  1  0.12090439  0.75758908  0.75658044  1
  O  O383  1  0.61772466  0.25534133  0.25746309  1
  O  O384  1  0.63313245  0.25930433  0.75913009  1
  O  O385  1  0.61544118  0.74772047  0.25992903  1
  O  O386  1  0.61225204  0.74938114  0.75813918  1
  O  O387  1  0.38070700  0.24620734  0.24421826  1
  O  O388  1  0.36706785  0.27445064  0.72943451  1
  O  O389  1  0.38417224  0.74540902  0.25256728  1
  O  O390  1  0.38463158  0.74687099  0.74788408  1
  O  O391  1  0.86788762  0.25159184  0.23450095  1
  O  O392  1  0.88549046  0.24505553  0.74752800  1
  O  O393  1  0.87808751  0.74620423  0.23589204  1
  O  O394  1  0.87896183  0.74594397  0.74287389  1
  O  O395  1  0.38002926  0.49364445  0.49447770  1
  O  O396  1  0.38731334  0.50240036  0.98644096  1
  O  O397  1  0.36869893  0.99180029  0.49064605  1
  O  O398  1  0.37615907  0.98132011  1.00581914  1
  O  O399  1  0.87996212  0.49332136  0.49310926  1
  O  O400  1  0.88197941  0.49372831  1.00048714  1
  O  O401  1  0.86866892  0.98212628  0.50648838  1
  O  O402  1  0.87859832  0.98799837  0.99996233  1
  O  O403  1  0.12253732  -0.00403581  0.01724975  1
  O  O404  1  0.12731145  -0.01305376  0.51463146  1
  O  O405  1  0.11817239  0.50454228  0.00505300  1
  O  O406  1  0.12028061  0.50791363  0.50856520  1
  O  O407  1  0.62533903  0.00027968  0.01385578  1
  O  O408  1  0.63040449  0.01212244  0.49770292  1
  O  O409  1  0.61265335  0.50992749  -0.00616814  1
  O  O410  1  0.62116658  0.50533952  0.50605423  1
  O  O411  1  0.36968592  0.36991760  0.13595410  1
  O  O412  1  0.36879041  0.38627738  0.61806008  1
  O  O413  1  0.36921555  0.87072856  0.11913369  1
  O  O414  1  0.38630417  0.86920187  0.61189327  1
  O  O415  1  0.86629625  0.36903999  0.11386365  1
  O  O416  1  0.87026829  0.37073048  0.61926478  1
  O  O417  1  0.87789236  0.86195320  0.10851809  1
  O  O418  1  0.87479055  0.86280159  0.61878591  1
  O  O419  1  0.13904524  0.13971712  0.37735648  1
  O  O420  1  0.12470335  0.13151409  0.87149194  1
  O  O421  1  0.13290721  0.63472843  0.38059093  1
  O  O422  1  0.13254296  0.63126731  0.87929432  1
  O  O423  1  0.62940886  0.12981998  0.38110533  1
  O  O424  1  0.63129952  0.13257870  0.87444445  1
  O  O425  1  0.63064656  0.63382334  0.38126415  1
  O  O426  1  0.63168999  0.63241616  0.87973028  1
