# generated using pymatgen
data_V85Zn86O256
_symmetry_space_group_name_H-M   'P 1'
_cell_length_a   16.93642483
_cell_length_b   16.92593020
_cell_length_c   16.92868042
_cell_angle_alpha   89.98471981
_cell_angle_beta   90.00955762
_cell_angle_gamma   89.98692528
_symmetry_Int_Tables_number   1
_chemical_formula_structural   V85Zn86O256
_chemical_formula_sum   'V85 Zn86 O256'
_cell_volume   4852.85548170
_cell_formula_units_Z   1
loop_
 _symmetry_equiv_pos_site_id
 _symmetry_equiv_pos_as_xyz
  1  'x, y, z'
loop_
 _atom_site_type_symbol
 _atom_site_label
 _atom_site_symmetry_multiplicity
 _atom_site_fract_x
 _atom_site_fract_y
 _atom_site_fract_z
 _atom_site_occupancy
  V  V0  1  0.12293406  -0.00741047  0.62673319  1
  V  V1  1  0.37124005  0.12211088  0.75423257  1
  V  V2  1  0.74577186  0.37301902  0.63130640  1
  V  V3  1  0.00532159  0.12769234  0.11695135  1
  V  V4  1  0.00184857  0.50079339  -0.00156744  1
  V  V5  1  0.74832844  0.24740789  -0.00590763  1
  V  V6  1  0.62082370  -0.00168446  0.62125111  1
  V  V7  1  0.00754511  0.25213805  0.25575354  1
  V  V8  1  0.12410125  0.62683024  -0.01600042  1
  V  V9  1  0.87482020  0.87426643  0.00866756  1
  V  V10  1  0.62600413  0.87744373  0.23806786  1
  V  V11  1  0.37836225  0.75298684  0.63799941  1
  V  V12  1  0.12240817  0.61656281  0.50570161  1
  V  V13  1  0.87647198  0.37494025  0.00137556  1
  V  V14  1  0.74838373  0.87950514  0.63075338  1
  V  V15  1  0.24504575  0.38635646  0.63165726  1
  V  V16  1  0.00565074  0.37565418  0.38178242  1
  V  V17  1  0.62451074  0.88088484  0.75331757  1
  V  V18  1  0.87374719  0.62436979  0.74904337  1
  V  V19  1  -0.00148912  0.75065970  0.24630115  1
  V  V20  1  0.62997212  0.11846885  -0.00893114  1
  V  V21  1  0.49916814  0.74516683  0.24541410  1
  V  V22  1  0.50907038  0.12519912  0.12590534  1
  V  V23  1  0.12696635  0.74936339  0.37509095  1
  V  V24  1  0.75210139  0.62631672  0.87795569  1
  V  V25  1  0.62451682  0.75059237  0.86996988  1
  V  V26  1  0.75097781  0.37489086  0.12589015  1
  V  V27  1  0.00132344  0.24334699  0.74935835  1
  V  V28  1  0.87670322  0.37669754  0.50402993  1
  V  V29  1  0.13797024  0.50299947  0.12618535  1
  V  V30  1  -0.00166283  0.00083447  0.49891816  1
  V  V31  1  0.00662592  0.87934908  0.87011752  1
  V  V32  1  0.12133178  0.12694981  0.49387853  1
  V  V33  1  0.37075226  0.24914570  0.62547295  1
  V  V34  1  0.37345661  0.37665198  0.49761766  1
  V  V35  1  0.87459726  0.12628028  0.25084800  1
  V  V36  1  0.61723916  0.62434548  0.50152800  1
  V  V37  1  0.37319465  0.61760610  0.23841192  1
  V  V38  1  0.85719757  0.12205350  0.75072803  1
  V  V39  1  0.62018155  0.12914743  0.49337990  1
  V  V40  1  0.25592311  0.87611768  0.11998098  1
  V  V41  1  0.62282991  0.75228980  0.37500742  1
  V  V42  1  0.63074651  0.36664621  0.25655691  1
  V  V43  1  -0.00095644  0.62968926  0.12251915  1
  V  V44  1  0.87626776  0.74991893  0.62610879  1
  V  V45  1  0.37267283  0.36486676  0.00336398  1
  V  V46  1  0.49712964  -0.00731473  0.00807594  1
  V  V47  1  0.62086508  0.62542845  0.00968978  1
  V  V48  1  0.37579566  0.12642800  0.24631522  1
  V  V49  1  0.49230511  0.62435429  0.64303084  1
  V  V50  1  0.13223802  0.38067970  0.25204388  1
  V  V51  1  0.74825549  0.75002693  0.50167090  1
  V  V52  1  0.87491987  0.63003575  0.24627706  1
  V  V53  1  0.37668767  -0.00326267  0.38628245  1
  V  V54  1  0.87212228  0.87515336  0.49988165  1
  V  V55  1  0.12702024  0.00445950  0.11583962  1
  V  V56  1  0.62179490  0.49595119  0.63288618  1
  V  V57  1  0.13171619  0.24374634  0.88026569  1
  V  V58  1  0.25243206  0.52035359  0.76808003  1
  V  V59  1  0.49877747  0.25149438  0.24716005  1
  V  V60  1  0.49449872  0.87587515  0.87440381  1
  V  V61  1  0.49723613  0.87551016  0.38569855  1
  V  V62  1  0.24675211  -0.00900028  0.75020041  1
  V  V63  1  0.75155021  0.49943337  0.25233521  1
  V  V64  1  0.49537621  0.11662175  0.62182258  1
  V  V65  1  0.00238642  0.37339602  0.87540343  1
  V  V66  1  -0.00177851  0.87519861  0.37335974  1
  V  V67  1  0.12516042  0.87517534  0.24752684  1
  V  V68  1  0.26158074  0.75330667  0.49505662  1
  V  V69  1  0.88312706  0.50250818  0.38132317  1
  V  V70  1  0.86039537  0.00048555  0.87258098  1
  V  V71  1  0.50059733  0.49500665  0.00633468  1
  V  V72  1  0.74984277  0.62470588  0.37775203  1
  V  V73  1  0.00729492  0.75576694  0.74568430  1
  V  V74  1  0.24315615  0.25080892  0.49490291  1
  V  V75  1  0.37832312  0.75121413  0.11745554  1
  V  V76  1  0.25243983  -0.00060839  0.25029146  1
  V  V77  1  0.50500617  0.25585789  0.75047031  1
  V  V78  1  0.25137372  0.61607687  0.36812443  1
  V  V79  1  0.24909594  0.75089328  -0.00719874  1
  V  V80  1  0.75614272  0.75308961  0.01408236  1
  V  V81  1  0.50517768  0.37117864  0.37696423  1
  V  V82  1  0.87796893  0.25057270  0.12551050  1
  V  V83  1  0.86668796  0.00174707  0.37474318  1
  V  V84  1  0.74672296  -0.00326992  0.23368708  1
  Zn  Zn85  1  0.49648417  0.50032639  0.49923073  1
  Zn  Zn86  1  0.37172741  -0.00341150  0.88046475  1
  Zn  Zn87  1  0.11861257  0.37856917  0.74210796  1
  Zn  Zn88  1  0.25407937  0.87594521  0.61967375  1
  Zn  Zn89  1  0.74451808  0.25387521  0.49371876  1
  Zn  Zn90  1  0.50643547  0.37759355  0.87441720  1
  Zn  Zn91  1  -0.00324300  0.60197375  0.61449792  1
  Zn  Zn92  1  0.38209181  0.50871560  0.87333636  1
  Zn  Zn93  1  0.24738548  0.12705543  0.37319235  1
  Zn  Zn94  1  0.12935864  0.75103766  0.86536539  1
  Zn  Zn95  1  0.63162051  0.25324488  0.86756094  1
  Zn  Zn96  1  0.25986104  0.37598790  0.13260421  1
  Zn  Zn97  1  0.24429215  0.11768422  0.88176060  1
  Zn  Zn98  1  0.62624422  0.50333327  0.13100502  1
  Zn  Zn99  1  0.87273428  0.24761768  0.62459226  1
  Zn  Zn100  1  -0.00303383  0.12449704  0.62480602  1
  Zn  Zn101  1  0.74120323  0.13219849  0.37042322  1
  Zn  Zn102  1  0.74455042  0.49404962  0.75633661  1
  Zn  Zn103  1  0.25124565  0.23857148  0.01549282  1
  Zn  Zn104  1  0.87470190  0.49983923  0.87523306  1
  Zn  Zn105  1  0.37489996  0.49631200  0.36482240  1
  Zn  Zn106  1  0.00132569  0.00465700  -0.00622207  1
  Zn  Zn107  1  0.18883015  0.19010075  0.18943438  1
  Zn  Zn108  1  0.18525293  0.18417657  0.68531334  1
  Zn  Zn109  1  0.18911471  0.68704514  0.18231637  1
  Zn  Zn110  1  0.19039158  0.68786592  0.68272455  1
  Zn  Zn111  1  0.68787218  0.18675650  0.18545421  1
  Zn  Zn112  1  0.68492620  0.18817690  0.67849402  1
  Zn  Zn113  1  0.69018778  0.69200012  0.18965176  1
  Zn  Zn114  1  0.68492645  0.68859838  0.68896661  1
  Zn  Zn115  1  0.31422301  0.30967283  0.31253929  1
  Zn  Zn116  1  0.31996032  0.31662401  0.81682894  1
  Zn  Zn117  1  0.31529101  0.81173417  0.30912840  1
  Zn  Zn118  1  0.31242255  0.81348028  0.81046940  1
  Zn  Zn119  1  0.81639615  0.30986538  0.31817771  1
  Zn  Zn120  1  0.81504397  0.31071818  0.81256077  1
  Zn  Zn121  1  0.80914525  0.81334592  0.30965729  1
  Zn  Zn122  1  0.81238744  0.81367766  0.81580464  1
  Zn  Zn123  1  0.18847070  0.43798099  0.43834417  1
  Zn  Zn124  1  0.18832168  0.43504965  0.93555086  1
  Zn  Zn125  1  0.18838112  0.93771578  0.43749470  1
  Zn  Zn126  1  0.18762444  0.93641993  0.93711592  1
  Zn  Zn127  1  0.68839434  0.43857480  0.44197151  1
  Zn  Zn128  1  0.68297388  0.43525363  0.93554460  1
  Zn  Zn129  1  0.68274136  0.93965690  0.43712020  1
  Zn  Zn130  1  0.68665260  0.93522129  0.94445288  1
  Zn  Zn131  1  0.31790068  0.06640435  0.06368206  1
  Zn  Zn132  1  0.30670334  0.06453358  0.56384230  1
  Zn  Zn133  1  0.32977720  0.58174974  0.02559087  1
  Zn  Zn134  1  0.31124882  0.56388148  0.56062144  1
  Zn  Zn135  1  0.81645155  0.06324739  0.05951858  1
  Zn  Zn136  1  0.80620530  0.06323416  0.56358512  1
  Zn  Zn137  1  0.81337925  0.56241973  0.06274178  1
  Zn  Zn138  1  0.80906098  0.55929815  0.56494525  1
  Zn  Zn139  1  0.44210726  0.43640707  0.17957053  1
  Zn  Zn140  1  0.42906547  0.44011959  0.68764228  1
  Zn  Zn141  1  0.43993454  0.93617993  0.19064922  1
  Zn  Zn142  1  0.43752700  0.93455919  0.69002298  1
  Zn  Zn143  1  0.94276848  0.44172144  0.18892485  1
  Zn  Zn144  1  0.93223875  0.43697719  0.69106824  1
  Zn  Zn145  1  0.93852970  0.94230352  0.18729182  1
  Zn  Zn146  1  0.93551231  0.94076801  0.68857046  1
  Zn  Zn147  1  0.06154742  0.06209700  0.30974682  1
  Zn  Zn148  1  0.06082706  0.06212198  0.81015928  1
  Zn  Zn149  1  0.06450309  0.56235496  0.31247902  1
  Zn  Zn150  1  0.05252133  0.54745600  0.78202149  1
  Zn  Zn151  1  0.55992174  0.05618166  0.31118623  1
  Zn  Zn152  1  0.56133029  0.06138352  0.81101515  1
  Zn  Zn153  1  0.55973160  0.55928824  0.31206343  1
  Zn  Zn154  1  0.56443581  0.56226561  0.81876072  1
  Zn  Zn155  1  0.43742602  0.18818801  0.43508820  1
  Zn  Zn156  1  0.43832364  0.18386327  0.93637745  1
  Zn  Zn157  1  0.43627071  0.68458843  0.43139957  1
  Zn  Zn158  1  0.44043813  0.69143841  0.93337293  1
  Zn  Zn159  1  0.93422805  0.19084859  0.43727323  1
  Zn  Zn160  1  0.93529555  0.18619271  0.93326679  1
  Zn  Zn161  1  0.94061085  0.68778577  0.43868207  1
  Zn  Zn162  1  0.93927704  0.69293635  0.93351037  1
  Zn  Zn163  1  0.07085515  0.31293608  0.06478217  1
  Zn  Zn164  1  0.06127924  0.31171119  0.56338205  1
  Zn  Zn165  1  0.06196821  0.81465282  0.05844936  1
  Zn  Zn166  1  0.06452552  0.80924052  0.55978406  1
  Zn  Zn167  1  0.56551717  0.31093826  0.06403193  1
  Zn  Zn168  1  0.55931066  0.30993411  0.56613333  1
  Zn  Zn169  1  0.56407926  0.80861886  0.06059064  1
  Zn  Zn170  1  0.55817661  0.80893407  0.56670245  1
  O  O171  1  0.11613727  0.11550944  0.13542278  1
  O  O172  1  0.12228186  0.11343988  0.61181961  1
  O  O173  1  0.11597949  0.61847675  0.12073421  1
  O  O174  1  0.12415516  0.63132957  0.60809383  1
  O  O175  1  0.61469045  0.12612082  0.11665476  1
  O  O176  1  0.61518854  0.11579509  0.61830751  1
  O  O177  1  0.63370982  0.62604837  0.11287740  1
  O  O178  1  0.61093307  0.62346138  0.62034330  1
  O  O179  1  0.38119285  0.37656399  0.38135232  1
  O  O180  1  0.38539119  0.37956915  0.88749664  1
  O  O181  1  0.38124096  0.88693548  0.36982276  1
  O  O182  1  0.39071764  0.87526610  0.86978160  1
  O  O183  1  0.88379986  0.38477775  0.38224813  1
  O  O184  1  0.88580197  0.37311167  0.88290721  1
  O  O185  1  0.87673420  0.88148096  0.38016118  1
  O  O186  1  0.88096166  0.88729305  0.87777407  1
  O  O187  1  0.26022886  -0.00053911  0.36824837  1
  O  O188  1  0.25178825  -0.00181090  0.86624827  1
  O  O189  1  0.25297832  0.51259094  0.37546334  1
  O  O190  1  0.25528540  0.50258931  0.87071941  1
  O  O191  1  0.75923418  0.00243802  0.37164423  1
  O  O192  1  0.76182075  -0.00467765  0.87674496  1
  O  O193  1  0.76043779  0.50566379  0.37190276  1
  O  O194  1  0.74862854  0.51478001  0.87679069  1
  O  O195  1  0.23762679  0.49676580  0.11801270  1
  O  O196  1  0.25598521  0.48889239  0.63142073  1
  O  O197  1  0.24584848  0.99445154  0.12965541  1
  O  O198  1  0.24195555  0.99634325  0.62935336  1
  O  O199  1  0.75219184  0.49281114  0.13500267  1
  O  O200  1  0.73822754  0.49356980  0.62795695  1
  O  O201  1  0.75625255  1.00050696  0.13479231  1
  O  O202  1  0.74103387  0.98518817  0.62202938  1
  O  O203  1  0.00574554  0.37048862  0.25865085  1
  O  O204  1  -0.00426008  0.35966075  0.75985283  1
  O  O205  1  0.00321116  0.87017006  0.25351552  1
  O  O206  1  -0.00804103  0.86749995  0.75697079  1
  O  O207  1  0.50838508  0.36876052  0.25423243  1
  O  O208  1  0.49193893  0.35804025  0.74378134  1
  O  O209  1  0.50699762  0.86505410  0.25736159  1
  O  O210  1  0.51373282  0.87859228  0.75984014  1
  O  O211  1  0.49908261  0.13098239  0.24546146  1
  O  O212  1  0.49088061  0.12912380  0.74066878  1
  O  O213  1  0.49369718  0.63792345  0.25375821  1
  O  O214  1  0.49923981  0.62358512  0.74134451  1
  O  O215  1  0.99466400  0.13426970  0.24575891  1
  O  O216  1  0.99217906  0.13367497  0.74857908  1
  O  O217  1  0.99346576  0.62966715  0.24339831  1
  O  O218  1  0.98177634  0.64088650  0.75782737  1
  O  O219  1  0.37925480  0.26139501  -0.00343981  1
  O  O220  1  0.36931417  0.25862773  0.50522340  1
  O  O221  1  0.36612567  0.75305475  0.01142934  1
  O  O222  1  0.36371443  0.74270616  0.50213409  1
  O  O223  1  0.86933196  0.25298516  0.00636651  1
  O  O224  1  0.87475701  0.26504588  0.50318046  1
  O  O225  1  0.86815020  0.76216998  -0.00637585  1
  O  O226  1  0.86959048  0.75427321  0.50662782  1
  O  O227  1  0.13126681  0.24052494  0.50424236  1
  O  O228  1  0.12680580  0.25423579  0.98330414  1
  O  O229  1  0.13482751  0.74294196  0.49114721  1
  O  O230  1  0.12955448  0.74395398  0.99551442  1
  O  O231  1  0.62216486  0.23279683  0.50608334  1
  O  O232  1  0.63286136  0.23756217  1.00104152  1
  O  O233  1  0.62836749  0.74188019  0.49749343  1
  O  O234  1  0.63490458  0.74107750  0.99512106  1
  O  O235  1  0.50501513  0.24203352  0.13868102  1
  O  O236  1  0.49028859  0.24008470  0.63283407  1
  O  O237  1  0.49024598  0.75539799  0.13144599  1
  O  O238  1  0.48819267  0.73695480  0.62348338  1
  O  O239  1  0.99898453  0.24518473  0.13183446  1
  O  O240  1  0.99500176  0.24743163  0.63480838  1
  O  O241  1  1.00615618  0.73812717  0.12984652  1
  O  O242  1  0.99080598  0.75268820  0.63016059  1
  O  O243  1  -0.00639276  0.26289863  0.36699380  1
  O  O244  1  0.00733183  0.25358867  0.87024437  1
  O  O245  1  0.00585824  0.75618288  0.36816501  1
  O  O246  1  -0.00002495  0.76220378  0.86330332  1
  O  O247  1  0.49783197  0.26214014  0.36514558  1
  O  O248  1  0.49854388  0.24623894  0.85662305  1
  O  O249  1  0.50316450  0.75581792  0.36652762  1
  O  O250  1  0.51326166  0.76212569  0.88693135  1
  O  O251  1  0.24059924  0.13336174  0.49771145  1
  O  O252  1  0.26034256  0.12812740  0.99338591  1
  O  O253  1  0.24359935  0.63380108  0.49128486  1
  O  O254  1  0.23223656  0.64123060  1.01157067  1
  O  O255  1  0.73231725  0.12494735  0.50053064  1
  O  O256  1  0.73712654  0.13008977  1.00679732  1
  O  O257  1  0.73987209  0.62976923  0.49763112  1
  O  O258  1  0.74672470  0.63182804  0.99469654  1
  O  O259  1  0.26552448  0.37191286  -0.00278664  1
  O  O260  1  0.25443741  0.37027810  0.50767268  1
  O  O261  1  0.24412971  0.86898329  0.01295044  1
  O  O262  1  0.24717614  0.85724742  0.49814763  1
  O  O263  1  0.75600751  0.36846084  0.00769963  1
  O  O264  1  0.75828101  0.37705840  0.51066196  1
  O  O265  1  0.76080613  0.86552220  -0.00367558  1
  O  O266  1  0.75264038  0.86895618  0.50594000  1
  O  O267  1  0.12026902  0.49347372  0.23993346  1
  O  O268  1  0.15015535  0.49064846  0.75794970  1
  O  O269  1  0.13274102  0.99392697  0.24396499  1
  O  O270  1  0.13295490  1.00690492  0.73846556  1
  O  O271  1  0.63383266  0.49082262  0.25140687  1
  O  O272  1  0.62645644  0.50788122  0.73734598  1
  O  O273  1  0.63433968  0.99017833  0.25349925  1
  O  O274  1  0.62304995  0.99379713  0.73722292  1
  O  O275  1  0.36915010  0.00544487  0.25574781  1
  O  O276  1  0.36627327  0.00620755  0.74907950  1
  O  O277  1  0.38310779  0.51382424  0.24365488  1
  O  O278  1  0.35873697  0.49775228  0.75567794  1
  O  O279  1  0.86748333  0.00361515  0.25723616  1
  O  O280  1  0.87364652  0.01123505  0.75935521  1
  O  O281  1  0.87156960  0.51035892  0.25867962  1
  O  O282  1  0.86431000  0.51096208  0.75645482  1
  O  O283  1  0.11303187  0.38482868  0.36952991  1
  O  O284  1  0.11379605  0.36581543  0.87256329  1
  O  O285  1  0.11941868  0.87010326  0.36825556  1
  O  O286  1  0.11025039  0.87504626  0.87605717  1
  O  O287  1  0.61870301  0.37959103  0.36893539  1
  O  O288  1  0.62075451  0.36657681  0.87546476  1
  O  O289  1  0.61760629  0.86891572  0.36918517  1
  O  O290  1  0.62219990  0.87060290  0.86968119  1
  O  O291  1  0.39044370  0.11790893  0.13963824  1
  O  O292  1  0.37898245  0.12876920  0.63057944  1
  O  O293  1  0.36836306  0.63759376  0.12796555  1
  O  O294  1  0.38741151  0.63091731  0.61989194  1
  O  O295  1  0.88446007  0.12972407  0.13188118  1
  O  O296  1  0.87322432  0.12234956  0.63865804  1
  O  O297  1  0.88423709  0.62050660  0.13568860  1
  O  O298  1  0.87698685  0.62928103  0.63090930  1
  O  O299  1  0.23495528  0.26510332  0.12420946  1
  O  O300  1  0.25597625  0.25321258  0.61530536  1
  O  O301  1  0.25503274  0.76008242  0.11821405  1
  O  O302  1  0.26319275  0.74908106  0.61346665  1
  O  O303  1  0.75744015  0.25524102  0.11739344  1
  O  O304  1  0.75153376  0.25877692  0.61763856  1
  O  O305  1  0.75490769  0.74758941  0.11378809  1
  O  O306  1  0.75347848  0.75852584  0.62029542  1
  O  O307  1  0.25417831  0.24832842  0.39042129  1
  O  O308  1  0.23552859  0.25178394  0.86902448  1
  O  O309  1  0.24899651  0.74337974  0.38150671  1
  O  O310  1  0.24694624  0.76135317  0.88793475  1
  O  O311  1  0.75245445  0.24499211  0.37983071  1
  O  O312  1  0.75295586  0.25144741  0.89032385  1
  O  O313  1  0.74329689  0.74369905  0.38117316  1
  O  O314  1  0.74421743  0.74174798  0.88268133  1
  O  O315  1  -0.00457146  0.12576339  0.01327372  1
  O  O316  1  0.00300183  0.11915574  0.50048528  1
  O  O317  1  0.00396099  0.62338549  0.00550223  1
  O  O318  1  0.01482603  0.62716856  0.50064863  1
  O  O319  1  0.50888796  0.11736882  0.00644946  1
  O  O320  1  0.50679863  0.12850866  0.50891428  1
  O  O321  1  0.51888853  0.62225121  0.00136034  1
  O  O322  1  0.50862091  0.62323992  0.50017181  1
  O  O323  1  0.49200275  0.37321703  0.49367723  1
  O  O324  1  0.49675574  0.37944770  1.00192219  1
  O  O325  1  0.50438594  0.86822586  0.48525831  1
  O  O326  1  0.51208863  0.88855764  0.99413683  1
  O  O327  1  0.99371946  0.37451090  0.49278599  1
  O  O328  1  0.99688914  0.37907951  0.99509793  1
  O  O329  1  0.99191641  0.87967670  0.49273448  1
  O  O330  1  0.99144636  0.87700845  0.98864916  1
  O  O331  1  0.49664667  0.48613953  0.37680246  1
  O  O332  1  0.50363763  0.50004576  0.89056191  1
  O  O333  1  0.48552556  0.99033129  0.37117167  1
  O  O334  1  0.50108409  0.99302423  0.88630607  1
  O  O335  1  0.98874052  0.49484686  0.37085383  1
  O  O336  1  1.00002780  0.48918561  0.87763885  1
  O  O337  1  0.98747955  0.99380515  0.37642261  1
  O  O338  1  0.99252001  0.99409044  0.87404569  1
  O  O339  1  0.00960440  0.01040600  0.12533025  1
  O  O340  1  0.00461609  0.00097230  0.61755096  1
  O  O341  1  0.00534725  0.51198162  0.11728503  1
  O  O342  1  0.01422439  0.50889380  0.67428466  1
  O  O343  1  0.50124348  0.00403554  0.11470375  1
  O  O344  1  0.50300137  0.00893879  0.62717281  1
  O  O345  1  0.51059722  0.50015446  0.11268776  1
  O  O346  1  0.50164607  0.51040726  0.62404212  1
  O  O347  1  0.23583760  0.37366062  0.25629170  1
  O  O348  1  0.25312378  0.36899513  0.73429773  1
  O  O349  1  0.24430784  0.87802421  0.24079055  1
  O  O350  1  0.25266404  0.88657641  0.74336190  1
  O  O351  1  0.74695303  0.37836165  0.24788138  1
  O  O352  1  0.75556582  0.37397052  0.73665968  1
  O  O353  1  0.73921971  0.88378617  0.25389030  1
  O  O354  1  0.73727168  0.86891960  0.74280425  1
  O  O355  1  0.25924832  0.12032198  0.25275262  1
  O  O356  1  0.25726420  0.11544169  0.75008159  1
  O  O357  1  0.26020876  0.63308989  0.25657944  1
  O  O358  1  0.24742596  0.61916675  0.75371629  1
  O  O359  1  0.75521700  0.11649282  0.24984620  1
  O  O360  1  0.75864230  0.12992038  0.74926614  1
  O  O361  1  0.75723904  0.62194686  0.25710179  1
  O  O362  1  0.75927586  0.63027837  0.75788948  1
  O  O363  1  0.37742419  0.11312923  0.36522752  1
  O  O364  1  0.37666426  0.11981806  0.86192885  1
  O  O365  1  0.36765997  0.62184712  0.36229073  1
  O  O366  1  0.36725850  0.61398902  0.91760909  1
  O  O367  1  0.87520276  0.11600051  0.36815924  1
  O  O368  1  0.87585619  0.11140483  0.86531205  1
  O  O369  1  0.87187586  0.61914271  0.37188684  1
  O  O370  1  0.86663875  0.62667789  0.86968977  1
  O  O371  1  0.11911311  0.38884575  0.13615589  1
  O  O372  1  0.14146087  0.37193841  0.62354304  1
  O  O373  1  0.12982666  0.88336821  0.13022615  1
  O  O374  1  0.12701377  0.88857761  0.61575451  1
  O  O375  1  0.63699058  0.37534631  0.13506996  1
  O  O376  1  0.63062739  0.38494042  0.61843863  1
  O  O377  1  0.62288292  0.86897797  0.13869734  1
  O  O378  1  0.62692518  0.87797399  0.63176540  1
  O  O379  1  0.11216106  0.25973844  0.25128275  1
  O  O380  1  0.11613740  0.25216507  0.75540972  1
  O  O381  1  0.12007850  0.75497505  0.25517137  1
  O  O382  1  0.11162093  0.74637170  0.74561317  1
  O  O383  1  0.62055069  0.26076928  0.24920552  1
  O  O384  1  0.60805206  0.24146149  0.74608903  1
  O  O385  1  0.61844592  0.75392835  0.25580780  1
  O  O386  1  0.62733998  0.75583529  0.76418010  1
  O  O387  1  0.38556119  0.23962538  0.25469677  1
  O  O388  1  0.37896149  0.24096123  0.74362042  1
  O  O389  1  0.38244655  0.74322567  0.24084447  1
  O  O390  1  0.36991866  0.74579558  0.73643906  1
  O  O391  1  0.88573864  0.24766389  0.24310439  1
  O  O392  1  0.88017635  0.23489081  0.75219086  1
  O  O393  1  0.87962516  0.73758842  0.25661776  1
  O  O394  1  0.87750147  0.74763668  0.74114261  1
  O  O395  1  0.37439011  0.48675196  0.49873055  1
  O  O396  1  0.38883214  0.48453458  1.00603168  1
  O  O397  1  0.36827132  1.00446705  0.48497060  1
  O  O398  1  0.39378196  1.00137183  0.99948684  1
  O  O399  1  0.87295655  0.49150218  0.49334774  1
  O  O400  1  0.88304635  0.49354403  0.99758558  1
  O  O401  1  0.87709822  0.99670251  0.49316834  1
  O  O402  1  0.87715588  0.99534844  0.98732440  1
  O  O403  1  0.12240192  -0.00187373  0.01252643  1
  O  O404  1  0.11711682  0.00446950  0.50298491  1
  O  O405  1  0.11976766  0.50744469  0.00386488  1
  O  O406  1  0.13063875  0.51757893  0.49772935  1
  O  O407  1  0.61859394  0.01237456  -0.00110076  1
  O  O408  1  0.62459370  0.00659632  0.51328523  1
  O  O409  1  0.62627963  0.51357645  0.00397805  1
  O  O410  1  0.62266614  0.51018230  0.51095009  1
  O  O411  1  0.37587131  0.37355719  0.11107429  1
  O  O412  1  0.36577899  0.36838876  0.61645686  1
  O  O413  1  0.36486667  0.86755012  0.13299999  1
  O  O414  1  0.37861399  0.85759392  0.62464725  1
  O  O415  1  0.87163317  0.37118736  0.12205663  1
  O  O416  1  0.86733344  0.37660547  0.61852616  1
  O  O417  1  0.88378378  0.88163071  0.10787553  1
  O  O418  1  0.86510675  0.87241120  0.62037980  1
  O  O419  1  0.12570987  0.11675923  0.38829413  1
  O  O420  1  0.12410252  0.13997032  0.87043576  1
  O  O421  1  0.13230303  0.63119008  0.37874850  1
  O  O422  1  0.11453182  0.62719437  0.88352860  1
  O  O423  1  0.61993371  0.11504616  0.39071288  1
  O  O424  1  0.62090656  0.12951105  0.88837963  1
  O  O425  1  0.62844299  0.62939949  0.38291544  1
  O  O426  1  0.63246704  0.63341667  0.88409786  1
