# generated using pymatgen
data_V85Zn86O256
_symmetry_space_group_name_H-M   'P 1'
_cell_length_a   16.92260087
_cell_length_b   16.92135892
_cell_length_c   16.91467379
_cell_angle_alpha   90.01407292
_cell_angle_beta   90.00725050
_cell_angle_gamma   90.03950692
_symmetry_Int_Tables_number   1
_chemical_formula_structural   V85Zn86O256
_chemical_formula_sum   'V85 Zn86 O256'
_cell_volume   4843.57306655
_cell_formula_units_Z   1
loop_
 _symmetry_equiv_pos_site_id
 _symmetry_equiv_pos_as_xyz
  1  'x, y, z'
loop_
 _atom_site_type_symbol
 _atom_site_label
 _atom_site_symmetry_multiplicity
 _atom_site_fract_x
 _atom_site_fract_y
 _atom_site_fract_z
 _atom_site_occupancy
  V  V0  1  0.50467435  0.00018586  0.00262408  1
  V  V1  1  0.87819709  0.62818186  0.74846894  1
  V  V2  1  0.87580669  0.49917967  0.87745564  1
  V  V3  1  0.12269021  0.24874387  0.37291126  1
  V  V4  1  0.25230554  0.88070662  0.63219389  1
  V  V5  1  0.37167516  0.49978354  0.37363483  1
  V  V6  1  0.62760603  0.74800796  0.87415110  1
  V  V7  1  0.12435212  0.87423798  0.25285522  1
  V  V8  1  0.25354114  0.24755850  0.00235316  1
  V  V9  1  0.49684490  0.13819544  0.12508160  1
  V  V10  1  0.62523877  0.49265234  0.62451941  1
  V  V11  1  0.24844544  0.12007316  0.87242427  1
  V  V12  1  0.75244750  0.13043234  0.38160702  1
  V  V13  1  0.37025870  0.50407854  0.87516023  1
  V  V14  1  0.49537115  0.62230484  0.62476220  1
  V  V15  1  0.62731426  0.25171025  0.37879556  1
  V  V16  1  0.11735389  0.12682885  0.00314921  1
  V  V17  1  0.37342851  0.12029945  0.74547220  1
  V  V18  1  0.00507196  0.50580880  0.49725152  1
  V  V19  1  0.25259793  0.74789968  0.50798934  1
  V  V20  1  0.11304795  0.11782850  0.49671423  1
  V  V21  1  0.62289831  0.74793037  0.37478919  1
  V  V22  1  0.37813316  0.13876009  0.24339576  1
  V  V23  1  0.50266961  0.87213679  0.87476314  1
  V  V24  1  0.55135208  0.18701148  0.68723431  1
  V  V25  1  0.62139143  0.37016615  0.24534477  1
  V  V26  1  0.37593275  0.37420978  0.50179230  1
  V  V27  1  0.25277896  -0.00034360  0.24784620  1
  V  V28  1  0.25137335  0.12304535  0.37217627  1
  V  V29  1  0.49983859  0.87673922  0.37626781  1
  V  V30  1  0.63253676  0.87045953  0.74021097  1
  V  V31  1  0.37655693  0.87258286  0.50581674  1
  V  V32  1  0.36420344  0.62515972  0.75021299  1
  V  V33  1  -0.00175158  0.37533874  0.37352430  1
  V  V34  1  0.50453254  0.36522321  0.86850595  1
  V  V35  1  0.87713457  0.12933459  0.23707813  1
  V  V36  1  0.37774067  0.37289764  0.00246131  1
  V  V37  1  0.50118785  0.01027311  0.50775929  1
  V  V38  1  0.75113886  0.62760738  0.37130432  1
  V  V39  1  0.75296785  0.00230914  0.25140855  1
  V  V40  1  0.75194308  0.35833026  0.12172803  1
  V  V41  1  0.49115609  0.75128031  0.24537207  1
  V  V42  1  0.37441430  0.24889292  0.63151326  1
  V  V43  1  0.75114238  0.50159538  0.24459348  1
  V  V44  1  0.24432565  0.50258344  0.24659127  1
  V  V45  1  0.37625331  0.86826266  0.00480644  1
  V  V46  1  0.37732302  0.00231547  0.37441977  1
  V  V47  1  0.62586345  0.87799349  0.24884061  1
  V  V48  1  0.37224479  -0.00269218  0.87204224  1
  V  V49  1  0.87364743  0.50616259  0.37114983  1
  V  V50  1  0.86196277  0.37205004  0.49834460  1
  V  V51  1  0.12445444  0.74818034  0.38483766  1
  V  V52  1  0.62821690  0.13891908  -0.00287557  1
  V  V53  1  0.87982764  0.87431779  0.00278128  1
  V  V54  1  0.87428663  0.25983403  0.62889009  1
  V  V55  1  0.25296468  0.86685349  0.12716408  1
  V  V56  1  -0.00260448  0.24695383  0.23440750  1
  V  V57  1  0.25007583  0.37570972  0.12282115  1
  V  V58  1  0.86816617  0.88420472  0.50673898  1
  V  V59  1  0.24634568  0.62088745  0.38203943  1
  V  V60  1  0.00140928  0.87267462  0.86595712  1
  V  V61  1  0.00599528  0.49661898  0.00514793  1
  V  V62  1  0.62636094  0.62298342  0.00132220  1
  V  V63  1  0.00346365  0.37096941  0.86043500  1
  V  V64  1  0.00593701  0.63386182  0.62115618  1
  V  V65  1  0.88549968  0.12754015  0.75137971  1
  V  V66  1  0.75079976  0.49170291  0.74426308  1
  V  V67  1  -0.00460320  0.74479229  0.25550802  1
  V  V68  1  0.11978988  -0.00030262  0.62991140  1
  V  V69  1  0.12339758  0.37703842  0.24408847  1
  V  V70  1  0.49655479  0.37073633  0.36536784  1
  V  V71  1  0.86411527  0.75137441  0.62634758  1
  V  V72  1  0.00646013  0.61960342  0.12928881  1
  V  V73  1  0.12357218  0.25064110  0.85950517  1
  V  V74  1  0.75312390  -0.00305847  0.74880385  1
  V  V75  1  -0.00061700  0.88278565  0.38426765  1
  V  V76  1  0.49635295  0.74645147  0.74555897  1
  V  V77  1  0.49245079  0.62624815  0.12352293  1
  V  V78  1  0.87380604  0.36147678  0.00474865  1
  V  V79  1  0.75372063  0.74857489  0.00108973  1
  V  V80  1  0.11874993  0.00273565  0.12581875  1
  V  V81  1  0.24993801  0.24412405  0.50073158  1
  V  V82  1  0.87402124  0.74225548  0.13122867  1
  V  V83  1  0.24496336  0.74427432  -0.00651652  1
  V  V84  1  0.74861346  0.13777624  0.87781237  1
  Zn  Zn85  1  0.62509809  0.36731482  0.75163305  1
  Zn  Zn86  1  0.62480931  0.49931328  0.12373326  1
  Zn  Zn87  1  0.62645889  0.12963186  0.50290976  1
  Zn  Zn88  1  0.36940144  0.63044507  0.24619619  1
  Zn  Zn89  1  0.49941810  0.50235244  0.49704228  1
  Zn  Zn90  1  0.88082928  0.00684922  0.37972969  1
  Zn  Zn91  1  0.13027041  0.61534680  -0.00039597  1
  Zn  Zn92  1  -0.00092746  0.12788050  0.62387477  1
  Zn  Zn93  1  0.12367756  0.49721279  0.63066913  1
  Zn  Zn94  1  0.62342098  0.62373735  0.50060558  1
  Zn  Zn95  1  0.62714649  0.00307228  0.12313317  1
  Zn  Zn96  1  0.11998824  0.73924921  0.86280705  1
  Zn  Zn97  1  0.23763785  0.48940947  0.75360612  1
  Zn  Zn98  1  0.74510233  0.75415089  0.50265805  1
  Zn  Zn99  1  0.75221103  0.62263237  0.87501906  1
  Zn  Zn100  1  -0.00411446  0.00334151  0.00464935  1
  Zn  Zn101  1  0.12964250  0.87540009  0.75247270  1
  Zn  Zn102  1  0.62775718  -0.00288583  0.62362011  1
  Zn  Zn103  1  0.23621847  0.37194046  0.63643921  1
  Zn  Zn104  1  0.75216781  0.87565098  0.12598814  1
  Zn  Zn105  1  0.50190187  0.49944769  -0.00162396  1
  Zn  Zn106  1  0.87490399  0.00153592  0.87856867  1
  Zn  Zn107  1  0.18897142  0.18956836  0.18535207  1
  Zn  Zn108  1  0.19127853  0.18042517  0.68562106  1
  Zn  Zn109  1  0.18396795  0.68916646  0.18875105  1
  Zn  Zn110  1  0.18401501  0.69139917  0.68823761  1
  Zn  Zn111  1  0.68259325  0.18519974  0.19127657  1
  Zn  Zn112  1  0.71457180  0.19047890  0.68589846  1
  Zn  Zn113  1  0.68423604  0.68732102  0.18830013  1
  Zn  Zn114  1  0.68776298  0.67762364  0.68889414  1
  Zn  Zn115  1  0.30916143  0.31304100  0.31224630  1
  Zn  Zn116  1  0.31555927  0.30982123  0.81508391  1
  Zn  Zn117  1  0.31146189  0.81309413  0.31872361  1
  Zn  Zn118  1  0.31273202  0.80948117  0.81338838  1
  Zn  Zn119  1  0.81220446  0.31231481  0.30907481  1
  Zn  Zn120  1  0.81583899  0.31442229  0.81238530  1
  Zn  Zn121  1  0.81383084  0.81553568  0.31664525  1
  Zn  Zn122  1  0.81586939  0.81121068  0.81476024  1
  Zn  Zn123  1  0.17396278  0.42341892  0.46321557  1
  Zn  Zn124  1  0.18562109  0.43540558  0.93212838  1
  Zn  Zn125  1  0.18833988  0.93760394  0.44146432  1
  Zn  Zn126  1  0.18610501  0.93630971  0.94057918  1
  Zn  Zn127  1  0.68383661  0.44157919  0.43433585  1
  Zn  Zn128  1  0.68950060  0.43468113  0.93622772  1
  Zn  Zn129  1  0.68767702  0.94235703  0.43681670  1
  Zn  Zn130  1  0.69175302  0.93858111  0.93422422  1
  Zn  Zn131  1  0.31159219  0.05841519  0.06174671  1
  Zn  Zn132  1  0.31120106  0.05947816  0.56358922  1
  Zn  Zn133  1  0.31311349  0.55982025  0.06326131  1
  Zn  Zn134  1  0.30946078  0.55905026  0.56697444  1
  Zn  Zn135  1  0.80951229  0.06282209  0.06239338  1
  Zn  Zn136  1  0.81235364  0.06566734  0.56667932  1
  Zn  Zn137  1  0.81767682  0.56157579  0.06309504  1
  Zn  Zn138  1  0.81081635  0.56325003  0.55887216  1
  Zn  Zn139  1  0.43530132  0.44146960  0.18436789  1
  Zn  Zn140  1  0.43400658  0.43714284  0.69027865  1
  Zn  Zn141  1  0.43802782  0.94176240  0.18599309  1
  Zn  Zn142  1  0.44117216  0.93642579  0.68769639  1
  Zn  Zn143  1  0.93467495  0.43599903  0.18680467  1
  Zn  Zn144  1  0.93937989  0.44330055  0.68332792  1
  Zn  Zn145  1  0.93626343  0.93383058  0.19150359  1
  Zn  Zn146  1  0.93697751  0.94138504  0.68459662  1
  Zn  Zn147  1  0.06110948  0.06390722  0.30838617  1
  Zn  Zn148  1  0.06257064  0.05470357  0.81578955  1
  Zn  Zn149  1  0.06475865  0.56384908  0.31551191  1
  Zn  Zn150  1  0.06583831  0.56312897  0.81169920  1
  Zn  Zn151  1  0.56167173  0.06559954  0.31220512  1
  Zn  Zn152  1  0.56952667  0.05486430  0.81953495  1
  Zn  Zn153  1  0.56160992  0.56029201  0.30881157  1
  Zn  Zn154  1  0.55956124  0.55791859  0.81379907  1
  Zn  Zn155  1  0.43923974  0.19020565  0.43418280  1
  Zn  Zn156  1  0.43698380  0.18667651  0.93772357  1
  Zn  Zn157  1  0.43425102  0.68665823  0.43726711  1
  Zn  Zn158  1  0.43660631  0.68750299  0.93648653  1
  Zn  Zn159  1  0.93482417  0.19239872  0.43250514  1
  Zn  Zn160  1  0.93878980  0.18902112  0.93481954  1
  Zn  Zn161  1  0.93106954  0.69209945  0.44111610  1
  Zn  Zn162  1  0.94709238  0.68420330  0.93772260  1
  Zn  Zn163  1  0.06636244  0.31388906  0.05694464  1
  Zn  Zn164  1  0.05553631  0.31188930  0.56228755  1
  Zn  Zn165  1  0.06211501  0.81152575  0.06520876  1
  Zn  Zn166  1  0.05973548  0.81395086  0.56567050  1
  Zn  Zn167  1  0.56164055  0.31393885  0.06103078  1
  Zn  Zn168  1  0.56463314  0.31997007  0.55546741  1
  Zn  Zn169  1  0.56463525  0.81021413  0.06461844  1
  Zn  Zn170  1  0.55943777  0.81036503  0.56266277  1
  O  O171  1  0.13413038  0.11527522  0.11577412  1
  O  O172  1  0.12413928  0.11532897  0.61655464  1
  O  O173  1  0.11074917  0.62966404  0.12152138  1
  O  O174  1  0.10781844  0.62866183  0.62308723  1
  O  O175  1  0.61677928  0.12333213  0.11773466  1
  O  O176  1  0.61916511  0.13208491  0.62932416  1
  O  O177  1  0.61629377  0.62469748  0.11690884  1
  O  O178  1  0.61272870  0.61541219  0.62440119  1
  O  O179  1  0.38035262  0.37839302  0.37688609  1
  O  O180  1  0.38255105  0.38150921  0.88474719  1
  O  O181  1  0.37938485  0.88281768  0.38486022  1
  O  O182  1  0.38140713  0.88085687  0.88101575  1
  O  O183  1  0.87752296  0.38141064  0.38159476  1
  O  O184  1  0.88320023  0.37790988  0.88480905  1
  O  O185  1  0.88283155  0.87813002  0.38717492  1
  O  O186  1  0.88406811  0.87607853  0.88473589  1
  O  O187  1  0.25590949  0.00464526  0.36973909  1
  O  O188  1  0.25934131  0.00868763  0.88323030  1
  O  O189  1  0.25269494  0.50701854  0.37147888  1
  O  O190  1  0.26519612  0.49574108  0.87570693  1
  O  O191  1  0.75112620  0.00915727  0.36406690  1
  O  O192  1  0.75375790  0.00785163  0.86444134  1
  O  O193  1  0.75374850  0.50667270  0.36502456  1
  O  O194  1  0.76362378  0.49991010  0.87074748  1
  O  O195  1  0.25119730  0.48859767  0.13264307  1
  O  O196  1  0.24348403  0.49338689  0.62742288  1
  O  O197  1  0.24204181  0.98818817  0.12833843  1
  O  O198  1  0.23857289  0.99097376  0.62000468  1
  O  O199  1  0.75146364  0.49814401  0.13613687  1
  O  O200  1  0.74033220  0.50669974  0.63283979  1
  O  O201  1  0.74730399  0.99770673  0.13838297  1
  O  O202  1  0.74465414  1.00992947  0.64221356  1
  O  O203  1  0.00654722  0.37045502  0.25324467  1
  O  O204  1  -0.00851130  0.37569702  0.76240291  1
  O  O205  1  0.00463263  0.86367343  0.26029041  1
  O  O206  1  -0.00325594  0.88059653  0.76395645  1
  O  O207  1  0.50744061  0.38094302  0.25312017  1
  O  O208  1  0.50013318  0.37529256  0.76420341  1
  O  O209  1  0.50618952  0.87103769  0.25374214  1
  O  O210  1  0.50732983  0.86506229  0.75460508  1
  O  O211  1  0.49050330  0.11877927  0.23769157  1
  O  O212  1  0.49911447  0.12473015  0.75192132  1
  O  O213  1  0.49881702  0.63394552  0.24250608  1
  O  O214  1  0.49385536  0.62987921  0.74493191  1
  O  O215  1  0.99091278  0.13520026  0.25316038  1
  O  O216  1  0.98826265  0.12075542  0.75388970  1
  O  O217  1  1.00477761  0.63677717  0.24752546  1
  O  O218  1  0.98573092  0.61765825  0.73269689  1
  O  O219  1  0.36164480  0.25668501  -0.00541567  1
  O  O220  1  0.37098883  0.24993819  0.51003389  1
  O  O221  1  0.36574744  0.76140086  -0.00478730  1
  O  O222  1  0.36677541  0.76239915  0.49394801  1
  O  O223  1  0.87709100  0.26288497  -0.00087197  1
  O  O224  1  0.87881665  0.26776637  0.50107324  1
  O  O225  1  0.87169543  0.75315930  0.00899865  1
  O  O226  1  0.86721720  0.76150045  0.50777677  1
  O  O227  1  0.13352139  0.23849226  0.49368820  1
  O  O228  1  0.13573709  0.24344831  0.99277552  1
  O  O229  1  0.13228463  0.75632633  0.49050009  1
  O  O230  1  0.14025492  0.75413109  1.00163201  1
  O  O231  1  0.62103594  0.24979848  0.48479965  1
  O  O232  1  0.62333304  0.23832420  0.99965043  1
  O  O233  1  0.62512504  0.75144446  0.48665453  1
  O  O234  1  0.63225874  0.74193426  0.99615532  1
  O  O235  1  0.49726062  0.23779791  0.11933026  1
  O  O236  1  0.49601756  0.24663126  0.62241758  1
  O  O237  1  0.50435218  0.74246669  0.13518757  1
  O  O238  1  0.50432959  0.74109364  0.63783433  1
  O  O239  1  1.00784193  0.25337057  0.13556162  1
  O  O240  1  0.98403752  0.24583491  0.61761930  1
  O  O241  1  0.99459953  0.74439266  0.13589080  1
  O  O242  1  0.98766780  0.73867189  0.61881316  1
  O  O243  1  0.00683810  0.25804502  0.36721720  1
  O  O244  1  0.00850506  0.26188567  0.87730355  1
  O  O245  1  0.00596426  0.75411695  0.37306552  1
  O  O246  1  -0.00008898  0.76904323  0.88247017  1
  O  O247  1  0.50524704  0.26379972  0.37290091  1
  O  O248  1  0.49347762  0.26593221  0.87752173  1
  O  O249  1  0.50573274  0.75586944  0.36911633  1
  O  O250  1  0.50701920  0.75302790  0.86658310  1
  O  O251  1  0.24834840  0.13220994  0.49347790  1
  O  O252  1  0.24575789  0.13109013  0.99416903  1
  O  O253  1  0.25828528  0.63489725  0.49313994  1
  O  O254  1  0.24962893  0.64079559  1.01038953  1
  O  O255  1  0.74747520  0.11942418  0.48572848  1
  O  O256  1  0.74343645  0.12025117  0.98696541  1
  O  O257  1  0.74488749  0.62714688  0.48457659  1
  O  O258  1  0.74442645  0.63021454  1.00026930  1
  O  O259  1  0.25388473  0.36878297  0.00484100  1
  O  O260  1  0.26602307  0.35680051  0.48874214  1
  O  O261  1  0.25725299  0.86809461  0.00778957  1
  O  O262  1  0.25892963  0.86951929  0.50600410  1
  O  O263  1  0.76378180  0.37963281  0.00704819  1
  O  O264  1  0.76337613  0.38219152  0.49389376  1
  O  O265  1  0.76142107  0.86799726  0.00146210  1
  O  O266  1  0.76377537  0.87481313  0.49408482  1
  O  O267  1  0.13606021  0.49174205  0.25661181  1
  O  O268  1  0.12237763  0.49667022  0.74602098  1
  O  O269  1  0.13291761  0.99522834  0.24515811  1
  O  O270  1  0.12618751  0.99714405  0.73545471  1
  O  O271  1  0.63357059  0.48834035  0.24909535  1
  O  O272  1  0.63412194  0.50109063  0.74377354  1
  O  O273  1  0.63135663  0.99298313  0.25009719  1
  O  O274  1  0.63139914  0.98700221  0.74962440  1
  O  O275  1  0.36916064  0.00405929  0.25626008  1
  O  O276  1  0.38436649  0.00477165  0.76388489  1
  O  O277  1  0.36058369  0.49950434  0.25664241  1
  O  O278  1  0.37437353  0.50754224  0.76180400  1
  O  O279  1  0.86888285  0.00622317  0.25367540  1
  O  O280  1  0.86945599  0.00864095  0.75092925  1
  O  O281  1  0.86597739  0.49304871  0.26234837  1
  O  O282  1  0.86956017  0.50372701  0.75588857  1
  O  O283  1  0.11993649  0.36895999  0.36714830  1
  O  O284  1  0.11150177  0.36529744  0.87790543  1
  O  O285  1  0.11885483  0.86915900  0.37353997  1
  O  O286  1  0.11124236  0.87884850  0.87578507  1
  O  O287  1  0.61733500  0.37171539  0.36694487  1
  O  O288  1  0.60999892  0.37889116  0.87416227  1
  O  O289  1  0.62079101  0.86995342  0.36579859  1
  O  O290  1  0.62007016  0.86679768  0.86940446  1
  O  O291  1  0.38249502  0.11765368  0.13164988  1
  O  O292  1  0.37179672  0.12696367  0.63762115  1
  O  O293  1  0.38752367  0.62249138  0.12687641  1
  O  O294  1  0.38742640  0.61788772  0.63490447  1
  O  O295  1  0.87115051  0.12357715  0.13744865  1
  O  O296  1  0.87845374  0.13402801  0.63328159  1
  O  O297  1  0.88397795  0.63653834  0.12619096  1
  O  O298  1  0.87767841  0.63199391  0.62965009  1
  O  O299  1  0.24633027  0.26419194  0.11682060  1
  O  O300  1  0.25738310  0.24930110  0.61608329  1
  O  O301  1  0.24777811  0.76200331  0.12072269  1
  O  O302  1  0.24551273  0.75913951  0.61180569  1
  O  O303  1  0.74691263  0.25936396  0.12969628  1
  O  O304  1  0.77357121  0.24934363  0.61161301  1
  O  O305  1  0.75753166  0.75026208  0.12197878  1
  O  O306  1  0.75938469  0.74299897  0.62322857  1
  O  O307  1  0.24380641  0.24162512  0.37928454  1
  O  O308  1  0.24500533  0.23905804  0.88198688  1
  O  O309  1  0.24283451  0.74460186  0.38404877  1
  O  O310  1  0.24689795  0.75435994  0.89072526  1
  O  O311  1  0.74101420  0.24266858  0.36860567  1
  O  O312  1  0.75192690  0.23693060  0.87089994  1
  O  O313  1  0.74053223  0.74335351  0.37156337  1
  O  O314  1  0.74561510  0.74550910  0.88312548  1
  O  O315  1  0.01349809  0.12549176  -0.00303935  1
  O  O316  1  0.01055523  0.12727943  0.49448499  1
  O  O317  1  -0.00443835  0.61256948  0.01367930  1
  O  O318  1  -0.01344895  0.61971119  0.51229940  1
  O  O319  1  0.50634860  0.11765685  0.00256652  1
  O  O320  1  0.50294824  0.11384383  0.49247460  1
  O  O321  1  0.50784919  0.62739389  0.00676929  1
  O  O322  1  0.49903861  0.62441455  0.50938754  1
  O  O323  1  0.48794530  0.37634608  0.48844274  1
  O  O324  1  0.49235038  0.37732195  0.99394160  1
  O  O325  1  0.49319565  0.88044954  0.49584586  1
  O  O326  1  0.49455235  0.87842570  0.99769243  1
  O  O327  1  0.99007486  0.38740406  0.48914890  1
  O  O328  1  0.98916199  0.37918621  0.99879144  1
  O  O329  1  0.98694029  0.86931407  0.49269863  1
  O  O330  1  0.98933734  0.87521126  0.99977960  1
  O  O331  1  0.49085324  0.49092967  0.37311843  1
  O  O332  1  0.48769715  0.49106030  0.87820512  1
  O  O333  1  0.49685982  0.99341048  0.38125630  1
  O  O334  1  0.49478280  0.99358575  0.88652707  1
  O  O335  1  0.98909004  0.49787510  0.37492358  1
  O  O336  1  0.99089199  0.48635248  0.88270146  1
  O  O337  1  1.00106591  0.98619378  0.36978390  1
  O  O338  1  0.99578089  0.98832502  0.88363222  1
  O  O339  1  0.01498667  -0.00704110  0.12786050  1
  O  O340  1  0.01494786  0.00394442  0.62370886  1
  O  O341  1  -0.00627611  0.50812671  0.12030623  1
  O  O342  1  0.00006359  0.51096754  0.61265463  1
  O  O343  1  0.50173277  0.00460606  0.11182808  1
  O  O344  1  0.50554043  -0.00380006  0.61358433  1
  O  O345  1  0.50426821  0.51017804  0.12097619  1
  O  O346  1  0.50523431  0.50578210  0.62457488  1
  O  O347  1  0.24343885  0.38010691  0.24282257  1
  O  O348  1  0.25803042  0.37406088  0.74710976  1
  O  O349  1  0.24638165  0.87817848  0.24542569  1
  O  O350  1  0.25777876  0.87359085  0.73525495  1
  O  O351  1  0.74419572  0.38150623  0.24081483  1
  O  O352  1  0.74627516  0.38678808  0.75565298  1
  O  O353  1  0.74293761  0.88339140  0.25243281  1
  O  O354  1  0.74334796  0.88195498  0.75682004  1
  O  O355  1  0.25693422  0.11898361  0.25186249  1
  O  O356  1  0.26079855  0.12385010  0.76069724  1
  O  O357  1  0.24905100  0.61806169  0.25453822  1
  O  O358  1  0.26253034  0.62522795  0.74282836  1
  O  O359  1  0.75585514  0.11955314  0.25669359  1
  O  O360  1  0.75983271  0.11933265  0.76251139  1
  O  O361  1  0.74221885  0.61621970  0.26012329  1
  O  O362  1  0.76162305  0.61328929  0.75396153  1
  O  O363  1  0.37172444  0.12084461  0.36600636  1
  O  O364  1  0.37029412  0.11776209  0.86769451  1
  O  O365  1  0.36382872  0.61935612  0.37061380  1
  O  O366  1  0.37962326  0.61190188  0.86897523  1
  O  O367  1  0.86725926  0.12506024  0.36773328  1
  O  O368  1  0.86684044  0.12485987  0.87137108  1
  O  O369  1  0.86550598  0.61788019  0.37644453  1
  O  O370  1  0.88043396  0.61557464  0.86749040  1
  O  O371  1  0.13134681  0.37331709  0.13731311  1
  O  O372  1  0.13532057  0.38717998  0.57826992  1
  O  O373  1  0.13214479  0.87987356  0.13315604  1
  O  O374  1  0.13147360  0.88648384  0.62210143  1
  O  O375  1  0.63226310  0.37711598  0.12859372  1
  O  O376  1  0.61854975  0.38758280  0.63011225  1
  O  O377  1  0.62762336  0.87569706  0.13817515  1
  O  O378  1  0.62541758  0.87053145  0.63726248  1
  O  O379  1  0.12057446  0.25644385  0.25473631  1
  O  O380  1  0.12869999  0.24107341  0.76041717  1
  O  O381  1  0.11938892  0.75660760  0.26293131  1
  O  O382  1  0.12873534  0.76191989  0.75232966  1
  O  O383  1  0.62627270  0.26378577  0.25823944  1
  O  O384  1  0.61941517  0.24495156  0.73724329  1
  O  O385  1  0.61656365  0.75752227  0.25866493  1
  O  O386  1  0.62182873  0.75180237  0.75587013  1
  O  O387  1  0.36985939  0.23800530  0.25023241  1
  O  O388  1  0.37656596  0.23917651  0.73817572  1
  O  O389  1  0.38723553  0.75194261  0.25630972  1
  O  O390  1  0.38589583  0.73921896  0.75820973  1
  O  O391  1  0.88587615  0.24364961  0.25203820  1
  O  O392  1  0.87132108  0.24584435  0.73737082  1
  O  O393  1  0.88427946  0.75530331  0.24562746  1
  O  O394  1  0.87073189  0.74003361  0.74215076  1
  O  O395  1  0.37385456  0.48895307  0.49185239  1
  O  O396  1  0.37571627  0.49345305  0.99066813  1
  O  O397  1  0.38286734  0.99591939  0.49427783  1
  O  O398  1  0.38180243  0.99105713  0.99077380  1
  O  O399  1  0.87831593  0.49336381  0.48892930  1
  O  O400  1  0.88287348  0.49315092  0.99263453  1
  O  O401  1  0.87301175  0.98872553  0.50149932  1
  O  O402  1  0.87606311  0.98937737  1.00343009  1
  O  O403  1  0.12497651  0.00868337  0.00945669  1
  O  O404  1  0.13008717  0.00964925  0.50908774  1
  O  O405  1  0.11068243  0.49404509  -0.00073155  1
  O  O406  1  0.10520882  0.51364302  0.48337682  1
  O  O407  1  0.61805017  0.00400605  0.00009825  1
  O  O408  1  0.61777985  0.00464213  0.50366206  1
  O  O409  1  0.62663640  0.51263541  -0.00031509  1
  O  O410  1  0.62021899  0.50140959  0.50808428  1
  O  O411  1  0.36824784  0.37976833  0.11067788  1
  O  O412  1  0.37838003  0.36446020  0.61549794  1
  O  O413  1  0.36717069  0.88127972  0.11536388  1
  O  O414  1  0.36893522  0.88287548  0.61358858  1
  O  O415  1  0.86781615  0.37651898  0.11257984  1
  O  O416  1  0.87987002  0.36990173  0.61225072  1
  O  O417  1  0.87495127  0.86255692  0.12065477  1
  O  O418  1  0.87952413  0.86882578  0.61419163  1
  O  O419  1  0.13133341  0.12633432  0.37957900  1
  O  O420  1  0.13241952  0.12715630  0.88115132  1
  O  O421  1  0.13792681  0.63473309  0.37203157  1
  O  O422  1  0.10127732  0.63110282  0.89051968  1
  O  O423  1  0.63214044  0.13612998  0.37097453  1
  O  O424  1  0.63895934  0.12305199  0.88107134  1
  O  O425  1  0.62772065  0.63310142  0.37444368  1
  O  O426  1  0.62516519  0.63026765  0.88337401  1
