# generated using pymatgen
data_V85Zn86O256
_symmetry_space_group_name_H-M   'P 1'
_cell_length_a   16.96340196
_cell_length_b   16.96757686
_cell_length_c   16.94440924
_cell_angle_alpha   89.99794894
_cell_angle_beta   89.91113235
_cell_angle_gamma   89.97425629
_symmetry_Int_Tables_number   1
_chemical_formula_structural   V85Zn86O256
_chemical_formula_sum   'V85 Zn86 O256'
_cell_volume   4877.06612145
_cell_formula_units_Z   1
loop_
 _symmetry_equiv_pos_site_id
 _symmetry_equiv_pos_as_xyz
  1  'x, y, z'
loop_
 _atom_site_type_symbol
 _atom_site_label
 _atom_site_symmetry_multiplicity
 _atom_site_fract_x
 _atom_site_fract_y
 _atom_site_fract_z
 _atom_site_occupancy
  V  V0  1  0.13135943  0.75482717  0.87646296  1
  V  V1  1  0.74941429  0.37735896  0.12405157  1
  V  V2  1  0.61233294  0.50374163  0.61482255  1
  V  V3  1  0.61892402  0.85992153  0.75465313  1
  V  V4  1  0.75014273  0.25129127  -0.00185527  1
  V  V5  1  0.50133861  0.74948290  0.25115587  1
  V  V6  1  0.12798932  0.63127185  -0.00002971  1
  V  V7  1  0.25907078  0.38084502  0.61985351  1
  V  V8  1  0.87932050  -0.00077769  0.87568581  1
  V  V9  1  0.25112258  0.49959447  0.25225168  1
  V  V10  1  0.74201651  0.75327282  0.49426298  1
  V  V11  1  0.00589350  0.88305115  0.37133180  1
  V  V12  1  0.37660562  0.86821938  0.51203356  1
  V  V13  1  0.87398194  0.87353894  -0.00104782  1
  V  V14  1  0.24799103  0.62929391  0.37800657  1
  V  V15  1  0.74555401  0.62566238  0.87276289  1
  V  V16  1  0.49523010  0.24563704  0.74556386  1
  V  V17  1  0.25643631  0.25982472  0.49382604  1
  V  V18  1  0.37064700  0.75260112  0.11325498  1
  V  V19  1  0.37994232  0.49749020  0.89499562  1
  V  V20  1  0.37566019  0.49751571  0.38824235  1
  V  V21  1  0.11572405  0.62935202  0.50728983  1
  V  V22  1  0.87837102  0.49742711  0.87080267  1
  V  V23  1  0.62370621  0.24925965  0.37549262  1
  V  V24  1  0.00005449  0.12680020  0.12234854  1
  V  V25  1  0.25235446  0.00268619  0.74847113  1
  V  V26  1  0.74959711  0.87394321  0.62775836  1
  V  V27  1  0.37437685  0.62604036  0.25158397  1
  V  V28  1  0.61932976  0.12196646  -0.00177402  1
  V  V29  1  0.37694778  0.00401548  0.37824308  1
  V  V30  1  0.75094903  0.37660472  0.61948065  1
  V  V31  1  0.87511762  0.25141774  0.12327483  1
  V  V32  1  0.62296196  0.00471413  0.63164152  1
  V  V33  1  0.88496079  0.12280640  0.74576185  1
  V  V34  1  0.38761848  0.00892438  0.87816514  1
  V  V35  1  0.62754465  0.12589143  0.50479644  1
  V  V36  1  0.00055909  0.25903573  0.75264544  1
  V  V37  1  0.12969347  0.12700629  -0.00214408  1
  V  V38  1  0.87760481  0.37634659  -0.00451851  1
  V  V39  1  0.62537753  0.87466637  0.25665115  1
  V  V40  1  0.12219506  0.25727221  0.38253292  1
  V  V41  1  0.61757098  -0.00309513  0.12211422  1
  V  V42  1  0.75378054  0.51019673  0.24837818  1
  V  V43  1  0.74925696  0.50036294  0.74497235  1
  V  V44  1  0.43835422  0.68613515  0.68387008  1
  V  V45  1  0.25437087  0.62723262  0.87538787  1
  V  V46  1  0.88073489  0.87888860  0.49921758  1
  V  V47  1  0.18883066  0.07957978  0.42975205  1
  V  V48  1  0.24562736  -0.00679254  0.24792555  1
  V  V49  1  0.49975483  0.62149097  0.12444619  1
  V  V50  1  0.88801351  0.37505598  0.49427181  1
  V  V51  1  0.87948597  0.74338716  0.62377992  1
  V  V52  1  0.00227481  0.74423821  0.74911918  1
  V  V53  1  -0.00251367  0.25557192  0.25334112  1
  V  V54  1  0.88214158  0.50068012  0.37088474  1
  V  V55  1  0.00661299  0.75284338  0.25113676  1
  V  V56  1  0.74622936  0.87441855  0.12469936  1
  V  V57  1  -0.00459950  0.62464556  0.13004482  1
  V  V58  1  0.49753040  0.12222903  0.12353729  1
  V  V59  1  0.50388642  0.86565721  0.88541282  1
  V  V60  1  0.12496920  -0.00694258  0.12510920  1
  V  V61  1  0.75131176  0.12599772  0.87369525  1
  V  V62  1  0.00106938  0.49788654  -0.00527422  1
  V  V63  1  0.49770645  0.25001922  0.25229484  1
  V  V64  1  0.12220858  0.25887568  0.87810921  1
  V  V65  1  0.62299792  0.37859907  0.25052148  1
  V  V66  1  0.49984459  0.00098525  0.50887024  1
  V  V67  1  0.26420935  0.50122527  0.75091889  1
  V  V68  1  0.75064265  0.63037087  0.37276711  1
  V  V69  1  0.49933506  0.37651301  0.88592564  1
  V  V70  1  0.12525928  0.50082949  0.12555349  1
  V  V71  1  0.74405909  0.74770894  -0.00418984  1
  V  V72  1  0.61499041  0.62286959  -0.00319643  1
  V  V73  1  0.49369036  0.37588583  0.38744616  1
  V  V74  1  0.87265345  0.74678291  0.13137995  1
  V  V75  1  0.50029732  0.87146152  0.37636219  1
  V  V76  1  0.12186287  0.37661635  0.25462277  1
  V  V77  1  0.25389568  0.12821124  0.87058844  1
  V  V78  1  0.36860573  0.12535106  0.25388490  1
  V  V79  1  0.37502049  0.25261921  0.11889725  1
  V  V80  1  0.25505052  0.37581782  0.12106349  1
  V  V81  1  0.87899459  0.24626955  0.62239721  1
  V  V82  1  0.11713511  0.49932657  0.62993317  1
  V  V83  1  0.62009377  0.50031913  0.12395575  1
  V  V84  1  0.12481815  0.88028947  0.74232397  1
  Zn  Zn85  1  0.87912761  0.62279540  0.74401157  1
  Zn  Zn86  1  0.74852298  0.12163733  0.36961232  1
  Zn  Zn87  1  0.25615142  0.86818941  0.63279228  1
  Zn  Zn88  1  0.25453377  0.25563567  -0.00383479  1
  Zn  Zn89  1  0.75065030  0.00242169  0.25071495  1
  Zn  Zn90  1  0.86980220  0.12256565  0.24818847  1
  Zn  Zn91  1  0.62434353  0.25332637  0.87225619  1
  Zn  Zn92  1  0.74919000  -0.00106466  0.75305099  1
  Zn  Zn93  1  0.12540614  0.74972563  0.37608141  1
  Zn  Zn94  1  0.00183807  0.87349515  0.87652075  1
  Zn  Zn95  1  0.62087587  0.37564424  0.74851720  1
  Zn  Zn96  1  0.61588657  0.63088344  0.50379595  1
  Zn  Zn97  1  0.00129991  0.02035548  0.52106510  1
  Zn  Zn98  1  0.00070633  -0.00128006  0.00070023  1
  Zn  Zn99  1  0.37690823  0.24581035  0.63012790  1
  Zn  Zn100  1  0.12523737  0.37975192  0.75572006  1
  Zn  Zn101  1  0.87242957  0.00441387  0.37228612  1
  Zn  Zn102  1  0.75158236  0.24957765  0.49800102  1
  Zn  Zn103  1  0.24209010  0.86712047  0.11961145  1
  Zn  Zn104  1  0.36744619  0.87781494  -0.00267375  1
  Zn  Zn105  1  0.25476714  0.74400559  0.51825879  1
  Zn  Zn106  1  -0.00156552  0.50391376  0.50043008  1
  Zn  Zn107  1  0.18781692  0.18706384  0.19015468  1
  Zn  Zn108  1  0.19605343  0.19912129  0.69344433  1
  Zn  Zn109  1  0.18760530  0.68667532  0.18835869  1
  Zn  Zn110  1  0.19332052  0.68668980  0.69041983  1
  Zn  Zn111  1  0.68569208  0.18827838  0.18627658  1
  Zn  Zn112  1  0.68712729  0.19165945  0.69039884  1
  Zn  Zn113  1  0.68477929  0.68769171  0.18903251  1
  Zn  Zn114  1  0.68699992  0.68430214  0.68357265  1
  Zn  Zn115  1  0.31054877  0.31238842  0.31311907  1
  Zn  Zn116  1  0.31618102  0.31732012  0.81146875  1
  Zn  Zn117  1  0.31598080  0.81333034  0.31388552  1
  Zn  Zn118  1  0.31499666  0.81529288  0.81127667  1
  Zn  Zn119  1  0.81042111  0.31524411  0.31184839  1
  Zn  Zn120  1  0.81227441  0.31419740  0.80971833  1
  Zn  Zn121  1  0.81716503  0.81668455  0.31215094  1
  Zn  Zn122  1  0.81046758  0.81004197  0.81096963  1
  Zn  Zn123  1  0.18224853  0.44195380  0.44015626  1
  Zn  Zn124  1  0.19013627  0.44045685  0.93953381  1
  Zn  Zn125  1  0.18928018  0.91685808  0.44027031  1
  Zn  Zn126  1  0.19249726  0.93946556  0.93727905  1
  Zn  Zn127  1  0.69032385  0.43849858  0.43509036  1
  Zn  Zn128  1  0.68574477  0.43996569  0.93699959  1
  Zn  Zn129  1  0.68835473  0.93869931  0.43849125  1
  Zn  Zn130  1  0.68689797  0.94009706  0.93672821  1
  Zn  Zn131  1  0.31208304  0.05990636  0.05943352  1
  Zn  Zn132  1  0.31550126  0.06612582  0.57401529  1
  Zn  Zn133  1  0.31136437  0.56766622  0.06300348  1
  Zn  Zn134  1  0.31077242  0.56640816  0.56350465  1
  Zn  Zn135  1  0.80846606  0.06128764  0.06471163  1
  Zn  Zn136  1  0.81015293  0.06073589  0.56132760  1
  Zn  Zn137  1  0.81169745  0.56396099  0.06009218  1
  Zn  Zn138  1  0.80987261  0.56411041  0.55559115  1
  Zn  Zn139  1  0.43759319  0.43814895  0.19244297  1
  Zn  Zn140  1  0.43949966  0.43412860  0.69223633  1
  Zn  Zn141  1  0.43592590  0.93704006  0.18756823  1
  Zn  Zn142  1  0.43982514  0.93978227  0.69640992  1
  Zn  Zn143  1  0.93642035  0.43795523  0.18602750  1
  Zn  Zn144  1  0.93690495  0.43431331  0.68459089  1
  Zn  Zn145  1  0.93678445  0.93716593  0.18705866  1
  Zn  Zn146  1  0.93656105  0.93090777  0.69090861  1
  Zn  Zn147  1  0.05461593  0.06280381  0.30476477  1
  Zn  Zn148  1  0.07064163  0.06041133  0.69097870  1
  Zn  Zn149  1  0.06214898  0.56642721  0.31262858  1
  Zn  Zn150  1  0.06542859  0.56538895  0.81127074  1
  Zn  Zn151  1  0.56163781  0.06211162  0.31338961  1
  Zn  Zn152  1  0.56306844  0.06549973  0.81100983  1
  Zn  Zn153  1  0.54670496  0.57972233  0.34616776  1
  Zn  Zn154  1  0.56354789  0.55637132  0.80803332  1
  Zn  Zn155  1  0.42292123  0.17130154  0.46909756  1
  Zn  Zn156  1  0.43980020  0.19074903  0.93504893  1
  Zn  Zn157  1  0.43774874  0.68708862  0.44423563  1
  Zn  Zn158  1  0.44208052  0.68462643  0.84675054  1
  Zn  Zn159  1  0.93358833  0.18650000  0.43263047  1
  Zn  Zn160  1  0.94031843  0.18692029  0.93529498  1
  Zn  Zn161  1  0.93316734  0.68872819  0.43443449  1
  Zn  Zn162  1  0.93726297  0.68524234  0.93632977  1
  Zn  Zn163  1  0.06467475  0.31531217  0.06399601  1
  Zn  Zn164  1  0.06351631  0.19418881  0.56335711  1
  Zn  Zn165  1  0.06010348  0.81217366  0.06057064  1
  Zn  Zn166  1  0.06256773  0.81364831  0.56256189  1
  Zn  Zn167  1  0.56291279  0.30913961  0.06248550  1
  Zn  Zn168  1  0.56422246  0.31513366  0.56452692  1
  Zn  Zn169  1  0.55879857  0.80886351  0.06050869  1
  Zn  Zn170  1  0.56141052  0.81474643  0.56754530  1
  O  O171  1  0.11991491  0.12256355  0.11609600  1
  O  O172  1  0.12868754  0.13568055  0.63243068  1
  O  O173  1  0.11921587  0.62053831  0.11756374  1
  O  O174  1  0.13377708  0.61121819  0.61891964  1
  O  O175  1  0.61819615  0.11789005  0.11816823  1
  O  O176  1  0.63218622  0.11652238  0.61851691  1
  O  O177  1  0.62013265  0.61818235  0.12016399  1
  O  O178  1  0.62884265  0.60939637  0.62070898  1
  O  O179  1  0.38652422  0.38168042  0.36694073  1
  O  O180  1  0.38390759  0.38765186  0.87791019  1
  O  O181  1  0.38102372  0.88696787  0.38098236  1
  O  O182  1  0.39181103  0.88139041  0.87623483  1
  O  O183  1  0.86622490  0.38464609  0.38543349  1
  O  O184  1  0.86989378  0.38963442  0.87922389  1
  O  O185  1  0.88701209  0.87674592  0.38399691  1
  O  O186  1  0.87057288  0.88052876  0.88347442  1
  O  O187  1  0.25107942  0.00770651  0.37466871  1
  O  O188  1  0.25921301  0.01064909  0.86883714  1
  O  O189  1  0.25489176  0.50680583  0.37102635  1
  O  O190  1  0.26147593  0.50251487  0.87250025  1
  O  O191  1  0.75178076  0.00010666  0.37059828  1
  O  O192  1  0.75911707  0.00931503  0.87546395  1
  O  O193  1  0.75740116  0.50622844  0.36538450  1
  O  O194  1  0.75604187  0.50410839  0.86385880  1
  O  O195  1  0.24517255  0.49584229  0.13140197  1
  O  O196  1  0.24825569  0.49661851  0.63340085  1
  O  O197  1  0.24196705  1.00088917  0.13334040  1
  O  O198  1  0.25970067  0.99889982  0.64355605  1
  O  O199  1  0.74737906  0.49620780  0.13045368  1
  O  O200  1  0.75202850  0.49517482  0.63193871  1
  O  O201  1  0.73617904  0.99108940  0.12535626  1
  O  O202  1  0.74304909  0.98689653  0.62657022  1
  O  O203  1  0.01062711  0.36731844  0.23956510  1
  O  O204  1  0.00014663  0.36276981  0.74938118  1
  O  O205  1  -0.00386789  0.86811675  0.26213742  1
  O  O206  1  0.00789343  0.86370885  0.75746778  1
  O  O207  1  0.50733008  0.36590168  0.25233357  1
  O  O208  1  0.50185774  0.36955555  0.76398493  1
  O  O209  1  0.50467044  0.87055037  0.25698723  1
  O  O210  1  0.51395509  0.87636902  0.76038685  1
  O  O211  1  0.48978725  0.12988561  0.24611319  1
  O  O212  1  0.50434699  0.14647570  0.75722777  1
  O  O213  1  0.49629558  0.63414431  0.24937800  1
  O  O214  1  0.49726666  0.63258283  0.75422552  1
  O  O215  1  0.99831129  0.13642458  0.23547335  1
  O  O216  1  0.98695807  0.13434789  0.75047590  1
  O  O217  1  1.00115766  0.63163855  0.23625122  1
  O  O218  1  0.99788374  0.63923549  0.75365712  1
  O  O219  1  0.37458012  0.24551476  0.01556291  1
  O  O220  1  0.35596797  0.26483317  0.47928851  1
  O  O221  1  0.37714444  0.74958810  0.01575554  1
  O  O222  1  0.37224845  0.76306477  0.49093199  1
  O  O223  1  0.87130426  0.25663867  0.00221730  1
  O  O224  1  0.87224423  0.25804969  0.50572234  1
  O  O225  1  0.86613255  0.75570198  0.00588410  1
  O  O226  1  0.87042406  0.76187697  0.50686598  1
  O  O227  1  0.12928834  0.25734849  0.48556271  1
  O  O228  1  0.12776282  0.24560469  0.99701253  1
  O  O229  1  0.13035115  0.74296664  0.49950909  1
  O  O230  1  0.11882891  0.73903748  0.99351011  1
  O  O231  1  0.62378135  0.24137603  0.49505171  1
  O  O232  1  0.63399337  0.24062720  0.99849004  1
  O  O233  1  0.63884247  0.75422964  0.50450471  1
  O  O234  1  0.63828453  0.74073609  1.00788589  1
  O  O235  1  0.49323069  0.24401263  0.13233255  1
  O  O236  1  0.49892268  0.26317525  0.64129679  1
  O  O237  1  0.49105946  0.74224345  0.13168641  1
  O  O238  1  0.49677749  0.74075308  0.62232990  1
  O  O239  1  0.99635390  0.24542353  0.13036710  1
  O  O240  1  0.98484534  0.25020698  0.63377078  1
  O  O241  1  0.99296329  0.74447311  0.12939291  1
  O  O242  1  0.99016333  0.75708790  0.63417271  1
  O  O243  1  0.00603374  0.25017933  0.35893311  1
  O  O244  1  0.01026758  0.24627083  0.86690927  1
  O  O245  1  -0.00225962  0.75787725  0.36576211  1
  O  O246  1  0.01049833  0.74935614  0.87073791  1
  O  O247  1  0.50837527  0.26104179  0.37123947  1
  O  O248  1  0.50018226  0.26327429  0.86944172  1
  O  O249  1  0.49436308  0.76592557  0.36645213  1
  O  O250  1  0.50890341  0.76652548  0.88506695  1
  O  O251  1  0.24487075  0.13560812  0.49390885  1
  O  O252  1  0.24463778  0.12919526  0.99320416  1
  O  O253  1  0.24058454  0.62595672  0.49229858  1
  O  O254  1  0.23800397  0.61981519  0.99049801  1
  O  O255  1  0.73795603  0.12668670  0.49641718  1
  O  O256  1  0.74517105  0.13031765  0.99081424  1
  O  O257  1  0.74672196  0.63673131  0.49050505  1
  O  O258  1  0.74352958  0.63058558  0.99233857  1
  O  O259  1  0.24592744  0.37524504  0.01717217  1
  O  O260  1  0.24273428  0.37448724  0.51261774  1
  O  O261  1  0.25324862  0.87825117  0.00682143  1
  O  O262  1  0.26285780  0.87138905  0.50800385  1
  O  O263  1  0.75536911  0.37167169  0.00435895  1
  O  O264  1  0.75578323  0.37521621  0.51033182  1
  O  O265  1  0.75304586  0.86633259  0.00373160  1
  O  O266  1  0.75694908  0.87046078  0.50752317  1
  O  O267  1  0.12891683  0.49485688  0.24589116  1
  O  O268  1  0.13276563  0.50070478  0.74354206  1
  O  O269  1  0.13399136  1.00979457  0.23844988  1
  O  O270  1  0.13642922  0.99017459  0.75830476  1
  O  O271  1  0.63529592  0.49580115  0.23734354  1
  O  O272  1  0.63506279  0.49815529  0.73741616  1
  O  O273  1  0.62319895  0.98993738  0.24183121  1
  O  O274  1  0.62737657  0.99858054  0.74059146  1
  O  O275  1  0.36924094  0.00555464  0.25864057  1
  O  O276  1  0.36809869  -0.00374692  0.76733894  1
  O  O277  1  0.36678534  0.50820279  0.25432617  1
  O  O278  1  0.36610978  0.49772737  0.75927208  1
  O  O279  1  0.87060162  0.00204048  0.24916541  1
  O  O280  1  0.87104552  0.00659186  0.75772314  1
  O  O281  1  0.86463765  0.49154273  0.25689877  1
  O  O282  1  0.87017585  0.50207269  0.75419760  1
  O  O283  1  0.12537949  0.37286778  0.36274815  1
  O  O284  1  0.13148247  0.36355348  0.87787579  1
  O  O285  1  0.11073682  0.86873182  0.37539172  1
  O  O286  1  0.12470298  0.86675257  0.87045304  1
  O  O287  1  0.61529296  0.37253270  0.37019735  1
  O  O288  1  0.61257083  0.37931729  0.87356913  1
  O  O289  1  0.61626735  0.87965168  0.36419325  1
  O  O290  1  0.61667699  0.88435537  0.86371282  1
  O  O291  1  0.37973756  0.12867403  0.13260780  1
  O  O292  1  0.38925139  0.14575571  0.57867750  1
  O  O293  1  0.37962863  0.63328429  0.13101013  1
  O  O294  1  0.38239897  0.62345686  0.62943967  1
  O  O295  1  0.88338171  0.13321227  0.12088904  1
  O  O296  1  0.86278320  0.13380613  0.63502118  1
  O  O297  1  0.88392373  0.63497244  0.11609170  1
  O  O298  1  0.86794709  0.63996410  0.62290415  1
  O  O299  1  0.25804328  0.25826567  0.12754640  1
  O  O300  1  0.25476644  0.26605053  0.61639242  1
  O  O301  1  0.26594411  0.75036511  0.13506348  1
  O  O302  1  0.25819072  0.75300486  0.63206068  1
  O  O303  1  0.75431836  0.25731097  0.11742158  1
  O  O304  1  0.75956350  0.26024635  0.62528601  1
  O  O305  1  0.75654446  0.75329284  0.11938041  1
  O  O306  1  0.75481595  0.75976658  0.61920427  1
  O  O307  1  0.23533687  0.25710034  0.37926216  1
  O  O308  1  0.24793136  0.24581537  0.87600709  1
  O  O309  1  0.24858681  0.73700644  0.37019371  1
  O  O310  1  0.24065426  0.74147574  0.86991937  1
  O  O311  1  0.73297300  0.25541218  0.37642922  1
  O  O312  1  0.74981251  0.24448211  0.88075522  1
  O  O313  1  0.76179351  0.74516029  0.38383821  1
  O  O314  1  0.75436599  0.73852372  0.88360693  1
  O  O315  1  0.00790909  0.12613093  0.00968531  1
  O  O316  1  0.00593516  0.12836355  0.49288874  1
  O  O317  1  0.00561497  0.61701518  0.00839609  1
  O  O318  1  0.01207510  0.62634291  0.49580629  1
  O  O319  1  0.51276158  0.13166799  0.00441852  1
  O  O320  1  0.51792845  0.10746740  0.48955666  1
  O  O321  1  0.51480747  0.62876101  0.00526358  1
  O  O322  1  0.51718384  0.61508545  0.45360241  1
  O  O323  1  0.50157209  0.37359998  0.48573556  1
  O  O324  1  0.50296034  0.36990653  0.98599654  1
  O  O325  1  0.49797813  0.88245027  0.49401441  1
  O  O326  1  0.50359022  0.87948680  0.98797776  1
  O  O327  1  0.98613206  0.38048152  0.50055061  1
  O  O328  1  0.99652434  0.39119915  1.00641501  1
  O  O329  1  0.99531699  0.87657205  0.48854487  1
  O  O330  1  0.98638154  0.87569484  0.99739395  1
  O  O331  1  0.48876269  0.48147023  0.36191966  1
  O  O332  1  0.48788405  0.49248439  0.87418889  1
  O  O333  1  0.49366649  0.99036273  0.38120141  1
  O  O334  1  0.49030381  0.99758047  0.87062990  1
  O  O335  1  0.98567523  0.50469138  0.37225926  1
  O  O336  1  0.99197246  0.50814540  0.88289296  1
  O  O337  1  0.99854702  0.98846840  0.37283986  1
  O  O338  1  0.98217022  0.99804596  0.88108571  1
  O  O339  1  0.00704948  0.00981872  0.12355655  1
  O  O340  1  0.00458212  -0.00714496  0.62963334  1
  O  O341  1  0.00435998  0.50862922  0.11949068  1
  O  O342  1  0.01386693  0.49998648  0.62815531  1
  O  O343  1  0.50955731  0.00559766  0.12896986  1
  O  O344  1  0.50866000  -0.00403801  0.61856165  1
  O  O345  1  0.50877441  0.50791040  0.13148447  1
  O  O346  1  0.51432738  0.49349037  0.62607884  1
  O  O347  1  0.24204762  0.38130482  0.24238267  1
  O  O348  1  0.24851862  0.38359679  0.74066967  1
  O  O349  1  0.25521236  0.89019505  0.24909614  1
  O  O350  1  0.24313893  0.88493990  0.75470440  1
  O  O351  1  0.74168978  0.38291636  0.24253530  1
  O  O352  1  0.75073811  0.38445835  0.73852190  1
  O  O353  1  0.73912487  0.87049385  0.24273015  1
  O  O354  1  0.73925631  0.87616616  0.74510516  1
  O  O355  1  0.26335757  0.11678496  0.24751527  1
  O  O356  1  0.24894283  0.12153351  0.76437755  1
  O  O357  1  0.25173610  0.61753894  0.25770483  1
  O  O358  1  0.24346260  0.61369935  0.76798472  1
  O  O359  1  0.75020366  0.12306248  0.24870511  1
  O  O360  1  0.75677710  0.12695847  0.76357920  1
  O  O361  1  0.75426043  0.61527721  0.24786604  1
  O  O362  1  0.75244147  0.61738485  0.75592612  1
  O  O363  1  0.38183597  0.11193505  0.37073464  1
  O  O364  1  0.37056823  0.11647337  0.87999058  1
  O  O365  1  0.36548388  0.61718813  0.36917402  1
  O  O366  1  0.36639688  0.61037427  0.88377334  1
  O  O367  1  0.86737013  0.12454829  0.36750858  1
  O  O368  1  0.86923964  0.11887872  0.86998522  1
  O  O369  1  0.86480266  0.61390923  0.37859093  1
  O  O370  1  0.86366655  0.61350973  0.87525048  1
  O  O371  1  0.13215573  0.38231615  0.13457721  1
  O  O372  1  0.13846282  0.39564010  0.63056613  1
  O  O373  1  0.12074961  0.88920939  0.12179549  1
  O  O374  1  0.12866868  0.87039709  0.63983873  1
  O  O375  1  0.62830788  0.38171691  0.12814453  1
  O  O376  1  0.63517780  0.38607342  0.62479155  1
  O  O377  1  0.62423781  0.88085169  0.13104660  1
  O  O378  1  0.62903828  0.88049582  0.63795090  1
  O  O379  1  0.11943929  0.25868754  0.25557447  1
  O  O380  1  0.11728976  0.25622601  0.76066247  1
  O  O381  1  0.11031031  0.74593692  0.24965127  1
  O  O382  1  0.11936278  0.75495351  0.75913684  1
  O  O383  1  0.61804191  0.25630318  0.25655136  1
  O  O384  1  0.61679648  0.25659001  0.75353639  1
  O  O385  1  0.61036845  0.75990694  0.24223738  1
  O  O386  1  0.62927338  0.76195833  0.74843406  1
  O  O387  1  0.37787975  0.24118624  0.24568069  1
  O  O388  1  0.38839590  0.25350205  0.74891835  1
  O  O389  1  0.38615696  0.74572068  0.24675972  1
  O  O390  1  0.38570643  0.74247358  0.75680415  1
  O  O391  1  0.88268034  0.25540969  0.24102617  1
  O  O392  1  0.88055498  0.24454119  0.74501994  1
  O  O393  1  0.88383710  0.75540684  0.23576590  1
  O  O394  1  0.88248798  0.74957705  0.74219691  1
  O  O395  1  0.37020167  0.50224196  0.48710719  1
  O  O396  1  0.37334158  0.49813664  0.99335327  1
  O  O397  1  0.38374104  0.99417112  0.49467045  1
  O  O398  1  0.37413160  0.99884769  0.98313476  1
  O  O399  1  0.87623376  0.49362577  0.49158102  1
  O  O400  1  0.88187743  0.49718966  0.99177268  1
  O  O401  1  0.87843354  0.98790785  0.50202062  1
  O  O402  1  0.87157138  0.98900464  0.99658993  1
  O  O403  1  0.12294610  0.01133383  0.00596748  1
  O  O404  1  0.13428984  0.01296098  0.48289402  1
  O  O405  1  0.11764965  0.50893790  0.00349524  1
  O  O406  1  0.11991183  0.50761948  0.51210831  1
  O  O407  1  0.62952526  0.01072192  0.00872550  1
  O  O408  1  0.62025806  0.00183679  0.51259793  1
  O  O409  1  0.63416486  0.50884580  0.01546112  1
  O  O410  1  0.63150462  0.50009243  0.51294554  1
  O  O411  1  0.36695485  0.36485727  0.13542259  1
  O  O412  1  0.36183818  0.37810176  0.62581825  1
  O  O413  1  0.37893503  0.86139328  0.12359407  1
  O  O414  1  0.38247925  0.88115741  0.61447834  1
  O  O415  1  0.86926939  0.37094031  0.11555546  1
  O  O416  1  0.86923763  0.36837458  0.61642874  1
  O  O417  1  0.86884253  0.86778450  0.11562225  1
  O  O418  1  0.86541223  0.86708826  0.62101897  1
  O  O419  1  0.12805715  0.13445726  0.36688606  1
  O  O420  1  0.13642022  0.13931809  0.88993390  1
  O  O421  1  0.13229393  0.62510279  0.38397539  1
  O  O422  1  0.13164673  0.63182044  0.88331512  1
  O  O423  1  0.62468154  0.13487515  0.37999199  1
  O  O424  1  0.63387098  0.12552928  0.88259298  1
  O  O425  1  0.64921127  0.62628163  0.36364265  1
  O  O426  1  0.63698148  0.61315062  0.88212261  1
