# generated using pymatgen
data_V85Zn86O256
_symmetry_space_group_name_H-M   'P 1'
_cell_length_a   16.93312703
_cell_length_b   16.92726561
_cell_length_c   16.94208291
_cell_angle_alpha   89.99238081
_cell_angle_beta   90.06679623
_cell_angle_gamma   90.00574202
_symmetry_Int_Tables_number   1
_chemical_formula_structural   V85Zn86O256
_chemical_formula_sum   'V85 Zn86 O256'
_cell_volume   4856.13192817
_cell_formula_units_Z   1
loop_
 _symmetry_equiv_pos_site_id
 _symmetry_equiv_pos_as_xyz
  1  'x, y, z'
loop_
 _atom_site_type_symbol
 _atom_site_label
 _atom_site_symmetry_multiplicity
 _atom_site_fract_x
 _atom_site_fract_y
 _atom_site_fract_z
 _atom_site_occupancy
  V  V0  1  0.12550379  0.12462075  0.00108138  1
  V  V1  1  0.12513716  0.39727373  0.24458427  1
  V  V2  1  0.37122183  0.62341161  0.75420531  1
  V  V3  1  0.37702784  0.12845749  0.75092859  1
  V  V4  1  0.62175935  0.25801788  0.37756065  1
  V  V5  1  0.37726187  0.36983143  0.00486472  1
  V  V6  1  0.25831809  0.76608977  0.00004494  1
  V  V7  1  0.74947150  0.12626857  0.37335450  1
  V  V8  1  0.24727293  0.87573066  0.62687692  1
  V  V9  1  0.75363952  0.62278639  0.37777009  1
  V  V10  1  0.62296349  0.74917632  0.87874692  1
  V  V11  1  0.50745666  0.50040575  0.49735816  1
  V  V12  1  0.24356424  0.24469028  0.50280269  1
  V  V13  1  0.87721210  0.37649348  -0.00090494  1
  V  V14  1  0.24848682  0.50312955  0.75901228  1
  V  V15  1  0.25086693  0.12788587  0.87669235  1
  V  V16  1  0.74889140  0.37308207  0.13207622  1
  V  V17  1  0.24998599  0.00107570  0.75024765  1
  V  V18  1  0.49468342  0.62640927  0.12583423  1
  V  V19  1  0.87682335  0.86550683  0.50711717  1
  V  V20  1  0.62208103  0.37844475  0.73872164  1
  V  V21  1  0.51234617  0.87920172  0.37498069  1
  V  V22  1  0.25114938  0.38257344  0.12776961  1
  V  V23  1  0.38720301  0.87608660  0.50321383  1
  V  V24  1  0.74769655  0.74841705  0.00217372  1
  V  V25  1  0.00219970  0.12218766  0.12311016  1
  V  V26  1  0.13587063  0.62408157  0.00691283  1
  V  V27  1  -0.00093773  0.50314591  0.50044539  1
  V  V28  1  0.25060804  0.37531557  0.62583393  1
  V  V29  1  0.00335430  0.51021619  0.01059463  1
  V  V30  1  0.00182682  -0.00587228  -0.00874150  1
  V  V31  1  0.87658216  0.36685517  0.50928448  1
  V  V32  1  -0.00945144  0.75647759  0.74829432  1
  V  V33  1  0.50706623  0.24992630  0.75334398  1
  V  V34  1  0.87830573  0.87322124  -0.00387337  1
  V  V35  1  0.12494629  0.37614437  0.75241412  1
  V  V36  1  0.11397991  0.87431332  0.25845482  1
  V  V37  1  0.38035087  0.00094014  0.38009989  1
  V  V38  1  0.25151239  -0.00892643  0.24878431  1
  V  V39  1  0.62145890  0.50026091  0.12623605  1
  V  V40  1  0.62592900  0.87643578  0.74867279  1
  V  V41  1  0.62941994  0.12602569  -0.01005414  1
  V  V42  1  0.51076384  0.61826694  0.62346480  1
  V  V43  1  0.61634876  0.62288653  0.00080377  1
  V  V44  1  0.49568889  0.87437664  0.87824224  1
  V  V45  1  0.74673852  0.50092311  0.73844360  1
  V  V46  1  0.37722635  0.37655176  0.49823875  1
  V  V47  1  0.87840834  -0.01197761  0.37276942  1
  V  V48  1  0.87436450  0.12321905  0.24957784  1
  V  V49  1  0.36687715  0.50187624  0.37219601  1
  V  V50  1  0.75614406  0.50760314  0.24581983  1
  V  V51  1  -0.01738930  0.12772719  0.62287938  1
  V  V52  1  0.88202265  0.73764368  0.12583442  1
  V  V53  1  0.50019488  0.11949510  0.62163762  1
  V  V54  1  0.74941421  0.25233514  -0.00863237  1
  V  V55  1  0.74778579  -0.00289154  0.24775984  1
  V  V56  1  0.24254864  0.11974394  0.37851512  1
  V  V57  1  0.49800702  0.74764964  0.75116877  1
  V  V58  1  0.00445172  -0.00052116  0.49498440  1
  V  V59  1  0.37428484  0.74764050  0.62715315  1
  V  V60  1  0.75728236  0.00180593  0.74708359  1
  V  V61  1  0.63012032  -0.00177396  0.12222918  1
  V  V62  1  0.12991798  -0.01064540  0.12344156  1
  V  V63  1  -0.01111873  0.24654004  0.74698248  1
  V  V64  1  0.76230839  0.12680766  0.86735682  1
  V  V65  1  0.12380686  0.50480898  0.62616747  1
  V  V66  1  0.12872522  0.25171271  0.87835607  1
  V  V67  1  0.24925976  0.74955721  0.49591816  1
  V  V68  1  0.62052855  0.11523283  0.49774392  1
  V  V69  1  0.62412277  0.73801975  0.38303470  1
  V  V70  1  0.50405030  0.75265156  0.25225724  1
  V  V71  1  -0.00114727  0.37405878  0.37451932  1
  V  V72  1  0.74732502  0.87038979  0.12914994  1
  V  V73  1  0.50139141  0.00459454  -0.00264907  1
  V  V74  1  0.36482919  0.62793384  0.24829011  1
  V  V75  1  0.12383600  0.75001238  0.87414141  1
  V  V76  1  0.50738872  0.37703304  0.87865941  1
  V  V77  1  0.12602705  0.01157782  0.62297300  1
  V  V78  1  0.37824353  0.50155206  0.88422227  1
  V  V79  1  0.75114513  0.62113780  0.87477449  1
  V  V80  1  0.00783441  0.24811383  0.24797310  1
  V  V81  1  -0.00374488  0.73710504  0.25413580  1
  V  V82  1  0.00108650  0.37995819  0.87524478  1
  V  V83  1  0.87450399  0.24826146  0.12491051  1
  V  V84  1  0.37299327  -0.00227644  0.88053130  1
  Zn  Zn85  1  0.62303160  -0.00297049  0.62164118  1
  Zn  Zn86  1  0.75158911  0.73364678  0.51270539  1
  Zn  Zn87  1  0.75447450  0.87065303  0.62620472  1
  Zn  Zn88  1  0.74842814  0.37005974  0.62430254  1
  Zn  Zn89  1  0.26451592  0.23976742  0.02163094  1
  Zn  Zn90  1  0.87108486  0.62765442  0.73977111  1
  Zn  Zn91  1  0.12557512  0.62877064  0.49973017  1
  Zn  Zn92  1  0.57950091  0.32736805  0.21095961  1
  Zn  Zn93  1  0.11450753  0.75449808  0.38233087  1
  Zn  Zn94  1  0.37632742  0.25076215  0.62471920  1
  Zn  Zn95  1  0.12129420  0.24489705  0.38048851  1
  Zn  Zn96  1  0.45467372  0.32484270  0.32222889  1
  Zn  Zn97  1  0.88202700  -0.00356976  0.86811889  1
  Zn  Zn98  1  0.87821646  0.50185933  0.36779778  1
  Zn  Zn99  1  0.11887654  0.87819017  0.75645529  1
  Zn  Zn100  1  0.24381689  0.62426136  0.36970764  1
  Zn  Zn101  1  0.35636116  0.78975333  0.13603382  1
  Zn  Zn102  1  -0.00955632  0.63331064  0.62267318  1
  Zn  Zn103  1  0.87558144  0.50300556  0.87288470  1
  Zn  Zn104  1  0.37540240  0.14385947  0.24389803  1
  Zn  Zn105  1  0.75714523  0.23897170  0.51151226  1
  Zn  Zn106  1  0.48564973  0.15120509  0.12883150  1
  Zn  Zn107  1  0.19484985  0.18382424  0.18817894  1
  Zn  Zn108  1  0.18552821  0.18989560  0.69046536  1
  Zn  Zn109  1  0.18376004  0.69415122  0.18112903  1
  Zn  Zn110  1  0.18551445  0.68730886  0.68906508  1
  Zn  Zn111  1  0.67439108  0.18772587  0.18029548  1
  Zn  Zn112  1  0.68837212  0.18962653  0.68578164  1
  Zn  Zn113  1  0.68395243  0.68746591  0.19237325  1
  Zn  Zn114  1  0.68835577  0.68931902  0.68813507  1
  Zn  Zn115  1  0.29471026  0.31138269  0.31220569  1
  Zn  Zn116  1  0.31609538  0.31446224  0.81525559  1
  Zn  Zn117  1  0.31597045  0.81755070  0.31397434  1
  Zn  Zn118  1  0.30751176  0.81119832  0.81757050  1
  Zn  Zn119  1  0.81318064  0.31017998  0.31362723  1
  Zn  Zn120  1  0.81091731  0.31696436  0.81040017  1
  Zn  Zn121  1  0.81119786  0.80668625  0.31087695  1
  Zn  Zn122  1  0.80952964  0.81280143  0.81395544  1
  Zn  Zn123  1  0.18637628  0.43539380  0.43682746  1
  Zn  Zn124  1  0.19110957  0.43928246  0.94521781  1
  Zn  Zn125  1  0.18802137  0.93405720  0.43984938  1
  Zn  Zn126  1  0.18599569  0.93463377  0.93552936  1
  Zn  Zn127  1  0.69281633  0.43989724  0.43817868  1
  Zn  Zn128  1  0.68563113  0.43989677  0.93775379  1
  Zn  Zn129  1  0.69168104  0.93636031  0.43741667  1
  Zn  Zn130  1  0.69131455  0.93687346  0.93368821  1
  Zn  Zn131  1  0.31644234  0.06218910  0.06851243  1
  Zn  Zn132  1  0.31582822  0.06253863  0.56143744  1
  Zn  Zn133  1  0.30873375  0.56212798  0.06630284  1
  Zn  Zn134  1  0.31394907  0.56239410  0.56469258  1
  Zn  Zn135  1  0.81412331  0.06180257  0.05851594  1
  Zn  Zn136  1  0.80935945  0.05317034  0.55893346  1
  Zn  Zn137  1  0.81154113  0.56014818  0.05764091  1
  Zn  Zn138  1  0.81527289  0.55839202  0.56039650  1
  Zn  Zn139  1  0.43326168  0.44635274  0.18569484  1
  Zn  Zn140  1  0.43705571  0.43854162  0.68597308  1
  Zn  Zn141  1  0.44987089  0.96577905  0.19781617  1
  Zn  Zn142  1  0.43678158  0.93849712  0.69167627  1
  Zn  Zn143  1  0.93796909  0.43749061  0.18602150  1
  Zn  Zn144  1  0.93663289  0.44339480  0.68985302  1
  Zn  Zn145  1  0.93704936  0.93349626  0.18122470  1
  Zn  Zn146  1  0.94114049  0.93691798  0.68582711  1
  Zn  Zn147  1  0.06329707  0.06040795  0.31137105  1
  Zn  Zn148  1  0.06210856  0.06632943  0.80824511  1
  Zn  Zn149  1  0.06192444  0.56982061  0.31897884  1
  Zn  Zn150  1  0.06166521  0.57173449  0.81597274  1
  Zn  Zn151  1  0.56085230  0.06579959  0.30813485  1
  Zn  Zn152  1  0.56804281  0.06360889  0.81105736  1
  Zn  Zn153  1  0.55900335  0.55359241  0.30969332  1
  Zn  Zn154  1  0.56193398  0.55978561  0.81103628  1
  Zn  Zn155  1  0.43276850  0.18473416  0.43850242  1
  Zn  Zn156  1  0.44090820  0.18959842  0.93542230  1
  Zn  Zn157  1  0.43613520  0.68409641  0.43790851  1
  Zn  Zn158  1  0.43315310  0.68738144  0.93957328  1
  Zn  Zn159  1  0.93922310  0.18261661  0.43685079  1
  Zn  Zn160  1  0.93848643  0.18836730  0.93548400  1
  Zn  Zn161  1  0.93551578  0.68380317  0.43454697  1
  Zn  Zn162  1  0.93950851  0.68991454  0.93239498  1
  Zn  Zn163  1  0.06635804  0.31515352  0.06342917  1
  Zn  Zn164  1  0.06136308  0.31268919  0.56565316  1
  Zn  Zn165  1  0.06354901  0.80933368  0.06294685  1
  Zn  Zn166  1  0.06176443  0.81891903  0.56620431  1
  Zn  Zn167  1  0.56530047  0.30986960  0.04745577  1
  Zn  Zn168  1  0.56186274  0.30524538  0.55855157  1
  Zn  Zn169  1  0.52307884  0.84030810  0.08870023  1
  Zn  Zn170  1  0.56686228  0.80455418  0.56502177  1
  O  O171  1  0.12195927  0.11442389  0.11992930  1
  O  O172  1  0.12453822  0.11384963  0.62754135  1
  O  O173  1  0.12120975  0.63232347  0.10535479  1
  O  O174  1  0.12379126  0.61255119  0.62359309  1
  O  O175  1  0.64351390  0.10727618  0.10391914  1
  O  O176  1  0.61727710  0.12286587  0.61556187  1
  O  O177  1  0.62048323  0.62049953  0.11791118  1
  O  O178  1  0.60942565  0.62466305  0.63243283  1
  O  O179  1  0.36981313  0.38438499  0.38378213  1
  O  O180  1  0.38263684  0.38340351  0.88204578  1
  O  O181  1  0.38586777  0.87869627  0.38700093  1
  O  O182  1  0.38275616  0.88620819  0.86862527  1
  O  O183  1  0.88830089  0.37567888  0.37746564  1
  O  O184  1  0.88534251  0.37635427  0.88203040  1
  O  O185  1  0.86983296  0.88530622  0.37820927  1
  O  O186  1  0.86766581  0.87558094  0.89202264  1
  O  O187  1  0.25469003  0.00281297  0.37307747  1
  O  O188  1  0.25685281  0.00520214  0.87243131  1
  O  O189  1  0.26151140  0.50508054  0.38383495  1
  O  O190  1  0.25724082  0.49356618  0.86398161  1
  O  O191  1  0.75652808  0.00710529  0.36655760  1
  O  O192  1  0.75551307  0.00789184  0.86709671  1
  O  O193  1  0.74959775  0.50712423  0.36384251  1
  O  O194  1  0.75003935  0.50818619  0.86953537  1
  O  O195  1  0.24343553  0.48429309  0.11866552  1
  O  O196  1  0.24350829  0.49439030  0.63454081  1
  O  O197  1  0.24219835  1.00108030  0.13559257  1
  O  O198  1  0.24541516  0.99532401  0.62819158  1
  O  O199  1  0.74654186  0.49314796  0.12813081  1
  O  O200  1  0.75070569  0.49182744  0.63524325  1
  O  O201  1  0.74993346  0.98968307  0.12680967  1
  O  O202  1  0.74434035  0.99321651  0.63299256  1
  O  O203  1  0.00758987  0.36885019  0.25396125  1
  O  O204  1  0.00653892  0.37108594  0.75669794  1
  O  O205  1  0.00809060  0.86879607  0.24378634  1
  O  O206  1  0.00158960  0.86350763  0.75036094  1
  O  O207  1  0.50787493  0.39799488  0.25624042  1
  O  O208  1  0.50423822  0.37028683  0.75436046  1
  O  O209  1  0.50021230  0.86666801  0.26701961  1
  O  O210  1  0.50457440  0.87083084  0.76059156  1
  O  O211  1  0.48157714  0.08704050  0.23166634  1
  O  O212  1  0.49818809  0.13339454  0.74845916  1
  O  O213  1  0.48968352  0.63187957  0.24527139  1
  O  O214  1  0.49205185  0.62800238  0.74473628  1
  O  O215  1  0.99468841  0.12973081  0.24411808  1
  O  O216  1  1.00153108  0.13238706  0.73558749  1
  O  O217  1  1.00005245  0.63812709  0.24773070  1
  O  O218  1  0.99614973  0.63906430  0.75011328  1
  O  O219  1  0.37609499  0.26461701  -0.00548188  1
  O  O220  1  0.36464940  0.25918815  0.50083831  1
  O  O221  1  0.36054206  0.74974870  0.00032121  1
  O  O222  1  0.36994211  0.75669938  0.50850298  1
  O  O223  1  0.86877983  0.25465502  0.00536883  1
  O  O224  1  0.87753994  0.26344991  0.49344307  1
  O  O225  1  0.87145158  0.75379494  0.00846960  1
  O  O226  1  0.87360350  0.76332791  0.49148478  1
  O  O227  1  0.13899532  0.25872674  0.50026307  1
  O  O228  1  0.12288358  0.24501618  0.98907155  1
  O  O229  1  0.13426239  0.75498525  0.50215161  1
  O  O230  1  0.13067293  0.74467229  0.99368732  1
  O  O231  1  0.63095544  0.23632410  0.49108523  1
  O  O232  1  0.64260491  0.24251193  0.99226364  1
  O  O233  1  0.62805530  0.74827455  0.48718204  1
  O  O234  1  0.63215411  0.73914200  0.99359415  1
  O  O235  1  0.55481719  0.24048729  0.13629189  1
  O  O236  1  0.49762995  0.23896015  0.63340688  1
  O  O237  1  0.50946601  0.73612046  0.13739068  1
  O  O238  1  0.49263048  0.74130292  0.63196670  1
  O  O239  1  0.99642596  0.24393718  0.12973669  1
  O  O240  1  1.00488228  0.23557065  0.63083388  1
  O  O241  1  0.98682981  0.75133557  0.12998829  1
  O  O242  1  1.01136012  0.74963860  0.64411819  1
  O  O243  1  0.00239676  0.25474956  0.36719799  1
  O  O244  1  0.00736311  0.25959270  0.87036404  1
  O  O245  1  -0.00495875  0.74898961  0.35838405  1
  O  O246  1  0.01196669  0.74996501  0.86489703  1
  O  O247  1  0.51615297  0.24835544  0.38515540  1
  O  O248  1  0.49610011  0.26285571  0.86512424  1
  O  O249  1  0.50624141  0.75268352  0.37260968  1
  O  O250  1  0.50142205  0.75771869  0.87212729  1
  O  O251  1  0.25473327  0.13373466  0.49435797  1
  O  O252  1  0.24323789  0.12638853  0.99436647  1
  O  O253  1  0.24988596  0.63800830  0.50467310  1
  O  O254  1  0.23881816  0.62967354  1.00099723  1
  O  O255  1  0.74428933  0.12051725  0.48919790  1
  O  O256  1  0.75053258  0.13268492  0.98948971  1
  O  O257  1  0.74862134  0.61697073  0.48328712  1
  O  O258  1  0.74155596  0.62888896  0.99285669  1
  O  O259  1  0.25888858  0.37024037  0.00789697  1
  O  O260  1  0.25770573  0.37039153  0.50654093  1
  O  O261  1  0.25295265  0.86574475  -0.00162911  1
  O  O262  1  0.25980023  0.87067711  0.51240383  1
  O  O263  1  0.75576746  0.36910477  0.00430493  1
  O  O264  1  0.76905809  0.37784889  0.49936840  1
  O  O265  1  0.75446722  0.86765790  0.00877251  1
  O  O266  1  0.76827037  0.87922562  0.50042411  1
  O  O267  1  0.11728106  0.49498307  0.24989830  1
  O  O268  1  0.13068133  0.49845825  0.74712988  1
  O  O269  1  0.12855394  0.99217873  0.24289337  1
  O  O270  1  0.13278909  0.99884751  0.74420599  1
  O  O271  1  0.63720201  0.50581339  0.23403792  1
  O  O272  1  0.63282158  0.49057769  0.75259679  1
  O  O273  1  0.63722722  1.00609636  0.23559932  1
  O  O274  1  0.63467397  0.99081150  0.75118049  1
  O  O275  1  0.36142096  -0.01288718  0.26949799  1
  O  O276  1  0.37005918  0.00800126  0.76108949  1
  O  O277  1  0.37422561  0.51411604  0.26067446  1
  O  O278  1  0.36709326  0.50505964  0.75699830  1
  O  O279  1  0.87037274  0.00254113  0.25387784  1
  O  O280  1  0.86248839  -0.00811310  0.75030726  1
  O  O281  1  0.86180408  0.49433043  0.24821888  1
  O  O282  1  0.86279674  0.50094738  0.75524439  1
  O  O283  1  0.11494953  0.37373513  0.36273591  1
  O  O284  1  0.12088293  0.36951192  0.87378412  1
  O  O285  1  0.12570278  0.87275272  0.36358823  1
  O  O286  1  0.12799232  0.85864367  0.87437874  1
  O  O287  1  0.63444455  0.35659424  0.38337836  1
  O  O288  1  0.61143418  0.38142691  0.86928642  1
  O  O289  1  0.61618093  0.86750856  0.38298224  1
  O  O290  1  0.61926026  0.87036617  0.86553858  1
  O  O291  1  0.37288710  0.13907818  0.12529791  1
  O  O292  1  0.38148577  0.12608866  0.63350481  1
  O  O293  1  0.38232110  0.62301783  0.13166449  1
  O  O294  1  0.38023875  0.62870062  0.63795225  1
  O  O295  1  0.88088557  0.12943198  0.12888478  1
  O  O296  1  0.88448673  0.12016848  0.62160184  1
  O  O297  1  0.86883856  0.63972539  0.11951028  1
  O  O298  1  0.87675259  0.62267130  0.62572411  1
  O  O299  1  0.23847535  0.26966830  0.12844070  1
  O  O300  1  0.25098491  0.25620295  0.62106923  1
  O  O301  1  0.25062309  0.75459363  0.10862658  1
  O  O302  1  0.25446795  0.75870941  0.62143450  1
  O  O303  1  0.75308430  0.25658117  0.11688879  1
  O  O304  1  0.74950728  0.25657453  0.62276112  1
  O  O305  1  0.75582262  0.75464225  0.12383906  1
  O  O306  1  0.74063852  0.75843504  0.62146575  1
  O  O307  1  0.24195700  0.23858154  0.38501297  1
  O  O308  1  0.24176803  0.24563814  0.87496839  1
  O  O309  1  0.25303264  0.75521514  0.39028782  1
  O  O310  1  0.24048603  0.75044140  0.88784772  1
  O  O311  1  0.74876041  0.23594117  0.37975037  1
  O  O312  1  0.75869555  0.24202671  0.88081316  1
  O  O313  1  0.74331977  0.73665229  0.37403848  1
  O  O314  1  0.74187018  0.74139595  0.87925046  1
  O  O315  1  0.00634583  0.11849667  0.00417136  1
  O  O316  1  -0.00171908  0.11678507  0.51284218  1
  O  O317  1  0.00481694  0.61348086  -0.00667371  1
  O  O318  1  0.00272216  0.61622001  0.50067560  1
  O  O319  1  0.51252010  0.12207384  -0.00218852  1
  O  O320  1  0.50606115  0.12792285  0.51019106  1
  O  O321  1  0.50907550  0.63103528  0.00724465  1
  O  O322  1  0.49327174  0.61138939  0.50994839  1
  O  O323  1  0.48596221  0.38346451  0.50743520  1
  O  O324  1  0.49319723  0.37453776  0.99078233  1
  O  O325  1  0.49118796  0.86853080  0.49865504  1
  O  O326  1  0.50970266  0.88691876  0.98218085  1
  O  O327  1  0.99522370  0.37804361  0.49255600  1
  O  O328  1  0.99961236  0.38406196  0.99281816  1
  O  O329  1  0.98834174  0.88442392  0.50174480  1
  O  O330  1  0.99242644  0.88307626  1.00594880  1
  O  O331  1  0.48559604  0.50863635  0.39021835  1
  O  O332  1  0.48856220  0.49058418  0.86913007  1
  O  O333  1  0.49354128  0.99043023  0.37414044  1
  O  O334  1  0.49426619  0.99717590  0.87923028  1
  O  O335  1  0.99999946  0.49264271  0.38261987  1
  O  O336  1  1.00180113  0.48935865  0.87832121  1
  O  O337  1  0.99100270  1.00765985  0.38379227  1
  O  O338  1  1.00211281  1.00495300  0.88667291  1
  O  O339  1  0.00759625  0.00520893  0.11512728  1
  O  O340  1  0.00652401  0.01084360  0.62058244  1
  O  O341  1  -0.00118071  0.49753264  0.10868085  1
  O  O342  1  0.00893369  0.50000094  0.61831647  1
  O  O343  1  0.51559795  0.00154074  0.10407053  1
  O  O344  1  0.50161968  0.01489666  0.63564567  1
  O  O345  1  0.50891907  0.51614912  0.12608444  1
  O  O346  1  0.49262706  0.50728474  0.61214625  1
  O  O347  1  0.23146674  0.38000605  0.24705078  1
  O  O348  1  0.24459361  0.38132337  0.74605342  1
  O  O349  1  0.23868881  0.88361824  0.25361757  1
  O  O350  1  0.25296476  0.88161806  0.73911805  1
  O  O351  1  0.75302422  0.37708125  0.23651939  1
  O  O352  1  0.73851479  0.38302089  0.75165472  1
  O  O353  1  0.75435772  0.87878160  0.23676422  1
  O  O354  1  0.74074352  0.88161724  0.75134303  1
  O  O355  1  0.25279258  0.11051173  0.25986721  1
  O  O356  1  0.25556540  0.12072889  0.75674548  1
  O  O357  1  0.26091482  0.63927156  0.24757175  1
  O  O358  1  0.25865207  0.61531224  0.74620836  1
  O  O359  1  0.75621951  0.11935122  0.25359035  1
  O  O360  1  0.74208665  0.11558754  0.75820719  1
  O  O361  1  0.74907158  0.61705592  0.25808431  1
  O  O362  1  0.74661163  0.61696605  0.75837327  1
  O  O363  1  0.36505567  0.11316987  0.37714447  1
  O  O364  1  0.37071557  0.11983703  0.87025873  1
  O  O365  1  0.36864159  0.62169835  0.36643643  1
  O  O366  1  0.38181214  0.61624435  0.86353767  1
  O  O367  1  0.86760962  0.11618301  0.36929049  1
  O  O368  1  0.86642310  0.11983453  0.87711612  1
  O  O369  1  0.85961605  0.62091689  0.37317092  1
  O  O370  1  0.86002770  0.62630562  0.87491008  1
  O  O371  1  0.12421139  0.37736252  0.14048726  1
  O  O372  1  0.12892177  0.38520727  0.63309702  1
  O  O373  1  0.12122262  0.88584804  0.13145829  1
  O  O374  1  0.13442159  0.88761591  0.62982501  1
  O  O375  1  0.63400323  0.38461685  0.11826137  1
  O  O376  1  0.61974002  0.37232904  0.63598808  1
  O  O377  1  0.63283686  0.88755678  0.11641788  1
  O  O378  1  0.61644005  0.87678263  0.64024023  1
  O  O379  1  0.11270479  0.24648479  0.25143551  1
  O  O380  1  0.11779807  0.25544487  0.76177638  1
  O  O381  1  0.10975279  0.75748291  0.24649551  1
  O  O382  1  0.12347626  0.75114176  0.76222359  1
  O  O383  1  0.63574557  0.24587069  0.27267187  1
  O  O384  1  0.61308611  0.25827054  0.75058877  1
  O  O385  1  0.61156494  0.74616097  0.26282023  1
  O  O386  1  0.61595131  0.75589242  0.75950731  1
  O  O387  1  0.38111463  0.25367220  0.27323211  1
  O  O388  1  0.38489626  0.24478543  0.74961951  1
  O  O389  1  0.38509288  0.74763302  0.24864168  1
  O  O390  1  0.37754265  0.74219567  0.74908139  1
  O  O391  1  0.88598479  0.24512558  0.24458060  1
  O  O392  1  0.89025160  0.25579516  0.75409238  1
  O  O393  1  0.88565656  0.75531635  0.23646502  1
  O  O394  1  0.88730713  0.75102165  0.75664301  1
  O  O395  1  0.37841879  0.49289191  0.49568335  1
  O  O396  1  0.36833096  0.49476142  0.98778743  1
  O  O397  1  0.37195799  0.98905969  0.49093622  1
  O  O398  1  0.38496844  1.00770604  0.98795713  1
  O  O399  1  0.88762654  0.48755582  0.49498472  1
  O  O400  1  0.88734291  0.49618351  0.99554947  1
  O  O401  1  0.88427644  0.99274291  0.49067351  1
  O  O402  1  0.88607320  0.99133239  1.00019289  1
  O  O403  1  0.12105752  0.00216116  0.00592381  1
  O  O404  1  0.11287357  -0.00793495  0.50771859  1
  O  O405  1  0.11630410  0.51404608  -0.00690454  1
  O  O406  1  0.11537037  0.49675684  0.50881822  1
  O  O407  1  0.62138429  0.00609994  -0.00273279  1
  O  O408  1  0.62716954  0.01047671  0.49966124  1
  O  O409  1  0.63157172  0.51174049  0.01243026  1
  O  O410  1  0.60616088  0.49107726  0.49379321  1
  O  O411  1  0.36799529  0.38248653  0.11535445  1
  O  O412  1  0.36589758  0.37397321  0.61927804  1
  O  O413  1  0.42035905  0.87884417  0.12689911  1
  O  O414  1  0.37104959  0.87109757  0.62121375  1
  O  O415  1  0.86917786  0.36811307  0.11791302  1
  O  O416  1  0.88238188  0.37568388  0.61065603  1
  O  O417  1  0.86545707  0.86640720  0.11442576  1
  O  O418  1  0.87652774  0.87710557  0.61023329  1
  O  O419  1  0.13793293  0.12137593  0.37456127  1
  O  O420  1  0.12968377  0.13291192  0.87977668  1
  O  O421  1  0.12937730  0.63595616  0.38072369  1
  O  O422  1  0.12328629  0.64037385  0.88686558  1
  O  O423  1  0.63089669  0.12703679  0.37926179  1
  O  O424  1  0.63880540  0.12007963  0.88442977  1
  O  O425  1  0.63491021  0.62861478  0.36833902  1
  O  O426  1  0.62926170  0.62681983  0.88238121  1
