# generated using pymatgen
data_V85Zn86O256
_symmetry_space_group_name_H-M   'P 1'
_cell_length_a   16.95312815
_cell_length_b   16.93292535
_cell_length_c   16.94412723
_cell_angle_alpha   90.04030573
_cell_angle_beta   89.99210272
_cell_angle_gamma   90.03127180
_symmetry_Int_Tables_number   1
_chemical_formula_structural   V85Zn86O256
_chemical_formula_sum   'V85 Zn86 O256'
_cell_volume   4864.08175879
_cell_formula_units_Z   1
loop_
 _symmetry_equiv_pos_site_id
 _symmetry_equiv_pos_as_xyz
  1  'x, y, z'
loop_
 _atom_site_type_symbol
 _atom_site_label
 _atom_site_symmetry_multiplicity
 _atom_site_fract_x
 _atom_site_fract_y
 _atom_site_fract_z
 _atom_site_occupancy
  V  V0  1  0.62879454  0.25272715  0.87502268  1
  V  V1  1  0.37539620  0.24390398  0.62887743  1
  V  V2  1  0.85683140  0.25454119  0.62788080  1
  V  V3  1  0.63049763  0.25528655  0.38403746  1
  V  V4  1  -0.00167741  0.48431622  0.49437426  1
  V  V5  1  0.87600541  0.62155949  0.74247929  1
  V  V6  1  0.50092117  0.38514993  0.37631474  1
  V  V7  1  0.87649327  0.75013586  0.62199826  1
  V  V8  1  0.37332659  0.88055302  -0.00197951  1
  V  V9  1  0.25457676  0.24674118  -0.00170213  1
  V  V10  1  0.37180066  0.25577581  0.12802381  1
  V  V11  1  0.24911669  0.87671271  0.12676424  1
  V  V12  1  0.12455060  0.25005657  0.87025580  1
  V  V13  1  0.74555780  -0.00180425  0.25242075  1
  V  V14  1  0.87541595  0.00205367  0.87613495  1
  V  V15  1  0.62889160  0.00061144  0.61971940  1
  V  V16  1  0.75049187  0.75005751  0.00065500  1
  V  V17  1  0.37879216  0.75163037  0.13403839  1
  V  V18  1  0.49985176  0.62755348  0.13390133  1
  V  V19  1  0.12334786  0.00831120  0.12806150  1
  V  V20  1  0.75126702  0.00090681  0.74989537  1
  V  V21  1  0.12318086  0.87818231  0.25116276  1
  V  V22  1  0.74626423  0.87123717  0.13244343  1
  V  V23  1  0.12429753  0.74950661  0.87602506  1
  V  V24  1  0.62425617  -0.00578421  0.12712427  1
  V  V25  1  0.49715585  0.61170336  0.62192576  1
  V  V26  1  0.37806740  0.38426375  0.50089502  1
  V  V27  1  0.24974369  0.25009550  0.49676369  1
  V  V28  1  0.11713643  0.50609273  0.62696063  1
  V  V29  1  0.87588798  0.74540276  0.13077647  1
  V  V30  1  0.50020032  0.87461351  0.87343270  1
  V  V31  1  0.62429926  0.75380233  0.36448060  1
  V  V32  1  0.63126065  0.49249802  0.12557571  1
  V  V33  1  0.87277905  0.87464386  0.49824310  1
  V  V34  1  0.49437276  0.00113208  0.49251579  1
  V  V35  1  0.88085946  0.14101402  0.23484081  1
  V  V36  1  0.62312561  0.62352054  -0.00188461  1
  V  V37  1  0.76598966  0.50471928  0.25606566  1
  V  V38  1  0.12466403  0.00383506  0.62539336  1
  V  V39  1  0.62627744  0.12600739  0.00070678  1
  V  V40  1  0.00286949  0.13776209  0.63887978  1
  V  V41  1  0.37080946  0.37899560  0.00302202  1
  V  V42  1  0.75159575  0.13347530  0.37921262  1
  V  V43  1  0.87543317  0.37807735  0.01688195  1
  V  V44  1  0.24947496  0.76029743  0.50344311  1
  V  V45  1  0.25009391  0.62240302  0.37514523  1
  V  V46  1  0.49822783  0.50162501  -0.00025950  1
  V  V47  1  0.37756715  0.12108736  0.25278210  1
  V  V48  1  0.24965847  0.37678441  0.62533648  1
  V  V49  1  0.25317003  0.62561626  0.87240605  1
  V  V50  1  0.00193143  -0.00542973  0.00422037  1
  V  V51  1  0.87568266  0.00300755  0.37124198  1
  V  V52  1  -0.00072152  0.73808980  0.25413924  1
  V  V53  1  0.11750868  0.62899452  0.50349447  1
  V  V54  1  0.25399381  0.11882899  0.86644998  1
  V  V55  1  -0.00023141  0.87189958  0.87361927  1
  V  V56  1  0.24995170  0.50280035  0.74964702  1
  V  V57  1  -0.00544001  0.36916913  0.87773304  1
  V  V58  1  0.50275018  0.25375971  0.25284318  1
  V  V59  1  0.10088433  0.13914560  0.47202858  1
  V  V60  1  0.75138054  0.25663159  0.01597323  1
  V  V61  1  0.87992344  0.49781133  0.87689231  1
  V  V62  1  0.49878833  0.00061786  -0.00207411  1
  V  V63  1  0.49526685  0.87179477  0.36446971  1
  V  V64  1  0.62688144  0.38096826  0.74255277  1
  V  V65  1  0.10168811  0.14521503  0.01321485  1
  V  V66  1  0.50020790  0.12463688  0.12548434  1
  V  V67  1  0.12992989  0.87825641  0.74407140  1
  V  V68  1  0.24853777  0.75130373  0.00134493  1
  V  V69  1  0.75216976  0.62406759  0.87357937  1
  V  V70  1  0.49792965  0.74523562  0.74583739  1
  V  V71  1  0.26002118  0.12303873  0.38043648  1
  V  V72  1  0.25159851  0.00138536  0.25940292  1
  V  V73  1  0.11715960  0.37541196  0.75038387  1
  V  V74  1  0.49809614  0.24241838  0.75164271  1
  V  V75  1  0.62071925  0.61560418  0.49870827  1
  V  V76  1  0.37374057  0.75246749  0.62538599  1
  V  V77  1  0.11614808  0.35355968  0.26338118  1
  V  V78  1  -0.00067466  0.87756556  0.37235607  1
  V  V79  1  0.74586367  0.74416524  0.49544914  1
  V  V80  1  0.12229435  0.61228162  0.00161095  1
  V  V81  1  0.00078945  0.61597195  0.12263343  1
  V  V82  1  0.37532431  0.50256888  0.86890835  1
  V  V83  1  -0.00040095  0.74434500  0.74553590  1
  V  V84  1  0.62501864  0.74898853  0.87200625  1
  Zn  Zn85  1  0.75355134  0.12665614  0.87875729  1
  Zn  Zn86  1  0.25370247  0.47073245  0.22678988  1
  Zn  Zn87  1  0.75089526  0.87490815  0.62462469  1
  Zn  Zn88  1  0.87365820  0.87332657  0.00237959  1
  Zn  Zn89  1  0.62902191  0.12701905  0.50120831  1
  Zn  Zn90  1  0.88001828  0.50898504  0.37170535  1
  Zn  Zn91  1  0.63545639  0.37186196  0.24454252  1
  Zn  Zn92  1  0.37552013  0.50210793  0.37264458  1
  Zn  Zn93  1  0.29299425  0.93440892  0.68362655  1
  Zn  Zn94  1  0.37146839  0.87973566  0.49863742  1
  Zn  Zn95  1  0.85776619  0.35367030  0.47754601  1
  Zn  Zn96  1  0.62894870  0.87293096  0.74791725  1
  Zn  Zn97  1  -0.00277982  -0.00076831  0.50597819  1
  Zn  Zn98  1  0.49989236  0.37556491  0.87368532  1
  Zn  Zn99  1  0.12554256  0.48150665  0.12893215  1
  Zn  Zn100  1  0.74055423  0.39401833  0.60663447  1
  Zn  Zn101  1  0.87982332  0.13141006  0.75737590  1
  Zn  Zn102  1  0.12656430  0.75289140  0.37671456  1
  Zn  Zn103  1  0.37143635  0.62153459  0.25098301  1
  Zn  Zn104  1  0.74786994  0.50010884  0.74566399  1
  Zn  Zn105  1  0.37565121  0.00511838  0.84972251  1
  Zn  Zn106  1  0.49854574  0.12170680  0.62649181  1
  Zn  Zn107  1  0.19047723  0.19847842  0.19150524  1
  Zn  Zn108  1  0.18705779  0.18916312  0.68688375  1
  Zn  Zn109  1  0.18534015  0.68622633  0.18864921  1
  Zn  Zn110  1  0.18929702  0.68874180  0.68768061  1
  Zn  Zn111  1  0.68863771  0.18300210  0.19332550  1
  Zn  Zn112  1  0.68612841  0.18252135  0.69236146  1
  Zn  Zn113  1  0.68508799  0.68246511  0.18710968  1
  Zn  Zn114  1  0.68682340  0.68176086  0.68180713  1
  Zn  Zn115  1  0.30848522  0.31400893  0.31579953  1
  Zn  Zn116  1  0.31160817  0.31478522  0.81247829  1
  Zn  Zn117  1  0.31226518  0.81215986  0.31677486  1
  Zn  Zn118  1  0.31716484  0.80851236  0.81418548  1
  Zn  Zn119  1  0.81783328  0.32516186  0.30323761  1
  Zn  Zn120  1  0.81026286  0.31044227  0.80985863  1
  Zn  Zn121  1  0.81235080  0.80468330  0.31329546  1
  Zn  Zn122  1  0.81306192  0.81422971  0.81172828  1
  Zn  Zn123  1  0.18322644  0.43714656  0.43436736  1
  Zn  Zn124  1  0.18950997  0.43483642  0.94016290  1
  Zn  Zn125  1  0.18309762  0.94648820  0.44056898  1
  Zn  Zn126  1  0.18487352  0.94081933  0.93781682  1
  Zn  Zn127  1  0.69382803  0.43855782  0.42899806  1
  Zn  Zn128  1  0.69090990  0.43642274  0.93552791  1
  Zn  Zn129  1  0.68565757  0.93321987  0.43628327  1
  Zn  Zn130  1  0.68789114  0.93501177  0.93962466  1
  Zn  Zn131  1  0.30816306  0.06589008  0.06359387  1
  Zn  Zn132  1  0.31290334  0.06499370  0.56319096  1
  Zn  Zn133  1  0.31093369  0.56474241  0.06258541  1
  Zn  Zn134  1  0.30979955  0.56852319  0.56197357  1
  Zn  Zn135  1  0.81108483  0.06112621  0.06096641  1
  Zn  Zn136  1  0.81761965  0.06769542  0.56328145  1
  Zn  Zn137  1  0.81379830  0.56279632  0.06472821  1
  Zn  Zn138  1  0.81244777  0.56339545  0.55998338  1
  Zn  Zn139  1  0.43750354  0.44112209  0.18971605  1
  Zn  Zn140  1  0.43822470  0.43077690  0.69075218  1
  Zn  Zn141  1  0.43656026  0.93825782  0.18709921  1
  Zn  Zn142  1  0.45337552  0.93285516  0.68267257  1
  Zn  Zn143  1  0.94754882  0.43273529  0.19929738  1
  Zn  Zn144  1  0.93486165  0.43425510  0.68434718  1
  Zn  Zn145  1  0.93463878  0.93831018  0.18845899  1
  Zn  Zn146  1  0.94040730  0.93808014  0.68885187  1
  Zn  Zn147  1  0.05663980  0.08426768  0.31315943  1
  Zn  Zn148  1  0.06708197  0.06155857  0.81605028  1
  Zn  Zn149  1  0.07534163  0.55337884  0.31242782  1
  Zn  Zn150  1  0.05917410  0.56054878  0.81651237  1
  Zn  Zn151  1  0.56546025  0.06313102  0.31563105  1
  Zn  Zn152  1  0.56553412  0.06260927  0.81301440  1
  Zn  Zn153  1  0.56801075  0.56609461  0.31225592  1
  Zn  Zn154  1  0.55893591  0.56447142  0.80930684  1
  Zn  Zn155  1  0.43966059  0.19110389  0.43950627  1
  Zn  Zn156  1  0.43778372  0.18651465  0.93469726  1
  Zn  Zn157  1  0.43792285  0.69019821  0.43907018  1
  Zn  Zn158  1  0.43589880  0.68914702  0.94041188  1
  Zn  Zn159  1  0.93154336  0.18247434  0.44418778  1
  Zn  Zn160  1  0.94093184  0.19284665  0.95609507  1
  Zn  Zn161  1  0.93652821  0.68105233  0.43348479  1
  Zn  Zn162  1  0.93616206  0.68557906  0.94052673  1
  Zn  Zn163  1  0.05599500  0.31181525  0.07050805  1
  Zn  Zn164  1  0.06295535  0.31116063  0.56322694  1
  Zn  Zn165  1  0.06339895  0.80981649  0.06589953  1
  Zn  Zn166  1  0.06017824  0.81429250  0.56243867  1
  Zn  Zn167  1  0.55708313  0.31318047  0.05971616  1
  Zn  Zn168  1  0.55997784  0.31434154  0.56188195  1
  Zn  Zn169  1  0.56259651  0.81175055  0.06291551  1
  Zn  Zn170  1  0.56297508  0.81522424  0.55900821  1
  O  O171  1  0.13511480  0.11642656  0.11893604  1
  O  O172  1  0.11361416  0.12151017  0.63002054  1
  O  O173  1  0.11541261  0.63313877  0.11370094  1
  O  O174  1  0.13202609  0.61544574  0.61813928  1
  O  O175  1  0.61913308  0.11679095  0.12093347  1
  O  O176  1  0.62410530  0.11346095  0.62233385  1
  O  O177  1  0.61562155  0.61808430  0.11575703  1
  O  O178  1  0.61092396  0.62905028  0.61068041  1
  O  O179  1  0.38231659  0.37491557  0.38383655  1
  O  O180  1  0.37631479  0.38475920  0.88251310  1
  O  O181  1  0.39037688  0.87019924  0.37870142  1
  O  O182  1  0.38007220  0.87856333  0.88325534  1
  O  O183  1  0.87192289  0.39312884  0.37454721  1
  O  O184  1  0.88106931  0.37976378  0.87371262  1
  O  O185  1  0.87994156  0.88092005  0.37743459  1
  O  O186  1  0.88320334  0.88245329  0.87747613  1
  O  O187  1  0.25904899  -0.00148038  0.36378428  1
  O  O188  1  0.24974407  0.01499404  0.88009076  1
  O  O189  1  0.25165372  0.51811670  0.38557255  1
  O  O190  1  0.25549471  0.50671448  0.87190281  1
  O  O191  1  0.75427504  0.00348355  0.36764338  1
  O  O192  1  0.75936975  -0.00119277  0.87147218  1
  O  O193  1  0.74465811  0.51107034  0.35615362  1
  O  O194  1  0.76146630  0.50533208  0.86943402  1
  O  O195  1  0.23670979  0.51027449  0.12069463  1
  O  O196  1  0.24220657  0.49655176  0.63044785  1
  O  O197  1  0.24284408  0.99585871  0.13436326  1
  O  O198  1  0.23196319  1.00401511  0.61665721  1
  O  O199  1  0.73137161  0.49776085  0.11274493  1
  O  O200  1  0.75368583  0.50353955  0.63332448  1
  O  O201  1  0.74559770  0.99038980  0.13100718  1
  O  O202  1  0.74758736  1.00102572  0.63211355  1
  O  O203  1  0.01421286  0.37153729  0.26129507  1
  O  O204  1  0.01153244  0.37959740  0.75794822  1
  O  O205  1  0.00161272  0.87032870  0.25946851  1
  O  O206  1  0.00632766  0.86354300  0.75675976  1
  O  O207  1  0.49799943  0.36406700  0.25644573  1
  O  O208  1  0.51101596  0.36412550  0.75273627  1
  O  O209  1  0.49876091  0.88395068  0.26544391  1
  O  O210  1  0.50803644  0.86326655  0.75720701  1
  O  O211  1  0.49473303  0.13113636  0.24752515  1
  O  O212  1  0.50483205  0.13795932  0.74888706  1
  O  O213  1  0.49581888  0.62159518  0.23673235  1
  O  O214  1  0.50593820  0.63277789  0.73348533  1
  O  O215  1  0.97873852  0.11558187  0.23912299  1
  O  O216  1  0.99901183  0.12028903  0.74327562  1
  O  O217  1  1.01281865  0.63553170  0.24453842  1
  O  O218  1  0.99274368  0.63729434  0.75727365  1
  O  O219  1  0.37322251  0.25685607  0.00616887  1
  O  O220  1  0.36844253  0.25840015  0.50889369  1
  O  O221  1  0.36851539  0.76293907  0.00589833  1
  O  O222  1  0.36699489  0.75426217  0.50803199  1
  O  O223  1  0.85906314  0.26211059  -0.00038830  1
  O  O224  1  0.88189753  0.24853521  0.52004842  1
  O  O225  1  0.86669346  0.75245094  0.00708365  1
  O  O226  1  0.86938568  0.75356513  0.50720177  1
  O  O227  1  0.13479425  0.23724136  0.50827451  1
  O  O228  1  0.14101002  0.25495404  0.98669549  1
  O  O229  1  0.13200763  0.74595593  0.50299156  1
  O  O230  1  0.13163169  0.74769078  0.99282787  1
  O  O231  1  0.61799063  0.24686838  0.48670244  1
  O  O232  1  0.63171031  0.24967767  0.99449462  1
  O  O233  1  0.63223009  0.74726619  0.49397694  1
  O  O234  1  0.63075475  0.74339953  0.99334825  1
  O  O235  1  0.49255201  0.24518088  0.13260696  1
  O  O236  1  0.49241590  0.24821486  0.63259662  1
  O  O237  1  0.49060620  0.74152495  0.11795979  1
  O  O238  1  0.49449884  0.74859547  0.63067692  1
  O  O239  1  1.02051286  0.20646943  0.05275696  1
  O  O240  1  1.00251988  0.23948056  0.63206279  1
  O  O241  1  0.99237325  0.74653965  0.13402355  1
  O  O242  1  0.98736898  0.75442332  0.63320180  1
  O  O243  1  0.03323986  0.17425479  0.39489119  1
  O  O244  1  0.00903382  0.26048489  0.87961366  1
  O  O245  1  0.00252637  0.75880606  0.36849224  1
  O  O246  1  0.00129422  0.75789922  0.86982594  1
  O  O247  1  0.50682157  0.25674465  0.36722424  1
  O  O248  1  0.50965336  0.25062770  0.87014960  1
  O  O249  1  0.50879689  0.76338049  0.37894465  1
  O  O250  1  0.50347699  0.75147786  0.86686941  1
  O  O251  1  0.24964539  0.13237051  0.49332574  1
  O  O252  1  0.24249968  0.13695464  0.99494512  1
  O  O253  1  0.24208375  0.63654463  0.49332203  1
  O  O254  1  0.24156525  0.63217702  0.98912713  1
  O  O255  1  0.75154207  0.12116984  0.48325980  1
  O  O256  1  0.74468278  0.13788433  1.00009805  1
  O  O257  1  0.73531001  0.63689648  0.50691399  1
  O  O258  1  0.74475646  0.63063280  0.99327440  1
  O  O259  1  0.26320884  0.36355066  -0.00569805  1
  O  O260  1  0.25363775  0.36731585  0.50537003  1
  O  O261  1  0.25546091  0.87323849  0.00473193  1
  O  O262  1  0.24809576  0.86475639  0.49383562  1
  O  O263  1  0.75962930  0.36514782  -0.00139239  1
  O  O264  1  0.74613623  0.37074587  0.49771433  1
  O  O265  1  0.74987270  0.86737963  0.01294900  1
  O  O266  1  0.75647008  0.86365618  0.50046357  1
  O  O267  1  0.13574142  0.48536367  0.24930256  1
  O  O268  1  0.12751400  0.49641281  0.74473634  1
  O  O269  1  0.13164518  0.99994276  0.24430459  1
  O  O270  1  0.12250271  0.98914492  0.74315073  1
  O  O271  1  0.62406865  0.50102183  0.23285175  1
  O  O272  1  0.62195245  0.48337978  0.75697715  1
  O  O273  1  0.63802959  1.00549513  0.24410441  1
  O  O274  1  0.63371012  0.99874480  0.74252723  1
  O  O275  1  0.36703447  0.01380342  0.24105828  1
  O  O276  1  0.37402635  -0.01058629  0.73859432  1
  O  O277  1  0.36447537  0.50194772  0.25290162  1
  O  O278  1  0.36928500  0.49396522  0.76233934  1
  O  O279  1  0.86340047  0.00004996  0.25862263  1
  O  O280  1  0.86945051  0.00025826  0.75978966  1
  O  O281  1  0.86936101  0.50209882  0.24655844  1
  O  O282  1  0.87903684  0.50881047  0.75676887  1
  O  O283  1  0.13201906  0.36727900  0.36525758  1
  O  O284  1  0.11766061  0.37129863  0.87075081  1
  O  O285  1  0.11525851  0.87876918  0.37004955  1
  O  O286  1  0.11790622  0.86965649  0.86906928  1
  O  O287  1  0.61712376  0.36949033  0.36751167  1
  O  O288  1  0.62199004  0.36704244  0.86921272  1
  O  O289  1  0.61484112  0.86193285  0.37694967  1
  O  O290  1  0.61849765  0.86600903  0.87543819  1
  O  O291  1  0.38211442  0.13247077  0.13057849  1
  O  O292  1  0.37670661  0.13999434  0.62278668  1
  O  O293  1  0.38260681  0.63586982  0.12153463  1
  O  O294  1  0.38928975  0.63555303  0.61742747  1
  O  O295  1  0.86283192  0.12634845  0.13628913  1
  O  O296  1  0.88571119  0.13383420  0.63121449  1
  O  O297  1  0.88531983  0.63717428  0.11627668  1
  O  O298  1  0.87511836  0.63395706  0.63696289  1
  O  O299  1  0.26581842  0.24249707  0.11524899  1
  O  O300  1  0.25613321  0.25570167  0.61939475  1
  O  O301  1  0.25564184  0.75662730  0.11987708  1
  O  O302  1  0.26181077  0.74357043  0.61798972  1
  O  O303  1  0.73799145  0.25233345  0.11370905  1
  O  O304  1  0.75677682  0.24538488  0.62516506  1
  O  O305  1  0.75500514  0.75371265  0.12356693  1
  O  O306  1  0.76106559  0.75186408  0.61980233  1
  O  O307  1  0.25804912  0.23890016  0.39039939  1
  O  O308  1  0.24729224  0.24293593  0.88038143  1
  O  O309  1  0.24821341  0.74349233  0.38584791  1
  O  O310  1  0.24662065  0.74275985  0.88032435  1
  O  O311  1  0.74075963  0.24427615  0.36268151  1
  O  O312  1  0.73895158  0.24912025  0.88197557  1
  O  O313  1  0.73543780  0.75465266  0.38227812  1
  O  O314  1  0.74614943  0.74550724  0.87979201  1
  O  O315  1  0.00638992  0.09553658  -0.02843080  1
  O  O316  1  0.00061378  0.11993215  0.52431473  1
  O  O317  1  0.01045736  0.63125495  0.00921142  1
  O  O318  1  0.01626455  0.63140509  0.50265364  1
  O  O319  1  0.50489507  0.12053579  0.00568562  1
  O  O320  1  0.50372940  0.11292230  0.49787865  1
  O  O321  1  0.50426830  0.61955848  0.00524798  1
  O  O322  1  0.50852872  0.62892578  0.51085951  1
  O  O323  1  0.49031199  0.37111729  0.48973151  1
  O  O324  1  0.48751865  0.38207089  0.99562652  1
  O  O325  1  0.49925982  0.88717888  0.49167714  1
  O  O326  1  0.49207076  0.87936388  0.99415212  1
  O  O327  1  1.00051663  0.38284986  0.49916496  1
  O  O328  1  0.98186068  0.37045196  0.99271802  1
  O  O329  1  0.99327656  0.87625392  0.48700517  1
  O  O330  1  1.00179663  0.87938633  0.99172808  1
  O  O331  1  0.49880375  0.48818461  0.36650839  1
  O  O332  1  0.49034595  0.50279047  0.88073911  1
  O  O333  1  0.50863396  0.99004001  0.38576691  1
  O  O334  1  0.49643914  0.99548374  0.88060448  1
  O  O335  1  1.00589895  0.50782310  0.39399423  1
  O  O336  1  0.98783020  0.48916396  0.87505150  1
  O  O337  1  0.98968659  0.99473437  0.37317087  1
  O  O338  1  0.99572619  0.98381447  0.87485410  1
  O  O339  1  0.00938723  -0.00772769  0.11579974  1
  O  O340  1  0.00848517  0.00775319  0.62724260  1
  O  O341  1  0.00356412  0.51410256  0.13095546  1
  O  O342  1  0.01241548  0.49432374  0.61804327  1
  O  O343  1  0.50531573  0.00378496  0.11863702  1
  O  O344  1  0.51179008  0.00125402  0.61092778  1
  O  O345  1  0.50440197  0.50885668  0.11704891  1
  O  O346  1  0.49216108  0.51326314  0.62946059  1
  O  O347  1  0.23642378  0.35908675  0.24626490  1
  O  O348  1  0.23828309  0.38326098  0.74747310  1
  O  O349  1  0.24600435  0.88312088  0.24736128  1
  O  O350  1  0.23440326  0.86267594  0.75255859  1
  O  O351  1  0.74780457  0.39634717  0.24194413  1
  O  O352  1  0.73288797  0.37477725  0.75110141  1
  O  O353  1  0.75367895  0.88033302  0.23962322  1
  O  O354  1  0.74948887  0.88719583  0.74853548  1
  O  O355  1  0.26001949  0.12093177  0.25630017  1
  O  O356  1  0.24284453  0.12885143  0.76811515  1
  O  O357  1  0.24870549  0.63430909  0.26938313  1
  O  O358  1  0.24393932  0.62005519  0.76464382  1
  O  O359  1  0.75803001  0.11564064  0.25867480  1
  O  O360  1  0.75333052  0.11221753  0.75759468  1
  O  O361  1  0.75110169  0.60073268  0.22418773  1
  O  O362  1  0.75964932  0.62787424  0.75778874  1
  O  O363  1  0.37121752  0.12728224  0.36620166  1
  O  O364  1  0.35968531  0.12196359  0.88026069  1
  O  O365  1  0.36488738  0.62561459  0.37611337  1
  O  O366  1  0.36429011  0.61662649  0.88211896  1
  O  O367  1  0.86814122  0.11811792  0.36681283  1
  O  O368  1  0.87676888  0.11254382  0.87908151  1
  O  O369  1  0.86650122  0.62022960  0.37960791  1
  O  O370  1  0.87240182  0.61742855  0.86920323  1
  O  O371  1  0.11529532  0.36766307  0.14095650  1
  O  O372  1  0.12996099  0.38076426  0.63364223  1
  O  O373  1  0.13072372  0.88427581  0.13119760  1
  O  O374  1  0.11704827  0.88587378  0.63323835  1
  O  O375  1  0.61342254  0.38968811  0.12457105  1
  O  O376  1  0.62444909  0.36948966  0.63897554  1
  O  O377  1  0.63268946  0.88158205  0.12238350  1
  O  O378  1  0.62896335  0.88765117  0.62526222  1
  O  O379  1  0.11720222  0.25015161  0.25472011  1
  O  O380  1  0.13130730  0.26045649  0.76272844  1
  O  O381  1  0.11618688  0.76144762  0.25112520  1
  O  O382  1  0.11567082  0.75297662  0.75451373  1
  O  O383  1  0.61517038  0.25128679  0.25402420  1
  O  O384  1  0.62015145  0.25544750  0.75818351  1
  O  O385  1  0.62830559  0.74336950  0.26525311  1
  O  O386  1  0.61793233  0.74871970  0.75409009  1
  O  O387  1  0.38191648  0.24170063  0.24384607  1
  O  O388  1  0.38497745  0.25984390  0.74215069  1
  O  O389  1  0.37093264  0.74961737  0.23637098  1
  O  O390  1  0.38852033  0.75165844  0.74300526  1
  O  O391  1  0.87378247  0.24018601  0.24976675  1
  O  O392  1  0.87087724  0.24679049  0.73636258  1
  O  O393  1  0.88550901  0.75182580  0.24187610  1
  O  O394  1  0.88112732  0.74511229  0.74409742  1
  O  O395  1  0.36829913  0.48681835  0.50130296  1
  O  O396  1  0.37715270  0.49443973  0.99237347  1
  O  O397  1  0.39050719  0.99953772  0.50538998  1
  O  O398  1  0.37795259  0.98931555  1.00559135  1
  O  O399  1  0.89750991  0.50549877  0.50812638  1
  O  O400  1  0.86676072  0.48536951  0.99223392  1
  O  O401  1  0.87473105  0.99531679  0.48726552  1
  O  O402  1  0.88187047  0.99403807  0.99479605  1
  O  O403  1  0.11927133  0.00569259  0.01137381  1
  O  O404  1  0.11705594  0.01814306  0.50463154  1
  O  O405  1  0.12392815  0.51010811  -0.00241800  1
  O  O406  1  0.11693683  0.50630316  0.50816739  1
  O  O407  1  0.61987070  0.00553761  0.00556288  1
  O  O408  1  0.62014753  0.00206376  0.50480984  1
  O  O409  1  0.61768566  0.50294167  0.00357097  1
  O  O410  1  0.62684164  0.51790748  0.48842501  1
  O  O411  1  0.38165772  0.36668651  0.11636405  1
  O  O412  1  0.36890929  0.36798440  0.61953889  1
  O  O413  1  0.37004207  0.86987888  0.11897657  1
  O  O414  1  0.37404155  0.86427754  0.62153492  1
  O  O415  1  0.88278752  0.38047461  0.11463952  1
  O  O416  1  0.86885744  0.36067851  0.62713370  1
  O  O417  1  0.86760404  0.86309878  0.12432685  1
  O  O418  1  0.87538761  0.86924992  0.61719953  1
  O  O419  1  0.15319708  0.10339340  0.37662252  1
  O  O420  1  0.13089834  0.13468302  0.88621686  1
  O  O421  1  0.13492270  0.62940296  0.38478490  1
  O  O422  1  0.12842462  0.63039547  0.88266063  1
  O  O423  1  0.63480138  0.13539437  0.37371702  1
  O  O424  1  0.62676439  0.13353972  0.88435011  1
  O  O425  1  0.61139797  0.64122742  0.38866675  1
  O  O426  1  0.63067174  0.62884142  0.87839460  1
