# generated using pymatgen
data_V85Zn86O256
_symmetry_space_group_name_H-M   'P 1'
_cell_length_a   16.92571077
_cell_length_b   16.93202132
_cell_length_c   16.92935294
_cell_angle_alpha   89.97096939
_cell_angle_beta   90.02083510
_cell_angle_gamma   90.11859187
_symmetry_Int_Tables_number   1
_chemical_formula_structural   V85Zn86O256
_chemical_formula_sum   'V85 Zn86 O256'
_cell_volume   4851.71259857
_cell_formula_units_Z   1
loop_
 _symmetry_equiv_pos_site_id
 _symmetry_equiv_pos_as_xyz
  1  'x, y, z'
loop_
 _atom_site_type_symbol
 _atom_site_label
 _atom_site_symmetry_multiplicity
 _atom_site_fract_x
 _atom_site_fract_y
 _atom_site_fract_z
 _atom_site_occupancy
  V  V0  1  0.37844177  0.88215330  0.00172596  1
  V  V1  1  0.12705704  0.49573095  0.62477922  1
  V  V2  1  0.49903979  0.37383325  0.37644827  1
  V  V3  1  0.37534117  0.62418702  0.25142948  1
  V  V4  1  0.38075315  0.00292850  0.87465735  1
  V  V5  1  0.88351107  0.24814547  0.12884644  1
  V  V6  1  0.87779742  0.37473220  -0.00387400  1
  V  V7  1  0.37350917  0.24702335  0.12581133  1
  V  V8  1  0.49721838  0.13942357  0.62915947  1
  V  V9  1  0.37500733  0.50278165  0.87598687  1
  V  V10  1  0.24503266  0.12425412  0.37917069  1
  V  V11  1  0.38197696  0.75361482  0.63087287  1
  V  V12  1  0.24581084  0.49978700  0.75062259  1
  V  V13  1  0.00302289  0.11711211  0.11334621  1
  V  V14  1  0.87537033  0.24168685  0.63021542  1
  V  V15  1  0.37850683  0.14086069  0.74868878  1
  V  V16  1  0.62198214  0.11878361  -0.00293503  1
  V  V17  1  0.87082027  0.62003449  0.74807340  1
  V  V18  1  0.62101598  0.86677603  0.74933155  1
  V  V19  1  0.76764541  0.50693370  0.25703068  1
  V  V20  1  0.75121243  -0.00085266  0.25101928  1
  V  V21  1  0.50206713  0.74804267  0.25667002  1
  V  V22  1  0.37446517  0.49966754  0.37739760  1
  V  V23  1  0.12572115  0.50859789  0.12032802  1
  V  V24  1  0.38098293  0.62914671  0.75397517  1
  V  V25  1  0.11971493  0.37087051  0.24847884  1
  V  V26  1  0.62695292  0.37362940  0.25036999  1
  V  V27  1  0.37515349  0.37177921  0.50691847  1
  V  V28  1  0.50477891  0.87386011  0.37847514  1
  V  V29  1  0.86671632  0.74017255  0.11059343  1
  V  V30  1  0.37583642  0.74882729  0.12388378  1
  V  V31  1  0.24460429  -0.00276471  0.25307036  1
  V  V32  1  0.00270515  0.50747927  -0.00453745  1
  V  V33  1  0.62780224  0.50084629  0.12735225  1
  V  V34  1  -0.01509113  0.74120853  0.25149888  1
  V  V35  1  0.49832594  0.86777966  0.87249258  1
  V  V36  1  0.24686047  0.24566621  0.50623240  1
  V  V37  1  0.00447953  0.37583057  0.86472847  1
  V  V38  1  0.23728761  0.62477567  0.87982868  1
  V  V39  1  0.75175834  0.25073551  0.50022661  1
  V  V40  1  0.62829425  0.50617215  0.62167313  1
  V  V41  1  0.24659170  0.87250878  0.12562982  1
  V  V42  1  0.74389478  0.76454955  0.49578929  1
  V  V43  1  0.62667010  0.00261121  0.63563940  1
  V  V44  1  0.87966402  0.88844886  -0.00095430  1
  V  V45  1  0.74755218  0.62367328  0.39057062  1
  V  V46  1  0.62332013  0.24818942  0.86930161  1
  V  V47  1  0.00541660  0.76316309  0.74859957  1
  V  V48  1  0.24834661  0.37338825  0.12569627  1
  V  V49  1  0.11780191  0.86994650  0.25486904  1
  V  V50  1  0.50086083  0.00191611  0.50368307  1
  V  V51  1  0.76011765  0.88163574  0.63383356  1
  V  V52  1  0.25214318  0.37040088  0.63036319  1
  V  V53  1  0.37300769  0.12199442  0.24772349  1
  V  V54  1  0.75374728  0.11351517  0.86152766  1
  V  V55  1  0.00354839  0.62722583  0.62535614  1
  V  V56  1  0.24825162  0.74927441  0.49826324  1
  V  V57  1  0.88311365  0.12482410  0.25222465  1
  V  V58  1  0.49948442  0.37167613  0.86689634  1
  V  V59  1  0.00195684  0.00116344  0.49897188  1
  V  V60  1  -0.00437694  0.37420237  0.37225109  1
  V  V61  1  0.12475350  0.25027565  0.87756066  1
  V  V62  1  0.12058592  0.76777339  0.87798004  1
  V  V63  1  0.89190264  -0.00041561  0.86435198  1
  V  V64  1  0.37482432  0.37228450  0.00072694  1
  V  V65  1  0.87661964  0.37792500  0.49935310  1
  V  V66  1  0.62498603  0.24931438  0.37585509  1
  V  V67  1  -0.00026193  0.50187872  0.49366699  1
  V  V68  1  0.62599772  0.87104074  0.25121369  1
  V  V69  1  0.62035202  -0.00190362  0.12140996  1
  V  V70  1  0.50420958  0.62750735  0.62200893  1
  V  V71  1  0.49806389  0.12141330  0.12139631  1
  V  V72  1  0.24646692  0.12515386  0.87854719  1
  V  V73  1  0.11889197  0.24757756  0.37646378  1
  V  V74  1  0.50456805  0.50008081  0.00106689  1
  V  V75  1  0.75021459  0.24820026  -0.00189623  1
  V  V76  1  0.62454585  0.12656389  0.50191375  1
  V  V77  1  0.75350869  0.38201643  0.63076340  1
  V  V78  1  0.50037442  0.24708806  0.25012494  1
  V  V79  1  0.75176570  0.37259806  0.12587189  1
  V  V80  1  0.37630224  0.87559690  0.50285084  1
  V  V81  1  0.00085296  0.23947571  0.75078262  1
  V  V82  1  0.24968770  0.49841768  0.25048749  1
  V  V83  1  0.62997121  0.38170050  0.75325012  1
  V  V84  1  0.24070842  0.87476851  0.63362533  1
  Zn  Zn85  1  0.87302663  -0.00451168  0.38216653  1
  Zn  Zn86  1  0.12512114  0.62619593  0.49736389  1
  Zn  Zn87  1  0.24840841  0.62639591  0.37622956  1
  Zn  Zn88  1  0.24796898  -0.00237009  0.75198383  1
  Zn  Zn89  1  0.75064237  0.12552665  0.37410167  1
  Zn  Zn90  1  0.74646360  0.86770004  0.11589026  1
  Zn  Zn91  1  0.86788821  0.49669225  0.86482892  1
  Zn  Zn92  1  -0.00081948  0.62460156  0.12348063  1
  Zn  Zn93  1  0.11797379  0.74442799  0.37493536  1
  Zn  Zn94  1  0.24092273  0.74325850  0.00420229  1
  Zn  Zn95  1  -0.01665451  0.86922839  0.38333734  1
  Zn  Zn96  1  0.50288067  0.62634441  0.12493956  1
  Zn  Zn97  1  0.63379040  0.75025137  0.88171625  1
  Zn  Zn98  1  0.23887130  0.24943718  0.00364990  1
  Zn  Zn99  1  0.87803706  0.75442564  0.62043229  1
  Zn  Zn100  1  0.01417252  0.13098395  0.61382166  1
  Zn  Zn101  1  0.10978369  -0.00793685  0.11363592  1
  Zn  Zn102  1  0.50467512  0.50450958  0.49811094  1
  Zn  Zn103  1  0.12894829  0.01697578  0.62283381  1
  Zn  Zn104  1  0.64017459  0.63880510  0.00383032  1
  Zn  Zn105  1  0.74667024  0.62319222  0.87723697  1
  Zn  Zn106  1  0.37469064  0.00043747  0.37792901  1
  Zn  Zn107  1  0.18280728  0.18678242  0.18954877  1
  Zn  Zn108  1  0.18538490  0.18793771  0.69675017  1
  Zn  Zn109  1  0.18588720  0.68746416  0.19349033  1
  Zn  Zn110  1  0.18818311  0.68861918  0.68980135  1
  Zn  Zn111  1  0.69081594  0.18463632  0.18600627  1
  Zn  Zn112  1  0.68546164  0.19339895  0.68763479  1
  Zn  Zn113  1  0.68779668  0.68467875  0.18986332  1
  Zn  Zn114  1  0.69076431  0.69524724  0.68916016  1
  Zn  Zn115  1  0.31027396  0.31066704  0.31495253  1
  Zn  Zn116  1  0.31013683  0.31350341  0.81322359  1
  Zn  Zn117  1  0.31472053  0.81359718  0.31525504  1
  Zn  Zn118  1  0.31186920  0.80953112  0.81610984  1
  Zn  Zn119  1  0.81338376  0.31174085  0.31152978  1
  Zn  Zn120  1  0.81283180  0.30949153  0.81263730  1
  Zn  Zn121  1  0.80830449  0.80709295  0.31397538  1
  Zn  Zn122  1  0.81644362  0.81329789  0.81519835  1
  Zn  Zn123  1  0.18686828  0.43577798  0.43924849  1
  Zn  Zn124  1  0.18575726  0.43516617  0.93701392  1
  Zn  Zn125  1  0.18036804  0.93399452  0.44128448  1
  Zn  Zn126  1  0.18845804  0.93845322  0.93930875  1
  Zn  Zn127  1  0.68952652  0.43991469  0.43805516  1
  Zn  Zn128  1  0.69315241  0.44625933  0.93644168  1
  Zn  Zn129  1  0.68622047  0.93961842  0.43828234  1
  Zn  Zn130  1  0.69141371  0.93107307  0.93812379  1
  Zn  Zn131  1  0.27489379  0.04639577  0.04614078  1
  Zn  Zn132  1  0.31359672  0.06335376  0.56583965  1
  Zn  Zn133  1  0.31330242  0.56256670  0.06191543  1
  Zn  Zn134  1  0.31617791  0.56416228  0.56403053  1
  Zn  Zn135  1  0.80900406  0.06062702  0.06203138  1
  Zn  Zn136  1  0.81539128  0.06002887  0.56041024  1
  Zn  Zn137  1  0.81252149  0.55902075  0.05986096  1
  Zn  Zn138  1  0.81641944  0.56427575  0.56324728  1
  Zn  Zn139  1  0.43925745  0.43598833  0.18850517  1
  Zn  Zn140  1  0.43849925  0.44171779  0.68825387  1
  Zn  Zn141  1  0.43593506  0.93840058  0.18948583  1
  Zn  Zn142  1  0.43641730  0.94397696  0.69069780  1
  Zn  Zn143  1  0.94125408  0.43655878  0.18374116  1
  Zn  Zn144  1  0.94073402  0.43640777  0.68397182  1
  Zn  Zn145  1  0.93199233  0.93152787  0.18853320  1
  Zn  Zn146  1  0.94341889  0.94695019  0.68539499  1
  Zn  Zn147  1  0.06075362  0.05913360  0.31273852  1
  Zn  Zn148  1  0.06985524  0.05970357  0.80550129  1
  Zn  Zn149  1  0.06257459  0.56326191  0.31222053  1
  Zn  Zn150  1  0.05967110  0.56276014  0.80920073  1
  Zn  Zn151  1  0.56342896  0.06013213  0.31342036  1
  Zn  Zn152  1  0.55796977  0.05987920  0.81316111  1
  Zn  Zn153  1  0.56614992  0.56321534  0.31396508  1
  Zn  Zn154  1  0.56699841  0.56488439  0.81112384  1
  Zn  Zn155  1  0.43254055  0.18756807  0.43941410  1
  Zn  Zn156  1  0.43778199  0.18725958  0.93753157  1
  Zn  Zn157  1  0.43731957  0.68825875  0.44083419  1
  Zn  Zn158  1  0.44620294  0.68922500  0.94115375  1
  Zn  Zn159  1  0.93670174  0.18309002  0.43875348  1
  Zn  Zn160  1  0.93571309  0.18409801  0.93473043  1
  Zn  Zn161  1  0.92334942  0.68570870  0.43573371  1
  Zn  Zn162  1  0.93608001  0.69041268  0.93231674  1
  Zn  Zn163  1  0.05922017  0.31253665  0.05972501  1
  Zn  Zn164  1  0.06621718  0.31096959  0.56492894  1
  Zn  Zn165  1  0.05547759  0.81088167  0.06218280  1
  Zn  Zn166  1  0.06103972  0.81692078  0.55796354  1
  Zn  Zn167  1  0.56297803  0.31077831  0.05940774  1
  Zn  Zn168  1  0.56483270  0.31750940  0.56341323  1
  Zn  Zn169  1  0.55738303  0.81585711  0.06356563  1
  Zn  Zn170  1  0.56775484  0.81094824  0.56453974  1
  O  O171  1  0.10444178  0.12685491  0.13317517  1
  O  O172  1  0.12948254  0.13417888  0.61911966  1
  O  O173  1  0.12626998  0.61155984  0.12696369  1
  O  O174  1  0.12120144  0.61448825  0.62242431  1
  O  O175  1  0.62002524  0.11915646  0.11671498  1
  O  O176  1  0.61916284  0.12142705  0.62258156  1
  O  O177  1  0.62184998  0.61406850  0.12383946  1
  O  O178  1  0.61736325  0.61666169  0.63815730  1
  O  O179  1  0.37904092  0.38038768  0.38227292  1
  O  O180  1  0.38131504  0.37968238  0.88215936  1
  O  O181  1  0.38728649  0.87674204  0.38338890  1
  O  O182  1  0.37619280  0.88250876  0.88190145  1
  O  O183  1  0.88853897  0.36715263  0.38198072  1
  O  O184  1  0.88251123  0.37447891  0.88193981  1
  O  O185  1  0.87285307  0.88401170  0.35934572  1
  O  O186  1  0.87293994  0.89082449  0.88318037  1
  O  O187  1  0.24765408  0.00506222  0.36861540  1
  O  O188  1  0.26115586  0.01028919  0.87340762  1
  O  O189  1  0.26120715  0.49696853  0.37082562  1
  O  O190  1  0.25409553  0.50477183  0.86916262  1
  O  O191  1  0.74418605  0.00344696  0.36132533  1
  O  O192  1  0.74627952  0.01286479  0.87333339  1
  O  O193  1  0.74883390  0.50482713  0.36425370  1
  O  O194  1  0.75488256  0.50560683  0.86819105  1
  O  O195  1  0.24419867  0.49265425  0.12867086  1
  O  O196  1  0.24618662  0.49531217  0.63108013  1
  O  O197  1  0.26188181  0.98225666  0.14365146  1
  O  O198  1  0.25391981  0.98239816  0.62099526  1
  O  O199  1  0.74560218  0.49119216  0.13449742  1
  O  O200  1  0.74566082  0.48875283  0.62158108  1
  O  O201  1  0.73611877  1.00041170  0.13515738  1
  O  O202  1  0.74093130  0.98953763  0.61759588  1
  O  O203  1  0.00750393  0.37885127  0.25951875  1
  O  O204  1  -0.00375486  0.37023339  0.76115543  1
  O  O205  1  0.00541529  0.86165197  0.24712062  1
  O  O206  1  0.00030996  0.86119584  0.74167338  1
  O  O207  1  0.50562477  0.36663770  0.25649263  1
  O  O208  1  0.50494202  0.37863136  0.76179326  1
  O  O209  1  0.50393659  0.86956665  0.25907297  1
  O  O210  1  0.50804817  0.88533926  0.75982332  1
  O  O211  1  0.49358040  0.12876038  0.24581838  1
  O  O212  1  0.48881974  0.12314175  0.74328440  1
  O  O213  1  0.49466891  0.63272946  0.25032935  1
  O  O214  1  0.48631221  0.61672982  0.74106246  1
  O  O215  1  0.98628466  0.12145517  0.24390503  1
  O  O216  1  1.00020052  0.13792688  0.74701893  1
  O  O217  1  1.00182705  0.63773507  0.24649965  1
  O  O218  1  0.99787415  0.62952789  0.73669563  1
  O  O219  1  0.37990859  0.26284927  0.00632941  1
  O  O220  1  0.36112982  0.26118667  0.49525712  1
  O  O221  1  0.37744491  0.75431437  0.01507873  1
  O  O222  1  0.36989482  0.75668089  0.50950194  1
  O  O223  1  0.87105246  0.25785642  0.00470345  1
  O  O224  1  0.87228740  0.26005563  0.50647103  1
  O  O225  1  0.87905117  0.75638497  0.00822698  1
  O  O226  1  0.85232898  0.74292854  0.50711475  1
  O  O227  1  0.13930063  0.25838060  0.49070024  1
  O  O228  1  0.12229982  0.25287146  0.98558441  1
  O  O229  1  0.13409722  0.74842295  0.49756052  1
  O  O230  1  0.12156429  0.75343556  0.98367189  1
  O  O231  1  0.63098300  0.24701089  0.49620445  1
  O  O232  1  0.63085955  0.24423626  0.98949581  1
  O  O233  1  0.64481637  0.74569971  0.51103730  1
  O  O234  1  0.59784924  0.74376066  0.99210470  1
  O  O235  1  0.49537115  0.24352000  0.13108094  1
  O  O236  1  0.50488483  0.23873810  0.62177005  1
  O  O237  1  0.49065580  0.75099749  0.14019814  1
  O  O238  1  0.48957563  0.74476349  0.62295642  1
  O  O239  1  0.98787129  0.24337857  0.12330867  1
  O  O240  1  0.99286777  0.25336295  0.63247335  1
  O  O241  1  0.98874410  0.74556583  0.13294952  1
  O  O242  1  1.00407021  0.74310975  0.63113581  1
  O  O243  1  0.01260629  0.25661813  0.38243735  1
  O  O244  1  0.00234903  0.25446374  0.86864393  1
  O  O245  1  -0.00583505  0.74865525  0.36386137  1
  O  O246  1  0.01231103  0.74814874  0.86267630  1
  O  O247  1  0.50370226  0.25353700  0.37003308  1
  O  O248  1  0.51077958  0.26062249  0.88260819  1
  O  O249  1  0.49524188  0.75664750  0.36515475  1
  O  O250  1  0.48918791  0.76658251  0.86916335  1
  O  O251  1  0.25855711  0.13376320  0.49097822  1
  O  O252  1  0.27235521  0.14015170  0.98031204  1
  O  O253  1  0.25288255  0.63877133  0.50285864  1
  O  O254  1  0.25754373  0.62757173  0.98680904  1
  O  O255  1  0.74297433  0.13335320  0.50001116  1
  O  O256  1  0.73835589  0.12973948  0.99390057  1
  O  O257  1  0.74502974  0.62170123  0.49437907  1
  O  O258  1  0.75149145  0.62253176  0.99514578  1
  O  O259  1  0.25912781  0.37280053  0.00612941  1
  O  O260  1  0.25694491  0.36972871  0.50826289  1
  O  O261  1  0.26051867  0.86507824  0.01078596  1
  O  O262  1  0.25604847  0.86512791  0.50712229  1
  O  O263  1  0.75847873  0.36950977  0.00495347  1
  O  O264  1  0.75927138  0.37098969  0.50527747  1
  O  O265  1  0.76581732  0.87497258  0.00159413  1
  O  O266  1  0.74467799  0.87022721  0.50899693  1
  O  O267  1  0.12936615  0.48975289  0.24292462  1
  O  O268  1  0.13818514  0.50423767  0.74235507  1
  O  O269  1  0.13117745  0.99038485  0.24405920  1
  O  O270  1  0.13619443  1.00415579  0.73787874  1
  O  O271  1  0.62611747  0.49102534  0.23929135  1
  O  O272  1  0.62013412  0.48714929  0.74037653  1
  O  O273  1  0.62775054  0.99041953  0.24381418  1
  O  O274  1  0.62189025  0.99749439  0.73866857  1
  O  O275  1  0.36811706  0.00636308  0.25690627  1
  O  O276  1  0.36938444  0.00992862  0.75930780  1
  O  O277  1  0.37108896  0.50192819  0.25756664  1
  O  O278  1  0.36535562  0.50681224  0.75609856  1
  O  O279  1  0.86384001  0.00840966  0.24488696  1
  O  O280  1  0.87825772  -0.00133904  0.76513285  1
  O  O281  1  0.86550853  0.49415966  0.24802049  1
  O  O282  1  0.88532779  0.51541278  0.74538194  1
  O  O283  1  0.11680964  0.36969567  0.36903330  1
  O  O284  1  0.11479006  0.36790106  0.87642603  1
  O  O285  1  0.12291507  0.86913453  0.36191127  1
  O  O286  1  0.13135453  0.86615706  0.87204821  1
  O  O287  1  0.61861003  0.37003908  0.37144794  1
  O  O288  1  0.62008926  0.37003853  0.87044984  1
  O  O289  1  0.61278437  0.87862855  0.36750868  1
  O  O290  1  0.61556156  0.87628103  0.86749147  1
  O  O291  1  0.37877844  0.12945327  0.13275362  1
  O  O292  1  0.38144150  0.12450662  0.63967094  1
  O  O293  1  0.37715661  0.63201304  0.13249978  1
  O  O294  1  0.38091537  0.63301143  0.63353213  1
  O  O295  1  0.87978080  0.13077585  0.12911495  1
  O  O296  1  0.87463592  0.14051996  0.62102674  1
  O  O297  1  0.87832861  0.63699484  0.11940051  1
  O  O298  1  0.88787204  0.62696142  0.63055241  1
  O  O299  1  0.25406492  0.25461225  0.12440560  1
  O  O300  1  0.24723521  0.26350024  0.62069547  1
  O  O301  1  0.25622931  0.75766880  0.12861700  1
  O  O302  1  0.25981921  0.75781128  0.62130560  1
  O  O303  1  0.75786001  0.25387137  0.11738101  1
  O  O304  1  0.75591973  0.26091548  0.62012941  1
  O  O305  1  0.76432519  0.74880736  0.13050493  1
  O  O306  1  0.75210281  0.76878743  0.62078190  1
  O  O307  1  0.24118799  0.24336096  0.38222842  1
  O  O308  1  0.24011016  0.24795632  0.87557125  1
  O  O309  1  0.25185736  0.74891848  0.38600608  1
  O  O310  1  0.23550949  0.74297874  0.87484654  1
  O  O311  1  0.74320543  0.25095928  0.38303534  1
  O  O312  1  0.74421915  0.24074211  0.88084382  1
  O  O313  1  0.74588366  0.74324643  0.38914512  1
  O  O314  1  0.74463540  0.73861265  0.85351759  1
  O  O315  1  -0.00483440  0.12725461  0.01485827  1
  O  O316  1  0.00180032  0.11218014  0.49697088  1
  O  O317  1  -0.00493882  0.61016912  -0.00329733  1
  O  O318  1  -0.00278540  0.61754285  0.50732427  1
  O  O319  1  0.51355176  0.12967190  0.00490376  1
  O  O320  1  0.50198740  0.12135031  0.50716972  1
  O  O321  1  0.49295886  0.60550828  0.00437892  1
  O  O322  1  0.49500018  0.62318104  0.51643925  1
  O  O323  1  0.49078142  0.37547130  0.49470665  1
  O  O324  1  0.49480610  0.38278158  0.99360017  1
  O  O325  1  0.49919845  0.87925299  0.49539957  1
  O  O326  1  0.48441189  0.87764498  0.99333629  1
  O  O327  1  0.99553687  0.38077322  0.49483518  1
  O  O328  1  0.99281968  0.37989797  0.98995539  1
  O  O329  1  0.99874470  0.88797852  0.49853626  1
  O  O330  1  0.98079548  0.87503488  1.00371382  1
  O  O331  1  0.49099353  0.49465881  0.37565708  1
  O  O332  1  0.49507175  0.49124127  0.88247683  1
  O  O333  1  0.49942606  0.99286857  0.38503558  1
  O  O334  1  0.48638441  0.99346346  0.87596953  1
  O  O335  1  1.00538437  0.49124408  0.38666643  1
  O  O336  1  0.99864590  0.49152615  0.87891538  1
  O  O337  1  1.00060569  0.99557085  0.38416577  1
  O  O338  1  0.99030285  1.01162299  0.87472182  1
  O  O339  1  -0.00431167  0.01194025  0.12682706  1
  O  O340  1  0.00304060  0.00864469  0.61415570  1
  O  O341  1  0.00885790  0.50095741  0.11590542  1
  O  O342  1  0.01016558  0.50359868  0.61567475  1
  O  O343  1  0.51120160  0.00641510  0.13156028  1
  O  O344  1  0.50723665  0.00912865  0.61910796  1
  O  O345  1  0.50943066  0.49655770  0.11920043  1
  O  O346  1  0.50846638  0.50818961  0.62287935  1
  O  O347  1  0.24358831  0.38017752  0.24577480  1
  O  O348  1  0.25838360  0.38571958  0.74060551  1
  O  O349  1  0.24261720  0.87786139  0.24746042  1
  O  O350  1  0.25820687  0.87343076  0.73570708  1
  O  O351  1  0.74517493  0.38348253  0.24774456  1
  O  O352  1  0.74262178  0.37076724  0.74201359  1
  O  O353  1  0.73838873  0.87975793  0.24513142  1
  O  O354  1  0.74138784  0.87721052  0.73787738  1
  O  O355  1  0.25287108  0.11520071  0.25394224  1
  O  O356  1  0.26538913  0.13050917  0.76127014  1
  O  O357  1  0.25771155  0.61615394  0.25187174  1
  O  O358  1  0.25956538  0.61835022  0.75677596  1
  O  O359  1  0.75687053  0.11562542  0.24978423  1
  O  O360  1  0.74559214  0.13061545  0.76376126  1
  O  O361  1  0.75104925  0.60675806  0.24588453  1
  O  O362  1  0.77066840  0.62629100  0.73525911  1
  O  O363  1  0.36168439  0.12609487  0.36612243  1
  O  O364  1  0.37708518  0.12100360  0.86498957  1
  O  O365  1  0.37431598  0.61514775  0.37135909  1
  O  O366  1  0.37146010  0.62090460  0.86986405  1
  O  O367  1  0.87059095  0.12246800  0.36478516  1
  O  O368  1  0.86135483  0.11304033  0.88062157  1
  O  O369  1  0.84950420  0.62650642  0.37048420  1
  O  O370  1  0.88201234  0.62290309  0.85573979  1
  O  O371  1  0.12752776  0.37803603  0.13261648  1
  O  O372  1  0.13584432  0.38766112  0.62169651  1
  O  O373  1  0.13183336  0.87222892  0.13298997  1
  O  O374  1  0.14155573  0.86853513  0.62567742  1
  O  O375  1  0.63213340  0.37679590  0.13020614  1
  O  O376  1  0.63358433  0.37940898  0.63445797  1
  O  O377  1  0.62324109  0.88279683  0.13147267  1
  O  O378  1  0.62855560  0.88554419  0.63222323  1
  O  O379  1  0.13070941  0.26387861  0.26044068  1
  O  O380  1  0.11394713  0.25367280  0.76383128  1
  O  O381  1  0.11245434  0.75496491  0.25032262  1
  O  O382  1  0.11420084  0.74488465  0.75965217  1
  O  O383  1  0.62193408  0.25371201  0.25472206  1
  O  O384  1  0.62668050  0.26129966  0.76261131  1
  O  O385  1  0.61648607  0.76177591  0.24361589  1
  O  O386  1  0.61748486  0.76511222  0.74479540  1
  O  O387  1  0.37832964  0.24325250  0.24571488  1
  O  O388  1  0.37950787  0.23985301  0.75624334  1
  O  O389  1  0.38059496  0.74632295  0.24331500  1
  O  O390  1  0.37020023  0.74064777  0.74271414  1
  O  O391  1  0.86688002  0.23923082  0.23917779  1
  O  O392  1  0.88516619  0.25647459  0.74079248  1
  O  O393  1  0.88296437  0.75226405  0.23778832  1
  O  O394  1  0.89265807  0.74200726  0.74497699  1
  O  O395  1  0.37572151  0.49175588  0.49207761  1
  O  O396  1  0.38109017  0.48787199  0.99802070  1
  O  O397  1  0.38401362  0.99443839  0.49984607  1
  O  O398  1  0.36596268  0.99116913  0.99249217  1
  O  O399  1  0.88472492  0.48620362  0.50564278  1
  O  O400  1  0.88465681  0.48482883  1.00264696  1
  O  O401  1  0.88987235  1.00389872  0.49799141  1
  O  O402  1  0.87196961  0.99404493  0.99243675  1
  O  O403  1  0.16662335  0.01072510  0.01933356  1
  O  O404  1  0.11300580  -0.00365004  0.50579272  1
  O  O405  1  0.11609684  0.49121933  0.00970491  1
  O  O406  1  0.11860312  0.50133125  0.50697991  1
  O  O407  1  0.62871143  0.00708764  0.00853973  1
  O  O408  1  0.61824135  0.00807839  0.50842833  1
  O  O409  1  0.61840533  0.49267700  0.01387480  1
  O  O410  1  0.62238477  0.49091252  0.51666379  1
  O  O411  1  0.37026090  0.36918690  0.11952592  1
  O  O412  1  0.36862401  0.38222299  0.61501801  1
  O  O413  1  0.37043666  0.86808951  0.12168292  1
  O  O414  1  0.37446580  0.86878963  0.62076720  1
  O  O415  1  0.87275818  0.36581569  0.11872177  1
  O  O416  1  0.86940659  0.36957131  0.61841158  1
  O  O417  1  0.87030467  0.86644074  0.11416047  1
  O  O418  1  0.86213379  0.87924088  0.63168715  1
  O  O419  1  0.13630643  0.13409504  0.36477795  1
  O  O420  1  0.13797780  0.13342000  0.87091486  1
  O  O421  1  0.13061545  0.62583363  0.37884006  1
  O  O422  1  0.13539155  0.62500350  0.87123292  1
  O  O423  1  0.62426520  0.13308924  0.38203633  1
  O  O424  1  0.62879314  0.12992334  0.87872144  1
  O  O425  1  0.64736083  0.62303483  0.36247349  1
  O  O426  1  0.62186428  0.62901549  0.88079039  1
