# generated using pymatgen
data_V85Zn86O256
_symmetry_space_group_name_H-M   'P 1'
_cell_length_a   16.96079717
_cell_length_b   16.95433934
_cell_length_c   16.95154448
_cell_angle_alpha   89.90428462
_cell_angle_beta   89.92177768
_cell_angle_gamma   90.04850463
_symmetry_Int_Tables_number   1
_chemical_formula_structural   V85Zn86O256
_chemical_formula_sum   'V85 Zn86 O256'
_cell_volume   4874.55795620
_cell_formula_units_Z   1
loop_
 _symmetry_equiv_pos_site_id
 _symmetry_equiv_pos_as_xyz
  1  'x, y, z'
loop_
 _atom_site_type_symbol
 _atom_site_label
 _atom_site_symmetry_multiplicity
 _atom_site_fract_x
 _atom_site_fract_y
 _atom_site_fract_z
 _atom_site_occupancy
  V  V0  1  0.50346994  0.75120647  0.25418439  1
  V  V1  1  -0.00573981  0.73993619  0.73579053  1
  V  V2  1  0.50023299  0.62739920  0.12644302  1
  V  V3  1  0.25190891  0.74096753  0.49404005  1
  V  V4  1  -0.05829570  -0.05741256  0.54501294  1
  V  V5  1  0.87426940  0.75150436  0.13183745  1
  V  V6  1  0.24807036  0.87403992  0.11127186  1
  V  V7  1  0.62671128  0.38439409  0.74176817  1
  V  V8  1  0.37582500  0.11690357  0.75962004  1
  V  V9  1  0.00058526  0.50088844  -0.00091085  1
  V  V10  1  0.49772968  0.49432323  -0.00558067  1
  V  V11  1  0.74817711  0.25168712  0.00255724  1
  V  V12  1  0.62476852  0.11507175  -0.00098132  1
  V  V13  1  0.62425978  0.76034480  0.87815147  1
  V  V14  1  0.74800136  0.26039832  0.50390591  1
  V  V15  1  0.23977815  0.11953932  0.88251264  1
  V  V16  1  0.50025785  0.12324248  0.62929474  1
  V  V17  1  0.50011868  0.61822529  0.62371353  1
  V  V18  1  0.37326251  0.11647368  0.25260859  1
  V  V19  1  0.48584740  -0.00581684  -0.00284517  1
  V  V20  1  0.62213481  0.25872416  0.87752585  1
  V  V21  1  0.74315823  0.61676398  0.37704147  1
  V  V22  1  0.12669212  0.74869024  0.36579096  1
  V  V23  1  0.37168445  0.49181271  0.37793744  1
  V  V24  1  0.48392124  0.87705306  0.87497892  1
  V  V25  1  0.87045803  0.24606451  0.63708029  1
  V  V26  1  0.37482943  0.24968082  0.12389632  1
  V  V27  1  0.24546689  0.48743375  0.75159329  1
  V  V28  1  0.12740798  -0.00009489  0.61875107  1
  V  V29  1  0.25416329  0.25279625  0.49822646  1
  V  V30  1  0.12803907  0.62506304  0.00141620  1
  V  V31  1  0.01515068  0.24783146  0.74981640  1
  V  V32  1  0.49876739  0.24775455  0.25047463  1
  V  V33  1  0.74960519  0.50072077  0.24926168  1
  V  V34  1  0.37265437  0.74870710  0.62291845  1
  V  V35  1  0.25230648  0.37443456  0.62025806  1
  V  V36  1  0.37303792  0.62244976  0.74874847  1
  V  V37  1  0.49663883  0.25593877  0.75652617  1
  V  V38  1  0.24968929  0.37504405  0.12686743  1
  V  V39  1  0.62596739  0.62632624  0.00086680  1
  V  V40  1  0.24591002  0.50079683  0.25679973  1
  V  V41  1  0.68191111  0.81437958  0.69213323  1
  V  V42  1  0.25243120  0.11928750  0.37722455  1
  V  V43  1  0.87706860  0.37682202  -0.00350518  1
  V  V44  1  0.88860590  0.25299820  0.12806736  1
  V  V45  1  0.62443672  0.50131916  0.12508350  1
  V  V46  1  0.62779878  0.88393285  0.24274741  1
  V  V47  1  0.00910229  0.88269332  0.36412390  1
  V  V48  1  0.49188972  0.88269972  0.36908692  1
  V  V49  1  0.87598306  0.50520828  0.86640960  1
  V  V50  1  0.87644735  0.49926649  0.37456662  1
  V  V51  1  0.88685848  0.87638794  0.00353361  1
  V  V52  1  0.00835797  0.01833725  -0.00073133  1
  V  V53  1  0.24709709  -0.01098213  0.25355828  1
  V  V54  1  0.11598882  0.12637532  0.49998291  1
  V  V55  1  0.00275246  0.37178023  0.36363364  1
  V  V56  1  0.61591793  0.61401384  0.49200987  1
  V  V57  1  0.12225450  0.87550166  0.74861696  1
  V  V58  1  0.50482288  0.11785386  0.12460576  1
  V  V59  1  0.62332199  0.25378923  0.37676785  1
  V  V60  1  0.12042423  0.62410358  0.49976391  1
  V  V61  1  0.49874730  0.75389201  0.74928326  1
  V  V62  1  0.75031369  0.89110321  0.12376183  1
  V  V63  1  0.12162598  0.00925215  0.12898787  1
  V  V64  1  0.37239815  0.62478989  0.25447763  1
  V  V65  1  0.12548046  0.49441034  0.13080469  1
  V  V66  1  0.75030560  0.37585623  0.12491386  1
  V  V67  1  0.49695518  0.00241363  0.49789275  1
  V  V68  1  0.37355505  0.87849674  0.49560842  1
  V  V69  1  0.25126159  0.87373232  0.62345486  1
  V  V70  1  0.12118025  0.74855072  0.87561245  1
  V  V71  1  0.89066029  0.13258468  0.24322728  1
  V  V72  1  0.87686365  0.37421349  0.50660921  1
  V  V73  1  0.62223173  0.37305743  0.25111759  1
  V  V74  1  0.12260109  0.25312636  0.36279865  1
  V  V75  1  0.88140347  0.00388384  0.37151958  1
  V  V76  1  0.25118054  0.62012682  0.87393136  1
  V  V77  1  0.75014854  0.01640510  0.74444886  1
  V  V78  1  0.65446489  0.77752759  0.40160560  1
  V  V79  1  0.00153314  0.62715817  0.12839829  1
  V  V80  1  0.75023567  0.12797937  0.37232366  1
  V  V81  1  0.75217875  0.62578846  0.86651905  1
  V  V82  1  0.11683189  0.49857228  0.62844305  1
  V  V83  1  0.75075766  0.75193876  0.00435954  1
  V  V84  1  0.49199570  0.48647624  0.50540602  1
  Zn  Zn85  1  0.80202902  0.76978302  0.53455496  1
  Zn  Zn86  1  0.75779312  0.49474489  0.73988099  1
  Zn  Zn87  1  0.75383673  0.12942623  0.87257018  1
  Zn  Zn88  1  0.12779000  0.25735060  0.88308229  1
  Zn  Zn89  1  0.74953782  0.00585567  0.24596430  1
  Zn  Zn90  1  0.37999568  0.49173024  0.87068908  1
  Zn  Zn91  1  0.25371301  -0.00308242  0.75255207  1
  Zn  Zn92  1  0.37674213  0.36835532  -0.00826447  1
  Zn  Zn93  1  0.62609059  -0.00723499  0.62806650  1
  Zn  Zn94  1  0.00652773  0.75572001  0.24721549  1
  Zn  Zn95  1  -0.00682986  0.11904547  0.62847751  1
  Zn  Zn96  1  0.00890311  0.37946071  0.86471230  1
  Zn  Zn97  1  0.24458491  0.24336928  0.00318802  1
  Zn  Zn98  1  0.26068634  0.75239894  -0.00702393  1
  Zn  Zn99  1  0.37443535  0.25187091  0.62429117  1
  Zn  Zn100  1  0.49195993  0.36795936  0.38114220  1
  Zn  Zn101  1  0.87658117  0.00589177  0.86836730  1
  Zn  Zn102  1  0.00190972  0.49865485  0.49907653  1
  Zn  Zn103  1  0.37868509  0.75908418  0.12072557  1
  Zn  Zn104  1  0.00370781  0.87737072  0.87870030  1
  Zn  Zn105  1  0.62464145  0.12510775  0.50285624  1
  Zn  Zn106  1  0.87694116  0.62630027  0.25400524  1
  Zn  Zn107  1  0.18852741  0.18508232  0.18701645  1
  Zn  Zn108  1  0.19109092  0.18297941  0.68653283  1
  Zn  Zn109  1  0.19245990  0.68530693  0.18610236  1
  Zn  Zn110  1  0.18365200  0.68375115  0.68690298  1
  Zn  Zn111  1  0.68952283  0.18740398  0.18551434  1
  Zn  Zn112  1  0.68380821  0.19151091  0.68818515  1
  Zn  Zn113  1  0.68667269  0.69402044  0.19376248  1
  Zn  Zn114  1  0.71083810  0.63554778  0.65507098  1
  Zn  Zn115  1  0.30827469  0.31150470  0.30899135  1
  Zn  Zn116  1  0.31274670  0.30877366  0.81690022  1
  Zn  Zn117  1  0.31345263  0.80992563  0.31064306  1
  Zn  Zn118  1  0.30862574  0.80896628  0.81072535  1
  Zn  Zn119  1  0.81320247  0.31483829  0.31405717  1
  Zn  Zn120  1  0.80798240  0.31726085  0.81493455  1
  Zn  Zn121  1  0.83108993  0.80045220  0.33761296  1
  Zn  Zn122  1  0.81713355  0.81174627  0.82472945  1
  Zn  Zn123  1  0.18569872  0.43491097  0.43804607  1
  Zn  Zn124  1  0.18689239  0.43190557  0.94125821  1
  Zn  Zn125  1  0.18652505  0.93574551  0.43819914  1
  Zn  Zn126  1  0.18687476  0.94240396  0.93553302  1
  Zn  Zn127  1  0.69025984  0.44670116  0.56526721  1
  Zn  Zn128  1  0.68709239  0.43854112  0.93368376  1
  Zn  Zn129  1  0.68834272  0.94451506  0.43987159  1
  Zn  Zn130  1  0.69108180  0.93978427  0.93339755  1
  Zn  Zn131  1  0.31173418  0.06011750  0.06528337  1
  Zn  Zn132  1  0.31410774  0.06460886  0.56454975  1
  Zn  Zn133  1  0.31516710  0.56638312  0.06522726  1
  Zn  Zn134  1  0.31010858  0.56008575  0.56217083  1
  Zn  Zn135  1  0.82718750  0.07530366  0.04245967  1
  Zn  Zn136  1  0.80468425  0.07137033  0.56360561  1
  Zn  Zn137  1  0.81367906  0.56502705  0.05956839  1
  Zn  Zn138  1  0.82798983  0.57323693  0.55646253  1
  Zn  Zn139  1  0.43636329  0.43703944  0.18726397  1
  Zn  Zn140  1  0.43364509  0.43344239  0.69093361  1
  Zn  Zn141  1  0.43390192  0.93920285  0.18249459  1
  Zn  Zn142  1  0.44048556  0.93644240  0.68720323  1
  Zn  Zn143  1  0.93754391  0.43779442  0.18663796  1
  Zn  Zn144  1  0.93872445  0.43066103  0.68703817  1
  Zn  Zn145  1  0.93894436  0.94259633  0.18864350  1
  Zn  Zn146  1  0.90805848  0.89514898  0.71177501  1
  Zn  Zn147  1  0.06674939  0.06538378  0.31170801  1
  Zn  Zn148  1  0.05964140  0.06438610  0.80725580  1
  Zn  Zn149  1  0.06337969  0.56661643  0.31565550  1
  Zn  Zn150  1  0.06069935  0.56458850  0.80921621  1
  Zn  Zn151  1  0.56445464  0.06295285  0.31426033  1
  Zn  Zn152  1  0.56914408  0.05982840  0.81529792  1
  Zn  Zn153  1  0.55612863  0.55561243  0.31398199  1
  Zn  Zn154  1  0.56513806  0.56809578  0.81324083  1
  Zn  Zn155  1  0.43400333  0.18421175  0.43871430  1
  Zn  Zn156  1  0.43623514  0.18571474  0.93729382  1
  Zn  Zn157  1  0.43800830  0.68527110  0.43297981  1
  Zn  Zn158  1  0.43700365  0.68529160  0.93804800  1
  Zn  Zn159  1  0.93706317  0.19131008  0.43697212  1
  Zn  Zn160  1  0.93781833  0.18922462  0.93296058  1
  Zn  Zn161  1  0.93109250  0.68916716  0.46514546  1
  Zn  Zn162  1  0.93873210  0.68805696  0.93935522  1
  Zn  Zn163  1  0.06557224  0.31261616  0.05815429  1
  Zn  Zn164  1  0.06222873  0.31287268  0.56173212  1
  Zn  Zn165  1  0.07135248  0.81439495  0.06642501  1
  Zn  Zn166  1  0.06743648  0.80983862  0.55885203  1
  Zn  Zn167  1  0.56172204  0.31148146  0.06467372  1
  Zn  Zn168  1  0.56058892  0.30849755  0.56839729  1
  Zn  Zn169  1  0.56171321  0.81693011  0.06356987  1
  Zn  Zn170  1  0.55409572  0.80809342  0.55657581  1
  O  O171  1  0.13501708  0.10792208  0.12252368  1
  O  O172  1  0.12215411  0.11563923  0.61863245  1
  O  O173  1  0.11942690  0.61860522  0.12143756  1
  O  O174  1  0.13213706  0.60973940  0.61451020  1
  O  O175  1  0.60984872  0.13174097  0.11879540  1
  O  O176  1  0.60992358  0.12746674  0.62512465  1
  O  O177  1  0.62045974  0.62252154  0.12195463  1
  O  O178  1  0.60518641  0.62958729  0.61139544  1
  O  O179  1  0.37481101  0.38625499  0.36808422  1
  O  O180  1  0.37183817  0.37945117  0.87921294  1
  O  O181  1  0.38542262  0.87410373  0.37712153  1
  O  O182  1  0.38460862  0.86653671  0.87414302  1
  O  O183  1  0.87811702  0.38341399  0.38309854  1
  O  O184  1  0.87639023  0.38445467  0.88325714  1
  O  O185  1  0.88536122  0.90116743  0.35855412  1
  O  O186  1  0.88036572  0.88197139  0.89106535  1
  O  O187  1  0.24207251  0.00917670  0.36763535  1
  O  O188  1  0.24782504  0.01253171  0.86901788  1
  O  O189  1  0.25437304  0.49474652  0.36432572  1
  O  O190  1  0.24595959  0.50902668  0.86723366  1
  O  O191  1  0.75962060  0.01204879  0.37580756  1
  O  O192  1  0.74961652  0.00332539  0.85992755  1
  O  O193  1  0.75591920  0.50542223  0.36381124  1
  O  O194  1  0.75813275  0.51008406  0.87604793  1
  O  O195  1  0.24379187  0.49665290  0.13316876  1
  O  O196  1  0.24317338  0.49323829  0.63165914  1
  O  O197  1  0.24341691  0.99178358  0.13036525  1
  O  O198  1  0.24265561  0.99300947  0.62737198  1
  O  O199  1  0.74511683  0.49645618  0.12949703  1
  O  O200  1  0.74935724  0.52562846  0.62670291  1
  O  O201  1  0.76016571  0.99215575  0.12009423  1
  O  O202  1  0.74601498  1.00547995  0.63652535  1
  O  O203  1  -0.00728934  0.37669560  0.26441964  1
  O  O204  1  -0.00728199  0.35360477  0.75010649  1
  O  O205  1  0.00267775  0.87533283  0.25911220  1
  O  O206  1  0.01451275  0.87054287  0.75520707  1
  O  O207  1  0.50499209  0.36524482  0.24958634  1
  O  O208  1  0.51069150  0.36601376  0.74547062  1
  O  O209  1  0.50299209  0.87309960  0.25243774  1
  O  O210  1  0.49587953  0.86625096  0.75984456  1
  O  O211  1  0.49334250  0.12556127  0.24342593  1
  O  O212  1  0.49267712  0.12776413  0.74832137  1
  O  O213  1  0.49826857  0.63364301  0.24651811  1
  O  O214  1  0.49531857  0.62998376  0.74181175  1
  O  O215  1  0.98866764  0.12964619  0.25219358  1
  O  O216  1  0.99754563  0.13926561  0.74524439  1
  O  O217  1  0.99823073  0.62672340  0.23850526  1
  O  O218  1  0.99597017  0.64092363  0.75133955  1
  O  O219  1  0.37339507  0.24735414  0.01357657  1
  O  O220  1  0.35902663  0.24267327  0.50299756  1
  O  O221  1  0.37191252  0.73897579  0.00923294  1
  O  O222  1  0.36888111  0.75404242  0.50053672  1
  O  O223  1  0.87154425  0.26075536  0.00790432  1
  O  O224  1  0.86677466  0.25890003  0.50295759  1
  O  O225  1  0.87321826  0.75762595  0.01214512  1
  O  O226  1  0.86812642  0.77738335  0.44285826  1
  O  O227  1  0.13471112  0.24167592  0.49566509  1
  O  O228  1  0.13163148  0.25036798  0.99899815  1
  O  O229  1  0.13361413  0.74244290  0.49317379  1
  O  O230  1  0.13112086  0.74322873  0.99148295  1
  O  O231  1  0.63050461  0.25019226  0.49436712  1
  O  O232  1  0.62501326  0.24646482  0.99338897  1
  O  O233  1  0.60140943  0.73115288  0.48368253  1
  O  O234  1  0.62854049  0.74597086  0.99512462  1
  O  O235  1  0.49243302  0.24161902  0.13051368  1
  O  O236  1  0.49668538  0.24181930  0.63744418  1
  O  O237  1  0.50119917  0.74743042  0.13732505  1
  O  O238  1  0.49029889  0.74281282  0.62970052  1
  O  O239  1  0.98702599  0.26413577  0.12786609  1
  O  O240  1  0.98949890  0.24968902  0.63416767  1
  O  O241  1  0.99644564  0.74387314  0.12702870  1
  O  O242  1  1.00993916  0.75121624  0.63752228  1
  O  O243  1  0.01016475  0.25868989  0.37909786  1
  O  O244  1  0.00008798  0.24868640  0.85970980  1
  O  O245  1  0.01675279  0.75940478  0.37090236  1
  O  O246  1  0.01244758  0.74953275  0.87181670  1
  O  O247  1  0.50490029  0.24664879  0.37025468  1
  O  O248  1  0.50652769  0.24433434  0.86451285  1
  O  O249  1  0.49865510  0.75970339  0.36251622  1
  O  O250  1  0.50784252  0.75351822  0.86961659  1
  O  O251  1  0.24339772  0.12837126  0.49306595  1
  O  O252  1  0.25613973  0.12093322  0.98538786  1
  O  O253  1  0.24478713  0.63647038  0.50124153  1
  O  O254  1  0.24430540  0.62082869  0.99070246  1
  O  O255  1  0.74787260  0.13875379  0.48731860  1
  O  O256  1  0.73450899  0.13696415  1.01246743  1
  O  O257  1  0.73059989  0.62024694  0.48474000  1
  O  O258  1  0.74315326  0.63266404  0.99440475  1
  O  O259  1  0.25701528  0.37929764  0.01744613  1
  O  O260  1  0.24647415  0.36458716  0.50677173  1
  O  O261  1  0.24872813  0.87545313  0.00821482  1
  O  O262  1  0.25632260  0.86670102  0.50443593  1
  O  O263  1  0.75906054  0.37317074  0.00350940  1
  O  O264  1  0.75520675  0.36712723  0.50424899  1
  O  O265  1  0.76032134  0.87117955  0.00624473  1
  O  O266  1  0.71580964  0.83675783  0.47029562  1
  O  O267  1  0.13488356  0.50882608  0.24364382  1
  O  O268  1  0.13090700  0.50647979  0.73645184  1
  O  O269  1  0.13308042  1.00436711  0.23850890  1
  O  O270  1  0.12370622  0.99197748  0.73681357  1
  O  O271  1  0.62969546  0.49345462  0.24473592  1
  O  O272  1  0.62251316  0.48636091  0.75583082  1
  O  O273  1  0.62704831  0.98940797  0.25169936  1
  O  O274  1  0.64183534  1.00081009  0.74724748  1
  O  O275  1  0.36679190  0.01123237  0.24622160  1
  O  O276  1  0.37584922  0.01346544  0.74569866  1
  O  O277  1  0.36964863  0.50568841  0.25617358  1
  O  O278  1  0.36387688  0.50620280  0.75032757  1
  O  O279  1  0.87363600  0.01898634  0.25189976  1
  O  O280  1  0.85670140  -0.01027991  0.75170128  1
  O  O281  1  0.86607866  0.50080083  0.25572058  1
  O  O282  1  0.87558931  0.49426072  0.76193068  1
  O  O283  1  0.11503702  0.36573717  0.37884862  1
  O  O284  1  0.12173946  0.37323089  0.87534792  1
  O  O285  1  0.11967453  0.86381303  0.37963479  1
  O  O286  1  0.12805497  0.86601376  0.86656573  1
  O  O287  1  0.61827329  0.35901940  0.36769211  1
  O  O288  1  0.62537918  0.36434388  0.86861275  1
  O  O289  1  0.61220818  0.87613472  0.36643597  1
  O  O290  1  0.61833664  0.86293713  0.88330743  1
  O  O291  1  0.38257877  0.12917401  0.13199383  1
  O  O292  1  0.38483396  0.12714511  0.63537717  1
  O  O293  1  0.38608862  0.62276393  0.13875148  1
  O  O294  1  0.38088868  0.62943331  0.62815259  1
  O  O295  1  0.87245308  0.13706485  0.13624393  1
  O  O296  1  0.87829743  0.14301866  0.61573456  1
  O  O297  1  0.88311307  0.63379748  0.12534027  1
  O  O298  1  0.86547260  0.67534922  0.56292860  1
  O  O299  1  0.25767505  0.25725619  0.12777138  1
  O  O300  1  0.24737024  0.25716655  0.61708422  1
  O  O301  1  0.24661142  0.76557126  0.12408922  1
  O  O302  1  0.25339300  0.75375194  0.61659673  1
  O  O303  1  0.75517376  0.26021816  0.12079770  1
  O  O304  1  0.75917406  0.24502859  0.61643860  1
  O  O305  1  0.75901396  0.75606854  0.12185033  1
  O  O306  1  0.73411737  0.74900090  0.63160179  1
  O  O307  1  0.24396487  0.24387126  0.38042639  1
  O  O308  1  0.24985945  0.23289126  0.87591193  1
  O  O309  1  0.23959629  0.75724180  0.38293517  1
  O  O310  1  0.23950394  0.73635330  0.87176303  1
  O  O311  1  0.74270349  0.24839222  0.38154367  1
  O  O312  1  0.74186839  0.25002319  0.88455524  1
  O  O313  1  0.73635493  0.72897413  0.35027524  1
  O  O314  1  0.74426323  0.74539897  0.88360731  1
  O  O315  1  0.00251463  0.11583795  0.00297724  1
  O  O316  1  0.01332415  0.13105015  0.50188282  1
  O  O317  1  0.00552559  0.62115648  0.01176095  1
  O  O318  1  0.01639607  0.62005621  0.49343165  1
  O  O319  1  0.50377328  0.11502990  0.00516209  1
  O  O320  1  0.49832364  0.11825593  0.50889885  1
  O  O321  1  0.50885264  0.61790155  0.00772155  1
  O  O322  1  0.49729374  0.61245028  0.50415657  1
  O  O323  1  0.49933752  0.38287221  0.50374294  1
  O  O324  1  0.49975999  0.39142573  1.00830326  1
  O  O325  1  0.49415331  0.88181769  0.48920008  1
  O  O326  1  0.50205443  0.88783336  0.99495722  1
  O  O327  1  0.99061844  0.37637349  0.49245737  1
  O  O328  1  0.98767087  0.38372260  1.00045317  1
  O  O329  1  1.00363433  0.88104384  0.48938385  1
  O  O330  1  0.99536558  0.87238753  1.00065148  1
  O  O331  1  0.48959741  0.49231084  0.38481542  1
  O  O332  1  0.50228895  0.50836953  0.89174469  1
  O  O333  1  0.50129513  0.99427254  0.38334939  1
  O  O334  1  0.50403304  0.99081488  0.88634437  1
  O  O335  1  0.99159833  0.49453080  0.37505916  1
  O  O336  1  0.99274810  0.50253147  0.88060439  1
  O  O337  1  0.99805311  0.99659624  0.37349219  1
  O  O338  1  1.00147407  1.00060421  0.88832631  1
  O  O339  1  0.01581106  -0.00283778  0.11959568  1
  O  O340  1  0.00130269  -0.00472574  0.61312864  1
  O  O341  1  0.00685744  0.50682366  0.12214400  1
  O  O342  1  0.01324616  0.49519006  0.62361362  1
  O  O343  1  0.49815717  0.00585094  0.11146605  1
  O  O344  1  0.50432578  0.00599166  0.61921769  1
  O  O345  1  0.50714866  0.50698594  0.12007702  1
  O  O346  1  0.48746393  0.50694878  0.61782544  1
  O  O347  1  0.25496751  0.38619501  0.23688167  1
  O  O348  1  0.24998033  0.38456633  0.74453520  1
  O  O349  1  0.25232075  0.88732917  0.25032066  1
  O  O350  1  0.23900455  0.87363118  0.74292084  1
  O  O351  1  0.74450619  0.38524276  0.24693728  1
  O  O352  1  0.73288477  0.37901557  0.75203222  1
  O  O353  1  0.74244043  0.88122087  0.24014502  1
  O  O354  1  0.74660611  0.86952760  0.74679315  1
  O  O355  1  0.25654441  0.11628172  0.25713347  1
  O  O356  1  0.26366321  0.12276361  0.75448943  1
  O  O357  1  0.26155057  0.61448599  0.24482966  1
  O  O358  1  0.25315278  0.61662453  0.75569324  1
  O  O359  1  0.75293198  0.12630273  0.26140919  1
  O  O360  1  0.75167044  0.11996086  0.75177411  1
  O  O361  1  0.74900879  0.61159041  0.25087553  1
  O  O362  1  0.74582536  0.62262730  0.76430592  1
  O  O363  1  0.36160485  0.12850230  0.36672777  1
  O  O364  1  0.36996684  0.12552964  0.86254053  1
  O  O365  1  0.38176406  0.61309907  0.36129492  1
  O  O366  1  0.36644606  0.61906816  0.86731090  1
  O  O367  1  0.87098720  0.12364147  0.36536006  1
  O  O368  1  0.85930082  0.11084460  0.91611753  1
  O  O369  1  0.86551621  0.61008804  0.37534202  1
  O  O370  1  0.86504305  0.61767849  0.88397433  1
  O  O371  1  0.13082322  0.38889077  0.12483409  1
  O  O372  1  0.13423237  0.39016236  0.61835222  1
  O  O373  1  0.14047562  0.88590926  0.12605426  1
  O  O374  1  0.13058089  0.88045364  0.62873740  1
  O  O375  1  0.63101297  0.38001565  0.13102375  1
  O  O376  1  0.62669473  0.37657957  0.63595190  1
  O  O377  1  0.63784033  0.87218246  0.13054412  1
  O  O378  1  0.62271343  0.86914377  0.62823913  1
  O  O379  1  0.13065214  0.24588704  0.26357071  1
  O  O380  1  0.11600484  0.24839880  0.74642413  1
  O  O381  1  0.12937917  0.74494851  0.26285458  1
  O  O382  1  0.11772007  0.75431312  0.75569277  1
  O  O383  1  0.61915491  0.25172912  0.25594545  1
  O  O384  1  0.61839213  0.25980209  0.75724269  1
  O  O385  1  0.61714775  0.76585688  0.25569062  1
  O  O386  1  0.62214292  0.75526256  0.75673362  1
  O  O387  1  0.37741833  0.23850235  0.24175115  1
  O  O388  1  0.38321413  0.23932907  0.74883275  1
  O  O389  1  0.38252582  0.74147170  0.24745855  1
  O  O390  1  0.37760524  0.74088763  0.74354176  1
  O  O391  1  0.86857918  0.24051250  0.24356703  1
  O  O392  1  0.86763711  0.25311632  0.73781042  1
  O  O393  1  0.87750101  0.74857363  0.24074630  1
  O  O394  1  0.89453409  0.77494525  0.74797779  1
  O  O395  1  0.37825396  0.50338223  0.48893201  1
  O  O396  1  0.39172627  0.50381999  1.00248150  1
  O  O397  1  0.38742864  0.99409841  0.50606056  1
  O  O398  1  0.38775841  1.00192003  0.99894088  1
  O  O399  1  0.87683764  0.49049328  0.49231657  1
  O  O400  1  0.87980663  0.49463552  0.99321240  1
  O  O401  1  0.87797937  1.00711893  0.49208171  1
  O  O402  1  0.89875808  0.98929691  1.01438257  1
  O  O403  1  0.11325644  -0.00461140  0.00936689  1
  O  O404  1  0.13104220  0.00804962  0.51115039  1
  O  O405  1  0.11937163  0.50674586  0.01036904  1
  O  O406  1  0.12721244  0.50776565  0.50768503  1
  O  O407  1  0.62061526  0.01257578  -0.00495580  1
  O  O408  1  0.61341900  0.00346238  0.50491093  1
  O  O409  1  0.61781494  0.50495264  0.00494039  1
  O  O410  1  0.60956502  0.50710564  0.50346597  1
  O  O411  1  0.37015160  0.36448007  0.12454573  1
  O  O412  1  0.35782239  0.37176672  0.62910527  1
  O  O413  1  0.35409055  0.87617500  0.13152321  1
  O  O414  1  0.37124329  0.86784311  0.61832771  1
  O  O415  1  0.86802611  0.37377035  0.11812153  1
  O  O416  1  0.87635784  0.36401027  0.61422203  1
  O  O417  1  0.87101758  0.86867712  0.12288831  1
  O  O418  1  0.88209663  0.88213392  0.59922234  1
  O  O419  1  0.13346409  0.13182194  0.38202465  1
  O  O420  1  0.13865954  0.12628644  0.86770052  1
  O  O421  1  0.12635549  0.63914358  0.38223588  1
  O  O422  1  0.13070163  0.62969235  0.87937518  1
  O  O423  1  0.63257737  0.13585764  0.37606353  1
  O  O424  1  0.62786701  0.13695471  0.88435259  1
  O  O425  1  0.62755706  0.61828199  0.37839971  1
  O  O426  1  0.63133493  0.63738463  0.88132560  1
