# generated using pymatgen
data_V85Zn86O256
_symmetry_space_group_name_H-M   'P 1'
_cell_length_a   16.96032007
_cell_length_b   16.96489029
_cell_length_c   16.97940286
_cell_angle_alpha   90.00863310
_cell_angle_beta   90.00144529
_cell_angle_gamma   89.98441783
_symmetry_Int_Tables_number   1
_chemical_formula_structural   V85Zn86O256
_chemical_formula_sum   'V85 Zn86 O256'
_cell_volume   4885.48282607
_cell_formula_units_Z   1
loop_
 _symmetry_equiv_pos_site_id
 _symmetry_equiv_pos_as_xyz
  1  'x, y, z'
loop_
 _atom_site_type_symbol
 _atom_site_label
 _atom_site_symmetry_multiplicity
 _atom_site_fract_x
 _atom_site_fract_y
 _atom_site_fract_z
 _atom_site_occupancy
  V  V0  1  0.12917096  0.36848495  0.75045332  1
  V  V1  1  0.12377158  0.86383414  0.74619641  1
  V  V2  1  -0.00624493  0.00973642  0.00109502  1
  V  V3  1  0.24471803  0.24671566  -0.00833437  1
  V  V4  1  -0.00113544  0.37236122  0.37510459  1
  V  V5  1  0.37425848  0.75169333  0.62614111  1
  V  V6  1  0.74391682  0.24276757  -0.01011660  1
  V  V7  1  0.51035518  0.11034152  0.12147879  1
  V  V8  1  0.88930022  0.74516787  0.62605741  1
  V  V9  1  0.12035461  0.50237712  0.62707796  1
  V  V10  1  0.00134251  0.87651846  0.37284366  1
  V  V11  1  0.62315061  0.37422221  0.24534176  1
  V  V12  1  0.00554035  0.61821169  0.12495855  1
  V  V13  1  0.61930762  0.62825445  0.50613101  1
  V  V14  1  0.25042970  0.50240605  0.75060770  1
  V  V15  1  0.49943647  0.75081678  0.24975691  1
  V  V16  1  -0.00049075  0.24632197  0.24626087  1
  V  V17  1  0.24866484  0.75432265  0.50246494  1
  V  V18  1  0.36947224  0.12502120  0.25207169  1
  V  V19  1  0.37478572  0.24749823  0.12182845  1
  V  V20  1  0.24925120  0.62524679  0.37433040  1
  V  V21  1  0.00244151  0.00435451  0.49855954  1
  V  V22  1  0.42647453  0.67936505  0.79726221  1
  V  V23  1  0.75037423  0.25102109  0.49995111  1
  V  V24  1  0.37150536  0.87648234  0.50445869  1
  V  V25  1  0.49910618  0.25036858  0.24576691  1
  V  V26  1  0.75014141  0.88679219  0.13201976  1
  V  V27  1  0.74755891  0.62200760  0.37748972  1
  V  V28  1  0.49662269  0.12986419  0.62583703  1
  V  V29  1  0.87847889  0.37564642  -0.00055159  1
  V  V30  1  0.38990388  0.88227535  -0.00331911  1
  V  V31  1  0.87229786  0.50287403  0.87508149  1
  V  V32  1  0.87707426  0.25179522  0.62592692  1
  V  V33  1  0.00742631  0.37256937  0.87528146  1
  V  V34  1  0.62526962  0.50324441  0.63037974  1
  V  V35  1  0.50159445  0.50245573  -0.00208262  1
  V  V36  1  0.74939675  0.11899916  0.36972973  1
  V  V37  1  0.88418441  0.62630841  0.74755635  1
  V  V38  1  0.50214600  0.62751249  0.12304824  1
  V  V39  1  0.64303306  0.63598279  -0.01170032  1
  V  V40  1  0.49604499  0.87640633  0.37756659  1
  V  V41  1  0.00389256  0.12584109  0.62409573  1
  V  V42  1  0.00329674  0.24564951  0.75602910  1
  V  V43  1  0.24333331  0.87248176  0.10973891  1
  V  V44  1  0.37156527  0.25321517  0.60820650  1
  V  V45  1  0.24302204  0.38183079  0.12516920  1
  V  V46  1  0.50248451  0.36385855  0.87153758  1
  V  V47  1  0.87708347  0.23858744  0.11997214  1
  V  V48  1  0.87561660  0.87600809  0.50018087  1
  V  V49  1  0.74407254  0.88115921  0.62896351  1
  V  V50  1  0.87343329  0.00129120  0.37259335  1
  V  V51  1  0.62656805  0.50223024  0.12258623  1
  V  V52  1  0.62537897  0.24846853  0.37053354  1
  V  V53  1  0.25318963  0.37428871  0.60855335  1
  V  V54  1  0.62819086  0.88691115  0.24976977  1
  V  V55  1  0.86639240  0.74782778  0.12535952  1
  V  V56  1  0.62591408  0.36711894  0.75233933  1
  V  V57  1  0.00637403  0.86079509  0.87526859  1
  V  V58  1  0.87379502  0.62172219  0.25100893  1
  V  V59  1  0.37451702  0.62048095  0.24987086  1
  V  V60  1  0.12548759  0.64280069  -0.00029093  1
  V  V61  1  0.37178504  0.13315922  0.75720724  1
  V  V62  1  0.13519719  0.24813789  0.37553365  1
  V  V63  1  0.87351128  0.11999638  0.24516143  1
  V  V64  1  0.74979643  0.75054428  0.50542342  1
  V  V65  1  0.87256987  0.00173934  0.86422359  1
  V  V66  1  0.24228365  0.63468802  0.87665333  1
  V  V67  1  0.11875835  0.01158297  0.12227705  1
  V  V68  1  0.00045553  0.74933093  0.24977870  1
  V  V69  1  0.25236528  -0.00640679  0.75034119  1
  V  V70  1  0.62430175  0.74997116  0.37699853  1
  V  V71  1  0.36654647  0.00288366  0.37572103  1
  V  V72  1  0.87234517  0.37559355  0.50012413  1
  V  V73  1  0.62214040  0.12207263  0.50045771  1
  V  V74  1  0.37662720  0.37577095  -0.00012965  1
  V  V75  1  -0.00180374  0.50134971  0.50237935  1
  V  V76  1  0.48938126  0.62127468  0.62315530  1
  V  V77  1  0.01409599  0.49918580  0.00152669  1
  V  V78  1  0.75341702  0.37415653  0.12281574  1
  V  V79  1  0.11925834  0.62651006  0.50353622  1
  V  V80  1  0.86923061  0.49815812  0.37745880  1
  V  V81  1  0.87309496  0.87273185  -0.00111763  1
  V  V82  1  0.37668362  0.49847318  0.86823137  1
  V  V83  1  0.24542242  0.00039959  0.24934222  1
  V  V84  1  0.13828843  0.12854572  0.49618628  1
  Zn  Zn85  1  0.87015318  0.12429253  0.74961305  1
  Zn  Zn86  1  0.62455096  0.00064302  0.63514608  1
  Zn  Zn87  1  0.37104504  0.49011284  0.38772184  1
  Zn  Zn88  1  0.11982971  0.38152464  0.24612522  1
  Zn  Zn89  1  0.74841070  0.49850035  0.25257348  1
  Zn  Zn90  1  0.49280575  0.48887611  0.49976714  1
  Zn  Zn91  1  0.23974401  0.50623619  0.24454862  1
  Zn  Zn92  1  0.12856010  -0.00398160  0.62476292  1
  Zn  Zn93  1  0.49794899  0.00193457  0.50059195  1
  Zn  Zn94  1  0.50040916  0.89176253  0.86114854  1
  Zn  Zn95  1  0.49106565  0.37343300  0.38056030  1
  Zn  Zn96  1  0.70641551  0.05929782  0.81190472  1
  Zn  Zn97  1  0.23978912  0.12252012  0.87271459  1
  Zn  Zn98  1  0.11344303  0.13167746  -0.00649153  1
  Zn  Zn99  1  0.75045712  0.50385665  0.75670277  1
  Zn  Zn100  1  0.36257169  0.75116762  0.12483953  1
  Zn  Zn101  1  0.62387621  0.22912530  0.87097243  1
  Zn  Zn102  1  0.74962341  0.37725319  0.62945125  1
  Zn  Zn103  1  0.64316228  0.87650364  0.78102581  1
  Zn  Zn104  1  0.57480672  0.05010690  -0.03916972  1
  Zn  Zn105  1  0.12443441  0.87611085  0.24707731  1
  Zn  Zn106  1  0.12478811  0.75122052  0.37497814  1
  Zn  Zn107  1  0.18792480  0.18984102  0.18599934  1
  Zn  Zn108  1  0.19144791  0.18777462  0.68436058  1
  Zn  Zn109  1  0.18272077  0.68791402  0.18688890  1
  Zn  Zn110  1  0.19049077  0.68574819  0.68655067  1
  Zn  Zn111  1  0.69135628  0.18598517  0.18271716  1
  Zn  Zn112  1  0.68769079  0.18954354  0.68476756  1
  Zn  Zn113  1  0.68489611  0.68765022  0.18983006  1
  Zn  Zn114  1  0.70225955  0.69457664  0.80914099  1
  Zn  Zn115  1  0.31203600  0.31516277  0.30986561  1
  Zn  Zn116  1  0.31542564  0.31228261  0.80806872  1
  Zn  Zn117  1  0.31029927  0.81293786  0.30976043  1
  Zn  Zn118  1  0.30872965  0.82303509  0.82236968  1
  Zn  Zn119  1  0.81159472  0.30934493  0.31005612  1
  Zn  Zn120  1  0.81526034  0.31581944  0.81118239  1
  Zn  Zn121  1  0.81279440  0.81048530  0.31340941  1
  Zn  Zn122  1  0.82275642  0.81935616  0.80342078  1
  Zn  Zn123  1  0.18437545  0.44109398  0.43044768  1
  Zn  Zn124  1  0.19071319  0.43534871  0.93581397  1
  Zn  Zn125  1  0.18640533  0.93922024  0.43704775  1
  Zn  Zn126  1  0.18138714  0.94531861  0.93197174  1
  Zn  Zn127  1  0.66398160  0.43010239  0.44471244  1
  Zn  Zn128  1  0.68663901  0.43570483  0.93947532  1
  Zn  Zn129  1  0.68579368  0.93774445  0.43900480  1
  Zn  Zn130  1  0.68246434  0.91331333  0.94880700  1
  Zn  Zn131  1  0.31145986  0.06136772  0.06453739  1
  Zn  Zn132  1  0.31071316  0.06027040  0.56913634  1
  Zn  Zn133  1  0.31168825  0.56515622  0.05797422  1
  Zn  Zn134  1  0.30929676  0.56260972  0.56158949  1
  Zn  Zn135  1  0.76863376  0.03869937  0.03180112  1
  Zn  Zn136  1  0.81525833  0.06545538  0.56367413  1
  Zn  Zn137  1  0.81783739  0.55868765  0.06210206  1
  Zn  Zn138  1  0.80849526  0.56478648  0.56683224  1
  Zn  Zn139  1  0.43518363  0.43855134  0.18888305  1
  Zn  Zn140  1  0.43881122  0.43278966  0.68697909  1
  Zn  Zn141  1  0.43163166  0.93546404  0.18534582  1
  Zn  Zn142  1  0.43683737  0.94341425  0.68793509  1
  Zn  Zn143  1  0.93725126  0.43615242  0.18843121  1
  Zn  Zn144  1  0.93928249  0.43737793  0.68946870  1
  Zn  Zn145  1  0.93675263  0.93917831  0.18573924  1
  Zn  Zn146  1  0.94533986  0.93260819  0.68608379  1
  Zn  Zn147  1  0.06202877  0.06675997  0.31089851  1
  Zn  Zn148  1  0.06671716  0.05753164  0.81612031  1
  Zn  Zn149  1  0.06308352  0.56009138  0.31508745  1
  Zn  Zn150  1  0.05896100  0.56557806  0.81494499  1
  Zn  Zn151  1  0.55565291  0.06409794  0.31067531  1
  Zn  Zn152  1  0.54543836  0.05289704  0.80092648  1
  Zn  Zn153  1  0.55990438  0.55854945  0.31489159  1
  Zn  Zn154  1  0.56767947  0.55827811  0.81603092  1
  Zn  Zn155  1  0.43694552  0.18974323  0.43289828  1
  Zn  Zn156  1  0.43703178  0.18151967  0.94009308  1
  Zn  Zn157  1  0.43495596  0.68534382  0.43763097  1
  Zn  Zn158  1  0.43534765  0.69801458  0.96232270  1
  Zn  Zn159  1  0.93956029  0.18771103  0.43576619  1
  Zn  Zn160  1  0.93193232  0.18528713  0.93440002  1
  Zn  Zn161  1  0.93705218  0.68729412  0.43788461  1
  Zn  Zn162  1  0.87529372  0.70597783  0.91884574  1
  Zn  Zn163  1  0.06229241  0.30964538  0.06335585  1
  Zn  Zn164  1  0.06566842  0.31270418  0.56132066  1
  Zn  Zn165  1  0.05620745  0.81670667  0.06484343  1
  Zn  Zn166  1  0.06495371  0.81622643  0.56083062  1
  Zn  Zn167  1  0.56223586  0.30879977  0.05909438  1
  Zn  Zn168  1  0.56118561  0.31132793  0.56491172  1
  Zn  Zn169  1  0.56886568  0.81382792  0.06267788  1
  Zn  Zn170  1  0.56292235  0.79879545  0.67677295  1
  O  O171  1  0.12871508  0.11487052  0.11872203  1
  O  O172  1  0.11513288  0.13094662  0.61466592  1
  O  O173  1  0.11765113  0.62758112  0.11346026  1
  O  O174  1  0.13146800  0.61434800  0.61562105  1
  O  O175  1  0.60850778  0.12725615  0.13328300  1
  O  O176  1  0.61422631  0.12733044  0.61619404  1
  O  O177  1  0.61905823  0.61874911  0.12196186  1
  O  O178  1  0.60725174  0.61870503  0.61981110  1
  O  O179  1  0.37879577  0.37722229  0.36762379  1
  O  O180  1  0.38252601  0.38062081  0.87873576  1
  O  O181  1  0.37768131  0.88145090  0.37964213  1
  O  O182  1  0.38508918  0.87017487  0.89128124  1
  O  O183  1  0.87740604  0.37791819  0.38069435  1
  O  O184  1  0.88982523  0.38054107  0.87919230  1
  O  O185  1  0.88386002  0.87983008  0.37829222  1
  O  O186  1  0.88735077  0.88295307  0.88199517  1
  O  O187  1  0.25893159  -0.00271791  0.36675758  1
  O  O188  1  0.24762242  0.00324298  0.85763051  1
  O  O189  1  0.25115427  0.51520141  0.37250869  1
  O  O190  1  0.25849280  0.50490539  0.87016015  1
  O  O191  1  0.75535845  0.01250764  0.38011080  1
  O  O192  1  0.77002184  -0.01449503  0.87668533  1
  O  O193  1  0.75281980  0.50441487  0.37710029  1
  O  O194  1  0.76908437  0.49181155  0.88145074  1
  O  O195  1  0.25698785  0.48426603  0.12109306  1
  O  O196  1  0.24190256  0.49466334  0.63388287  1
  O  O197  1  0.23901405  0.99168706  0.13041252  1
  O  O198  1  0.24370915  1.00400833  0.64205317  1
  O  O199  1  0.74655452  0.49014429  0.12561304  1
  O  O200  1  0.73520345  0.49880781  0.62583746  1
  O  O201  1  0.76405000  0.98383993  0.13744393  1
  O  O202  1  0.75144458  0.98352723  0.60976905  1
  O  O203  1  -0.00220811  0.36376283  0.25604743  1
  O  O204  1  0.00876800  0.36759416  0.75671316  1
  O  O205  1  -0.00140297  0.86691258  0.25641073  1
  O  O206  1  0.01229616  0.87571353  0.76325354  1
  O  O207  1  0.50970454  0.36779706  0.24363722  1
  O  O208  1  0.50977921  0.37977444  0.76187387  1
  O  O209  1  0.50261569  0.86806921  0.25616638  1
  O  O210  1  0.50301157  0.87409481  0.74366916  1
  O  O211  1  0.49031976  0.13210165  0.24140453  1
  O  O212  1  0.48142775  0.12561829  0.73816044  1
  O  O213  1  0.49429653  0.63144514  0.24444287  1
  O  O214  1  0.49334506  0.61947431  0.74449974  1
  O  O215  1  0.98936037  0.13855297  0.25445145  1
  O  O216  1  1.00106288  0.13246241  0.74118349  1
  O  O217  1  0.99502910  0.63014261  0.24494618  1
  O  O218  1  0.98676062  0.61183367  0.74204586  1
  O  O219  1  0.36863101  0.25534935  0.00633749  1
  O  O220  1  0.37361345  0.24792715  0.50896162  1
  O  O221  1  0.36963541  0.77037403  0.01200307  1
  O  O222  1  0.36770569  0.75649194  0.50511997  1
  O  O223  1  0.87209952  0.25824660  0.00473077  1
  O  O224  1  0.86853132  0.25519266  0.50314400  1
  O  O225  1  0.88820581  0.76235394  0.01620126  1
  O  O226  1  0.86910142  0.75399778  0.50406454  1
  O  O227  1  0.12052859  0.24453586  0.48406379  1
  O  O228  1  0.14118727  0.24887557  1.00653273  1
  O  O229  1  0.13185200  0.74441613  0.50006813  1
  O  O230  1  0.11888934  0.74054476  1.00159356  1
  O  O231  1  0.63391525  0.23828252  0.49415353  1
  O  O232  1  0.63980323  0.25248198  0.99617815  1
  O  O233  1  0.63436861  0.73908693  0.49427828  1
  O  O234  1  0.62639600  0.73219166  1.00658003  1
  O  O235  1  0.48774852  0.24744331  0.12690389  1
  O  O236  1  0.48672598  0.24229333  0.61875096  1
  O  O237  1  0.50339042  0.73872714  0.13294852  1
  O  O238  1  0.48325574  0.73780812  0.62354633  1
  O  O239  1  0.98966482  0.25488713  0.13311189  1
  O  O240  1  0.99757127  0.24641027  0.63314106  1
  O  O241  1  0.99390172  0.74075102  0.13427259  1
  O  O242  1  0.98698350  0.74996789  0.61199546  1
  O  O243  1  0.00254929  0.25728869  0.36660913  1
  O  O244  1  -0.00525413  0.25581154  0.86316670  1
  O  O245  1  -0.00144240  0.75871041  0.36809778  1
  O  O246  1  -0.01119520  0.76490266  0.88189654  1
  O  O247  1  0.50914896  0.25083256  0.36391001  1
  O  O248  1  0.50378175  0.26127853  0.88424720  1
  O  O249  1  0.50125939  0.75712134  0.36853972  1
  O  O250  1  0.48303938  0.72996245  0.86032878  1
  O  O251  1  0.23703147  0.12089069  0.50279173  1
  O  O252  1  0.25585210  0.14029937  0.99879574  1
  O  O253  1  0.24131198  0.63495142  0.49302992  1
  O  O254  1  0.23365757  0.62137746  0.99417178  1
  O  O255  1  0.74586022  0.13432104  0.49345247  1
  O  O256  1  0.76295911  0.14634600  0.99779547  1
  O  O257  1  0.74378862  0.63405589  0.49757432  1
  O  O258  1  0.74098906  0.62257176  1.00571745  1
  O  O259  1  0.25588788  0.36678609  0.00771450  1
  O  O260  1  0.24236207  0.38217904  0.51065340  1
  O  O261  1  0.24122805  0.87792097  0.00955212  1
  O  O262  1  0.25485339  0.86244296  0.49320515  1
  O  O263  1  0.75613026  0.36913295  0.00920629  1
  O  O264  1  0.74940255  0.36181213  0.49787610  1
  O  O265  1  0.76411936  0.86824374  0.02066928  1
  O  O266  1  0.75837803  0.86769974  0.49789219  1
  O  O267  1  0.12650181  0.49500024  0.25240560  1
  O  O268  1  0.12827969  0.48991709  0.74362702  1
  O  O269  1  0.12902339  1.00191695  0.24283150  1
  O  O270  1  0.13351595  0.99060710  0.74714208  1
  O  O271  1  0.62656492  0.49152253  0.24070171  1
  O  O272  1  0.62917519  0.49435077  0.74426181  1
  O  O273  1  0.62118884  0.98543752  0.25941395  1
  O  O274  1  0.63029266  0.99135310  0.74979965  1
  O  O275  1  0.36571829  0.00547320  0.25573875  1
  O  O276  1  0.36103221  0.01489822  0.74132553  1
  O  O277  1  0.36995180  0.51514476  0.24649693  1
  O  O278  1  0.36625736  0.49334416  0.76001456  1
  O  O279  1  0.88314656  0.01376674  0.25621028  1
  O  O280  1  0.88593226  -0.00241967  0.76210658  1
  O  O281  1  0.87208624  0.50474578  0.25787499  1
  O  O282  1  0.87549950  0.50055682  0.75912909  1
  O  O283  1  0.11718961  0.36399062  0.37352310  1
  O  O284  1  0.11584179  0.37769991  0.86634226  1
  O  O285  1  0.11185930  0.87443429  0.37238109  1
  O  O286  1  0.11314403  0.87427842  0.86796765  1
  O  O287  1  0.63697415  0.36532502  0.35183112  1
  O  O288  1  0.61641679  0.37857802  0.86804830  1
  O  O289  1  0.61569590  0.86897175  0.37181019  1
  O  O290  1  0.60899928  0.86156627  0.88839528  1
  O  O291  1  0.37988175  0.13070956  0.13311737  1
  O  O292  1  0.37731546  0.13729591  0.62654443  1
  O  O293  1  0.38173596  0.62943106  0.12888335  1
  O  O294  1  0.38244092  0.63105824  0.62517264  1
  O  O295  1  0.86824873  0.13697694  0.13259108  1
  O  O296  1  0.88998279  0.13371662  0.62114497  1
  O  O297  1  0.88310511  0.62998458  0.13008621  1
  O  O298  1  0.87247796  0.63894040  0.62702185  1
  O  O299  1  0.25998991  0.25724470  0.11781438  1
  O  O300  1  0.26096251  0.26017820  0.62334627  1
  O  O301  1  0.24331217  0.76989658  0.13373786  1
  O  O302  1  0.26331518  0.74290652  0.61509397  1
  O  O303  1  0.75740715  0.25695111  0.11504513  1
  O  O304  1  0.75731064  0.25401180  0.61377417  1
  O  O305  1  0.76448469  0.75142066  0.13562990  1
  O  O306  1  0.76304400  0.76519117  0.60930730  1
  O  O307  1  0.23303723  0.25072741  0.36454089  1
  O  O308  1  0.25411219  0.25648707  0.89067906  1
  O  O309  1  0.24815865  0.74165703  0.38095783  1
  O  O310  1  0.25430951  0.73293576  0.86945216  1
  O  O311  1  0.74616876  0.23954396  0.38010034  1
  O  O312  1  0.74957432  0.25880545  0.88699689  1
  O  O313  1  0.74656726  0.74403010  0.38445342  1
  O  O314  1  0.77884572  0.74776244  0.87589402  1
  O  O315  1  -0.00712942  0.11371698  0.00116928  1
  O  O316  1  0.00643332  0.12156476  0.50502503  1
  O  O317  1  0.01362964  0.61555480  0.00907023  1
  O  O318  1  0.01222234  0.61903736  0.49415992  1
  O  O319  1  0.49919900  0.12559109  0.01718542  1
  O  O320  1  0.50765766  0.12612046  0.50199035  1
  O  O321  1  0.50707687  0.62081995  0.00790230  1
  O  O322  1  0.50581882  0.62671903  0.50790331  1
  O  O323  1  0.54863686  0.38526067  0.48270201  1
  O  O324  1  0.49550572  0.38300669  0.99490534  1
  O  O325  1  0.48770658  0.87920356  0.48367328  1
  O  O326  1  0.48937456  0.87867989  1.01640775  1
  O  O327  1  0.99381044  0.37964967  0.49376550  1
  O  O328  1  0.99923340  0.37800978  0.99344460  1
  O  O329  1  0.99615941  0.88248594  0.49095024  1
  O  O330  1  0.99308981  0.88285202  0.99258442  1
  O  O331  1  0.49408797  0.49535840  0.37760938  1
  O  O332  1  0.49209435  0.49515290  0.87961098  1
  O  O333  1  0.48458142  0.99371885  0.37387516  1
  O  O334  1  0.49852698  1.00371858  0.88870094  1
  O  O335  1  0.99048855  0.49184672  0.38274001  1
  O  O336  1  0.99721938  0.48943212  0.88406595  1
  O  O337  1  0.99541983  0.99410192  0.37734595  1
  O  O338  1  0.99125605  0.99147951  0.88499644  1
  O  O339  1  0.00753575  -0.00635961  0.11478142  1
  O  O340  1  0.00289392  0.01024576  0.61814851  1
  O  O341  1  -0.00654304  0.51094469  0.11838659  1
  O  O342  1  0.01386560  0.49044000  0.61776122  1
  O  O343  1  0.49843631  0.01215654  0.13412668  1
  O  O344  1  0.49938015  0.01692132  0.61830269  1
  O  O345  1  0.50371773  0.51118164  0.12070886  1
  O  O346  1  0.50810367  0.50399942  0.62460587  1
  O  O347  1  0.24867697  0.37506648  0.23202475  1
  O  O348  1  0.24319228  0.38365500  0.74700800  1
  O  O349  1  0.24619056  0.88815306  0.24646843  1
  O  O350  1  0.23964886  0.88421618  0.75467198  1
  O  O351  1  0.74599949  0.37236055  0.23507095  1
  O  O352  1  0.74150601  0.38094877  0.74982224  1
  O  O353  1  0.74203445  0.86833438  0.24326041  1
  O  O354  1  0.76032186  0.88099798  0.73001125  1
  O  O355  1  0.25702263  0.11238545  0.24129624  1
  O  O356  1  0.25706651  0.12076492  0.75055460  1
  O  O357  1  0.25661875  0.62899163  0.25560366  1
  O  O358  1  0.23892561  0.60861807  0.75928604  1
  O  O359  1  0.75981861  0.13125432  0.25878143  1
  O  O360  1  0.75870694  0.12161228  0.73500626  1
  O  O361  1  0.75540302  0.62324698  0.25841697  1
  O  O362  1  0.77479813  0.61753046  0.75453094  1
  O  O363  1  0.37848607  0.11815173  0.36095645  1
  O  O364  1  0.36946071  0.13493223  0.85952976  1
  O  O365  1  0.36575973  0.62718136  0.36509465  1
  O  O366  1  0.37111317  0.62038261  0.86870491  1
  O  O367  1  0.86731536  0.12267747  0.36741268  1
  O  O368  1  0.87825274  0.10684296  0.87043749  1
  O  O369  1  0.86859854  0.61819996  0.37149938  1
  O  O370  1  0.89260139  0.60914185  0.86636998  1
  O  O371  1  0.14034432  0.36982476  0.12428904  1
  O  O372  1  0.13375306  0.38063089  0.63094202  1
  O  O373  1  0.13053593  0.88463998  0.12662479  1
  O  O374  1  0.11612493  0.87752877  0.64128449  1
  O  O375  1  0.63189629  0.37871450  0.12876505  1
  O  O376  1  0.62399772  0.38330522  0.63680652  1
  O  O377  1  0.64208603  0.86840344  0.13524274  1
  O  O378  1  0.64128255  0.87722654  0.61527354  1
  O  O379  1  0.11574486  0.25048749  0.25677578  1
  O  O380  1  0.11948628  0.26185525  0.74294825  1
  O  O381  1  0.11073919  0.75123331  0.25320396  1
  O  O382  1  0.13316499  0.76464604  0.74631118  1
  O  O383  1  0.62050002  0.25598404  0.24815944  1
  O  O384  1  0.62832494  0.26308460  0.75313744  1
  O  O385  1  0.61301284  0.75445246  0.25743911  1
  O  O386  1  0.64433289  0.76468330  0.74364366  1
  O  O387  1  0.37634218  0.24116779  0.24087120  1
  O  O388  1  0.36773358  0.23710833  0.73824023  1
  O  O389  1  0.38497985  0.74308813  0.24679201  1
  O  O390  1  0.36797088  0.74878557  0.74465661  1
  O  O391  1  0.87998723  0.24282471  0.24194196  1
  O  O392  1  0.88594087  0.25089829  0.74273795  1
  O  O393  1  0.88478580  0.74273943  0.24678514  1
  O  O394  1  0.88201132  0.74399144  0.73271382  1
  O  O395  1  0.37983795  0.50295973  0.50242498  1
  O  O396  1  0.37964154  0.49723918  0.98772165  1
  O  O397  1  0.37032889  0.99329710  0.49269979  1
  O  O398  1  0.36426489  0.97984866  1.00735272  1
  O  O399  1  0.87729806  0.49496983  0.49866803  1
  O  O400  1  0.88793658  0.49376788  0.99420617  1
  O  O401  1  0.88343813  0.99741811  0.49149575  1
  O  O402  1  0.87654170  0.98955604  0.99483143  1
  O  O403  1  0.11195530  0.00259002  0.00649967  1
  O  O404  1  0.11930749  0.00861940  0.50070102  1
  O  O405  1  0.11558135  0.49660636  -0.00078993  1
  O  O406  1  0.12013234  0.50804328  0.50622756  1
  O  O407  1  0.66181129  0.00296172  0.01241258  1
  O  O408  1  0.62305435  0.01408597  0.49879409  1
  O  O409  1  0.62041864  0.50921726  0.00466835  1
  O  O410  1  0.62919807  0.51891231  0.51011605  1
  O  O411  1  0.36916788  0.36755140  0.11899267  1
  O  O412  1  0.36878289  0.36135353  0.62858131  1
  O  O413  1  0.35602319  0.87553017  0.12340694  1
  O  O414  1  0.37874163  0.86916177  0.60993713  1
  O  O415  1  0.86867418  0.36806468  0.11963966  1
  O  O416  1  0.87322057  0.36983879  0.61743361  1
  O  O417  1  0.86957425  0.86658077  0.12446667  1
  O  O418  1  0.87489530  0.86674341  0.61727062  1
  O  O419  1  0.11872225  0.13936873  0.38151983  1
  O  O420  1  0.12568355  0.12553156  0.88124851  1
  O  O421  1  0.13168053  0.62856386  0.38444490  1
  O  O422  1  0.12835558  0.62027821  0.89012973  1
  O  O423  1  0.63052880  0.12915599  0.37770776  1
  O  O424  1  0.62278083  0.11609809  0.86943941  1
  O  O425  1  0.62796449  0.63060315  0.38201608  1
  O  O426  1  0.63231146  0.62554018  0.88303833  1
