# generated using pymatgen
data_V85Zn86O256
_symmetry_space_group_name_H-M   'P 1'
_cell_length_a   16.94235220
_cell_length_b   16.95142094
_cell_length_c   16.94762112
_cell_angle_alpha   90.01391998
_cell_angle_beta   89.99005213
_cell_angle_gamma   89.96646317
_symmetry_Int_Tables_number   1
_chemical_formula_structural   V85Zn86O256
_chemical_formula_sum   'V85 Zn86 O256'
_cell_volume   4867.30393991
_cell_formula_units_Z   1
loop_
 _symmetry_equiv_pos_site_id
 _symmetry_equiv_pos_as_xyz
  1  'x, y, z'
loop_
 _atom_site_type_symbol
 _atom_site_label
 _atom_site_symmetry_multiplicity
 _atom_site_fract_x
 _atom_site_fract_y
 _atom_site_fract_z
 _atom_site_occupancy
  V  V0  1  0.00102555  0.12814172  0.62734921  1
  V  V1  1  0.25250932  0.49723759  0.74549254  1
  V  V2  1  0.00206616  0.75240330  0.73786684  1
  V  V3  1  0.74713838  0.74993666  0.01149532  1
  V  V4  1  0.12752757  0.62735839  0.49557074  1
  V  V5  1  0.36280460  0.23604420  0.62396672  1
  V  V6  1  0.49381618  0.24414039  0.25677630  1
  V  V7  1  0.37025404  0.24663876  0.11899364  1
  V  V8  1  0.75007787  0.75027657  0.51220315  1
  V  V9  1  0.38505352  0.62502228  0.24201435  1
  V  V10  1  0.61035018  0.00476434  0.62124035  1
  V  V11  1  0.13467235  0.24974275  0.87868606  1
  V  V12  1  0.75478380  0.37823450  0.12826066  1
  V  V13  1  0.50668374  0.85720251  0.36941701  1
  V  V14  1  0.24570341  0.37226798  0.11020437  1
  V  V15  1  0.61177112  0.12494458  0.50138132  1
  V  V16  1  -0.00127629  -0.00205500  0.50187435  1
  V  V17  1  0.74842534  0.12372901  0.88251556  1
  V  V18  1  0.24932066  0.62339148  0.36918754  1
  V  V19  1  0.87152388  0.24501470  0.12535197  1
  V  V20  1  0.87538501  0.37680407  0.49651369  1
  V  V21  1  0.87618822  0.63074783  0.74705564  1
  V  V22  1  0.75654908  0.12785686  0.36635368  1
  V  V23  1  0.87421377  0.25440587  0.62876333  1
  V  V24  1  0.37402243  0.62434542  0.75145294  1
  V  V25  1  0.50004956  0.87968757  0.87379305  1
  V  V26  1  0.74887039  0.37879553  0.62636802  1
  V  V27  1  0.12611297  0.37642409  0.24360926  1
  V  V28  1  0.87834582  0.50626022  0.87730461  1
  V  V29  1  0.49954717  0.62504778  0.62205305  1
  V  V30  1  0.62617144  0.13183152  0.00460587  1
  V  V31  1  0.12896795  0.37424239  0.74373864  1
  V  V32  1  -0.00013872  0.37582911  0.87613147  1
  V  V33  1  0.49971765  0.48677180  0.50277610  1
  V  V34  1  0.38947724  0.49524935  0.87656209  1
  V  V35  1  0.12537685  0.74513725  0.88122927  1
  V  V36  1  0.25342909  0.75027584  0.49202099  1
  V  V37  1  0.74782169  0.49654203  0.25276545  1
  V  V38  1  -0.00025620  0.12360007  0.13031132  1
  V  V39  1  0.25129328  0.87434851  0.62446327  1
  V  V40  1  0.24883525  -0.00952200  0.25604580  1
  V  V41  1  0.38473271  0.87861560  0.49910185  1
  V  V42  1  0.86807732  0.87426587  0.00325572  1
  V  V43  1  0.61472023  0.61509305  0.01385702  1
  V  V44  1  0.87695858  0.00341019  0.37321919  1
  V  V45  1  0.01399544  0.62443195  0.12358378  1
  V  V46  1  0.87632321  -0.00231252  0.87468312  1
  V  V47  1  0.63082316  0.87632022  0.74038622  1
  V  V48  1  0.39376850  0.37184843  -0.00721258  1
  V  V49  1  0.00045498  -0.00077027  0.00192086  1
  V  V50  1  0.00134337  0.87255680  0.87410239  1
  V  V51  1  0.50037678  0.75260618  0.74900987  1
  V  V52  1  -0.00280576  0.25252805  0.75580183  1
  V  V53  1  0.87298574  0.12807443  0.75432781  1
  V  V54  1  0.00558229  0.37558731  0.37256734  1
  V  V55  1  0.24244491  0.13496820  0.37601192  1
  V  V56  1  0.38713188  0.00355682  0.37567841  1
  V  V57  1  0.60015792  0.38416865  0.23441621  1
  V  V58  1  0.62941899  0.62833317  0.49722153  1
  V  V59  1  0.75112074  0.24666260  0.49912844  1
  V  V60  1  0.13294943  0.12656709  0.00265133  1
  V  V61  1  0.25035049  0.00528337  0.75281948  1
  V  V62  1  0.62608664  0.50054372  0.63229377  1
  V  V63  1  0.01669481  0.75434021  0.25524733  1
  V  V64  1  0.86526699  0.87448842  0.51418005  1
  V  V65  1  0.24967555  0.62282305  0.88309180  1
  V  V66  1  0.69293000  0.68373603  0.31790915  1
  V  V67  1  0.12598998  -0.01052945  0.13186007  1
  V  V68  1  0.62898520  -0.00889454  0.12963279  1
  V  V69  1  0.36966986  0.87434911  0.00262191  1
  V  V70  1  0.00144929  0.24869705  0.25039698  1
  V  V71  1  0.62933666  0.75056821  0.87694180  1
  V  V72  1  0.01382880  0.50572718  0.00406830  1
  V  V73  1  0.24801157  0.49807404  0.24078251  1
  V  V74  1  0.34383706  0.37007706  0.50925002  1
  V  V75  1  0.87058481  0.50940131  0.37497533  1
  V  V76  1  0.50202560  0.00145270  0.00357305  1
  V  V77  1  0.87673146  0.37377324  0.00043723  1
  V  V78  1  0.75082568  -0.00126717  0.73806997  1
  V  V79  1  0.87494371  0.75103613  0.12937247  1
  V  V80  1  0.00047509  0.62728116  0.62251087  1
  V  V81  1  0.37514115  0.74980839  0.62511413  1
  V  V82  1  0.00011107  0.50373542  0.49727055  1
  V  V83  1  0.12529610  0.00205203  0.62515320  1
  V  V84  1  0.75192900  -0.01051262  0.24974774  1
  Zn  Zn85  1  0.13525361  0.14103782  0.50279574  1
  Zn  Zn86  1  0.24926381  0.74557512  0.00413047  1
  Zn  Zn87  1  0.62450267  0.25524996  0.37384951  1
  Zn  Zn88  1  0.49501904  0.36614310  0.38675019  1
  Zn  Zn89  1  0.25847647  0.12950183  0.87981671  1
  Zn  Zn90  1  0.38713503  0.11940503  0.75057456  1
  Zn  Zn91  1  0.37386127  0.00433997  0.87657653  1
  Zn  Zn92  1  0.75199730  0.63013853  0.87652422  1
  Zn  Zn93  1  0.75128621  0.50357974  0.75020082  1
  Zn  Zn94  1  0.49717399  0.24082635  0.74251206  1
  Zn  Zn95  1  0.70153352  0.28646434  -0.04283467  1
  Zn  Zn96  1  0.58423969  0.33248117  0.81596520  1
  Zn  Zn97  1  0.37084584  0.12328068  0.24858150  1
  Zn  Zn98  1  0.12666106  0.87335930  0.74845091  1
  Zn  Zn99  1  0.00973817  0.87736135  0.36776856  1
  Zn  Zn100  1  0.62505202  0.86071610  0.24897049  1
  Zn  Zn101  1  0.38148925  0.74834733  0.12483837  1
  Zn  Zn102  1  0.37371060  0.49344402  0.37549966  1
  Zn  Zn103  1  0.87503278  0.63032493  0.25221511  1
  Zn  Zn104  1  0.12971705  0.49617841  0.62136405  1
  Zn  Zn105  1  0.49872480  0.12363911  0.12771992  1
  Zn  Zn106  1  0.24989595  0.86830189  0.13319063  1
  Zn  Zn107  1  0.18834114  0.18621246  0.19206825  1
  Zn  Zn108  1  0.19152476  0.19115148  0.68679368  1
  Zn  Zn109  1  0.19315347  0.68869221  0.18428183  1
  Zn  Zn110  1  0.18665343  0.68616364  0.68823937  1
  Zn  Zn111  1  0.68218390  0.18961707  0.18728942  1
  Zn  Zn112  1  0.68379842  0.18507982  0.69119403  1
  Zn  Zn113  1  0.55460361  0.68179954  0.18230345  1
  Zn  Zn114  1  0.68852186  0.68725585  0.68672609  1
  Zn  Zn115  1  0.31415007  0.31415488  0.31322272  1
  Zn  Zn116  1  0.31935627  0.31306301  0.80639348  1
  Zn  Zn117  1  0.31890742  0.81048600  0.31324805  1
  Zn  Zn118  1  0.31137364  0.81527156  0.81468417  1
  Zn  Zn119  1  0.81839089  0.31343491  0.31168065  1
  Zn  Zn120  1  0.79614916  0.32013008  0.81752830  1
  Zn  Zn121  1  0.82309984  0.81959972  0.31660935  1
  Zn  Zn122  1  0.81299590  0.81174811  0.81103744  1
  Zn  Zn123  1  0.18283071  0.44281805  0.42820198  1
  Zn  Zn124  1  0.19087234  0.43808772  0.92963935  1
  Zn  Zn125  1  0.18823365  0.94198000  0.43493512  1
  Zn  Zn126  1  0.18467014  0.93814921  0.93740491  1
  Zn  Zn127  1  0.68165962  0.43435619  0.43323951  1
  Zn  Zn128  1  0.69348244  0.45012120  0.93647752  1
  Zn  Zn129  1  0.68593673  0.93992548  0.43671010  1
  Zn  Zn130  1  0.68711169  0.94077817  0.93504095  1
  Zn  Zn131  1  0.31275693  0.05766386  0.06540257  1
  Zn  Zn132  1  0.30966097  0.05977864  0.55523613  1
  Zn  Zn133  1  0.31680697  0.55523426  0.06119773  1
  Zn  Zn134  1  0.31482701  0.55886665  0.56218619  1
  Zn  Zn135  1  0.81210151  0.06104108  0.06703965  1
  Zn  Zn136  1  0.81428104  0.06619920  0.56203575  1
  Zn  Zn137  1  0.81104858  0.56660546  0.06508902  1
  Zn  Zn138  1  0.81333746  0.56813581  0.56109390  1
  Zn  Zn139  1  0.43124016  0.43176922  0.18913585  1
  Zn  Zn140  1  0.43958998  0.42710080  0.68700094  1
  Zn  Zn141  1  0.43924790  0.93308766  0.18962792  1
  Zn  Zn142  1  0.43709090  0.94074488  0.68822025  1
  Zn  Zn143  1  0.93643838  0.44244997  0.18790928  1
  Zn  Zn144  1  0.93912090  0.44175290  0.68638495  1
  Zn  Zn145  1  0.93671692  0.93453146  0.19023243  1
  Zn  Zn146  1  0.93629911  0.93592632  0.68662980  1
  Zn  Zn147  1  0.06443454  0.06218988  0.31207350  1
  Zn  Zn148  1  0.06502091  0.06354112  0.81328486  1
  Zn  Zn149  1  0.06443264  0.56405939  0.30789148  1
  Zn  Zn150  1  0.06474109  0.56313294  0.81239869  1
  Zn  Zn151  1  0.56704271  0.06481436  0.31525738  1
  Zn  Zn152  1  0.56086361  0.07693222  0.81570820  1
  Zn  Zn153  1  0.56065164  0.54896898  0.31851044  1
  Zn  Zn154  1  0.56390982  0.56715410  0.81251651  1
  Zn  Zn155  1  0.42722128  0.19121650  0.44218386  1
  Zn  Zn156  1  0.44695334  0.19470144  0.92594783  1
  Zn  Zn157  1  0.43620285  0.68078121  0.43493565  1
  Zn  Zn158  1  0.43876927  0.68894541  0.93786462  1
  Zn  Zn159  1  0.96004817  0.19590256  0.44798944  1
  Zn  Zn160  1  0.94018922  0.18637652  0.94155299  1
  Zn  Zn161  1  0.93525482  0.69423166  0.43748050  1
  Zn  Zn162  1  0.94080739  0.68948427  0.93925987  1
  Zn  Zn163  1  0.06261487  0.31171143  0.06220999  1
  Zn  Zn164  1  0.06408972  0.31317641  0.56239828  1
  Zn  Zn165  1  0.06003863  0.81032037  0.06160710  1
  Zn  Zn166  1  0.08001675  0.82956181  0.52920633  1
  Zn  Zn167  1  0.55350143  0.32639574  0.07747582  1
  Zn  Zn168  1  0.57217455  0.29722906  0.59906932  1
  Zn  Zn169  1  0.56039183  0.81470550  0.06149787  1
  Zn  Zn170  1  0.56495545  0.81264483  0.55974752  1
  O  O171  1  0.11876668  0.11861029  0.11983679  1
  O  O172  1  0.11844501  0.11989145  0.62546015  1
  O  O173  1  0.11288375  0.62712365  0.12457023  1
  O  O174  1  0.11519971  0.62154755  0.61910170  1
  O  O175  1  0.62303027  0.11354959  0.11985252  1
  O  O176  1  0.63073026  0.11754403  0.60940363  1
  O  O177  1  0.62427945  0.62220794  0.11359935  1
  O  O178  1  0.62042647  0.61916422  0.61626774  1
  O  O179  1  0.37135954  0.37363505  0.39506268  1
  O  O180  1  0.36764636  0.37995044  0.88781454  1
  O  O181  1  0.38726456  0.87955267  0.38054763  1
  O  O182  1  0.38536452  0.87922049  0.88069009  1
  O  O183  1  0.88567332  0.38575927  0.37845533  1
  O  O184  1  0.87890632  0.38368455  0.88255788  1
  O  O185  1  0.88438497  0.88882921  0.38564880  1
  O  O186  1  0.88313979  0.87841168  0.88054262  1
  O  O187  1  0.25859993  0.00304564  0.37013201  1
  O  O188  1  0.24834285  0.00112731  0.86488072  1
  O  O189  1  0.25170066  0.50604235  0.36005400  1
  O  O190  1  0.25764007  0.50751351  0.86515633  1
  O  O191  1  0.75685608  0.00826505  0.36916766  1
  O  O192  1  0.75820649  0.00646680  0.86694812  1
  O  O193  1  0.76085544  0.49190421  0.36836941  1
  O  O194  1  0.76795488  0.50996338  0.87111867  1
  O  O195  1  0.25353020  0.48902172  0.13364095  1
  O  O196  1  0.24708927  0.50949081  0.64125407  1
  O  O197  1  0.24146413  0.99749465  0.13637429  1
  O  O198  1  0.24197201  0.99596813  0.62894195  1
  O  O199  1  0.76047856  0.48955316  0.13681481  1
  O  O200  1  0.74380999  0.49698231  0.62167709  1
  O  O201  1  0.74474419  1.00439506  0.14006039  1
  O  O202  1  0.74546120  1.00681689  0.63608436  1
  O  O203  1  0.00680568  0.37357954  0.25215381  1
  O  O204  1  0.00471216  0.37242205  0.75796796  1
  O  O205  1  0.00238621  0.85997127  0.24977317  1
  O  O206  1  -0.00030750  0.86698603  0.75498891  1
  O  O207  1  0.48965787  0.35841257  0.26759174  1
  O  O208  1  0.49187454  0.36337732  0.75836313  1
  O  O209  1  0.50428983  0.87481873  0.26533655  1
  O  O210  1  0.50795429  0.87272464  0.75658840  1
  O  O211  1  0.49808108  0.13345727  0.24997018  1
  O  O212  1  0.50116173  0.12192932  0.73746224  1
  O  O213  1  0.48916121  0.61308380  0.25237648  1
  O  O214  1  0.49480102  0.63413458  0.74305152  1
  O  O215  1  1.00644663  0.13334484  0.23952220  1
  O  O216  1  0.99397167  0.13196726  0.74713746  1
  O  O217  1  0.99929728  0.63299848  0.23887584  1
  O  O218  1  0.99817893  0.63142193  0.74127457  1
  O  O219  1  0.38070518  0.26170720  0.00393285  1
  O  O220  1  0.36439086  0.26347728  0.50688586  1
  O  O221  1  0.37330438  0.76202818  -0.00300316  1
  O  O222  1  0.37014612  0.75266751  0.50525744  1
  O  O223  1  0.88607035  0.26523077  0.00867633  1
  O  O224  1  0.87110191  0.25812400  0.50656141  1
  O  O225  1  0.87013487  0.75666192  0.00441243  1
  O  O226  1  0.86770591  0.76559471  0.49629265  1
  O  O227  1  0.06627611  0.22770021  0.49498124  1
  O  O228  1  0.11747006  0.23961202  0.99074679  1
  O  O229  1  0.14014998  0.73305176  0.50882660  1
  O  O230  1  0.12699835  0.75405499  0.98566630  1
  O  O231  1  0.63450580  0.23965127  0.50394363  1
  O  O232  1  0.61908120  0.23542895  1.01494498  1
  O  O233  1  0.63173227  0.73734262  0.50200764  1
  O  O234  1  0.63274391  0.75025158  0.99329501  1
  O  O235  1  0.48525290  0.24965711  0.13528369  1
  O  O236  1  0.46808278  0.25700357  0.61970984  1
  O  O237  1  0.49500364  0.75871116  0.13037113  1
  O  O238  1  0.49509804  0.74625312  0.62950843  1
  O  O239  1  0.99483081  0.24153197  0.12950799  1
  O  O240  1  0.99111586  0.24985771  0.64023929  1
  O  O241  1  0.99682548  0.74163792  0.13196244  1
  O  O242  1  1.00803498  0.74560582  0.63542021  1
  O  O243  1  -0.01302717  0.26360848  0.35858498  1
  O  O244  1  0.00528279  0.25519610  0.87041732  1
  O  O245  1  -0.00205636  0.74764019  0.35737786  1
  O  O246  1  0.00749959  0.75373310  0.86715118  1
  O  O247  1  0.50045183  0.24552100  0.37105188  1
  O  O248  1  0.52337181  0.24081808  0.86060811  1
  O  O249  1  0.49806334  0.75829574  0.37520157  1
  O  O250  1  0.50785451  0.76269031  0.86983473  1
  O  O251  1  0.24784851  0.12386547  0.48295797  1
  O  O252  1  0.23617889  0.11756716  1.00012188  1
  O  O253  1  0.24748493  0.62721646  0.49130469  1
  O  O254  1  0.25783136  0.62294074  0.98667864  1
  O  O255  1  0.75310595  0.13826211  0.49304024  1
  O  O256  1  0.74073198  0.11768197  0.99581260  1
  O  O257  1  0.74270678  0.63497339  0.49967707  1
  O  O258  1  0.74048624  0.63499877  0.99889760  1
  O  O259  1  0.24781977  0.37687432  0.00885297  1
  O  O260  1  0.24528051  0.38141346  0.50199423  1
  O  O261  1  0.26232626  0.87728451  -0.00274122  1
  O  O262  1  0.26268610  0.86505354  0.50399364  1
  O  O263  1  0.76167648  0.37645644  0.00922984  1
  O  O264  1  0.75482793  0.36523800  0.50228125  1
  O  O265  1  0.76291960  0.87146480  -0.00678706  1
  O  O266  1  0.75843897  0.86721029  0.49199423  1
  O  O267  1  0.13199409  0.48673806  0.25094328  1
  O  O268  1  0.13219835  0.49063749  0.75116940  1
  O  O269  1  0.13244206  0.99884569  0.24283022  1
  O  O270  1  0.12870937  0.99706778  0.73960197  1
  O  O271  1  0.63948116  0.49279657  0.25540980  1
  O  O272  1  0.62988021  0.50852518  0.73715024  1
  O  O273  1  0.63383459  1.00001873  0.24496045  1
  O  O274  1  0.63271355  0.99456367  0.74110820  1
  O  O275  1  0.36834774  0.00108227  0.25862575  1
  O  O276  1  0.36406613  0.00000634  0.75157655  1
  O  O277  1  0.36700403  0.50477747  0.25097742  1
  O  O278  1  0.36874252  0.50340050  0.75534940  1
  O  O279  1  0.86725687  -0.00440158  0.25958471  1
  O  O280  1  0.86860029  0.00583516  0.75398268  1
  O  O281  1  0.86617995  0.50542492  0.25754840  1
  O  O282  1  0.88143608  0.51464924  0.75792932  1
  O  O283  1  0.11172734  0.37684069  0.36548849  1
  O  O284  1  0.11810901  0.36755406  0.86793549  1
  O  O285  1  0.10903149  0.86762547  0.42151339  1
  O  O286  1  0.11605552  0.86861430  0.87198447  1
  O  O287  1  0.61745331  0.37424588  0.35788485  1
  O  O288  1  0.67853820  0.35956549  0.87006613  1
  O  O289  1  0.60903387  0.87727410  0.37751562  1
  O  O290  1  0.62050379  0.86776183  0.86721858  1
  O  O291  1  0.37636767  0.13278963  0.12493136  1
  O  O292  1  0.36565959  0.13256840  0.62152146  1
  O  O293  1  0.37506364  0.61979014  0.13868851  1
  O  O294  1  0.38064310  0.62985290  0.63030319  1
  O  O295  1  0.88824575  0.13243322  0.11719464  1
  O  O296  1  0.87752897  0.13386088  0.63667385  1
  O  O297  1  0.88103391  0.63936500  0.12639473  1
  O  O298  1  0.89085501  0.62310004  0.63086973  1
  O  O299  1  0.26158843  0.25735182  0.13022710  1
  O  O300  1  0.26016878  0.25449907  0.62345454  1
  O  O301  1  0.25908268  0.75255907  0.12027765  1
  O  O302  1  0.25695180  0.75255493  0.61725236  1
  O  O303  1  0.76806298  0.24964201  0.13251855  1
  O  O304  1  0.75750401  0.25893823  0.61726085  1
  O  O305  1  0.76044515  0.75422237  0.11219207  1
  O  O306  1  0.74873372  0.74991951  0.61212883  1
  O  O307  1  0.24961349  0.23345214  0.36453158  1
  O  O308  1  0.23696382  0.24945327  0.86990238  1
  O  O309  1  0.25697446  0.74210037  0.38592240  1
  O  O310  1  0.24272419  0.74153740  0.87442428  1
  O  O311  1  0.75176627  0.24563813  0.38096167  1
  O  O312  1  0.76711581  0.22723045  0.88035419  1
  O  O313  1  0.75100727  0.74524032  0.37551693  1
  O  O314  1  0.74407372  0.75159150  0.88421343  1
  O  O315  1  0.00839619  0.11735801  0.00995230  1
  O  O316  1  -0.02281042  0.10310354  0.51616670  1
  O  O317  1  -0.00277727  0.62066982  0.01397533  1
  O  O318  1  0.00792445  0.62681894  0.50381015  1
  O  O319  1  0.50808520  0.11194084  0.00059198  1
  O  O320  1  0.51386595  0.12886885  0.49523297  1
  O  O321  1  0.51588407  0.63161730  -0.00303245  1
  O  O322  1  0.50603032  0.61760147  0.50515157  1
  O  O323  1  0.51056150  0.38555735  0.50637733  1
  O  O324  1  0.49256330  0.37385770  0.99206003  1
  O  O325  1  0.49073703  0.86851693  0.49033767  1
  O  O326  1  0.49532940  0.88486490  0.99160531  1
  O  O327  1  0.99645830  0.38532133  0.49006481  1
  O  O328  1  0.99499132  0.38480346  0.99649484  1
  O  O329  1  0.98129365  0.88923434  0.51223273  1
  O  O330  1  0.99065106  0.87914320  0.99359768  1
  O  O331  1  0.49307543  0.49405949  0.38959524  1
  O  O332  1  0.48840602  0.50369322  0.86864883  1
  O  O333  1  0.48921321  0.99838895  0.37197275  1
  O  O334  1  0.50618235  0.98950943  0.88255939  1
  O  O335  1  0.99486796  0.49590002  0.37751059  1
  O  O336  1  0.99323665  0.49850321  0.88188165  1
  O  O337  1  0.99506628  1.00159016  0.38465984  1
  O  O338  1  0.99635739  0.99266849  0.87951639  1
  O  O339  1  0.00615444  0.00588633  0.12500808  1
  O  O340  1  0.00806303  0.00428397  0.62526781  1
  O  O341  1  -0.00478897  0.51604190  0.11934641  1
  O  O342  1  0.00339417  0.50936713  0.61456279  1
  O  O343  1  0.50806978  0.00009247  0.11906253  1
  O  O344  1  0.51159918  -0.00623244  0.62032806  1
  O  O345  1  0.53891930  0.42805362  0.15456826  1
  O  O346  1  0.50760198  0.50536063  0.62115829  1
  O  O347  1  0.24398984  0.37946315  0.24224291  1
  O  O348  1  0.23977105  0.38443010  0.75718857  1
  O  O349  1  0.25431534  0.88488284  0.25382280  1
  O  O350  1  0.24883540  0.88422033  0.74186029  1
  O  O351  1  0.75203334  0.38285954  0.24458595  1
  O  O352  1  0.76373902  0.38506573  0.72894607  1
  O  O353  1  0.74421319  0.88599827  0.26048325  1
  O  O354  1  0.74151161  0.88501113  0.75614262  1
  O  O355  1  0.24949692  0.11201862  0.25961824  1
  O  O356  1  0.24533662  0.11131007  0.75238634  1
  O  O357  1  0.25467569  0.61598901  0.25299335  1
  O  O358  1  0.25691323  0.62029005  0.75850471  1
  O  O359  1  0.74524782  0.12309715  0.26385916  1
  O  O360  1  0.75248641  0.11795988  0.75831084  1
  O  O361  1  0.75032996  0.61993545  0.26038461  1
  O  O362  1  0.76287756  0.62622303  0.75026446  1
  O  O363  1  0.36553552  0.11645302  0.37525771  1
  O  O364  1  0.37375561  0.12205911  0.87287901  1
  O  O365  1  0.36431795  0.61829277  0.36617116  1
  O  O366  1  0.37084649  0.61807119  0.86926956  1
  O  O367  1  0.86942935  0.11198546  0.38338916  1
  O  O368  1  0.87475321  0.11445456  0.87329340  1
  O  O369  1  0.88203068  0.61276767  0.37508036  1
  O  O370  1  0.87918122  0.62094749  0.86815081  1
  O  O371  1  0.13322603  0.37075647  0.13079641  1
  O  O372  1  0.11724753  0.37690533  0.63893555  1
  O  O373  1  0.12698330  0.88692368  0.11678587  1
  O  O374  1  0.13340006  0.88457515  0.62140127  1
  O  O375  1  0.65388552  0.35195901  0.13088657  1
  O  O376  1  0.63874259  0.39260264  0.60962727  1
  O  O377  1  0.62500874  0.88708066  0.12936935  1
  O  O378  1  0.62359697  0.88104673  0.63486706  1
  O  O379  1  0.11280189  0.26167120  0.24386933  1
  O  O380  1  0.11788972  0.25621386  0.75732828  1
  O  O381  1  0.11538619  0.74783151  0.24794076  1
  O  O382  1  0.11796608  0.75236673  0.75817005  1
  O  O383  1  0.60992204  0.25984280  0.24832465  1
  O  O384  1  0.61439924  0.26837770  0.71001592  1
  O  O385  1  0.63415180  0.73931124  0.25501386  1
  O  O386  1  0.62251271  0.75838090  0.75464306  1
  O  O387  1  0.37841477  0.24634258  0.24234967  1
  O  O388  1  0.36782472  0.23978620  0.73664301  1
  O  O389  1  0.37150665  0.72755863  0.25120590  1
  O  O390  1  0.38045767  0.74687199  0.74534888  1
  O  O391  1  0.89011587  0.25705505  0.23732045  1
  O  O392  1  0.87712352  0.24831748  0.75018559  1
  O  O393  1  0.88039314  0.75046717  0.24225274  1
  O  O394  1  0.88607693  0.73915484  0.75486302  1
  O  O395  1  0.38110862  0.48734273  0.50093266  1
  O  O396  1  0.37464670  0.48362385  0.99117048  1
  O  O397  1  0.37132159  0.98748105  0.49008323  1
  O  O398  1  0.38537095  0.99301155  0.99910902  1
  O  O399  1  0.87933159  0.49677038  0.49298917  1
  O  O400  1  0.88219442  0.49441952  0.99427098  1
  O  O401  1  0.87254752  0.98993055  0.49553489  1
  O  O402  1  0.88040937  0.99226774  0.99749809  1
  O  O403  1  0.11751575  0.00642474  0.00741912  1
  O  O404  1  0.11431091  0.00949834  0.51283636  1
  O  O405  1  0.11220257  0.49730704  -0.00826278  1
  O  O406  1  0.12053878  0.51223383  0.49984237  1
  O  O407  1  0.62001774  0.00199541  0.00960257  1
  O  O408  1  0.63270019  0.01525275  0.50714762  1
  O  O409  1  0.62579064  0.51627881  -0.00622904  1
  O  O410  1  0.61977804  0.51219804  0.50331706  1
  O  O411  1  0.36827305  0.36911583  0.10939309  1
  O  O412  1  0.36655426  0.37924884  0.60936051  1
  O  O413  1  0.37169159  0.87750401  0.11472618  1
  O  O414  1  0.37233087  0.87068954  0.61674212  1
  O  O415  1  0.87311686  0.36915864  0.11885366  1
  O  O416  1  0.87220338  0.37520144  0.61435587  1
  O  O417  1  0.88325660  0.86292680  0.11507747  1
  O  O418  1  0.86515155  0.88130621  0.61351021  1
  O  O419  1  0.13875173  0.11968921  0.37697120  1
  O  O420  1  0.12409236  0.13325481  0.88476365  1
  O  O421  1  0.13905922  0.62122456  0.38048630  1
  O  O422  1  0.13597048  0.63316168  0.86933641  1
  O  O423  1  0.63693824  0.12854503  0.38813303  1
  O  O424  1  0.63821944  0.11285708  0.89099812  1
  O  O425  1  0.62883632  0.62562178  0.37781282  1
  O  O426  1  0.62731324  0.64196607  0.87446406  1
