# generated using pymatgen
data_V85Zn86O256
_symmetry_space_group_name_H-M   'P 1'
_cell_length_a   16.95479981
_cell_length_b   16.97651545
_cell_length_c   16.99017454
_cell_angle_alpha   90.03077945
_cell_angle_beta   89.89792126
_cell_angle_gamma   90.13149147
_symmetry_Int_Tables_number   1
_chemical_formula_structural   V85Zn86O256
_chemical_formula_sum   'V85 Zn86 O256'
_cell_volume   4890.31872490
_cell_formula_units_Z   1
loop_
 _symmetry_equiv_pos_site_id
 _symmetry_equiv_pos_as_xyz
  1  'x, y, z'
loop_
 _atom_site_type_symbol
 _atom_site_label
 _atom_site_symmetry_multiplicity
 _atom_site_fract_x
 _atom_site_fract_y
 _atom_site_fract_z
 _atom_site_occupancy
  V  V0  1  0.75199532  0.62545714  0.37180409  1
  V  V1  1  -0.00231222  -0.00343959  -0.00339338  1
  V  V2  1  -0.00244142  0.12737371  0.12422486  1
  V  V3  1  0.75479595  0.49491430  0.24893320  1
  V  V4  1  0.50091306  0.63213570  0.63064041  1
  V  V5  1  0.36609953  0.87090103  0.49889787  1
  V  V6  1  0.25063393  0.12570871  0.87733191  1
  V  V7  1  0.35918225  0.24398691  0.11981914  1
  V  V8  1  0.62653127  0.74980721  0.37379148  1
  V  V9  1  0.50156347  0.37311791  0.37386059  1
  V  V10  1  0.49979794  0.24979006  0.75202683  1
  V  V11  1  0.12508621  0.51767026  0.08284629  1
  V  V12  1  0.24961146  0.37346221  0.62865217  1
  V  V13  1  0.01016954  0.75904122  0.74515668  1
  V  V14  1  0.62781714  0.24618532  0.87984571  1
  V  V15  1  0.13431038  0.63393964  0.49975010  1
  V  V16  1  0.86925892  0.25235027  0.11985472  1
  V  V17  1  0.74832114  0.88047169  0.12508825  1
  V  V18  1  0.13539214  0.74931242  0.88452715  1
  V  V19  1  0.24869590  0.00314660  0.25261144  1
  V  V20  1  0.63202503  0.87765249  0.25193868  1
  V  V21  1  0.37348046  0.50066924  0.87743141  1
  V  V22  1  -0.00357424  0.62347936  0.62661108  1
  V  V23  1  0.61116855  0.00314039  0.12920105  1
  V  V24  1  0.61952158  0.62612223  -0.00615571  1
  V  V25  1  0.89611396  0.62743042  0.24806539  1
  V  V26  1  0.62965088  0.25112909  0.38151083  1
  V  V27  1  0.86929176  0.24848670  0.61714989  1
  V  V28  1  0.37209240  0.62706747  0.75341340  1
  V  V29  1  0.49161471  0.62202175  0.13355853  1
  V  V30  1  0.12266291  0.37588691  0.75188477  1
  V  V31  1  0.75064119  0.37365798  0.61801348  1
  V  V32  1  0.74328739  0.87613212  0.62894157  1
  V  V33  1  0.80436784  0.42281994  0.07466936  1
  V  V34  1  -0.00162029  0.24870548  0.75024875  1
  V  V35  1  -0.01391205  0.38512540  0.88351077  1
  V  V36  1  0.37078768  0.75154946  0.62673118  1
  V  V37  1  0.12440367  -0.00093205  0.12510611  1
  V  V38  1  0.50199736  0.00117281  0.50007283  1
  V  V39  1  0.36876699  0.50520049  0.37036591  1
  V  V40  1  0.61151370  0.86246359  0.75659506  1
  V  V41  1  0.12417251  0.49869156  0.62618438  1
  V  V42  1  0.37443174  0.12137320  0.75277916  1
  V  V43  1  0.86998980  -0.00124999  0.36992307  1
  V  V44  1  -0.00042009  -0.00043756  0.49829215  1
  V  V45  1  0.62487411  0.37522083  0.75162842  1
  V  V46  1  0.12587408  -0.00605815  0.63064396  1
  V  V47  1  0.86858409  0.62577583  0.76128349  1
  V  V48  1  0.37393744  0.76878702  0.13148292  1
  V  V49  1  0.86820055  0.12248385  0.75268910  1
  V  V50  1  0.50222234  0.24468077  0.23936455  1
  V  V51  1  0.87161560  0.87399446  0.49863582  1
  V  V52  1  0.38375410  -0.00593238  0.88978311  1
  V  V53  1  0.02736840  0.39860515  0.35294200  1
  V  V54  1  0.87616746  0.49663654  0.37330694  1
  V  V55  1  0.86999126  0.74827845  0.62531448  1
  V  V56  1  0.37655307  0.37412356  0.50275535  1
  V  V57  1  0.50045951  0.87565936  0.37677773  1
  V  V58  1  0.12392900  0.24789783  0.37279523  1
  V  V59  1  0.12167168  0.86541340  0.24740323  1
  V  V60  1  -0.00226868  0.86526050  0.36949335  1
  V  V61  1  0.61768743  0.50405912  0.12310352  1
  V  V62  1  0.62621621  0.62470302  0.49941230  1
  V  V63  1  0.00074320  0.24915014  0.25018118  1
  V  V64  1  -0.00118525  0.12497519  0.62542530  1
  V  V65  1  0.24916644  -0.01116324  0.75300507  1
  V  V66  1  0.86515838  0.12240450  0.24793830  1
  V  V67  1  0.61444964  0.11707976  0.00391740  1
  V  V68  1  0.49956287  0.49979730  0.50201431  1
  V  V69  1  0.36014906  0.37329985  0.00212503  1
  V  V70  1  0.50092782  0.12349631  0.62564105  1
  V  V71  1  0.74571382  0.74768803  -0.01328262  1
  V  V72  1  0.75221316  0.50260631  0.76069102  1
  V  V73  1  0.12792272  0.12634048  0.00051953  1
  V  V74  1  0.12389118  0.25046016  0.88065427  1
  V  V75  1  0.75314897  0.12999659  0.38470954  1
  V  V76  1  0.62567593  0.37399339  0.24302859  1
  V  V77  1  -0.00128281  0.49726085  0.50259211  1
  V  V78  1  0.12574317  0.12347415  0.50185614  1
  V  V79  1  0.24980808  0.24678482  0.50239926  1
  V  V80  1  0.62684669  0.50031464  0.62702308  1
  V  V81  1  0.37511231  0.24890079  0.62642953  1
  V  V82  1  0.87899085  0.75217768  0.12955104  1
  V  V83  1  0.50036143  0.37466050  0.88801114  1
  V  V84  1  0.49725442  0.85373111  0.88980486  1
  Zn  Zn85  1  0.25121986  0.88046989  0.11593079  1
  Zn  Zn86  1  0.25451355  0.12401530  0.37511599  1
  Zn  Zn87  1  0.87118858  -0.00247373  0.87588288  1
  Zn  Zn88  1  0.74941384  0.75017035  0.49853773  1
  Zn  Zn89  1  0.86875134  0.87890515  -0.00333857  1
  Zn  Zn90  1  0.26989310  0.64520073  0.34827139  1
  Zn  Zn91  1  0.74775349  0.24891892  0.00885189  1
  Zn  Zn92  1  0.49682291  0.74266962  0.25731530  1
  Zn  Zn93  1  0.74141867  -0.00270770  0.75887329  1
  Zn  Zn94  1  0.37521087  0.00393514  0.37478418  1
  Zn  Zn95  1  0.00294676  0.88053469  0.86523005  1
  Zn  Zn96  1  0.87526122  0.37065018  0.49405023  1
  Zn  Zn97  1  0.62279414  -0.00117618  0.62999559  1
  Zn  Zn98  1  0.18054545  0.42004206  0.20977733  1
  Zn  Zn99  1  0.01157153  0.63841851  0.09205798  1
  Zn  Zn100  1  0.74896842  0.11892646  0.88244235  1
  Zn  Zn101  1  0.13425679  0.75167156  0.37764258  1
  Zn  Zn102  1  0.26092285  0.74678924  -0.00292164  1
  Zn  Zn103  1  0.24781302  0.50447013  0.75369782  1
  Zn  Zn104  1  0.38213172  0.12152607  0.24797537  1
  Zn  Zn105  1  0.62972867  0.12847840  0.50444273  1
  Zn  Zn106  1  0.24326380  0.86707631  0.62446107  1
  Zn  Zn107  1  0.18547669  0.18717863  0.19012792  1
  Zn  Zn108  1  0.18699324  0.18356644  0.69176860  1
  Zn  Zn109  1  0.19188857  0.68016382  0.18224546  1
  Zn  Zn110  1  0.19037127  0.68412033  0.68635745  1
  Zn  Zn111  1  0.68767372  0.18320393  0.18985590  1
  Zn  Zn112  1  0.68754330  0.18842030  0.68946667  1
  Zn  Zn113  1  0.69139533  0.68846179  0.18542240  1
  Zn  Zn114  1  0.68677327  0.68901332  0.69107063  1
  Zn  Zn115  1  0.31465835  0.30645133  0.31714133  1
  Zn  Zn116  1  0.31044365  0.31033870  0.81564415  1
  Zn  Zn117  1  0.31115811  0.81630876  0.30767047  1
  Zn  Zn118  1  0.31959952  0.81035742  0.81284993  1
  Zn  Zn119  1  0.81547215  0.31269455  0.30843776  1
  Zn  Zn120  1  0.80884623  0.30946646  0.80742253  1
  Zn  Zn121  1  0.81260487  0.81026570  0.30744664  1
  Zn  Zn122  1  0.81378937  0.81793656  0.81206940  1
  Zn  Zn123  1  0.19094413  0.43953079  0.44362967  1
  Zn  Zn124  1  0.19089004  0.43324280  0.93227784  1
  Zn  Zn125  1  0.18542088  0.93570698  0.43489321  1
  Zn  Zn126  1  0.18792855  0.92707344  0.93512032  1
  Zn  Zn127  1  0.68801517  0.43644911  0.43690118  1
  Zn  Zn128  1  0.68420992  0.44035482  0.93911770  1
  Zn  Zn129  1  0.68814028  0.94093149  0.44052078  1
  Zn  Zn130  1  0.68058809  0.93505928  0.93772343  1
  Zn  Zn131  1  0.31078439  0.06562733  0.06409099  1
  Zn  Zn132  1  0.31386751  0.05794284  0.56308025  1
  Zn  Zn133  1  0.30513771  0.56173134  0.05993280  1
  Zn  Zn134  1  0.31228059  0.56207307  0.56503444  1
  Zn  Zn135  1  0.80510293  0.06260979  0.06054757  1
  Zn  Zn136  1  0.81161523  0.05866845  0.56338798  1
  Zn  Zn137  1  0.85044514  0.59537040  0.02708069  1
  Zn  Zn138  1  0.81134120  0.56025534  0.56284673  1
  Zn  Zn139  1  0.36855911  0.42422440  0.19852312  1
  Zn  Zn140  1  0.43896344  0.43847977  0.69179583  1
  Zn  Zn141  1  0.44039443  0.93857998  0.19662148  1
  Zn  Zn142  1  0.43656963  0.93528277  0.69159998  1
  Zn  Zn143  1  1.00202435  0.43996696  0.18280544  1
  Zn  Zn144  1  0.93447050  0.43699000  0.69433660  1
  Zn  Zn145  1  0.93752032  0.93780676  0.18613286  1
  Zn  Zn146  1  0.93205672  0.93914147  0.68409601  1
  Zn  Zn147  1  0.05910990  0.06114198  0.31196628  1
  Zn  Zn148  1  0.06180752  0.06266488  0.81150380  1
  Zn  Zn149  1  0.09857686  0.57627074  0.29644822  1
  Zn  Zn150  1  0.05850672  0.56652474  0.81858645  1
  Zn  Zn151  1  0.56757425  0.06347612  0.31304318  1
  Zn  Zn152  1  0.56364361  0.05792469  0.81290314  1
  Zn  Zn153  1  0.56218892  0.55802042  0.31233482  1
  Zn  Zn154  1  0.55663460  0.56013445  0.81483458  1
  Zn  Zn155  1  0.43924915  0.18617884  0.43446000  1
  Zn  Zn156  1  0.43783569  0.18634555  0.94156093  1
  Zn  Zn157  1  0.43772943  0.68902640  0.44183813  1
  Zn  Zn158  1  0.41467180  0.67276302  0.95607085  1
  Zn  Zn159  1  0.94065344  0.18870590  0.43589702  1
  Zn  Zn160  1  0.93828649  0.18839033  0.93701798  1
  Zn  Zn161  1  0.93946691  0.68360780  0.43956549  1
  Zn  Zn162  1  0.93520121  0.70737781  0.92919633  1
  Zn  Zn163  1  0.06293307  0.31788192  0.06043888  1
  Zn  Zn164  1  0.05925342  0.31295544  0.56061742  1
  Zn  Zn165  1  0.06762290  0.81361877  0.05629620  1
  Zn  Zn166  1  0.05731862  0.81373566  0.56256711  1
  Zn  Zn167  1  0.56487498  0.31256759  0.06355907  1
  Zn  Zn168  1  0.56384467  0.31172324  0.56348562  1
  Zn  Zn169  1  0.55904565  0.80576208  0.06558854  1
  Zn  Zn170  1  0.56150917  0.81069677  0.56203024  1
  O  O171  1  0.11816150  0.12212032  0.11764345  1
  O  O172  1  0.11912535  0.11688731  0.62021736  1
  O  O173  1  0.12665629  0.62258737  0.10523564  1
  O  O174  1  0.11795754  0.61727244  0.61827031  1
  O  O175  1  0.62830416  0.11048882  0.12075081  1
  O  O176  1  0.61268973  0.12635409  0.62477191  1
  O  O177  1  0.62506620  0.61818800  0.12125908  1
  O  O178  1  0.61944308  0.62155776  0.61962949  1
  O  O179  1  0.38429607  0.38060560  0.38590928  1
  O  O180  1  0.38129777  0.37122072  0.88597172  1
  O  O181  1  0.38554028  0.87882344  0.38243601  1
  O  O182  1  0.38766690  0.88527468  0.87257772  1
  O  O183  1  0.87949684  0.38778174  0.37414762  1
  O  O184  1  0.88828243  0.36622182  0.86430095  1
  O  O185  1  0.87795302  0.88185421  0.37559173  1
  O  O186  1  0.88354342  0.87882691  0.87777062  1
  O  O187  1  0.24944183  0.00222004  0.36600947  1
  O  O188  1  0.25451824  0.00603107  0.86931763  1
  O  O189  1  0.26830812  0.49548767  0.38160183  1
  O  O190  1  0.26871071  0.48972302  0.86900569  1
  O  O191  1  0.76383635  0.00750351  0.37981569  1
  O  O192  1  0.75168970  0.00030586  0.87593130  1
  O  O193  1  0.75775129  0.50511967  0.37089844  1
  O  O194  1  0.74596337  0.49292878  0.85929113  1
  O  O195  1  0.22629713  0.50116330  0.11752746  1
  O  O196  1  0.24280964  0.48980944  0.62759077  1
  O  O197  1  0.23633868  1.00333027  0.12981572  1
  O  O198  1  0.24207819  1.00069841  0.63498679  1
  O  O199  1  0.74539369  0.48992891  0.13505311  1
  O  O200  1  0.74386816  0.49295010  0.63134903  1
  O  O201  1  0.74105592  0.98521152  0.12164099  1
  O  O202  1  0.74718956  0.98558248  0.62607508  1
  O  O203  1  -0.01663235  0.35740703  0.25752538  1
  O  O204  1  0.01021952  0.36729655  0.75130771  1
  O  O205  1  0.00831501  0.88360691  0.25984416  1
  O  O206  1  -0.00622817  0.86141173  0.74111254  1
  O  O207  1  0.50967844  0.36244606  0.25881802  1
  O  O208  1  0.50649127  0.36631014  0.75617756  1
  O  O209  1  0.51162259  0.87645935  0.26605488  1
  O  O210  1  0.50672393  0.87387158  0.76006961  1
  O  O211  1  0.50326013  0.14122556  0.25593967  1
  O  O212  1  0.49466195  0.12919156  0.74418122  1
  O  O213  1  0.51135111  0.62584532  0.23762269  1
  O  O214  1  0.49494651  0.61494701  0.73369662  1
  O  O215  1  0.99121764  0.13449745  0.24742812  1
  O  O216  1  0.99241817  0.13011251  0.74341982  1
  O  O217  1  0.99548511  0.62101367  0.25292936  1
  O  O218  1  0.98625249  0.63418942  0.74320508  1
  O  O219  1  0.37721929  0.25417375  0.01272748  1
  O  O220  1  0.37138747  0.25452879  0.50677567  1
  O  O221  1  0.39126079  0.75896226  0.03042976  1
  O  O222  1  0.38124559  0.76274514  0.50878678  1
  O  O223  1  0.87350163  0.24218665  0.01592791  1
  O  O224  1  0.88271635  0.25236132  0.51287581  1
  O  O225  1  0.85726487  0.75885211  0.00770639  1
  O  O226  1  0.87304533  0.75532955  0.50808562  1
  O  O227  1  0.12746577  0.24028582  0.49712073  1
  O  O228  1  0.11868141  0.24280992  0.98839351  1
  O  O229  1  0.12237063  0.73671017  0.50901541  1
  O  O230  1  0.12322136  0.74089546  0.98669164  1
  O  O231  1  0.62139042  0.24947194  0.48557453  1
  O  O232  1  0.62504363  0.24032802  0.99561142  1
  O  O233  1  0.62735968  0.74184072  0.49271701  1
  O  O234  1  0.63518431  0.73658152  1.00915475  1
  O  O235  1  0.50207261  0.25025727  0.13847899  1
  O  O236  1  0.49470222  0.24301766  0.63026191  1
  O  O237  1  0.49417743  0.73868297  0.13573173  1
  O  O238  1  0.49097002  0.73890966  0.61878085  1
  O  O239  1  0.99546215  0.24592547  0.13225569  1
  O  O240  1  0.99332716  0.24455182  0.63095277  1
  O  O241  1  0.98371017  0.75330205  0.11400250  1
  O  O242  1  0.98813446  0.74571542  0.62978088  1
  O  O243  1  0.00793579  0.25732346  0.36802389  1
  O  O244  1  0.00785066  0.25282001  0.86686142  1
  O  O245  1  -0.00086300  0.76383557  0.38110916  1
  O  O246  1  0.00512983  0.75600809  0.85506097  1
  O  O247  1  0.50901472  0.25549439  0.36832976  1
  O  O248  1  0.50869707  0.25352049  0.87099131  1
  O  O249  1  0.50785105  0.75793283  0.37695095  1
  O  O250  1  0.48420129  0.75655738  0.88713397  1
  O  O251  1  0.24334929  0.12936180  0.50143510  1
  O  O252  1  0.23556790  0.12100771  0.99252651  1
  O  O253  1  0.23401680  0.61792565  0.50061431  1
  O  O254  1  0.30268762  0.64113843  0.98382193  1
  O  O255  1  0.75044654  0.12290101  0.48929395  1
  O  O256  1  0.73529921  0.13038793  1.00023447  1
  O  O257  1  0.74617895  0.62330561  0.48737522  1
  O  O258  1  0.74396584  0.64170236  1.00236003  1
  O  O259  1  0.26176539  0.36586235  -0.00533445  1
  O  O260  1  0.25570086  0.36633506  0.50964159  1
  O  O261  1  0.24127925  0.86110341  0.00622434  1
  O  O262  1  0.26366203  0.88540894  0.50368064  1
  O  O263  1  0.74225913  0.36868998  0.01123259  1
  O  O264  1  0.75337958  0.38063974  0.51375191  1
  O  O265  1  0.74174164  0.86432305  0.00919729  1
  O  O266  1  0.75442523  0.87296371  0.50794337  1
  O  O267  1  0.08742660  0.46233623  0.27704131  1
  O  O268  1  0.12550445  0.49127611  0.74611920  1
  O  O269  1  0.12710501  0.99740418  0.24163781  1
  O  O270  1  0.13420890  1.00614261  0.74099466  1
  O  O271  1  0.63391950  0.49188203  0.24593950  1
  O  O272  1  0.62985018  0.49514721  0.74450616  1
  O  O273  1  0.62432494  0.99477526  0.23832333  1
  O  O274  1  0.62312318  0.98625887  0.74711332  1
  O  O275  1  0.36413178  0.00284106  0.25159192  1
  O  O276  1  0.36765939  0.00572104  0.75853959  1
  O  O277  1  0.39104572  0.50371146  0.27252473  1
  O  O278  1  0.37287982  0.50502336  0.75627581  1
  O  O279  1  0.88169924  0.01078441  0.25871195  1
  O  O280  1  0.87262443  0.01342972  0.74764352  1
  O  O281  1  0.86886057  0.50897777  0.25922857  1
  O  O282  1  0.86708973  0.51684091  0.74272346  1
  O  O283  1  0.12348090  0.36035224  0.38916030  1
  O  O284  1  0.11954525  0.36558555  0.86757825  1
  O  O285  1  0.11424995  0.87392780  0.36761051  1
  O  O286  1  0.11805584  0.85803504  0.87133816  1
  O  O287  1  0.62262016  0.36953164  0.36668132  1
  O  O288  1  0.61718308  0.36747138  0.87336952  1
  O  O289  1  0.62259139  0.87230118  0.37122337  1
  O  O290  1  0.60910376  0.87414912  0.86530174  1
  O  O291  1  0.37328577  0.13930204  0.12665386  1
  O  O292  1  0.38469848  0.12831854  0.63000851  1
  O  O293  1  0.39207547  0.61452379  0.12928720  1
  O  O294  1  0.38281022  0.63069348  0.62845889  1
  O  O295  1  0.87870161  0.12870522  0.13302704  1
  O  O296  1  0.87751740  0.13075794  0.62895693  1
  O  O297  1  0.86926061  0.63720774  0.13974804  1
  O  O298  1  0.87599443  0.63617172  0.62553408  1
  O  O299  1  0.26072194  0.24980260  0.12889744  1
  O  O300  1  0.25513003  0.25233246  0.62240902  1
  O  O301  1  0.26795473  0.74849314  0.12891904  1
  O  O302  1  0.26463312  0.75092440  0.62650883  1
  O  O303  1  0.76147981  0.24823536  0.13129823  1
  O  O304  1  0.75788379  0.25893186  0.62874606  1
  O  O305  1  0.75842928  0.76255463  0.12569266  1
  O  O306  1  0.75421852  0.75908342  0.62290985  1
  O  O307  1  0.24183389  0.24645169  0.38371559  1
  O  O308  1  0.24033858  0.23378801  0.86895939  1
  O  O309  1  0.24845644  0.75239805  0.37455369  1
  O  O310  1  0.23882057  0.75575332  0.87227568  1
  O  O311  1  0.74352096  0.24268503  0.37014890  1
  O  O312  1  0.73485850  0.24965637  0.87503586  1
  O  O313  1  0.74617808  0.74039099  0.37545207  1
  O  O314  1  0.74832890  0.75709062  0.88871699  1
  O  O315  1  0.00960125  0.11725127  0.00276296  1
  O  O316  1  0.00527657  0.11949507  0.50569075  1
  O  O317  1  -0.04424077  0.62337750  -0.00469708  1
  O  O318  1  0.00118625  0.61337118  0.51032987  1
  O  O319  1  0.51524546  0.12827242  0.00246981  1
  O  O320  1  0.50103185  0.11824492  0.50869282  1
  O  O321  1  0.51424323  0.62882115  0.01842754  1
  O  O322  1  0.50530810  0.61604916  0.50871444  1
  O  O323  1  0.49765982  0.38185814  0.49698888  1
  O  O324  1  0.49561070  0.36744521  0.98997035  1
  O  O325  1  0.49800662  0.88225118  0.49158428  1
  O  O326  1  0.51115312  0.87423834  0.98678427  1
  O  O327  1  1.00071511  0.38827539  0.49225432  1
  O  O328  1  0.99813331  0.37070887  0.98176593  1
  O  O329  1  0.99152077  0.88143458  0.49264319  1
  O  O330  1  1.00025982  0.89091653  1.00131861  1
  O  O331  1  0.49782919  0.49492373  0.38883392  1
  O  O332  1  0.48938769  0.48178695  0.86842138  1
  O  O333  1  0.50218731  0.99438194  0.38363827  1
  O  O334  1  0.48409770  1.00303126  0.87676538  1
  O  O335  1  0.99183376  0.49939287  0.38544251  1
  O  O336  1  0.99868508  0.48364192  0.86545546  1
  O  O337  1  0.98885128  0.99538524  0.38096612  1
  O  O338  1  0.99843021  1.00071413  0.88321555  1
  O  O339  1  0.00839164  0.00899951  0.12005815  1
  O  O340  1  0.00589900  0.00552303  0.61966681  1
  O  O341  1  0.01896463  0.52203437  0.11191129  1
  O  O342  1  0.00291301  0.50175520  0.62063865  1
  O  O343  1  0.51249232  -0.00280715  0.12805923  1
  O  O344  1  0.49818786  0.00823016  0.61965994  1
  O  O345  1  0.51560954  0.50998374  0.12963184  1
  O  O346  1  0.50620691  0.50270373  0.61589466  1
  O  O347  1  0.27429861  0.38083156  0.24629888  1
  O  O348  1  0.23640123  0.37053526  0.74640363  1
  O  O349  1  0.23842360  0.88933955  0.24409672  1
  O  O350  1  0.25715680  0.88664735  0.74622418  1
  O  O351  1  0.74289874  0.38773339  0.25824323  1
  O  O352  1  0.74383098  0.38159706  0.73994532  1
  O  O353  1  0.73792809  0.87449699  0.24617741  1
  O  O354  1  0.73784286  0.87446085  0.74375709  1
  O  O355  1  0.24740592  0.11306516  0.25180543  1
  O  O356  1  0.25605411  0.11603041  0.75849677  1
  O  O357  1  0.20477687  0.60698560  0.26535275  1
  O  O358  1  0.26686244  0.62121112  0.74399966  1
  O  O359  1  0.76110454  0.12563608  0.26191575  1
  O  O360  1  0.75581034  0.12135912  0.75249106  1
  O  O361  1  0.75077280  0.61396298  0.26124278  1
  O  O362  1  0.75993173  0.61808995  0.74311769  1
  O  O363  1  0.37252801  0.12289230  0.36921482  1
  O  O364  1  0.36711389  0.11859790  0.87428835  1
  O  O365  1  0.37497427  0.61118035  0.38548811  1
  O  O366  1  0.39803221  0.60918675  0.85995537  1
  O  O367  1  0.87139215  0.12042580  0.36965379  1
  O  O368  1  0.87161612  0.12648871  0.86481432  1
  O  O369  1  0.87036793  0.61775919  0.36948337  1
  O  O370  1  0.86898557  0.63352592  0.85830349  1
  O  O371  1  0.10752767  0.40295881  0.12188065  1
  O  O372  1  0.12728964  0.37795824  0.63224700  1
  O  O373  1  0.12061085  0.88537770  0.13193278  1
  O  O374  1  0.12568302  0.89039566  0.61563577  1
  O  O375  1  0.62052560  0.38261848  0.13745641  1
  O  O376  1  0.63164228  0.37836953  0.63073090  1
  O  O377  1  0.62643697  0.88187126  0.13437081  1
  O  O378  1  0.62768389  0.87342511  0.63409620  1
  O  O379  1  0.11574308  0.24828587  0.26015248  1
  O  O380  1  0.11922275  0.25367671  0.75897407  1
  O  O381  1  0.12641419  0.76436113  0.24562629  1
  O  O382  1  0.10930983  0.75389270  0.73071635  1
  O  O383  1  0.61976588  0.25536696  0.25559270  1
  O  O384  1  0.61930678  0.25492426  0.75895522  1
  O  O385  1  0.62501899  0.75920877  0.25861036  1
  O  O386  1  0.62225864  0.76332119  0.74821368  1
  O  O387  1  0.38771591  0.24992420  0.23734002  1
  O  O388  1  0.37930070  0.24252230  0.74627615  1
  O  O389  1  0.38162564  0.75279040  0.24013004  1
  O  O390  1  0.37819886  0.73979183  0.74164589  1
  O  O391  1  0.88080130  0.24024349  0.24327502  1
  O  O392  1  0.87717869  0.23857886  0.73891845  1
  O  O393  1  0.87520331  0.73975525  0.24371396  1
  O  O394  1  0.87597416  0.74257205  0.74100987  1
  O  O395  1  0.38397395  0.49353651  0.49902646  1
  O  O396  1  0.37366723  0.47991368  0.99348580  1
  O  O397  1  0.38768611  0.99202149  0.50026415  1
  O  O398  1  0.36799471  1.00231092  0.98726044  1
  O  O399  1  0.88178313  0.49844788  0.49275059  1
  O  O400  1  0.85084249  0.48138050  1.01137121  1
  O  O401  1  0.88009100  0.99280549  0.49369557  1
  O  O402  1  0.88420886  1.00167330  1.00171632  1
  O  O403  1  0.11920393  0.00696874  0.00704536  1
  O  O404  1  0.12025618  0.00789979  0.50457029  1
  O  O405  1  0.12827871  0.51171539  -0.01641376  1
  O  O406  1  0.11671877  0.50629451  0.50615292  1
  O  O407  1  0.62553114  0.00968212  0.01273108  1
  O  O408  1  0.61322571  0.00307675  0.50582455  1
  O  O409  1  0.63531725  0.51508185  0.01164156  1
  O  O410  1  0.61890951  0.50440646  0.50536499  1
  O  O411  1  0.38318130  0.36097121  0.10845449  1
  O  O412  1  0.37149122  0.36861643  0.62255030  1
  O  O413  1  0.37230444  0.87185787  0.13361345  1
  O  O414  1  0.37710155  0.86695910  0.61767375  1
  O  O415  1  0.87559064  0.36850169  0.12670510  1
  O  O416  1  0.86767521  0.36601538  0.62629676  1
  O  O417  1  0.86532966  0.87185309  0.12602603  1
  O  O418  1  0.86471446  0.86556970  0.62133764  1
  O  O419  1  0.12242614  0.13487235  0.38242095  1
  O  O420  1  0.12978081  0.13046958  0.88114128  1
  O  O421  1  0.10847621  0.63327321  0.39844078  1
  O  O422  1  0.12231725  0.65313413  0.85123221  1
  O  O423  1  0.63646471  0.13275529  0.37662228  1
  O  O424  1  0.62293497  0.12937872  0.88598845  1
  O  O425  1  0.63267064  0.62738271  0.37956401  1
  O  O426  1  0.61386368  0.61846492  0.89475179  1
