# generated using pymatgen
data_V85Zn86O256
_symmetry_space_group_name_H-M   'P 1'
_cell_length_a   16.95720660
_cell_length_b   16.97449226
_cell_length_c   16.94416067
_cell_angle_alpha   90.01653298
_cell_angle_beta   90.02259810
_cell_angle_gamma   89.94134191
_symmetry_Int_Tables_number   1
_chemical_formula_structural   V85Zn86O256
_chemical_formula_sum   'V85 Zn86 O256'
_cell_volume   4877.20359548
_cell_formula_units_Z   1
loop_
 _symmetry_equiv_pos_site_id
 _symmetry_equiv_pos_as_xyz
  1  'x, y, z'
loop_
 _atom_site_type_symbol
 _atom_site_label
 _atom_site_symmetry_multiplicity
 _atom_site_fract_x
 _atom_site_fract_y
 _atom_site_fract_z
 _atom_site_occupancy
  V  V0  1  0.49961317  0.87420987  0.37476598  1
  V  V1  1  0.62198894  0.61756319  0.00459983  1
  V  V2  1  0.87969527  0.50316906  0.37678904  1
  V  V3  1  0.62469760  0.12746395  0.00097438  1
  V  V4  1  0.24998633  0.87389419  0.62400402  1
  V  V5  1  0.25012244  0.37503235  0.63091276  1
  V  V6  1  0.49977412  0.87698512  0.87623462  1
  V  V7  1  0.13894645  0.74698657  0.38005501  1
  V  V8  1  0.37718949  0.37528293  0.49980914  1
  V  V9  1  0.24194510  0.50080812  0.22836401  1
  V  V10  1  0.62903294  0.00104615  0.12845947  1
  V  V11  1  0.49764442  0.38316612  0.88453974  1
  V  V12  1  0.24681614  0.24688918  0.50202920  1
  V  V13  1  0.12460507  0.87578943  0.25214551  1
  V  V14  1  0.75110855  0.61798491  0.86898912  1
  V  V15  1  0.36972083  0.87095341  0.49823894  1
  V  V16  1  0.13976363  0.62601548  0.49716899  1
  V  V17  1  0.37431751  0.12667519  0.75361076  1
  V  V18  1  0.37130809  0.74799763  0.61986677  1
  V  V19  1  0.87629266  0.62255087  0.24362267  1
  V  V20  1  0.87429137  0.11937871  0.75208014  1
  V  V21  1  0.00120300  0.74819658  0.25390421  1
  V  V22  1  0.62764028  0.49996063  0.62778094  1
  V  V23  1  0.74689917  0.25069305  0.48699665  1
  V  V24  1  0.50676871  0.11848264  0.62654781  1
  V  V25  1  0.00571563  0.12672487  0.61554617  1
  V  V26  1  0.74419395  0.50190656  0.24992280  1
  V  V27  1  0.62943975  0.74969600  0.37523870  1
  V  V28  1  0.62759539  0.37932718  0.75114206  1
  V  V29  1  -0.00710925  0.88185318  0.86410004  1
  V  V30  1  0.13188412  0.24258722  0.86904369  1
  V  V31  1  0.87643460  0.11304042  0.25548164  1
  V  V32  1  0.37543809  0.25651938  0.13241004  1
  V  V33  1  0.74299643  0.87193954  0.61702006  1
  V  V34  1  0.62778261  0.87743957  0.24917191  1
  V  V35  1  0.36992222  0.00818325  0.87928957  1
  V  V36  1  -0.00181516  0.62493876  0.61429935  1
  V  V37  1  0.23443669  0.63949572  0.86722474  1
  V  V38  1  0.63179811  0.62938445  0.49839470  1
  V  V39  1  0.87307016  0.24816525  0.62399487  1
  V  V40  1  0.75548598  0.37563714  0.12305664  1
  V  V41  1  0.87518848  0.61636314  0.74828188  1
  V  V42  1  0.50051335  0.62479887  0.62405091  1
  V  V43  1  0.37700998  0.25094431  0.62656884  1
  V  V44  1  0.62519102  0.35654096  0.25477055  1
  V  V45  1  0.50421697  0.36244036  0.37367796  1
  V  V46  1  0.75215758  -0.00178533  0.74976929  1
  V  V47  1  0.62655059  0.12196216  0.49968565  1
  V  V48  1  0.75255862  0.10513281  0.37146168  1
  V  V49  1  0.11772267  0.37616510  0.75003450  1
  V  V50  1  -0.00132932  0.12520410  0.12385343  1
  V  V51  1  0.24797891  0.00521438  0.75396111  1
  V  V52  1  0.36766205  0.50954016  0.36614000  1
  V  V53  1  0.25424678  0.87579357  0.11818484  1
  V  V54  1  0.86572812  0.74679767  0.61580883  1
  V  V55  1  0.25123454  0.00312645  0.25047824  1
  V  V56  1  0.75373621  0.87732758  0.12726927  1
  V  V57  1  0.49933100  0.75127766  0.75231236  1
  V  V58  1  0.74869293  0.37531603  0.62431894  1
  V  V59  1  0.49765910  0.25151338  0.75215282  1
  V  V60  1  0.50084714  0.00294729  0.00242304  1
  V  V61  1  0.00451258  0.37943555  0.37236452  1
  V  V62  1  0.37587666  0.51138753  0.88106818  1
  V  V63  1  0.75829055  0.25160850  -0.00005712  1
  V  V64  1  0.62426776  0.88374464  0.74634872  1
  V  V65  1  0.13379606  0.12120054  -0.00798398  1
  V  V66  1  0.87320610  0.88280296  -0.00864744  1
  V  V67  1  0.37788044  0.00315836  0.37655904  1
  V  V68  1  0.12414021  0.00098063  0.12103861  1
  V  V69  1  0.49011356  0.74844305  0.23888727  1
  V  V70  1  -0.00679703  0.36785322  0.88772761  1
  V  V71  1  0.37298243  0.87204645  0.00093265  1
  V  V72  1  0.87853558  0.74872757  0.12007534  1
  V  V73  1  -0.00035656  0.74448773  0.75131324  1
  V  V74  1  0.62673154  0.74950991  0.87653781  1
  V  V75  1  0.88151598  0.37951685  0.50070886  1
  V  V76  1  0.12424492  0.25273791  0.37485124  1
  V  V77  1  0.50159423  0.49875797  0.49526424  1
  V  V78  1  0.12190060  0.87140329  0.75077128  1
  V  V79  1  0.87436259  0.49367067  0.88172620  1
  V  V80  1  0.24483857  0.12641674  0.37770335  1
  V  V81  1  0.12803108  0.00435179  0.61530155  1
  V  V82  1  0.11933833  0.50120986  0.62344100  1
  V  V83  1  0.62492752  0.25100392  0.87655615  1
  V  V84  1  0.19065133  0.70054255  0.04660102  1
  Zn  Zn85  1  0.00629864  0.50835256  0.01189875  1
  Zn  Zn86  1  0.02169522  0.61981012  0.12095941  1
  Zn  Zn87  1  0.75311817  0.74895926  -0.00345071  1
  Zn  Zn88  1  0.75339549  0.11903890  0.87599212  1
  Zn  Zn89  1  0.75458147  0.63001942  0.37689753  1
  Zn  Zn90  1  0.37648519  0.62703528  0.75191318  1
  Zn  Zn91  1  0.50458025  -0.00347803  0.50611754  1
  Zn  Zn92  1  0.12573974  0.38103195  0.22484137  1
  Zn  Zn93  1  -0.00188375  0.25028946  0.25078731  1
  Zn  Zn94  1  0.50434084  0.13388311  0.14083206  1
  Zn  Zn95  1  -0.01016058  0.00253555  0.49115520  1
  Zn  Zn96  1  -0.00385948  0.88120390  0.38022391  1
  Zn  Zn97  1  0.46412688  0.60689312  0.14412435  1
  Zn  Zn98  1  0.87001410  0.87842161  0.49003318  1
  Zn  Zn99  1  0.87434410  0.24841423  0.12813055  1
  Zn  Zn100  1  0.25318211  0.50404121  0.74908065  1
  Zn  Zn101  1  -0.00455944  0.00280770  -0.01127974  1
  Zn  Zn102  1  0.37134978  0.37752328  0.00700569  1
  Zn  Zn103  1  0.38195868  0.13608880  0.25475099  1
  Zn  Zn104  1  0.61644475  0.49694425  0.12330664  1
  Zn  Zn105  1  0.24572694  0.25830834  0.01024514  1
  Zn  Zn106  1  -0.00288373  0.24798684  0.74789773  1
  Zn  Zn107  1  0.18973880  0.19165357  0.18975543  1
  Zn  Zn108  1  0.18788781  0.18727871  0.68950690  1
  Zn  Zn109  1  0.20337112  0.68816363  0.21110364  1
  Zn  Zn110  1  0.18674478  0.68820107  0.68750528  1
  Zn  Zn111  1  0.69449938  0.18328445  0.18879804  1
  Zn  Zn112  1  0.68770301  0.18889942  0.68591572  1
  Zn  Zn113  1  0.68958985  0.69157945  0.18773935  1
  Zn  Zn114  1  0.68664401  0.68754186  0.69073586  1
  Zn  Zn115  1  0.31137492  0.32198422  0.31014697  1
  Zn  Zn116  1  0.27694237  0.35296621  0.85876537  1
  Zn  Zn117  1  0.31236050  0.81518897  0.31018952  1
  Zn  Zn118  1  0.31496367  0.81702927  0.81240289  1
  Zn  Zn119  1  0.81765972  0.31139136  0.30800915  1
  Zn  Zn120  1  0.80983431  0.30982972  0.81086670  1
  Zn  Zn121  1  0.81217103  0.81459268  0.31138487  1
  Zn  Zn122  1  0.81284517  0.80827069  0.80588576  1
  Zn  Zn123  1  0.18807612  0.43858003  0.44274031  1
  Zn  Zn124  1  0.17925821  0.43193776  1.03614013  1
  Zn  Zn125  1  0.18647283  0.93569846  0.43594363  1
  Zn  Zn126  1  0.18404673  0.93299628  0.93367471  1
  Zn  Zn127  1  0.69025224  0.43848926  0.43438335  1
  Zn  Zn128  1  0.69097842  0.43760991  0.93716446  1
  Zn  Zn129  1  0.68359799  0.93841792  0.44028218  1
  Zn  Zn130  1  0.68999599  0.93832893  0.93642198  1
  Zn  Zn131  1  0.31515246  0.07074887  0.06716188  1
  Zn  Zn132  1  0.31475496  0.06347307  0.56373081  1
  Zn  Zn133  1  0.31058836  0.55970119  0.05845103  1
  Zn  Zn134  1  0.31328075  0.55937655  0.56345728  1
  Zn  Zn135  1  0.81155180  0.06270719  0.06425277  1
  Zn  Zn136  1  0.80479526  0.06041265  0.56740816  1
  Zn  Zn137  1  0.81146513  0.56218644  0.05901230  1
  Zn  Zn138  1  0.81015591  0.55996283  0.56163668  1
  Zn  Zn139  1  0.43960733  0.43081879  0.19094587  1
  Zn  Zn140  1  0.43853975  0.43956785  0.69317988  1
  Zn  Zn141  1  0.44028027  0.94121578  0.18904769  1
  Zn  Zn142  1  0.43465343  0.93776423  0.68867180  1
  Zn  Zn143  1  0.94022739  0.43770392  0.18615272  1
  Zn  Zn144  1  0.93837184  0.44014071  0.68855194  1
  Zn  Zn145  1  0.93996433  0.93719348  0.18876426  1
  Zn  Zn146  1  0.92335847  0.94879868  0.65137987  1
  Zn  Zn147  1  0.06249319  0.06466888  0.31323603  1
  Zn  Zn148  1  0.05883484  0.06098342  0.80342967  1
  Zn  Zn149  1  0.06522360  0.56285812  0.31041449  1
  Zn  Zn150  1  0.09755450  0.52408457  0.86326550  1
  Zn  Zn151  1  0.56640554  0.06431288  0.31637871  1
  Zn  Zn152  1  0.56286795  0.06400332  0.81612551  1
  Zn  Zn153  1  0.55787001  0.56322542  0.31170045  1
  Zn  Zn154  1  0.56134892  0.56410986  0.81383095  1
  Zn  Zn155  1  0.43644008  0.18547275  0.43999258  1
  Zn  Zn156  1  0.43620224  0.19236685  0.94464206  1
  Zn  Zn157  1  0.44284465  0.68839569  0.43485031  1
  Zn  Zn158  1  0.41633619  0.66792153  0.97871115  1
  Zn  Zn159  1  0.93427187  0.18871808  0.43578963  1
  Zn  Zn160  1  0.93958028  0.18337492  0.93581766  1
  Zn  Zn161  1  0.94014693  0.69305376  0.43450205  1
  Zn  Zn162  1  0.94435041  0.68757757  0.93529500  1
  Zn  Zn163  1  0.06006939  0.30383288  0.05862536  1
  Zn  Zn164  1  0.06211592  0.31236972  0.56001601  1
  Zn  Zn165  1  0.05364350  0.81961253  0.06238970  1
  Zn  Zn166  1  0.05965437  0.81171516  0.56220470  1
  Zn  Zn167  1  0.56273394  0.31257048  0.06916464  1
  Zn  Zn168  1  0.56471808  0.30820256  0.56071706  1
  Zn  Zn169  1  0.56317485  0.81212451  0.05990885  1
  Zn  Zn170  1  0.55924277  0.81142081  0.56142479  1
  O  O171  1  0.11959373  0.11846928  0.11835920  1
  O  O172  1  0.11742853  0.11860870  0.62838086  1
  O  O173  1  0.13896905  0.64604110  0.11646267  1
  O  O174  1  0.11896314  0.62086326  0.61717706  1
  O  O175  1  0.62604432  0.11708740  0.12064780  1
  O  O176  1  0.61591603  0.12975841  0.61771046  1
  O  O177  1  0.63524406  0.62836215  0.10782336  1
  O  O178  1  0.62100232  0.61870076  0.61969270  1
  O  O179  1  0.38560700  0.38241421  0.38331105  1
  O  O180  1  0.38558576  0.39191623  0.86932166  1
  O  O181  1  0.37713237  0.88093299  0.38230613  1
  O  O182  1  0.38062771  0.89127204  0.87768801  1
  O  O183  1  0.88502706  0.38141509  0.37963664  1
  O  O184  1  0.88429156  0.37841597  0.86432284  1
  O  O185  1  0.88227505  0.86288463  0.37817962  1
  O  O186  1  0.87891022  0.86977323  0.87991573  1
  O  O187  1  0.25454510  0.00931579  0.37351811  1
  O  O188  1  0.25796371  -0.00366881  0.86618321  1
  O  O189  1  0.26994607  0.49891575  0.39015988  1
  O  O190  1  0.26751043  0.52207319  0.86891525  1
  O  O191  1  0.75433269  0.00705540  0.37948260  1
  O  O192  1  0.74506459  0.00069080  0.85771477  1
  O  O193  1  0.76303595  0.50175758  0.36754944  1
  O  O194  1  0.75940894  0.50548122  0.87308905  1
  O  O195  1  0.24602564  0.49461332  0.12380125  1
  O  O196  1  0.23987311  0.49330565  0.62813753  1
  O  O197  1  0.24046190  0.99582598  0.12868675  1
  O  O198  1  0.24827229  0.99456454  0.63276839  1
  O  O199  1  0.74772460  0.49261000  0.13219048  1
  O  O200  1  0.73495233  0.49230639  0.61906410  1
  O  O201  1  0.73732261  0.99247627  0.12086763  1
  O  O202  1  0.74247827  0.98628414  0.63877844  1
  O  O203  1  0.00543194  0.37061047  0.25905640  1
  O  O204  1  0.00924663  0.36964790  0.74478346  1
  O  O205  1  0.01392280  0.86786132  0.24684809  1
  O  O206  1  0.00448383  0.86848274  0.74920109  1
  O  O207  1  0.51783747  0.37434109  0.25932014  1
  O  O208  1  0.51016484  0.36707884  0.75445852  1
  O  O209  1  0.50805406  0.86935833  0.25510266  1
  O  O210  1  0.50604823  0.87090080  0.75319260  1
  O  O211  1  0.49450431  0.11746557  0.25354243  1
  O  O212  1  0.49811616  0.13216782  0.74488220  1
  O  O213  1  0.50304826  0.64294402  0.24924295  1
  O  O214  1  0.50239000  0.63665678  0.74214690  1
  O  O215  1  0.99582225  0.12757992  0.24219616  1
  O  O216  1  0.98961086  0.12671729  0.73616401  1
  O  O217  1  0.99524706  0.63319002  0.24393869  1
  O  O218  1  0.99025359  0.63304466  0.73580842  1
  O  O219  1  0.36874659  0.25246603  0.01032804  1
  O  O220  1  0.36921919  0.25684304  0.50718754  1
  O  O221  1  0.37902275  0.77517526  -0.01608576  1
  O  O222  1  0.38223094  0.75801996  0.50763857  1
  O  O223  1  0.86066373  0.24066503  0.00111477  1
  O  O224  1  0.86769132  0.25779989  0.50821601  1
  O  O225  1  0.87511242  0.76175400  0.00705485  1
  O  O226  1  0.87399285  0.74540722  0.51329235  1
  O  O227  1  0.13539534  0.25534048  0.48926941  1
  O  O228  1  0.12562844  0.23685536  0.98644398  1
  O  O229  1  0.12317161  0.73739131  0.49429220  1
  O  O230  1  0.12777964  0.75952114  0.99738232  1
  O  O231  1  0.63641613  0.23803551  0.50379519  1
  O  O232  1  0.63099704  0.24280269  0.99759906  1
  O  O233  1  0.61617882  0.74027339  0.48970533  1
  O  O234  1  0.62924215  0.74722740  0.98699783  1
  O  O235  1  0.48477087  0.24817687  0.12053078  1
  O  O236  1  0.49703535  0.24284843  0.63273938  1
  O  O237  1  0.50423490  0.75436082  0.13812025  1
  O  O238  1  0.49111187  0.74632241  0.63188649  1
  O  O239  1  0.99632953  0.23465957  0.12503264  1
  O  O240  1  0.99094221  0.24469623  0.62291172  1
  O  O241  1  0.99016284  0.75275024  0.13525268  1
  O  O242  1  0.98901526  0.74308441  0.63174512  1
  O  O243  1  0.00859462  0.25771167  0.37727919  1
  O  O244  1  -0.00147665  0.25710348  0.86886192  1
  O  O245  1  0.01162495  0.74907026  0.36192149  1
  O  O246  1  -0.00855413  0.75955918  0.85649202  1
  O  O247  1  0.49765201  0.26363089  0.38448109  1
  O  O248  1  0.50504470  0.25720840  0.86817967  1
  O  O249  1  0.50970198  0.75720732  0.36601002  1
  O  O250  1  0.50874982  0.75941357  0.86438251  1
  O  O251  1  0.25689769  0.13941896  0.49552231  1
  O  O252  1  0.23522294  0.12062509  0.99927682  1
  O  O253  1  0.23809786  0.62677439  0.50657681  1
  O  O254  1  0.24296024  0.63285781  0.98500385  1
  O  O255  1  0.74678946  0.12976190  0.49285085  1
  O  O256  1  0.74008790  0.12984267  0.99853794  1
  O  O257  1  0.73565169  0.62026023  0.49670090  1
  O  O258  1  0.74550409  0.62875292  0.98523905  1
  O  O259  1  0.25692907  0.36915203  -0.02599340  1
  O  O260  1  0.25606118  0.36568195  0.50964263  1
  O  O261  1  0.25710891  0.88455242  0.00893449  1
  O  O262  1  0.26252116  0.87720319  0.50580014  1
  O  O263  1  0.74261092  0.36472392  0.01088631  1
  O  O264  1  0.75696997  0.36829226  0.50317243  1
  O  O265  1  0.75513106  0.87258632  0.00861554  1
  O  O266  1  0.74619715  0.87619585  0.51362213  1
  O  O267  1  0.13764365  0.50099965  0.24828923  1
  O  O268  1  0.12729578  0.49013197  0.74892128  1
  O  O269  1  0.13201527  0.99317755  0.24202403  1
  O  O270  1  0.13383080  0.99475121  0.74144074  1
  O  O271  1  0.63877601  0.50155085  0.25347532  1
  O  O272  1  0.61855642  0.49124882  0.74014990  1
  O  O273  1  0.62255156  0.98549977  0.24340241  1
  O  O274  1  0.62511345  0.98746008  0.75335437  1
  O  O275  1  0.36763714  -0.00628033  0.26534864  1
  O  O276  1  0.36773585  0.00471031  0.75833829  1
  O  O277  1  0.36460313  0.49169751  0.26144323  1
  O  O278  1  0.37473977  0.50714171  0.75824536  1
  O  O279  1  0.87934863  0.01281164  0.24681740  1
  O  O280  1  0.86557045  0.00919343  0.73803081  1
  O  O281  1  0.86592911  0.50719796  0.25562198  1
  O  O282  1  0.87660603  0.51150349  0.75428304  1
  O  O283  1  0.11209094  0.37331996  0.38395596  1
  O  O284  1  0.10584595  0.35936862  0.86379632  1
  O  O285  1  0.12795258  0.86518883  0.36624149  1
  O  O286  1  0.11549446  0.87851154  0.85761331  1
  O  O287  1  0.62101455  0.37781779  0.36312268  1
  O  O288  1  0.61895363  0.37295887  0.86781903  1
  O  O289  1  0.62150433  0.87046868  0.36808026  1
  O  O290  1  0.62106288  0.86755392  0.86890276  1
  O  O291  1  0.38306704  0.13319311  0.13110624  1
  O  O292  1  0.38258113  0.13283626  0.63226920  1
  O  O293  1  0.37909930  0.64194605  0.08457560  1
  O  O294  1  0.38189861  0.63248112  0.62435625  1
  O  O295  1  0.88305695  0.12267881  0.13185585  1
  O  O296  1  0.87795124  0.13490652  0.63040376  1
  O  O297  1  0.86762645  0.63393097  0.13418682  1
  O  O298  1  0.87804942  0.62578656  0.62817248  1
  O  O299  1  0.26707034  0.23891711  0.12284718  1
  O  O300  1  0.25482648  0.25524502  0.62027070  1
  O  O301  1  0.24480375  0.75909757  0.11751344  1
  O  O302  1  0.26529579  0.75671385  0.63214535  1
  O  O303  1  0.74988427  0.25547036  0.11688626  1
  O  O304  1  0.75672688  0.25590308  0.61575052  1
  O  O305  1  0.76315122  0.75837312  0.12280167  1
  O  O306  1  0.75477026  0.75529038  0.62937945  1
  O  O307  1  0.24683801  0.24678248  0.38295285  1
  O  O308  1  0.23270679  0.24388457  0.86595059  1
  O  O309  1  0.23836113  0.74730481  0.36450885  1
  O  O310  1  0.25679174  0.73745250  0.86854684  1
  O  O311  1  0.75611743  0.24887470  0.38617046  1
  O  O312  1  0.74146193  0.24880131  0.88231927  1
  O  O313  1  0.73353728  0.74783723  0.36691371  1
  O  O314  1  0.74137024  0.74270482  0.87225165  1
  O  O315  1  0.00537371  0.11929532  0.00709141  1
  O  O316  1  -0.00720019  0.12464386  0.51212668  1
  O  O317  1  -0.00561579  0.62574927  0.00924650  1
  O  O318  1  0.00439619  0.62969779  0.51167622  1
  O  O319  1  0.51389581  0.12083308  0.00131146  1
  O  O320  1  0.50867111  0.12564103  0.50851565  1
  O  O321  1  0.52455166  0.62928499  -0.00948820  1
  O  O322  1  0.50972437  0.61668464  0.50512616  1
  O  O323  1  0.50017694  0.38217606  0.49540380  1
  O  O324  1  0.50168918  0.37070621  0.98617504  1
  O  O325  1  0.48950298  0.87737130  0.49459865  1
  O  O326  1  0.49575668  0.88457321  0.99571253  1
  O  O327  1  0.98665951  0.37288290  0.49436274  1
  O  O328  1  0.99116217  0.36712576  0.98778108  1
  O  O329  1  0.99503643  0.87858802  0.50146196  1
  O  O330  1  0.99055123  0.87826357  0.98532429  1
  O  O331  1  0.49451382  0.49119300  0.38102112  1
  O  O332  1  0.49148808  0.49352771  0.86928554  1
  O  O333  1  0.49186118  0.99227834  0.37981242  1
  O  O334  1  0.49444210  0.99561625  0.88260686  1
  O  O335  1  0.98830899  0.49448349  0.36796940  1
  O  O336  1  0.98972479  0.47708747  0.86763742  1
  O  O337  1  1.01443097  0.99484145  0.38132910  1
  O  O338  1  0.99775874  0.98612517  0.86780507  1
  O  O339  1  0.01235971  0.00660213  0.12471065  1
  O  O340  1  0.01596708  0.01132587  0.62739906  1
  O  O341  1  -0.00149726  0.50723453  0.12597622  1
  O  O342  1  0.01222678  0.50872363  0.62909180  1
  O  O343  1  0.51408761  -0.00153867  0.11793589  1
  O  O344  1  0.49217738  0.01480668  0.62571686  1
  O  O345  1  0.50472111  0.50416430  0.13820905  1
  O  O346  1  0.51003110  0.50276254  0.61721453  1
  O  O347  1  0.24166566  0.39697736  0.26131299  1
  O  O348  1  0.23491506  0.37632566  0.74913972  1
  O  O349  1  0.24121522  0.87982667  0.23967716  1
  O  O350  1  0.24374247  0.88378537  0.74478057  1
  O  O351  1  0.74083469  0.38144735  0.24887366  1
  O  O352  1  0.73419894  0.36722379  0.74205420  1
  O  O353  1  0.74343245  0.87061507  0.23530589  1
  O  O354  1  0.74074975  0.87844639  0.74482350  1
  O  O355  1  0.25482428  0.11867416  0.26084821  1
  O  O356  1  0.25806094  0.11272331  0.74490992  1
  O  O357  1  0.25853336  0.59991261  0.25005302  1
  O  O358  1  0.25566565  0.62739733  0.75676491  1
  O  O359  1  0.75671485  0.12296329  0.26505617  1
  O  O360  1  0.75518184  0.11614977  0.74668377  1
  O  O361  1  0.75820245  0.61902092  0.25200076  1
  O  O362  1  0.75739049  0.62754354  0.76058346  1
  O  O363  1  0.36504148  0.11786290  0.37787767  1
  O  O364  1  0.38367837  0.11487416  0.87032434  1
  O  O365  1  0.38559466  0.60702551  0.37907678  1
  O  O366  1  0.38589442  0.61823599  0.87681548  1
  O  O367  1  0.86195155  0.12608649  0.37156182  1
  O  O368  1  0.87320916  0.12999309  0.85662995  1
  O  O369  1  0.87691825  0.62033666  0.36485293  1
  O  O370  1  0.87038185  0.61641030  0.86639538  1
  O  O371  1  0.13574416  0.36074015  0.11400141  1
  O  O372  1  0.12718586  0.38336038  0.62878829  1
  O  O373  1  0.13041201  0.88351600  0.12937653  1
  O  O374  1  0.13153134  0.88199354  0.63226557  1
  O  O375  1  0.63355604  0.37545483  0.14024693  1
  O  O376  1  0.62650482  0.38136082  0.63074630  1
  O  O377  1  0.63349384  0.87952544  0.12926002  1
  O  O378  1  0.62963703  0.86497464  0.63565581  1
  O  O379  1  0.12684444  0.25547763  0.26516942  1
  O  O380  1  0.11916584  0.25465417  0.75218070  1
  O  O381  1  0.12053502  0.75604272  0.25561008  1
  O  O382  1  0.11260794  0.76038440  0.73780212  1
  O  O383  1  0.63212551  0.25881678  0.25208071  1
  O  O384  1  0.61562456  0.25512258  0.75482047  1
  O  O385  1  0.61898577  0.76123772  0.25336491  1
  O  O386  1  0.61694064  0.75692187  0.75807406  1
  O  O387  1  0.37058076  0.25392241  0.23964656  1
  O  O388  1  0.38939644  0.24557125  0.74626394  1
  O  O389  1  0.39138072  0.75896026  0.25140157  1
  O  O390  1  0.38781273  0.75346644  0.74322910  1
  O  O391  1  0.87780567  0.23546459  0.24815412  1
  O  O392  1  0.87143998  0.24431782  0.73545941  1
  O  O393  1  0.88316387  0.74158778  0.24341160  1
  O  O394  1  0.87892463  0.73604138  0.74013961  1
  O  O395  1  0.38910711  0.49450673  0.50078551  1
  O  O396  1  0.37622237  0.49635637  0.98436496  1
  O  O397  1  0.37570612  0.99359035  0.49013026  1
  O  O398  1  0.38029690  0.99951740  0.99459655  1
  O  O399  1  0.86962791  0.49145447  0.48986558  1
  O  O400  1  0.87639857  0.50029104  0.98428808  1
  O  O401  1  0.88288601  0.98631253  0.53795744  1
  O  O402  1  0.87480846  0.98692678  1.00334112  1
  O  O403  1  0.12021430  0.00266109  0.00519301  1
  O  O404  1  0.13273690  -0.00110273  0.51425406  1
  O  O405  1  0.11251092  0.49300482  -0.02870672  1
  O  O406  1  0.12711211  0.51345158  0.51044689  1
  O  O407  1  0.62225132  0.00749967  0.00563499  1
  O  O408  1  0.62241136  0.01506301  0.50020362  1
  O  O409  1  0.63187103  0.51328472  0.00166343  1
  O  O410  1  0.61653129  0.50429130  0.50322754  1
  O  O411  1  0.37594615  0.36276897  0.12420532  1
  O  O412  1  0.37204585  0.37014510  0.62208086  1
  O  O413  1  0.36367524  0.88572293  0.11699800  1
  O  O414  1  0.37154613  0.86911319  0.61772874  1
  O  O415  1  0.85889833  0.36965835  0.13670662  1
  O  O416  1  0.87064303  0.37182848  0.61810484  1
  O  O417  1  0.87051555  0.87001689  0.11965911  1
  O  O418  1  0.85793606  0.85751701  0.63240496  1
  O  O419  1  0.13851213  0.13557497  0.37315546  1
  O  O420  1  0.11152235  0.13062755  0.87972319  1
  O  O421  1  0.12080308  0.62916639  0.39066309  1
  O  O422  1  0.13577913  0.63367775  0.85982779  1
  O  O423  1  0.64321901  0.12141647  0.38254413  1
  O  O424  1  0.62741731  0.13257941  0.88381408  1
  O  O425  1  0.62377529  0.63233446  0.38229197  1
  O  O426  1  0.63389824  0.63078296  0.87683630  1
