# generated using pymatgen
data_V85Zn86O256
_symmetry_space_group_name_H-M   'P 1'
_cell_length_a   16.92787419
_cell_length_b   16.91703770
_cell_length_c   16.93512468
_cell_angle_alpha   90.01424156
_cell_angle_beta   90.03973121
_cell_angle_gamma   90.05811782
_symmetry_Int_Tables_number   1
_chemical_formula_structural   V85Zn86O256
_chemical_formula_sum   'V85 Zn86 O256'
_cell_volume   4849.69913759
_cell_formula_units_Z   1
loop_
 _symmetry_equiv_pos_site_id
 _symmetry_equiv_pos_as_xyz
  1  'x, y, z'
loop_
 _atom_site_type_symbol
 _atom_site_label
 _atom_site_symmetry_multiplicity
 _atom_site_fract_x
 _atom_site_fract_y
 _atom_site_fract_z
 _atom_site_occupancy
  V  V0  1  -0.00493866  0.37881973  0.38934052  1
  V  V1  1  0.50734965  0.48764347  0.50263078  1
  V  V2  1  0.74679794  0.38468049  0.62355216  1
  V  V3  1  0.74676559  0.25439030  -0.01182984  1
  V  V4  1  0.11576392  0.61837984  -0.00227071  1
  V  V5  1  0.50596632  0.62725670  0.12220118  1
  V  V6  1  0.24821367  0.23405513  -0.00154117  1
  V  V7  1  0.87530060  0.62659227  0.73712394  1
  V  V8  1  0.24933196  0.75036718  -0.00193329  1
  V  V9  1  0.38133855  0.87974195  0.50202945  1
  V  V10  1  0.10920309  0.62487866  0.50062654  1
  V  V11  1  0.37617897  -0.00252423  0.37432679  1
  V  V12  1  0.49846307  0.25609939  0.25471655  1
  V  V13  1  0.87123477  0.25273211  0.12413069  1
  V  V14  1  0.49445208  0.87592696  0.87661886  1
  V  V15  1  0.74533908  0.74822067  0.00079185  1
  V  V16  1  0.12260375  0.87354615  0.75218792  1
  V  V17  1  0.62343639  0.62946409  0.49666417  1
  V  V18  1  0.37433301  0.37358792  -0.00661051  1
  V  V19  1  0.62556108  -0.00119575  0.12597011  1
  V  V20  1  0.49765962  0.12084715  0.62478710  1
  V  V21  1  0.25011314  0.62237806  0.37795947  1
  V  V22  1  0.75080768  0.50395237  0.25164554  1
  V  V23  1  0.25240020  0.12495618  0.38429880  1
  V  V24  1  -0.00308615  0.12407960  0.61762749  1
  V  V25  1  0.87312562  0.25738965  0.62380188  1
  V  V26  1  0.13196657  0.37633388  0.74466805  1
  V  V27  1  0.88356725  0.75386708  0.12787592  1
  V  V28  1  0.62609859  0.12684414  -0.00359008  1
  V  V29  1  0.74892909  0.37728224  0.12385142  1
  V  V30  1  0.88236771  0.87324877  0.50783621  1
  V  V31  1  0.25809036  0.00984233  0.75548428  1
  V  V32  1  -0.00548711  0.74948680  0.73264318  1
  V  V33  1  0.62409011  0.37926715  0.74606849  1
  V  V34  1  0.13021379  0.25050424  0.38504130  1
  V  V35  1  -0.00206983  0.25357290  0.74945759  1
  V  V36  1  0.74700464  0.63701471  0.37248352  1
  V  V37  1  0.38184391  0.49407742  0.37768794  1
  V  V38  1  0.24821743  0.74812496  0.49962902  1
  V  V39  1  0.86692221  0.11743731  0.74699121  1
  V  V40  1  0.87652926  0.50697074  0.88113575  1
  V  V41  1  -0.00312203  0.25379788  0.25362389  1
  V  V42  1  0.74996782  -0.00004435  0.25200523  1
  V  V43  1  0.25016120  0.50010733  0.73658779  1
  V  V44  1  0.75207091  0.75304571  0.50975765  1
  V  V45  1  0.06221147  0.06781753  -0.04917415  1
  V  V46  1  0.75189536  0.25742914  0.50089523  1
  V  V47  1  0.00437298  0.87498343  0.35456940  1
  V  V48  1  0.37549220  0.74794186  0.12616051  1
  V  V49  1  0.75177384  0.12682405  0.37636842  1
  V  V50  1  0.10664928  0.50172898  0.61897290  1
  V  V51  1  0.25030797  0.62245692  0.87227911  1
  V  V52  1  0.50298565  0.74784575  0.75102958  1
  V  V53  1  0.50942651  0.87493952  0.38023089  1
  V  V54  1  0.62298224  0.37689640  0.25274817  1
  V  V55  1  0.88591013  0.62926432  0.25142328  1
  V  V56  1  0.00484091  0.12442966  0.12500778  1
  V  V57  1  0.37214600  0.12013196  0.25214388  1
  V  V58  1  0.24574079  0.87650282  0.14106885  1
  V  V59  1  0.50832561  0.37099277  0.87573663  1
  V  V60  1  0.35875825  0.36910999  0.50231266  1
  V  V61  1  0.74723455  0.11333065  0.87223156  1
  V  V62  1  0.00051964  0.38181239  0.88158312  1
  V  V63  1  0.62064230  0.25680545  0.37827475  1
  V  V64  1  0.62148139  0.11790920  0.50103610  1
  V  V65  1  0.12890795  0.25048819  0.87672575  1
  V  V66  1  0.37679502  0.74756040  0.62413183  1
  V  V67  1  0.87719764  0.50030628  0.38647499  1
  V  V68  1  0.25026024  0.37245080  0.12175734  1
  V  V69  1  0.88841148  0.87979283  -0.00595159  1
  V  V70  1  0.11685104  0.49554278  0.12051147  1
  V  V71  1  0.62488898  0.50321769  0.12325303  1
  V  V72  1  0.12372463  0.75301953  0.36083605  1
  V  V73  1  0.50189724  0.24474770  0.75256393  1
  V  V74  1  0.50273354  0.50436465  -0.00283696  1
  V  V75  1  0.50065089  0.12429042  0.12811348  1
  V  V76  1  0.36517040  0.24988297  0.62874112  1
  V  V77  1  0.50693029  0.61869123  0.62498628  1
  V  V78  1  0.25183039  0.49744611  0.25007260  1
  V  V79  1  0.37200272  0.25006113  0.12637078  1
  V  V80  1  0.25060208  0.87576099  0.62655338  1
  V  V81  1  0.63226097  0.88209640  0.75261834  1
  V  V82  1  0.11227648  0.74989201  0.87474157  1
  V  V83  1  0.12599860  0.37179416  0.25137994  1
  V  V84  1  0.50788950  0.74926148  0.25648258  1
  Zn  Zn85  1  0.74572137  0.62431210  0.87763179  1
  Zn  Zn86  1  0.37739803  0.62243995  0.25332257  1
  Zn  Zn87  1  0.37657814  0.62187968  0.74830919  1
  Zn  Zn88  1  0.62948532  0.00205753  0.62853997  1
  Zn  Zn89  1  0.00162321  0.62449150  0.12606286  1
  Zn  Zn90  1  0.37325870  0.01501624  0.87983712  1
  Zn  Zn91  1  0.88328775  -0.00140637  0.87714982  1
  Zn  Zn92  1  0.12124852  -0.01104452  0.13044363  1
  Zn  Zn93  1  0.00536960  -0.00139864  0.49494063  1
  Zn  Zn94  1  0.87301297  0.12688364  0.24913943  1
  Zn  Zn95  1  0.62116747  0.74307840  0.88267636  1
  Zn  Zn96  1  0.37355275  0.49770386  0.87009534  1
  Zn  Zn97  1  0.62932021  0.87115621  0.25545065  1
  Zn  Zn98  1  0.74392713  0.50679231  0.74934059  1
  Zn  Zn99  1  0.37412040  0.87668774  0.00020317  1
  Zn  Zn100  1  0.87906573  0.00018216  0.37431531  1
  Zn  Zn101  1  0.87927722  0.38300425  0.00205657  1
  Zn  Zn102  1  0.13113659  0.12426331  0.50291483  1
  Zn  Zn103  1  0.12596133  -0.00052945  0.62085652  1
  Zn  Zn104  1  0.49784152  -0.00109635  0.00020219  1
  Zn  Zn105  1  0.75763963  0.88191337  0.63374795  1
  Zn  Zn106  1  0.75344735  0.87679332  0.12481402  1
  Zn  Zn107  1  0.17276155  0.15929983  0.20277607  1
  Zn  Zn108  1  0.18250797  0.18963021  0.68331843  1
  Zn  Zn109  1  0.19076685  0.68115542  0.18515265  1
  Zn  Zn110  1  0.18318057  0.68463379  0.68482560  1
  Zn  Zn111  1  0.68698371  0.18740943  0.18755214  1
  Zn  Zn112  1  0.68386968  0.19169133  0.68908015  1
  Zn  Zn113  1  0.69123075  0.69001720  0.18384549  1
  Zn  Zn114  1  0.68632755  0.68973503  0.68862807  1
  Zn  Zn115  1  0.31218874  0.31166852  0.31655555  1
  Zn  Zn116  1  0.31412299  0.19094013  0.80849181  1
  Zn  Zn117  1  0.31866938  0.80782538  0.31483426  1
  Zn  Zn118  1  0.31299702  0.80998579  0.81118750  1
  Zn  Zn119  1  0.81143661  0.31677865  0.31378877  1
  Zn  Zn120  1  0.81268916  0.31513533  0.81004101  1
  Zn  Zn121  1  0.81713074  0.81459690  0.31393368  1
  Zn  Zn122  1  0.81656945  0.81101930  0.81865212  1
  Zn  Zn123  1  0.18451092  0.43893876  0.43953348  1
  Zn  Zn124  1  0.18973621  0.43526193  0.93385871  1
  Zn  Zn125  1  0.18839464  0.93962644  0.43511117  1
  Zn  Zn126  1  0.19013324  0.93185588  0.93570200  1
  Zn  Zn127  1  0.68884613  0.44225370  0.43814453  1
  Zn  Zn128  1  0.68747586  0.44278290  0.93483779  1
  Zn  Zn129  1  0.69197393  0.93870448  0.44199914  1
  Zn  Zn130  1  0.68768987  0.93130068  0.94025303  1
  Zn  Zn131  1  0.31475423  0.05663077  0.06459190  1
  Zn  Zn132  1  0.31557285  0.06112245  0.56478468  1
  Zn  Zn133  1  0.31248726  0.56228869  0.06132590  1
  Zn  Zn134  1  0.31453300  0.56170695  0.56058816  1
  Zn  Zn135  1  0.81477999  0.06307461  0.06120417  1
  Zn  Zn136  1  0.81108854  0.05825042  0.56113573  1
  Zn  Zn137  1  0.81512423  0.56590036  0.06374357  1
  Zn  Zn138  1  0.81221203  0.56594370  0.56137841  1
  Zn  Zn139  1  0.43737551  0.43723759  0.18586867  1
  Zn  Zn140  1  0.43557587  0.43423157  0.68603987  1
  Zn  Zn141  1  0.43724278  0.93433287  0.19002233  1
  Zn  Zn142  1  0.44028921  0.93731654  0.68994798  1
  Zn  Zn143  1  0.93562422  0.43839853  0.19337153  1
  Zn  Zn144  1  0.93508471  0.43852877  0.69312234  1
  Zn  Zn145  1  0.93413705  0.94367273  0.18266383  1
  Zn  Zn146  1  0.94025925  0.93788005  0.68816071  1
  Zn  Zn147  1  0.06740970  0.05986764  0.30878433  1
  Zn  Zn148  1  0.06281468  0.06368379  0.78826932  1
  Zn  Zn149  1  0.06449393  0.55975117  0.31483617  1
  Zn  Zn150  1  0.05923793  0.56438145  0.80766692  1
  Zn  Zn151  1  0.56095521  0.06248849  0.31606760  1
  Zn  Zn152  1  0.55828662  0.06304950  0.81579155  1
  Zn  Zn153  1  0.56250240  0.56423863  0.31452047  1
  Zn  Zn154  1  0.56575081  0.56266776  0.81490236  1
  Zn  Zn155  1  0.43824876  0.18937427  0.44114887  1
  Zn  Zn156  1  0.44221615  0.18842819  0.94031238  1
  Zn  Zn157  1  0.43786628  0.68730544  0.43875101  1
  Zn  Zn158  1  0.43595886  0.68668691  0.93693185  1
  Zn  Zn159  1  0.93446194  0.19221655  0.43873193  1
  Zn  Zn160  1  0.92857403  0.19677949  0.93212140  1
  Zn  Zn161  1  0.93601063  0.69616571  0.43190253  1
  Zn  Zn162  1  0.93234332  0.68898276  0.93813460  1
  Zn  Zn163  1  0.06340666  0.30534569  0.06227313  1
  Zn  Zn164  1  0.06303228  0.31472373  0.56438227  1
  Zn  Zn165  1  0.06394745  0.81017800  0.06534850  1
  Zn  Zn166  1  0.06548823  0.81263414  0.55807608  1
  Zn  Zn167  1  0.56309330  0.31206284  0.06436576  1
  Zn  Zn168  1  0.56239968  0.30815391  0.56717281  1
  Zn  Zn169  1  0.56319973  0.81564479  0.06527135  1
  Zn  Zn170  1  0.56662157  0.81059823  0.56536026  1
  O  O171  1  0.10013235  0.15685640  0.11018627  1
  O  O172  1  0.11219399  0.12631794  0.62182828  1
  O  O173  1  0.12507511  0.61450641  0.11593748  1
  O  O174  1  0.12429683  0.61279476  0.61516348  1
  O  O175  1  0.62272226  0.11646320  0.11931151  1
  O  O176  1  0.61784610  0.12773525  0.61677262  1
  O  O177  1  0.61323865  0.62078916  0.12801061  1
  O  O178  1  0.61395854  0.62816291  0.61775274  1
  O  O179  1  0.37306233  0.37990857  0.39048121  1
  O  O180  1  0.38706718  0.37696832  0.88926519  1
  O  O181  1  0.38124670  0.88004457  0.38294420  1
  O  O182  1  0.38597523  0.87191791  0.87524295  1
  O  O183  1  0.88287465  0.38683909  0.36971634  1
  O  O184  1  0.88399679  0.38483785  0.87277130  1
  O  O185  1  0.89191844  0.87615416  0.37911786  1
  O  O186  1  0.87795167  0.87923984  0.88799881  1
  O  O187  1  0.26501213  0.00694498  0.37623617  1
  O  O188  1  0.25068140  -0.00631810  0.85843542  1
  O  O189  1  0.25860495  0.50173041  0.37134218  1
  O  O190  1  0.24893558  0.50759175  0.86402056  1
  O  O191  1  0.75032491  0.01047579  0.36927206  1
  O  O192  1  0.75127685  0.01125645  0.88011788  1
  O  O193  1  0.75677137  0.50976794  0.36922451  1
  O  O194  1  0.76082407  0.50158701  0.86929870  1
  O  O195  1  0.24483185  0.49223674  0.13002529  1
  O  O196  1  0.24312482  0.50582484  0.63411364  1
  O  O197  1  0.25386967  0.97750530  0.12303427  1
  O  O198  1  0.25124982  0.99159222  0.63475387  1
  O  O199  1  0.74436418  0.49879481  0.12995302  1
  O  O200  1  0.75603011  0.48790853  0.62631715  1
  O  O201  1  0.74332267  1.00286606  0.13399012  1
  O  O202  1  0.74355105  0.99442576  0.62144492  1
  O  O203  1  0.00507374  0.36574517  0.25511608  1
  O  O204  1  0.00801246  0.37112134  0.75820406  1
  O  O205  1  0.00011546  0.88001809  0.25588651  1
  O  O206  1  0.00839649  0.86227103  0.74605023  1
  O  O207  1  0.50529838  0.36384535  0.24593533  1
  O  O208  1  0.50385164  0.36992160  0.75702191  1
  O  O209  1  0.50199304  0.86654619  0.26058679  1
  O  O210  1  0.50582211  0.86705669  0.75729483  1
  O  O211  1  0.49320138  0.13544145  0.24817461  1
  O  O212  1  0.50830576  0.13713500  0.74321188  1
  O  O213  1  0.49772681  0.63066499  0.24294358  1
  O  O214  1  0.49887662  0.62966118  0.74190149  1
  O  O215  1  0.99453725  0.14037956  0.24210021  1
  O  O216  1  0.99025681  0.13463608  0.73637284  1
  O  O217  1  0.98898930  0.62137105  0.25133447  1
  O  O218  1  0.98942117  0.63915818  0.75172601  1
  O  O219  1  0.36898987  0.25653951  0.00657892  1
  O  O220  1  0.37941309  0.26363320  0.50777679  1
  O  O221  1  0.36639196  0.74897951  0.00828083  1
  O  O222  1  0.36817466  0.75889018  0.50407364  1
  O  O223  1  0.86463341  0.25780474  0.00771207  1
  O  O224  1  0.86290997  0.24916003  0.50990977  1
  O  O225  1  0.87041289  0.76025391  0.00684095  1
  O  O226  1  0.86797099  0.76310208  0.49584839  1
  O  O227  1  0.11964352  0.24812779  0.48853818  1
  O  O228  1  0.13700525  0.25945451  0.98759386  1
  O  O229  1  0.13132746  0.74187387  0.49249321  1
  O  O230  1  0.13037681  0.74208591  0.99235730  1
  O  O231  1  0.63072552  0.24469702  0.49300100  1
  O  O232  1  0.63610084  0.23980836  1.01011017  1
  O  O233  1  0.63255254  0.73853010  0.50030366  1
  O  O234  1  0.64134181  0.75570811  1.00544715  1
  O  O235  1  0.49361094  0.24420235  0.13337653  1
  O  O236  1  0.49309952  0.24275103  0.63378847  1
  O  O237  1  0.49406893  0.74435008  0.12920787  1
  O  O238  1  0.49570242  0.74215752  0.63155045  1
  O  O239  1  0.98481925  0.25393337  0.13192085  1
  O  O240  1  0.99048665  0.24734991  0.62824503  1
  O  O241  1  0.98846557  0.74510768  0.12318765  1
  O  O242  1  1.00372009  0.74876585  0.63469294  1
  O  O243  1  0.00274484  0.25664458  0.36861226  1
  O  O244  1  0.00823999  0.25629255  0.86850557  1
  O  O245  1  0.00943336  0.76492994  0.37193124  1
  O  O246  1  0.01066789  0.74585196  0.87020542  1
  O  O247  1  0.50944781  0.24703941  0.36735326  1
  O  O248  1  0.49694759  0.25984349  0.86523120  1
  O  O249  1  0.49348055  0.75882223  0.36656172  1
  O  O250  1  0.49933040  0.75432205  0.86727032  1
  O  O251  1  0.25468576  0.12422104  0.48862861  1
  O  O252  1  0.25096943  0.13525815  1.00938974  1
  O  O253  1  0.24467288  0.62894719  0.49402761  1
  O  O254  1  0.24267993  0.63213371  0.99351352  1
  O  O255  1  0.74322308  0.13609656  0.49322080  1
  O  O256  1  0.74548024  0.13275098  0.99326067  1
  O  O257  1  0.74399792  0.63308724  0.49455299  1
  O  O258  1  0.75882600  0.64388068  1.00124453  1
  O  O259  1  0.25954653  0.36989403  0.00247416  1
  O  O260  1  0.26042814  0.37657537  0.50240760  1
  O  O261  1  0.25037245  0.85910559  0.00339235  1
  O  O262  1  0.25555804  0.87032753  0.51134420  1
  O  O263  1  0.74799604  0.36930688  0.00593371  1
  O  O264  1  0.74304147  0.36565591  0.50712750  1
  O  O265  1  0.75954494  0.86520665  0.00364304  1
  O  O266  1  0.76353811  0.86767008  0.49531071  1
  O  O267  1  0.13231485  0.49187087  0.24336937  1
  O  O268  1  0.12681253  0.49821905  0.73695726  1
  O  O269  1  0.13785802  1.04950891  0.22439784  1
  O  O270  1  0.13594595  0.98884503  0.74426295  1
  O  O271  1  0.62965585  0.49638844  0.24567187  1
  O  O272  1  0.62455147  0.48544990  0.75069107  1
  O  O273  1  0.63442887  1.00289842  0.24529307  1
  O  O274  1  0.62154997  0.98456780  0.75455027  1
  O  O275  1  0.38050760  0.00983431  0.25846817  1
  O  O276  1  0.36012729  -0.00378060  0.75076745  1
  O  O277  1  0.37155619  0.49639705  0.26061736  1
  O  O278  1  0.36463675  0.50027347  0.74939434  1
  O  O279  1  0.86240898  0.00578655  0.25169361  1
  O  O280  1  0.88211738  0.01386157  0.75477766  1
  O  O281  1  0.86686096  0.51019533  0.25508298  1
  O  O282  1  0.87497469  0.51535988  0.75656901  1
  O  O283  1  0.11856055  0.36986844  0.37086010  1
  O  O284  1  0.11929561  0.36838898  0.86685757  1
  O  O285  1  0.11459975  0.86786865  0.37622967  1
  O  O286  1  0.13164237  0.86352786  0.86087868  1
  O  O287  1  0.63088979  0.36440073  0.37001220  1
  O  O288  1  0.61393619  0.37777133  0.87018125  1
  O  O289  1  0.61274545  0.88160278  0.37746484  1
  O  O290  1  0.61537697  0.86917314  0.86708935  1
  O  O291  1  0.37901645  0.12886205  0.13529530  1
  O  O292  1  0.38369463  0.13969992  0.61561885  1
  O  O293  1  0.38227729  0.63374082  0.12678285  1
  O  O294  1  0.38615185  0.63139957  0.62228205  1
  O  O295  1  0.88271812  0.13656415  0.12433694  1
  O  O296  1  0.87596314  0.13447956  0.62954976  1
  O  O297  1  0.87944118  0.63138099  0.13442146  1
  O  O298  1  0.87556565  0.62369625  0.63789916  1
  O  O299  1  0.25565565  0.25719706  0.11851662  1
  O  O300  1  0.26569605  0.24644752  0.62918848  1
  O  O301  1  0.25666200  0.75204018  0.11830198  1
  O  O302  1  0.25555292  0.75560590  0.62169757  1
  O  O303  1  0.75822805  0.25439154  0.12095993  1
  O  O304  1  0.75465265  0.25753284  0.61776676  1
  O  O305  1  0.76169279  0.75297926  0.11731511  1
  O  O306  1  0.74637460  0.75735280  0.61274077  1
  O  O307  1  0.24051387  0.24351119  0.37496663  1
  O  O308  1  0.23668552  0.24513098  0.87994470  1
  O  O309  1  0.24584816  0.74375801  0.38065902  1
  O  O310  1  0.24258843  0.74176362  0.87978254  1
  O  O311  1  0.74413431  0.24697253  0.38165754  1
  O  O312  1  0.75476860  0.24503279  0.88592713  1
  O  O313  1  0.75401652  0.74065480  0.38191066  1
  O  O314  1  0.75044147  0.75042898  0.89107812  1
  O  O315  1  -0.00679712  0.12603937  0.00350398  1
  O  O316  1  -0.00412464  0.12480193  0.50944727  1
  O  O317  1  0.01313853  0.62668867  -0.00081426  1
  O  O318  1  0.01026114  0.63043742  0.49058521  1
  O  O319  1  0.51106769  0.12601763  0.01044050  1
  O  O320  1  0.51038512  0.13258656  0.51034578  1
  O  O321  1  0.49425964  0.61636565  0.00939120  1
  O  O322  1  0.50679742  0.61918873  0.50502989  1
  O  O323  1  0.50082931  0.38551841  0.50443171  1
  O  O324  1  0.49614890  0.37864298  0.99513339  1
  O  O325  1  0.49227716  0.86610918  0.49398345  1
  O  O326  1  0.49901521  0.87383365  0.99054814  1
  O  O327  1  0.99912350  0.37249577  0.48829583  1
  O  O328  1  1.00004776  0.36921706  0.98537314  1
  O  O329  1  0.99131781  0.87464167  0.49541691  1
  O  O330  1  0.98780782  0.87178248  1.00354810  1
  O  O331  1  0.48798497  0.50450356  0.38418056  1
  O  O332  1  0.49593072  0.49400817  0.88287594  1
  O  O333  1  0.48821291  0.99069662  0.37307026  1
  O  O334  1  0.49588416  0.98947913  0.87695834  1
  O  O335  1  0.99072616  0.48998479  0.36895126  1
  O  O336  1  0.99245944  0.49305675  0.86916115  1
  O  O337  1  1.00265165  0.98972911  0.37194265  1
  O  O338  1  1.00873204  1.01241257  0.88308670  1
  O  O339  1  0.00270126  0.01799306  0.12705602  1
  O  O340  1  0.00268475  0.01093099  0.62414546  1
  O  O341  1  0.01354072  0.49833526  0.12929695  1
  O  O342  1  0.00808271  0.49988329  0.62621510  1
  O  O343  1  0.50804951  0.00603406  0.12752282  1
  O  O344  1  0.50197827  0.01660614  0.63328061  1
  O  O345  1  0.50318169  0.50851810  0.11953629  1
  O  O346  1  0.49433601  0.50813232  0.61543927  1
  O  O347  1  0.24580487  0.37776010  0.24377612  1
  O  O348  1  0.23337357  0.38712834  0.75381896  1
  O  O349  1  0.25370444  0.86709329  0.23947844  1
  O  O350  1  0.24516971  0.87602160  0.73987364  1
  O  O351  1  0.74349033  0.38301749  0.24383011  1
  O  O352  1  0.74065414  0.37434774  0.74170192  1
  O  O353  1  0.74781002  0.88509954  0.25080039  1
  O  O354  1  0.73548544  0.86472755  0.75336591  1
  O  O355  1  0.26929384  0.13780585  0.26471113  1
  O  O356  1  0.24509059  0.11351870  0.74743618  1
  O  O357  1  0.25460364  0.61408159  0.25755598  1
  O  O358  1  0.24933246  0.61907114  0.75634732  1
  O  O359  1  0.74921376  0.12165005  0.26024664  1
  O  O360  1  0.75518665  0.13368127  0.75994800  1
  O  O361  1  0.75483532  0.62253642  0.25698778  1
  O  O362  1  0.76341682  0.62900325  0.74932554  1
  O  O363  1  0.37444414  0.11823539  0.37285311  1
  O  O364  1  0.37764054  0.12815934  0.87398676  1
  O  O365  1  0.36781386  0.61369719  0.37814312  1
  O  O366  1  0.36124889  0.62239545  0.87321363  1
  O  O367  1  0.86219493  0.12645173  0.37444803  1
  O  O368  1  0.86602462  0.12352164  0.86648888  1
  O  O369  1  0.86858287  0.62197178  0.36813752  1
  O  O370  1  0.87253394  0.61974956  0.86736348  1
  O  O371  1  0.13020379  0.37793901  0.12906039  1
  O  O372  1  0.12099509  0.38878135  0.63038607  1
  O  O373  1  0.13966189  0.87154132  0.12564250  1
  O  O374  1  0.13465908  0.87221680  0.63339159  1
  O  O375  1  0.62969689  0.38174179  0.13249802  1
  O  O376  1  0.63456925  0.37140631  0.63236695  1
  O  O377  1  0.62706789  0.88921947  0.12991455  1
  O  O378  1  0.62151462  0.87765861  0.64200668  1
  O  O379  1  0.11573466  0.25342265  0.26065500  1
  O  O380  1  0.12027108  0.25843523  0.75455409  1
  O  O381  1  0.13066717  0.74015498  0.26239588  1
  O  O382  1  0.11452630  0.75206174  0.75410401  1
  O  O383  1  0.61835667  0.25410823  0.25745260  1
  O  O384  1  0.61243925  0.26345324  0.74733077  1
  O  O385  1  0.61240387  0.75174408  0.24363072  1
  O  O386  1  0.61223784  0.75760989  0.74938634  1
  O  O387  1  0.38364793  0.24756505  0.24771083  1
  O  O388  1  0.38303232  0.25306454  0.73557456  1
  O  O389  1  0.38625910  0.74538309  0.24250231  1
  O  O390  1  0.38615773  0.74716138  0.74300072  1
  O  O391  1  0.87921433  0.25207592  0.24316009  1
  O  O392  1  0.87817727  0.24166158  0.74341525  1
  O  O393  1  0.86885996  0.74108539  0.24103092  1
  O  O394  1  0.88692461  0.74392185  0.75226091  1
  O  O395  1  0.38130799  0.48677321  0.49694558  1
  O  O396  1  0.38547152  0.49183885  1.00114573  1
  O  O397  1  0.37364388  0.98564797  0.49572425  1
  O  O398  1  0.37907213  0.99399585  0.99709802  1
  O  O399  1  0.87132755  0.50520954  0.48573604  1
  O  O400  1  0.87314142  0.50114051  0.98716926  1
  O  O401  1  0.87929648  0.98672140  0.49366236  1
  O  O402  1  0.87298905  0.98513965  1.00022799  1
  O  O403  1  0.12562097  0.00494026  0.00292090  1
  O  O404  1  0.12369478  0.00454874  0.50320783  1
  O  O405  1  0.13341494  0.50610239  0.00834933  1
  O  O406  1  0.12554114  0.50675565  0.51174821  1
  O  O407  1  0.62487426  0.00741773  0.00933042  1
  O  O408  1  0.62575175  0.01516881  0.49812256  1
  O  O409  1  0.61074281  0.49441851  0.00741280  1
  O  O410  1  0.61680084  0.51264386  0.49520585  1
  O  O411  1  0.37143567  0.37014361  0.11514530  1
  O  O412  1  0.37856625  0.36256667  0.61334458  1
  O  O413  1  0.36812079  0.86148930  0.12536518  1
  O  O414  1  0.37187751  0.86941133  0.61979975  1
  O  O415  1  0.86753273  0.37208292  0.12372522  1
  O  O416  1  0.86673725  0.36367260  0.63460401  1
  O  O417  1  0.87459289  0.86946857  0.11793424  1
  O  O418  1  0.87712278  0.87659267  0.61187105  1
  O  O419  1  0.13565649  0.13316544  0.37754577  1
  O  O420  1  0.11224625  0.12897219  0.88231381  1
  O  O421  1  0.13169208  0.62807393  0.38175143  1
  O  O422  1  0.13274043  0.62850940  0.87893554  1
  O  O423  1  0.63239712  0.13522449  0.38065222  1
  O  O424  1  0.63005931  0.12236814  0.88829456  1
  O  O425  1  0.63531163  0.62284360  0.38231977  1
  O  O426  1  0.63144787  0.63018935  0.87234655  1
