# generated using pymatgen
data_V85Zn86O256
_symmetry_space_group_name_H-M   'P 1'
_cell_length_a   16.97741927
_cell_length_b   16.98180895
_cell_length_c   16.98177927
_cell_angle_alpha   90.01157322
_cell_angle_beta   90.01765146
_cell_angle_gamma   90.08498317
_symmetry_Int_Tables_number   1
_chemical_formula_structural   V85Zn86O256
_chemical_formula_sum   'V85 Zn86 O256'
_cell_volume   4895.96504924
_cell_formula_units_Z   1
loop_
 _symmetry_equiv_pos_site_id
 _symmetry_equiv_pos_as_xyz
  1  'x, y, z'
loop_
 _atom_site_type_symbol
 _atom_site_label
 _atom_site_symmetry_multiplicity
 _atom_site_fract_x
 _atom_site_fract_y
 _atom_site_fract_z
 _atom_site_occupancy
  V  V0  1  0.38064839  0.00159597  0.38002154  1
  V  V1  1  0.50143073  0.49956107  0.00046466  1
  V  V2  1  -0.00070992  0.75139913  0.24523721  1
  V  V3  1  0.00606340  0.12442763  0.62284748  1
  V  V4  1  0.48697737  0.88590998  0.88092773  1
  V  V5  1  0.75097221  0.12068265  0.87738916  1
  V  V6  1  0.74228417  0.74533898  0.49875426  1
  V  V7  1  -0.00429058  0.25043864  0.74710442  1
  V  V8  1  0.01019399  0.00093273  0.49750030  1
  V  V9  1  0.12380133  0.86758338  0.76105704  1
  V  V10  1  0.50279355  0.62934229  0.12843514  1
  V  V11  1  0.75842715  0.49932495  0.74893226  1
  V  V12  1  0.50284463  0.50223889  0.49784180  1
  V  V13  1  0.86617025  -0.00189027  0.37798721  1
  V  V14  1  0.25106813  0.37647416  0.12920536  1
  V  V15  1  0.88211616  0.74577934  0.63699560  1
  V  V16  1  0.00134990  0.62483629  0.12404803  1
  V  V17  1  0.24496231  0.24299247  0.50149405  1
  V  V18  1  0.24759234  0.61929964  0.37146408  1
  V  V19  1  0.11389551  0.61325028  0.50106785  1
  V  V20  1  0.62488490  0.74953197  0.86838485  1
  V  V21  1  0.37577971  0.24587189  0.12402169  1
  V  V22  1  0.62252924  0.24257010  0.37842321  1
  V  V23  1  0.38173462  0.12466854  0.25177452  1
  V  V24  1  0.87278121  0.88094812  -0.01026977  1
  V  V25  1  0.12504147  0.38165134  0.25197235  1
  V  V26  1  0.37480568  0.37378235  0.49835811  1
  V  V27  1  0.00141056  0.37399381  0.87126402  1
  V  V28  1  0.50137595  0.24716097  0.24518526  1
  V  V29  1  0.87384014  0.25422869  0.12281185  1
  V  V30  1  0.87656158  0.62408737  0.25897717  1
  V  V31  1  -0.01155407  0.38757340  0.39055248  1
  V  V32  1  0.25260640  0.75215034  -0.00621373  1
  V  V33  1  0.44099438  0.68813352  0.79799939  1
  V  V34  1  0.37148860  0.49732760  0.37103948  1
  V  V35  1  0.62185467  0.50268034  0.62299095  1
  V  V36  1  0.63067156  0.37375982  0.74551011  1
  V  V37  1  0.12618198  0.24960738  0.37610282  1
  V  V38  1  0.12763793  0.12440704  -0.01101020  1
  V  V39  1  0.86810930  0.12801503  0.24851182  1
  V  V40  1  -0.00464410  0.00205656  -0.01239350  1
  V  V41  1  0.13346683  0.50378699  0.12701462  1
  V  V42  1  0.74778318  0.87093268  0.62816436  1
  V  V43  1  0.37315069  0.62614845  0.25115689  1
  V  V44  1  0.79683679  0.17911280  0.43385658  1
  V  V45  1  0.00213483  0.62091569  0.63987312  1
  V  V46  1  0.62833852  0.62520232  -0.00005102  1
  V  V47  1  0.24782299  0.00330115  0.25236833  1
  V  V48  1  0.37397263  0.24893805  0.62494627  1
  V  V49  1  0.75890842  0.62489464  0.87046181  1
  V  V50  1  0.12244598  0.37945383  0.74399360  1
  V  V51  1  0.49825472  0.37813332  0.87060754  1
  V  V52  1  0.00141031  0.12515710  0.12374108  1
  V  V53  1  0.49476667  0.62931162  0.62106567  1
  V  V54  1  0.73498377  0.62610255  0.37783070  1
  V  V55  1  0.87604762  0.87088184  0.50169140  1
  V  V56  1  0.25927692  0.87323945  0.12503353  1
  V  V57  1  0.00323601  0.50054659  -0.00146254  1
  V  V58  1  0.13433680  0.62500590  -0.01477900  1
  V  V59  1  -0.00034691  0.87654090  0.37259507  1
  V  V60  1  0.87555582  0.11338070  0.75299160  1
  V  V61  1  0.77520827  0.38459247  0.59174739  1
  V  V62  1  0.75014185  0.37727407  0.12284986  1
  V  V63  1  0.61320741  0.11999248  0.49984230  1
  V  V64  1  0.25009119  0.00563638  0.76147914  1
  V  V65  1  0.38123337  0.87803374  0.50085597  1
  V  V66  1  0.24903423  0.74865458  0.50077326  1
  V  V67  1  0.50096943  0.24873844  0.74710449  1
  V  V68  1  0.25301589  0.50845913  0.75448908  1
  V  V69  1  0.75533687  0.50048744  0.25361999  1
  V  V70  1  -0.00005773  0.25518780  0.24937687  1
  V  V71  1  0.62594012  0.37266891  0.24992943  1
  V  V72  1  0.24583908  0.38277533  0.62368691  1
  V  V73  1  0.75398734  -0.00913990  0.23345017  1
  V  V74  1  0.12422242  0.74984846  0.37415866  1
  V  V75  1  0.61472995  0.87529924  0.75076137  1
  V  V76  1  0.74843633  0.75590442  0.00352597  1
  V  V77  1  0.60812797  -0.00014939  0.11689410  1
  V  V78  1  0.87567914  0.37949085  -0.00304450  1
  V  V79  1  0.37381769  0.37742952  0.00010928  1
  V  V80  1  0.61698800  0.00040662  0.62546073  1
  V  V81  1  0.12511780  0.87512647  0.24292580  1
  V  V82  1  0.87313686  0.75604834  0.12280689  1
  V  V83  1  0.24621520  0.87950445  0.62251252  1
  V  V84  1  0.36935722  0.12486241  0.76346545  1
  Zn  Zn85  1  0.86390116  0.24073706  0.61554829  1
  Zn  Zn86  1  0.61825721  0.13140152  0.00375422  1
  Zn  Zn87  1  0.74791706  0.25295458  -0.00452539  1
  Zn  Zn88  1  0.25134750  0.24723791  -0.00570010  1
  Zn  Zn89  1  0.62614619  0.49948599  0.12659734  1
  Zn  Zn90  1  -0.00245543  0.86307572  0.86281559  1
  Zn  Zn91  1  0.12765825  0.00334591  0.62313895  1
  Zn  Zn92  1  0.50067632  0.37403246  0.37420508  1
  Zn  Zn93  1  0.49585693  0.11859540  0.62663947  1
  Zn  Zn94  1  0.47227136  0.01931946  0.00063562  1
  Zn  Zn95  1  0.62596281  0.86917408  0.24972395  1
  Zn  Zn96  1  0.24375042  0.12417894  0.37783864  1
  Zn  Zn97  1  0.51604634  0.74522613  0.27223272  1
  Zn  Zn98  1  0.37799729  0.75432996  0.13083537  1
  Zn  Zn99  1  0.37257621  0.74520727  0.62695965  1
  Zn  Zn100  1  0.37330676  0.51187778  0.87180904  1
  Zn  Zn101  1  0.62687895  0.24895995  0.87572599  1
  Zn  Zn102  1  0.12005228  -0.00092443  0.12461437  1
  Zn  Zn103  1  0.88153358  0.50416590  0.86381376  1
  Zn  Zn104  1  0.13163182  0.24722616  0.86959659  1
  Zn  Zn105  1  0.50917334  0.87007633  0.37816963  1
  Zn  Zn106  1  0.75034610  -0.00322072  0.75364538  1
  Zn  Zn107  1  0.18865458  0.19068137  0.18736756  1
  Zn  Zn108  1  0.18550732  0.18957670  0.68848359  1
  Zn  Zn109  1  0.18922914  0.68882835  0.18701062  1
  Zn  Zn110  1  0.18389074  0.68872038  0.68373506  1
  Zn  Zn111  1  0.68703639  0.18288011  0.18463335  1
  Zn  Zn112  1  0.69334204  0.19385768  0.68090381  1
  Zn  Zn113  1  0.68713946  0.68931605  0.18745040  1
  Zn  Zn114  1  0.68654780  0.68462428  0.68642523  1
  Zn  Zn115  1  0.31051302  0.31318520  0.31111704  1
  Zn  Zn116  1  0.31117537  0.31429501  0.81224549  1
  Zn  Zn117  1  0.31668155  0.81134014  0.31467085  1
  Zn  Zn118  1  0.29862279  0.81211329  0.80834365  1
  Zn  Zn119  1  0.81492745  0.31829185  0.31190611  1
  Zn  Zn120  1  0.81515727  0.30839085  0.80953555  1
  Zn  Zn121  1  0.80898133  0.80920068  0.31347113  1
  Zn  Zn122  1  0.80812134  0.81314273  0.81261453  1
  Zn  Zn123  1  0.18654020  0.43522435  0.43781511  1
  Zn  Zn124  1  0.18995205  0.43470909  0.93409305  1
  Zn  Zn125  1  0.19052654  0.93424740  0.43328845  1
  Zn  Zn126  1  0.30821932  0.93127538  0.93992579  1
  Zn  Zn127  1  0.68472178  0.44150313  0.43132347  1
  Zn  Zn128  1  0.68693973  0.43737653  0.93358834  1
  Zn  Zn129  1  0.69073421  0.93699966  0.44305099  1
  Zn  Zn130  1  0.68482860  0.93854316  0.93673782  1
  Zn  Zn131  1  0.30512499  0.06425826  0.06972538  1
  Zn  Zn132  1  0.31225805  0.06357491  0.56535821  1
  Zn  Zn133  1  0.31396208  0.56344699  0.06311569  1
  Zn  Zn134  1  0.31308657  0.56309039  0.56023187  1
  Zn  Zn135  1  0.81507366  0.06644514  0.05728846  1
  Zn  Zn136  1  0.81476226  0.05285336  0.57242658  1
  Zn  Zn137  1  0.81483900  0.56428582  0.06321176  1
  Zn  Zn138  1  0.81329843  0.56366004  0.56022129  1
  Zn  Zn139  1  0.43929717  0.43839492  0.18906580  1
  Zn  Zn140  1  0.43417685  0.43935551  0.68656020  1
  Zn  Zn141  1  0.44186308  0.93645982  0.19630616  1
  Zn  Zn142  1  0.43280400  0.93531782  0.69115278  1
  Zn  Zn143  1  0.93990350  0.44025682  0.18808591  1
  Zn  Zn144  1  0.92751884  0.44560698  0.63890298  1
  Zn  Zn145  1  0.93515197  0.93783151  0.18197899  1
  Zn  Zn146  1  0.94147320  0.93509513  0.68484876  1
  Zn  Zn147  1  0.05902152  0.06443791  0.31082936  1
  Zn  Zn148  1  0.06446269  0.05621542  0.80978499  1
  Zn  Zn149  1  0.06096634  0.56072088  0.31302014  1
  Zn  Zn150  1  0.06593211  0.55862516  0.80834908  1
  Zn  Zn151  1  0.58790909  0.02983691  0.33320852  1
  Zn  Zn152  1  0.56278622  0.06355901  0.81536400  1
  Zn  Zn153  1  0.56212060  0.55962678  0.31087194  1
  Zn  Zn154  1  0.57146483  0.55719684  0.81430516  1
  Zn  Zn155  1  0.43736551  0.18547099  0.43553095  1
  Zn  Zn156  1  0.43868318  0.19244800  0.93644028  1
  Zn  Zn157  1  0.43620406  0.68669137  0.44018058  1
  Zn  Zn158  1  0.44000214  0.69503851  0.95870666  1
  Zn  Zn159  1  0.96222706  0.18902404  0.43703497  1
  Zn  Zn160  1  0.93452301  0.19005438  0.93388338  1
  Zn  Zn161  1  0.93547954  0.69045054  0.43908138  1
  Zn  Zn162  1  0.93897611  0.68847158  0.93261290  1
  Zn  Zn163  1  0.06311045  0.31207941  0.06149638  1
  Zn  Zn164  1  0.06163964  0.31173435  0.56315976  1
  Zn  Zn165  1  0.04885857  0.79680068  0.02432237  1
  Zn  Zn166  1  0.06392684  0.81086465  0.56364358  1
  Zn  Zn167  1  0.56339017  0.31039596  0.06172856  1
  Zn  Zn168  1  0.56612631  0.31419805  0.56040200  1
  Zn  Zn169  1  0.56519891  0.81820534  0.06472826  1
  Zn  Zn170  1  0.56056370  0.81102510  0.56129229  1
  O  O171  1  0.10898540  0.12953213  0.12697021  1
  O  O172  1  0.11042511  0.12406551  0.62860342  1
  O  O173  1  0.12093763  0.61557164  0.12690870  1
  O  O174  1  0.11056908  0.63713675  0.60965403  1
  O  O175  1  0.63553881  0.10545092  0.11966606  1
  O  O176  1  0.62505047  0.11835300  0.61893225  1
  O  O177  1  0.61933101  0.62091937  0.11808119  1
  O  O178  1  0.61591165  0.60981701  0.63094794  1
  O  O179  1  0.37567905  0.38203411  0.37766226  1
  O  O180  1  0.38813220  0.37798683  0.87880931  1
  O  O181  1  0.37069766  0.88530858  0.38523749  1
  O  O182  1  0.38356270  0.87195744  0.86840807  1
  O  O183  1  0.89007173  0.37428779  0.37325729  1
  O  O184  1  0.88647963  0.37719919  0.87796427  1
  O  O185  1  0.88040765  0.88146137  0.37918069  1
  O  O186  1  0.87813991  0.86917623  0.88554966  1
  O  O187  1  0.25344927  0.00310322  0.36464308  1
  O  O188  1  0.25198065  -0.00467640  0.85933441  1
  O  O189  1  0.25845180  0.50752958  0.37988035  1
  O  O190  1  0.25420107  0.49710801  0.86034542  1
  O  O191  1  0.76434061  0.00110161  0.36745504  1
  O  O192  1  0.74574624  0.01463067  0.87176099  1
  O  O193  1  0.75045066  0.51320149  0.36745009  1
  O  O194  1  0.75240121  0.50850234  0.86680002  1
  O  O195  1  0.24019234  0.49479722  0.12435230  1
  O  O196  1  0.25598265  0.48657704  0.62874585  1
  O  O197  1  0.24148940  0.99257989  0.13985628  1
  O  O198  1  0.24632732  0.99322613  0.62783657  1
  O  O199  1  0.74937905  0.49375287  0.13220483  1
  O  O200  1  0.73612610  0.48992500  0.63244769  1
  O  O201  1  0.76476985  0.99634069  0.13452561  1
  O  O202  1  0.73960167  0.98732075  0.63038198  1
  O  O203  1  0.00815101  0.37102139  0.25216260  1
  O  O204  1  0.00614327  0.36740096  0.75440637  1
  O  O205  1  0.00565762  0.87229231  0.25226866  1
  O  O206  1  0.01697675  0.87831922  0.74725412  1
  O  O207  1  0.50812540  0.36704579  0.25157532  1
  O  O208  1  0.50607506  0.37196351  0.75419364  1
  O  O209  1  0.50284351  0.86613928  0.25640393  1
  O  O210  1  0.50742236  0.87611166  0.76170633  1
  O  O211  1  0.48454154  0.13272751  0.25228566  1
  O  O212  1  0.49147603  0.13372053  0.74952271  1
  O  O213  1  0.49455523  0.62620965  0.24360997  1
  O  O214  1  0.50073511  0.62302607  0.74458299  1
  O  O215  1  0.98810788  0.13232413  0.24479538  1
  O  O216  1  0.99492899  0.12811770  0.74497383  1
  O  O217  1  0.99413283  0.62959341  0.24437203  1
  O  O218  1  1.01001160  0.63071284  0.73880481  1
  O  O219  1  0.37533729  0.25949272  0.01001535  1
  O  O220  1  0.36970882  0.25496561  0.50536630  1
  O  O221  1  0.35721885  0.74358799  0.01344602  1
  O  O222  1  0.36007387  0.75724259  0.50057782  1
  O  O223  1  0.87459331  0.26246891  0.00525387  1
  O  O224  1  0.86359314  0.23307204  0.48849787  1
  O  O225  1  0.86531752  0.75521991  0.00590963  1
  O  O226  1  0.86731493  0.75602333  0.50672513  1
  O  O227  1  0.13345703  0.25652640  0.48948545  1
  O  O228  1  0.11834405  0.23378856  0.99969707  1
  O  O229  1  0.13335940  0.74559741  0.49165477  1
  O  O230  1  0.14151833  0.73053924  1.01331108  1
  O  O231  1  0.61859269  0.24141155  0.48543648  1
  O  O232  1  0.63008705  0.25039358  0.99513837  1
  O  O233  1  0.64321612  0.75486733  0.50723261  1
  O  O234  1  0.63114111  0.74805832  0.99003014  1
  O  O235  1  0.49174622  0.25634324  0.13769682  1
  O  O236  1  0.49257641  0.25296505  0.63465856  1
  O  O237  1  0.49839502  0.73556164  0.11681540  1
  O  O238  1  0.49920296  0.73343679  0.62008389  1
  O  O239  1  0.99260672  0.24724603  0.13104990  1
  O  O240  1  0.99528989  0.24112144  0.62974854  1
  O  O241  1  0.99300577  0.74396989  0.12571567  1
  O  O242  1  0.98757986  0.74415208  0.61945828  1
  O  O243  1  0.00874716  0.26278640  0.36739717  1
  O  O244  1  0.00309019  0.25765988  0.86595896  1
  O  O245  1  0.00365619  0.75710526  0.36592730  1
  O  O246  1  0.01416137  0.76498780  0.91659528  1
  O  O247  1  0.50641366  0.24979276  0.36330181  1
  O  O248  1  0.50030880  0.26087301  0.85984475  1
  O  O249  1  0.49902128  0.75635592  0.38523184  1
  O  O250  1  0.50107399  0.74591555  0.86660954  1
  O  O251  1  0.25178303  0.13965589  0.49973546  1
  O  O252  1  0.22907017  0.12744090  1.00953082  1
  O  O253  1  0.24162639  0.63147933  0.49277441  1
  O  O254  1  0.24094099  0.62973912  1.00355048  1
  O  O255  1  0.74528693  0.12237448  0.50091745  1
  O  O256  1  0.75166758  0.12901146  0.98662461  1
  O  O257  1  0.75677170  0.62879143  0.48565007  1
  O  O258  1  0.74528166  0.63047405  0.99169702  1
  O  O259  1  0.25711064  0.37967158  0.01301839  1
  O  O260  1  0.25479994  0.36712472  0.50647969  1
  O  O261  1  0.24458649  0.86103904  0.01136200  1
  O  O262  1  0.25321285  0.86723455  0.50475343  1
  O  O263  1  0.75832680  0.37865688  0.00417352  1
  O  O264  1  0.73729154  0.36777884  0.50087296  1
  O  O265  1  0.75647885  0.86509683  -0.00772823  1
  O  O266  1  0.75727203  0.86781280  0.50732380  1
  O  O267  1  0.12194180  0.48906662  0.24256374  1
  O  O268  1  0.13587366  0.48580938  0.75215203  1
  O  O269  1  0.12951514  0.99314656  0.25173608  1
  O  O270  1  0.13767345  0.99504986  0.74513276  1
  O  O271  1  0.63685834  0.49326659  0.24963287  1
  O  O272  1  0.63079899  0.49043822  0.74314105  1
  O  O273  1  0.64521056  1.00541098  0.23293269  1
  O  O274  1  0.62574075  0.99119704  0.74550399  1
  O  O275  1  0.36648487  0.00894885  0.25529814  1
  O  O276  1  0.36084414  0.01151856  0.74235668  1
  O  O277  1  0.38190166  0.50946317  0.26347528  1
  O  O278  1  0.35873940  0.49514400  0.75198223  1
  O  O279  1  0.87094594  0.00725458  0.25629775  1
  O  O280  1  0.87443531  0.00953875  0.74419921  1
  O  O281  1  0.86373077  0.50943267  0.24297903  1
  O  O282  1  0.85997794  0.49455739  0.74324346  1
  O  O283  1  0.12096087  0.36975148  0.36684654  1
  O  O284  1  0.11233617  0.37595683  0.86856625  1
  O  O285  1  0.11928824  0.86969501  0.36428096  1
  O  O286  1  0.12544557  0.87957049  0.85825589  1
  O  O287  1  0.62458476  0.36192383  0.36633637  1
  O  O288  1  0.61319659  0.37544835  0.86574411  1
  O  O289  1  0.61558158  0.91735949  0.36365082  1
  O  O290  1  0.61425488  0.86732405  0.86929580  1
  O  O291  1  0.36646708  0.14073682  0.13473862  1
  O  O292  1  0.37561130  0.13863680  0.62925213  1
  O  O293  1  0.38282131  0.62142139  0.13695414  1
  O  O294  1  0.38501814  0.62555101  0.62306890  1
  O  O295  1  0.88297134  0.13311441  0.13076732  1
  O  O296  1  0.88292745  0.12580769  0.63304452  1
  O  O297  1  0.88155911  0.63350093  0.13232994  1
  O  O298  1  0.88976013  0.63545694  0.61950760  1
  O  O299  1  0.25740102  0.26003122  0.12102050  1
  O  O300  1  0.25527692  0.25722129  0.61929357  1
  O  O301  1  0.25234156  0.75949338  0.12409400  1
  O  O302  1  0.25056334  0.75644466  0.61514407  1
  O  O303  1  0.75688928  0.26013955  0.12559480  1
  O  O304  1  0.74962633  0.27589984  0.62251285  1
  O  O305  1  0.75799981  0.74056791  0.11022465  1
  O  O306  1  0.76028625  0.74940304  0.61977917  1
  O  O307  1  0.24260908  0.25191162  0.38324294  1
  O  O308  1  0.24282500  0.26428957  0.88310035  1
  O  O309  1  0.24415136  0.74145534  0.38062438  1
  O  O310  1  0.25252553  0.75400740  0.89461987  1
  O  O311  1  0.74429942  0.24310383  0.37108229  1
  O  O312  1  0.74936382  0.23817780  0.87350103  1
  O  O313  1  0.75572425  0.73500120  0.38292834  1
  O  O314  1  0.74228329  0.74279643  0.88088796  1
  O  O315  1  -0.00083161  0.12131096  0.00607849  1
  O  O316  1  -0.00403700  0.11265764  0.50934902  1
  O  O317  1  0.01375707  0.61779597  0.00585190  1
  O  O318  1  0.01206191  0.62713836  0.49645843  1
  O  O319  1  0.50582206  0.12508715  -0.01008018  1
  O  O320  1  0.50931119  0.12781398  0.50632734  1
  O  O321  1  0.50763353  0.61685494  0.00703564  1
  O  O322  1  0.49395657  0.60970202  0.50715842  1
  O  O323  1  0.49241322  0.38366113  0.49829008  1
  O  O324  1  0.49577167  0.38271482  0.99348546  1
  O  O325  1  0.48373252  0.87471912  0.50473024  1
  O  O326  1  0.49918798  0.86642699  0.97970771  1
  O  O327  1  1.00077119  0.37382597  0.49010952  1
  O  O328  1  0.99722748  0.38091428  0.99163453  1
  O  O329  1  0.99534594  0.88014331  0.49299276  1
  O  O330  1  0.98737893  0.89223604  1.01125269  1
  O  O331  1  0.49356080  0.49793608  0.38223632  1
  O  O332  1  0.49803608  0.49529510  0.88153229  1
  O  O333  1  0.48112758  1.00492640  0.37395011  1
  O  O334  1  0.49890912  0.98798982  0.87900431  1
  O  O335  1  1.00326168  0.48607445  0.37454892  1
  O  O336  1  0.99897136  0.49324265  0.87822053  1
  O  O337  1  0.98893377  0.99834742  0.37922864  1
  O  O338  1  1.00134502  0.99522722  0.88588513  1
  O  O339  1  -0.00176606  0.01274903  0.12182869  1
  O  O340  1  0.00257568  0.00521802  0.61351356  1
  O  O341  1  0.01242025  0.50338015  0.11881897  1
  O  O342  1  0.00690630  0.52095878  0.62859189  1
  O  O343  1  0.50609080  0.00195960  0.12297740  1
  O  O344  1  0.51214449  -0.00052012  0.63281665  1
  O  O345  1  0.50176461  0.50942445  0.11807421  1
  O  O346  1  0.50255611  0.50555910  0.61855961  1
  O  O347  1  0.24192618  0.37253494  0.23760410  1
  O  O348  1  0.24149298  0.37951369  0.74039566  1
  O  O349  1  0.24286959  0.88144121  0.24921367  1
  O  O350  1  0.24541851  0.88763633  0.74058889  1
  O  O351  1  0.74732246  0.38356415  0.24523161  1
  O  O352  1  0.73757508  0.38183891  0.75995334  1
  O  O353  1  0.75427705  0.88941936  0.25238955  1
  O  O354  1  0.73556187  0.87429212  0.74653609  1
  O  O355  1  0.25558091  0.11841940  0.25128772  1
  O  O356  1  0.25324041  0.11390616  0.74481454  1
  O  O357  1  0.25589687  0.62691830  0.26316887  1
  O  O358  1  0.24093129  0.60574690  0.73866991  1
  O  O359  1  0.76437692  0.11537392  0.24537690  1
  O  O360  1  0.75996082  0.12518422  0.75457841  1
  O  O361  1  0.75665825  0.61940948  0.25922086  1
  O  O362  1  0.74274507  0.61390244  0.75960050  1
  O  O363  1  0.36729522  0.12071005  0.36862057  1
  O  O364  1  0.36986502  0.13631273  0.86175413  1
  O  O365  1  0.36595983  0.61703468  0.37197928  1
  O  O366  1  0.38964452  0.63307813  0.86636138  1
  O  O367  1  0.86992064  0.12422846  0.37334857  1
  O  O368  1  0.86346615  0.12630653  0.86673739  1
  O  O369  1  0.87504736  0.62898954  0.36082302  1
  O  O370  1  0.86372097  0.62379014  0.87804763  1
  O  O371  1  0.13164016  0.38125087  0.12991333  1
  O  O372  1  0.13325482  0.37015200  0.63245206  1
  O  O373  1  0.13153876  0.87468373  0.13888965  1
  O  O374  1  0.13652059  0.87734903  0.62500005  1
  O  O375  1  0.63342423  0.37622211  0.13191424  1
  O  O376  1  0.62257808  0.38565864  0.63308546  1
  O  O377  1  0.62341341  0.89343954  0.12827650  1
  O  O378  1  0.62476331  0.87912863  0.63342112  1
  O  O379  1  0.12159964  0.26331693  0.25385256  1
  O  O380  1  0.11384159  0.25818633  0.74945193  1
  O  O381  1  0.11851459  0.75604118  0.25480722  1
  O  O382  1  0.14013343  0.76831202  0.75031620  1
  O  O383  1  0.61857254  0.24799830  0.25629272  1
  O  O384  1  0.61687694  0.25788058  0.74731914  1
  O  O385  1  0.62873567  0.75504281  0.25084890  1
  O  O386  1  0.62820341  0.75566397  0.76160454  1
  O  O387  1  0.38125121  0.24633569  0.24560590  1
  O  O388  1  0.37968135  0.24716261  0.74119906  1
  O  O389  1  0.37721109  0.73463720  0.25166924  1
  O  O390  1  0.37392523  0.74706585  0.74723733  1
  O  O391  1  0.87839180  0.24442870  0.24497726  1
  O  O392  1  0.88842102  0.23690681  0.75265780  1
  O  O393  1  0.87854348  0.74439019  0.24188142  1
  O  O394  1  0.87111217  0.75264222  0.73548520  1
  O  O395  1  0.37958417  0.49344474  0.48915641  1
  O  O396  1  0.38586533  0.49797567  0.99604568  1
  O  O397  1  0.36401478  0.99110016  0.49196188  1
  O  O398  1  0.36494571  0.99369203  1.01096016  1
  O  O399  1  0.85031895  0.45937178  0.54867562  1
  O  O400  1  0.88390337  0.49342175  0.99878802  1
  O  O401  1  0.88057690  0.99152511  0.49398257  1
  O  O402  1  0.88054884  0.99103705  1.00222765  1
  O  O403  1  0.11027978  0.01893502  0.00836547  1
  O  O404  1  0.11284611  -0.00448279  0.49452402  1
  O  O405  1  0.12582151  0.50924991  0.00659795  1
  O  O406  1  0.12986494  0.51578636  0.49892851  1
  O  O407  1  0.62361238  -0.00093941  0.01268682  1
  O  O408  1  0.62973333  0.00981311  0.51257107  1
  O  O409  1  0.61426550  0.50349320  -0.00028344  1
  O  O410  1  0.61382646  0.49414977  0.50838805  1
  O  O411  1  0.36844042  0.36947567  0.12453063  1
  O  O412  1  0.36796120  0.36462182  0.62057154  1
  O  O413  1  0.36150369  0.87426158  0.13828025  1
  O  O414  1  0.36333198  0.87215517  0.61940057  1
  O  O415  1  0.87043964  0.37385953  0.11838085  1
  O  O416  1  0.86714239  0.35307934  0.64249263  1
  O  O417  1  0.87597955  0.86004582  0.11886972  1
  O  O418  1  0.87132442  0.86352484  0.62148452  1
  O  O419  1  0.12254389  0.14404513  0.36668919  1
  O  O420  1  0.12035154  0.12522738  0.88651348  1
  O  O421  1  0.13000079  0.62801606  0.38173377  1
  O  O422  1  0.12607772  0.62040091  0.88775555  1
  O  O423  1  0.62434297  0.12669791  0.38632401  1
  O  O424  1  0.63946589  0.12864305  0.87140362  1
  O  O425  1  0.63684719  0.62257645  0.37382173  1
  O  O426  1  0.63222561  0.63248574  0.88032535  1
