# generated using pymatgen
data_V85Zn86O256
_symmetry_space_group_name_H-M   'P 1'
_cell_length_a   16.96484741
_cell_length_b   16.95655801
_cell_length_c   16.96170443
_cell_angle_alpha   89.99751432
_cell_angle_beta   90.06682681
_cell_angle_gamma   89.91661811
_symmetry_Int_Tables_number   1
_chemical_formula_structural   V85Zn86O256
_chemical_formula_sum   'V85 Zn86 O256'
_cell_volume   4879.28732777
_cell_formula_units_Z   1
loop_
 _symmetry_equiv_pos_site_id
 _symmetry_equiv_pos_as_xyz
  1  'x, y, z'
loop_
 _atom_site_type_symbol
 _atom_site_label
 _atom_site_symmetry_multiplicity
 _atom_site_fract_x
 _atom_site_fract_y
 _atom_site_fract_z
 _atom_site_occupancy
  V  V0  1  0.24852642  0.37709203  0.62767514  1
  V  V1  1  0.36428900  0.61808305  0.25097838  1
  V  V2  1  0.13046075  0.50897088  0.14055462  1
  V  V3  1  0.87891485  0.63787854  0.25481058  1
  V  V4  1  0.50150644  0.74994329  0.74915958  1
  V  V5  1  0.25420405  0.11874268  0.37948063  1
  V  V6  1  0.37090461  0.11849339  0.25422462  1
  V  V7  1  0.62481885  0.37689952  0.74817327  1
  V  V8  1  0.88087744  0.62357099  0.74393526  1
  V  V9  1  0.63496290  0.75002898  0.87574691  1
  V  V10  1  0.50080296  0.00017802  0.00078734  1
  V  V11  1  0.37801204  0.88335709  0.49147129  1
  V  V12  1  0.24410392  0.62947172  0.87282727  1
  V  V13  1  0.00420275  0.87214267  0.88390166  1
  V  V14  1  0.00562979  0.74468921  0.75283213  1
  V  V15  1  0.37236223  0.50105534  0.87395143  1
  V  V16  1  0.63663080  0.62420275  -0.00050969  1
  V  V17  1  0.88287473  0.74845900  0.62275307  1
  V  V18  1  0.49865672  0.11998823  0.12611546  1
  V  V19  1  0.36985047  0.24959704  0.12723152  1
  V  V20  1  0.87302926  0.88335974  0.49263040  1
  V  V21  1  0.75127467  0.12625540  0.87861259  1
  V  V22  1  0.00221709  0.87387089  0.36856872  1
  V  V23  1  0.37465761  -0.00026545  0.87403975  1
  V  V24  1  0.24657577  0.74801130  0.48435227  1
  V  V25  1  0.74864718  0.49788625  0.24755419  1
  V  V26  1  0.50210861  0.87408663  0.87310888  1
  V  V27  1  0.86405902  0.75130431  0.11508446  1
  V  V28  1  0.62661495  0.25092553  0.87642584  1
  V  V29  1  0.24947959  0.87785126  0.12383249  1
  V  V30  1  0.50313583  0.74991674  0.25027334  1
  V  V31  1  0.88069335  -0.00130255  0.88511575  1
  V  V32  1  0.24602345  0.12620434  0.87885825  1
  V  V33  1  0.72673844  0.88532368  0.12247691  1
  V  V34  1  0.88696409  0.12921266  0.75638684  1
  V  V35  1  0.37623335  0.12419514  0.74683188  1
  V  V36  1  0.63520321  0.23726934  0.38929621  1
  V  V37  1  0.37529273  0.75312555  0.62145895  1
  V  V38  1  0.87056869  0.36264112  0.49584138  1
  V  V39  1  0.12830692  0.25239468  0.38427258  1
  V  V40  1  0.37611236  0.74939324  0.12339039  1
  V  V41  1  0.25622112  0.25043288  0.50523992  1
  V  V42  1  0.74920742  0.50296606  0.74860545  1
  V  V43  1  0.00259265  0.50380491  0.51472388  1
  V  V44  1  0.24729665  0.75104955  -0.00609463  1
  V  V45  1  0.11506228  0.24754066  0.87222591  1
  V  V46  1  0.62315805  0.63050772  0.49962331  1
  V  V47  1  0.75301498  0.87568276  0.62843687  1
  V  V48  1  0.24562750  0.87811413  0.62080271  1
  V  V49  1  0.50104376  0.25036873  0.75050729  1
  V  V50  1  0.12238581  0.87058432  0.74925931  1
  V  V51  1  0.62638475  0.37245544  0.25015843  1
  V  V52  1  0.24151189  0.49969379  0.75042332  1
  V  V53  1  0.62395873  0.75683283  0.37129707  1
  V  V54  1  0.25180328  0.38469647  0.13022565  1
  V  V55  1  0.12248905  0.62544893  -0.00239541  1
  V  V56  1  0.73548075  -0.00442792  0.26732457  1
  V  V57  1  0.11244246  0.34734140  0.22473436  1
  V  V58  1  0.24225730  -0.00008209  0.74673443  1
  V  V59  1  0.24356294  -0.00214874  0.25270032  1
  V  V60  1  0.88415541  0.24883168  0.63009820  1
  V  V61  1  0.87471108  0.49982707  0.37699240  1
  V  V62  1  0.74791905  0.00042624  0.75221356  1
  V  V63  1  0.35791938  0.50207030  0.37735217  1
  V  V64  1  0.62521784  0.12012139  0.00396807  1
  V  V65  1  0.87892331  0.49733628  0.87805854  1
  V  V66  1  0.12449725  0.11401642  0.50986230  1
  V  V67  1  0.11197268  0.00065010  0.10397656  1
  V  V68  1  0.37500691  0.37492362  0.00099828  1
  V  V69  1  0.74657633  0.25980797  0.01902941  1
  V  V70  1  0.24564587  0.24919824  0.00232085  1
  V  V71  1  0.50057888  0.50023189  -0.00127660  1
  V  V72  1  0.49928835  0.37601826  0.87417933  1
  V  V73  1  0.51716395  0.11816955  0.62348331  1
  V  V74  1  0.11500034  0.37158319  0.74819318  1
  V  V75  1  0.74845896  0.62750479  0.37651368  1
  V  V76  1  0.00080511  0.63262607  0.13096452  1
  V  V77  1  0.00531017  0.37704847  0.37352349  1
  V  V78  1  0.49805025  0.62743167  0.62322597  1
  V  V79  1  0.50201524  0.62246397  0.12460348  1
  V  V80  1  0.74782120  0.36789438  0.62000798  1
  V  V81  1  0.49906440  0.37790900  0.37883849  1
  V  V82  1  0.49649763  0.88689111  0.36743661  1
  V  V83  1  0.49790462  0.24877711  0.25474212  1
  V  V84  1  0.37496622  0.87489622  -0.00241668  1
  Zn  Zn85  1  0.75463612  0.74924988  0.49976452  1
  Zn  Zn86  1  0.62392021  0.88079087  0.74411320  1
  Zn  Zn87  1  0.00078743  -0.00215477  0.50767216  1
  Zn  Zn88  1  0.00490602  0.49085033  0.00363639  1
  Zn  Zn89  1  0.84744937  0.12448575  0.24784020  1
  Zn  Zn90  1  -0.01520005  0.12079197  0.13136039  1
  Zn  Zn91  1  0.12032290  0.62268920  0.50224887  1
  Zn  Zn92  1  -0.00511625  0.36929995  0.87956859  1
  Zn  Zn93  1  0.62341897  0.50151716  0.62191775  1
  Zn  Zn94  1  0.62359695  0.48934573  0.12290639  1
  Zn  Zn95  1  0.11700009  0.73840683  0.35686924  1
  Zn  Zn96  1  0.37182612  0.62586900  0.74863290  1
  Zn  Zn97  1  0.49498344  0.50442325  0.49903833  1
  Zn  Zn98  1  0.37405216  0.38133985  0.50381086  1
  Zn  Zn99  1  0.38048189  0.25195025  0.62579501  1
  Zn  Zn100  1  0.11475277  0.87080694  0.24373497  1
  Zn  Zn101  1  0.81878223  0.16918639  0.42726493  1
  Zn  Zn102  1  0.01051810  0.12105788  0.63459085  1
  Zn  Zn103  1  0.87802140  0.36556848  0.02072393  1
  Zn  Zn104  1  0.75609902  0.62758240  0.87858897  1
  Zn  Zn105  1  0.50108194  0.01352721  0.48931819  1
  Zn  Zn106  1  0.86846618  0.87137347  -0.00019495  1
  Zn  Zn107  1  0.14108800  0.17157548  0.20025488  1
  Zn  Zn108  1  0.19048298  0.19162199  0.69001465  1
  Zn  Zn109  1  0.18820715  0.69422782  0.18643545  1
  Zn  Zn110  1  0.18240093  0.68824254  0.67958723  1
  Zn  Zn111  1  0.68153156  0.18254328  0.19319983  1
  Zn  Zn112  1  0.69433033  0.18794806  0.68961957  1
  Zn  Zn113  1  0.68902766  0.68479468  0.18796437  1
  Zn  Zn114  1  0.68929802  0.69079855  0.68594049  1
  Zn  Zn115  1  0.30754493  0.31341251  0.31227386  1
  Zn  Zn116  1  0.31057109  0.31184991  0.81199731  1
  Zn  Zn117  1  0.31690558  0.81268401  0.30749711  1
  Zn  Zn118  1  0.31243360  0.81192882  0.80959749  1
  Zn  Zn119  1  0.81116120  0.30998442  0.30366401  1
  Zn  Zn120  1  0.81173556  0.31297405  0.81438335  1
  Zn  Zn121  1  0.80714040  0.82082056  0.30873524  1
  Zn  Zn122  1  0.81837800  0.81280179  0.81154061  1
  Zn  Zn123  1  0.18432846  0.43760567  0.44023186  1
  Zn  Zn124  1  0.18338397  0.43601999  0.93969919  1
  Zn  Zn125  1  0.18405361  0.93386760  0.43279321  1
  Zn  Zn126  1  0.18573347  0.93521198  0.93214904  1
  Zn  Zn127  1  0.68358082  0.43945917  0.43683673  1
  Zn  Zn128  1  0.68893823  0.43962283  0.93494340  1
  Zn  Zn129  1  0.68489642  1.03968561  0.45492949  1
  Zn  Zn130  1  0.69097232  0.93508475  0.94144204  1
  Zn  Zn131  1  0.30961943  0.06284966  0.06352696  1
  Zn  Zn132  1  0.31643453  0.06057461  0.56408787  1
  Zn  Zn133  1  0.31301420  0.56405256  0.06062838  1
  Zn  Zn134  1  0.28155458  0.57835008  0.57422282  1
  Zn  Zn135  1  0.80936995  0.06017007  0.06817586  1
  Zn  Zn136  1  0.81730640  0.06171980  0.57232771  1
  Zn  Zn137  1  0.82699910  0.53523233  0.07997036  1
  Zn  Zn138  1  0.81318785  0.56028847  0.56269461  1
  Zn  Zn139  1  0.43843170  0.43875691  0.19233030  1
  Zn  Zn140  1  0.43265270  0.44071851  0.68697585  1
  Zn  Zn141  1  0.43724524  0.93862653  0.18814722  1
  Zn  Zn142  1  0.43638559  0.93755620  0.68544051  1
  Zn  Zn143  1  0.94192462  0.44056334  0.18855180  1
  Zn  Zn144  1  0.93319223  0.43346527  0.68930026  1
  Zn  Zn145  1  0.92511146  0.94397437  0.18899471  1
  Zn  Zn146  1  0.93909375  0.94088945  0.68848227  1
  Zn  Zn147  1  0.05464191  0.05282613  0.31755448  1
  Zn  Zn148  1  0.06406668  0.05794262  0.81923842  1
  Zn  Zn149  1  0.06483921  0.56488523  0.31843674  1
  Zn  Zn150  1  0.06140721  0.56004721  0.81272780  1
  Zn  Zn151  1  0.57153453  0.06091724  0.30450935  1
  Zn  Zn152  1  0.56448615  0.06266934  0.81315979  1
  Zn  Zn153  1  0.55940823  0.56241086  0.31364699  1
  Zn  Zn154  1  0.56354784  0.56510868  0.81152509  1
  Zn  Zn155  1  0.43805875  0.18962815  0.43946639  1
  Zn  Zn156  1  0.43462966  0.18804523  0.93671303  1
  Zn  Zn157  1  0.43189522  0.68894022  0.43604317  1
  Zn  Zn158  1  0.43767050  0.68573815  0.93563007  1
  Zn  Zn159  1  0.96416407  0.20541291  0.30119971  1
  Zn  Zn160  1  0.93252449  0.18226403  0.95346814  1
  Zn  Zn161  1  0.94304511  0.68786271  0.43957087  1
  Zn  Zn162  1  0.93967440  0.68397702  0.93496918  1
  Zn  Zn163  1  0.04458460  0.28214546  0.05040566  1
  Zn  Zn164  1  0.06201044  0.31433387  0.56179907  1
  Zn  Zn165  1  0.06360139  0.80678129  0.06733105  1
  Zn  Zn166  1  0.06160091  0.81440448  0.56311352  1
  Zn  Zn167  1  0.56087848  0.30776244  0.06603214  1
  Zn  Zn168  1  0.55885589  0.31249977  0.56311393  1
  Zn  Zn169  1  0.56077744  0.80591887  0.05611872  1
  Zn  Zn170  1  0.59956404  0.86614327  0.52368603  1
  O  O171  1  0.14215674  0.09725580  0.11482241  1
  O  O172  1  0.13080862  0.13170840  0.61415618  1
  O  O173  1  0.12053199  0.62415383  0.11922868  1
  O  O174  1  0.17109786  0.61099135  0.60307808  1
  O  O175  1  0.60932542  0.13144693  0.11516937  1
  O  O176  1  0.61552902  0.12746446  0.63180223  1
  O  O177  1  0.61266727  0.62816451  0.11704227  1
  O  O178  1  0.61569662  0.62866175  0.61726056  1
  O  O179  1  0.37902282  0.38631903  0.37369101  1
  O  O180  1  0.38027807  0.38060646  0.87958007  1
  O  O181  1  0.38285481  0.87266639  0.38055709  1
  O  O182  1  0.38096064  0.87928894  0.87842714  1
  O  O183  1  0.88024211  0.38109885  0.38036450  1
  O  O184  1  0.87511138  0.38515283  0.87647970  1
  O  O185  1  0.87959287  0.86828957  0.38843409  1
  O  O186  1  0.88396806  0.88061928  0.87875176  1
  O  O187  1  0.24700041  0.00683702  0.36620671  1
  O  O188  1  0.25501048  0.00702441  0.86875491  1
  O  O189  1  0.25943285  0.49502858  0.37437770  1
  O  O190  1  0.25399825  0.50525746  0.87030834  1
  O  O191  1  0.73735345  -0.01602718  0.36655711  1
  O  O192  1  0.75765942  0.00643788  0.87296083  1
  O  O193  1  0.75533202  0.50792514  0.37098736  1
  O  O194  1  0.75672333  0.50104245  0.86251171  1
  O  O195  1  0.24625185  0.49519902  0.12199610  1
  O  O196  1  0.26080519  0.48447182  0.63840260  1
  O  O197  1  0.24921990  0.98719162  0.12691937  1
  O  O198  1  0.25928393  0.98656985  0.63403486  1
  O  O199  1  0.73459405  0.51779983  0.14648611  1
  O  O200  1  0.75096456  0.49076886  0.63584389  1
  O  O201  1  0.73589692  0.98634339  0.11816053  1
  O  O202  1  0.76097942  0.98804627  0.64115110  1
  O  O203  1  0.01129086  0.38166451  0.25796846  1
  O  O204  1  0.01229207  0.37768526  0.75208836  1
  O  O205  1  -0.00785091  0.88385315  0.26610978  1
  O  O206  1  0.00753467  0.86740553  0.75532917  1
  O  O207  1  0.50300521  0.36786480  0.25968948  1
  O  O208  1  0.50492722  0.37169605  0.75349258  1
  O  O209  1  0.48898265  0.86157700  0.25500251  1
  O  O210  1  0.50352039  0.86812993  0.75306076  1
  O  O211  1  0.49059852  0.12689320  0.24402731  1
  O  O212  1  0.49432112  0.12970966  0.74574711  1
  O  O213  1  0.49375476  0.62904170  0.24012069  1
  O  O214  1  0.49565822  0.63292034  0.74405728  1
  O  O215  1  1.03455427  0.13267059  0.24231881  1
  O  O216  1  0.99012398  0.12223087  0.75554877  1
  O  O217  1  0.98859844  0.61769410  0.24364887  1
  O  O218  1  0.99484644  0.63165690  0.75099855  1
  O  O219  1  0.36810284  0.25704037  0.00454316  1
  O  O220  1  0.36556652  0.25418849  0.50378639  1
  O  O221  1  0.36979942  0.75410329  0.00439962  1
  O  O222  1  0.36742106  0.76238919  0.50479265  1
  O  O223  1  0.84992708  0.25389318  -0.00037708  1
  O  O224  1  0.86842347  0.26064994  0.50767448  1
  O  O225  1  0.87317665  0.74303582  0.01287224  1
  O  O226  1  0.87611458  0.75331319  0.51049284  1
  O  O227  1  0.13789084  0.24644976  0.49795603  1
  O  O228  1  0.14345640  0.25965344  0.98661049  1
  O  O229  1  0.14269421  0.75290876  0.50520917  1
  O  O230  1  0.13535729  0.73674264  1.00514107  1
  O  O231  1  0.62162693  0.25562478  0.48576811  1
  O  O232  1  0.62852576  0.24220649  0.99530341  1
  O  O233  1  0.62933044  0.74415946  0.49036859  1
  O  O234  1  0.61752878  0.73664576  0.98571812  1
  O  O235  1  0.48962497  0.23983794  0.13212822  1
  O  O236  1  0.50026501  0.24039790  0.63489305  1
  O  O237  1  0.49365154  0.74243543  0.12913039  1
  O  O238  1  0.49203085  0.73992088  0.63315864  1
  O  O239  1  1.07835590  0.27063387  0.15976863  1
  O  O240  1  0.98689546  0.24667414  0.62071362  1
  O  O241  1  0.98899310  0.73734994  0.12321015  1
  O  O242  1  0.99099805  0.75368624  0.63612645  1
  O  O243  1  0.01579629  0.26659845  0.38343384  1
  O  O244  1  0.01335874  0.24598571  0.87960837  1
  O  O245  1  0.00118064  0.76738001  0.38308045  1
  O  O246  1  -0.00465789  0.75638552  0.86052566  1
  O  O247  1  0.50094770  0.26068653  0.37214327  1
  O  O248  1  0.50608939  0.25521646  0.87037529  1
  O  O249  1  0.50242952  0.74915781  0.36351177  1
  O  O250  1  0.50406094  0.75352046  0.86567492  1
  O  O251  1  0.25108516  0.13080168  0.49783692  1
  O  O252  1  0.26032531  0.13522850  0.98841271  1
  O  O253  1  0.26850309  0.64979474  0.48398033  1
  O  O254  1  0.24570080  0.63094124  0.99193387  1
  O  O255  1  0.75262330  0.11635020  0.49952152  1
  O  O256  1  0.73900494  0.13276615  0.99769347  1
  O  O257  1  0.74207205  0.62746917  0.49565214  1
  O  O258  1  0.73697258  0.61392507  1.00056194  1
  O  O259  1  0.25768722  0.37114639  0.00754630  1
  O  O260  1  0.24956103  0.36871056  0.51058771  1
  O  O261  1  0.25498464  0.87053648  0.00208663  1
  O  O262  1  0.25735956  0.87293684  0.50527486  1
  O  O263  1  0.73947715  0.36164613  0.00192643  1
  O  O264  1  0.75796442  0.38669475  0.50974722  1
  O  O265  1  0.75048163  0.87116580  0.01534765  1
  O  O266  1  0.76658114  0.86812011  0.51154879  1
  O  O267  1  0.12391153  0.49841649  0.24090335  1
  O  O268  1  0.13615866  0.49040395  0.75553123  1
  O  O269  1  0.13701953  0.99078417  0.24328498  1
  O  O270  1  0.13823807  0.99412472  0.75319048  1
  O  O271  1  0.62988475  0.49065183  0.25483275  1
  O  O272  1  0.63272412  0.49670911  0.74674209  1
  O  O273  1  0.63328035  0.98897594  0.24571383  1
  O  O274  1  0.64223274  0.99874775  0.75877361  1
  O  O275  1  0.36282336  0.01308577  0.24202582  1
  O  O276  1  0.36640712  0.00497628  0.75578251  1
  O  O277  1  0.37801166  0.50708171  0.26203612  1
  O  O278  1  0.36369071  0.50154639  0.76002688  1
  O  O279  1  0.84368448  -0.00310420  0.24423675  1
  O  O280  1  0.86770453  0.00871448  0.76479567  1
  O  O281  1  0.86682130  0.50681435  0.26484162  1
  O  O282  1  0.86990834  0.50555595  0.75596088  1
  O  O283  1  0.11927248  0.37029424  0.37160794  1
  O  O284  1  0.12459173  0.36537334  0.86726617  1
  O  O285  1  0.11230844  0.86837829  0.37193381  1
  O  O286  1  0.11909718  0.87601159  0.85953332  1
  O  O287  1  0.61584090  0.36852593  0.36968114  1
  O  O288  1  0.61747958  0.37132950  0.86877805  1
  O  O289  1  0.61006952  0.85765063  0.37568982  1
  O  O290  1  0.61875791  0.86608509  0.87466905  1
  O  O291  1  0.37708013  0.13125567  0.13238876  1
  O  O292  1  0.37607097  0.12740001  0.63963943  1
  O  O293  1  0.38625285  0.62728990  0.12767996  1
  O  O294  1  0.37611224  0.63865604  0.62474456  1
  O  O295  1  0.87263586  0.11707330  0.13610288  1
  O  O296  1  0.87531680  0.13478296  0.64037530  1
  O  O297  1  0.88075825  0.63085802  0.13423638  1
  O  O298  1  0.87111772  0.63046085  0.63646725  1
  O  O299  1  0.25658151  0.25933430  0.11476677  1
  O  O300  1  0.25588997  0.25896583  0.62169190  1
  O  O301  1  0.25747522  0.76172592  0.11583077  1
  O  O302  1  0.26043990  0.76387005  0.62018967  1
  O  O303  1  0.73648047  0.25022706  0.11693929  1
  O  O304  1  0.75790537  0.26395791  0.63110468  1
  O  O305  1  0.76131895  0.75300365  0.12861240  1
  O  O306  1  0.76691108  0.75577433  0.62976028  1
  O  O307  1  0.25134446  0.24496017  0.39079881  1
  O  O308  1  0.24804912  0.24157129  0.88045594  1
  O  O309  1  0.24555940  0.76413751  0.38341808  1
  O  O310  1  0.25563917  0.74002910  0.87953846  1
  O  O311  1  0.73784761  0.24974195  0.37650620  1
  O  O312  1  0.73961946  0.24403936  0.87784653  1
  O  O313  1  0.74040883  0.74562345  0.37260209  1
  O  O314  1  0.73835584  0.74825912  0.86719660  1
  O  O315  1  0.00606558  0.17556884  0.03451555  1
  O  O316  1  0.02434467  0.12262889  0.50213951  1
  O  O317  1  0.00991838  0.62498695  0.00663242  1
  O  O318  1  -0.00382094  0.60821375  0.50446089  1
  O  O319  1  0.50277610  0.12219087  0.00655625  1
  O  O320  1  0.49351214  0.12714960  0.51946971  1
  O  O321  1  0.50386582  0.61783686  0.00616345  1
  O  O322  1  0.50495666  0.62915292  0.50729777  1
  O  O323  1  0.49485200  0.38029861  0.49396863  1
  O  O324  1  0.49509304  0.37921315  0.99543117  1
  O  O325  1  0.48955057  0.86684111  0.48130080  1
  O  O326  1  0.49403236  0.87992380  0.99350632  1
  O  O327  1  0.98938560  0.38114064  0.49350541  1
  O  O328  1  0.99409611  0.37243475  1.00038130  1
  O  O329  1  0.98693131  0.87436521  0.49814505  1
  O  O330  1  1.00087024  0.86098498  0.98546568  1
  O  O331  1  0.49573785  0.48743283  0.37587180  1
  O  O332  1  0.49285880  0.49619352  0.87776199  1
  O  O333  1  0.49866519  0.98940671  0.36571082  1
  O  O334  1  0.49381632  0.99462331  0.87870091  1
  O  O335  1  0.99099431  0.49052423  0.38087704  1
  O  O336  1  0.99314823  0.49461794  0.87769264  1
  O  O337  1  1.00778980  0.98189362  0.39008750  1
  O  O338  1  0.99279329  0.98637426  0.87207374  1
  O  O339  1  0.00977341  -0.00081067  0.12679727  1
  O  O340  1  -0.00461861  0.00847626  0.62160520  1
  O  O341  1  0.01397585  0.51515589  0.12277804  1
  O  O342  1  -0.00761906  0.49369530  0.61266414  1
  O  O343  1  0.49155942  0.01253783  0.11784446  1
  O  O344  1  0.49906310  0.01746450  0.63335538  1
  O  O345  1  0.50186298  0.50700094  0.11974575  1
  O  O346  1  0.49688769  0.51644635  0.62538979  1
  O  O347  1  0.23839810  0.36844477  0.23318052  1
  O  O348  1  0.24321971  0.38097335  0.74647834  1
  O  O349  1  0.25609069  0.88259030  0.23793102  1
  O  O350  1  0.24430205  0.88044066  0.74373811  1
  O  O351  1  0.73814559  0.38675067  0.25948706  1
  O  O352  1  0.74275234  0.38242806  0.74386199  1
  O  O353  1  0.74792759  0.87914427  0.23105643  1
  O  O354  1  0.75294081  0.88306113  0.74661226  1
  O  O355  1  0.25197993  0.11676426  0.26023520  1
  O  O356  1  0.25710103  0.11761237  0.75548381  1
  O  O357  1  0.26621663  0.62778898  0.23790401  1
  O  O358  1  0.24957490  0.61780601  0.75784038  1
  O  O359  1  0.73241647  0.10525047  0.25545235  1
  O  O360  1  0.75891565  0.11914697  0.76035084  1
  O  O361  1  0.75741379  0.62028348  0.26017322  1
  O  O362  1  0.75646598  0.61633857  0.74981501  1
  O  O363  1  0.36393493  0.12907605  0.36876234  1
  O  O364  1  0.36837474  0.12103761  0.86456121  1
  O  O365  1  0.38045513  0.61097451  0.36419752  1
  O  O366  1  0.36391286  0.61782598  0.87428755  1
  O  O367  1  0.89311681  0.13138605  0.35588905  1
  O  O368  1  0.87303392  0.12059424  0.87578830  1
  O  O369  1  0.87161504  0.61995386  0.37187847  1
  O  O370  1  0.87377704  0.62091673  0.86016445  1
  O  O371  1  0.13650074  0.39665854  0.12314590  1
  O  O372  1  0.13478302  0.36662320  0.63583766  1
  O  O373  1  0.13285566  0.88411542  0.12166181  1
  O  O374  1  0.13450707  0.87310460  0.63588783  1
  O  O375  1  0.61384604  0.37283552  0.14462171  1
  O  O376  1  0.63063393  0.37828945  0.62902200  1
  O  O377  1  0.62885572  0.86729677  0.12106710  1
  O  O378  1  0.64855677  0.86098169  0.62875900  1
  O  O379  1  0.15258723  0.25384026  0.28016280  1
  O  O380  1  0.13217710  0.25923338  0.76145999  1
  O  O381  1  0.12252913  0.75861711  0.24440972  1
  O  O382  1  0.11794584  0.75606827  0.74433980  1
  O  O383  1  0.61601219  0.25460374  0.26282048  1
  O  O384  1  0.62030712  0.25598854  0.75691181  1
  O  O385  1  0.61102501  0.73946829  0.25556880  1
  O  O386  1  0.61362094  0.74865723  0.75711227  1
  O  O387  1  0.37660705  0.23961494  0.24719077  1
  O  O388  1  0.38310071  0.24088799  0.75318554  1
  O  O389  1  0.38332971  0.73976646  0.24255946  1
  O  O390  1  0.38491313  0.75127713  0.74116524  1
  O  O391  1  0.87581483  0.24634266  0.24316518  1
  O  O392  1  0.87142314  0.24137553  0.74450345  1
  O  O393  1  0.87007185  0.73995881  0.24355328  1
  O  O394  1  0.88410351  0.74137440  0.74462455  1
  O  O395  1  0.37324357  0.50312832  0.48438748  1
  O  O396  1  0.38025858  0.49470371  0.99223067  1
  O  O397  1  0.38344110  0.98754894  0.50502628  1
  O  O398  1  0.37985859  0.99565113  0.99264994  1
  O  O399  1  0.88023000  0.49378579  0.49076019  1
  O  O400  1  0.87841094  0.51612241  0.97966734  1
  O  O401  1  0.87425926  0.98428745  0.50291949  1
  O  O402  1  0.86995352  0.99722527  0.98820744  1
  O  O403  1  0.11915954  -0.00773010  0.00476195  1
  O  O404  1  0.13545687  0.01235706  0.50317077  1
  O  O405  1  0.12769844  0.51369249  0.00744438  1
  O  O406  1  0.10464064  0.49296025  0.49989447  1
  O  O407  1  0.61657891  0.01353535  -0.00898996  1
  O  O408  1  0.60700490  -0.02178793  0.50123095  1
  O  O409  1  0.61703646  0.50504533  0.00095292  1
  O  O410  1  0.62017466  0.51679149  0.50126716  1
  O  O411  1  0.37010143  0.37169549  0.12277892  1
  O  O412  1  0.36666952  0.37070335  0.62498509  1
  O  O413  1  0.36905660  0.87095030  0.11635969  1
  O  O414  1  0.37234039  0.86708424  0.61755801  1
  O  O415  1  0.86288734  0.42779851  0.11323936  1
  O  O416  1  0.86790527  0.36768384  0.61921463  1
  O  O417  1  0.87866335  0.85672854  0.12117036  1
  O  O418  1  0.87185848  0.86595789  0.62158578  1
  O  O419  1  0.13948808  0.13280809  0.39059368  1
  O  O420  1  0.13833787  0.13121363  0.86973740  1
  O  O421  1  0.11940090  0.62983800  0.38815977  1
  O  O422  1  0.13627999  0.62038098  0.88198424  1
  O  O423  1  0.61494483  0.13605201  0.38116420  1
  O  O424  1  0.62762416  0.13294884  0.88377428  1
  O  O425  1  0.62641860  0.63233036  0.38220702  1
  O  O426  1  0.62796373  0.63104230  0.88211648  1
