# generated using pymatgen
data_V85Zn86O256
_symmetry_space_group_name_H-M   'P 1'
_cell_length_a   16.90647633
_cell_length_b   16.90895094
_cell_length_c   16.90081333
_cell_angle_alpha   90.06412176
_cell_angle_beta   90.05691658
_cell_angle_gamma   89.99612533
_symmetry_Int_Tables_number   1
_chemical_formula_structural   V85Zn86O256
_chemical_formula_sum   'V85 Zn86 O256'
_cell_volume   4831.44325046
_cell_formula_units_Z   1
loop_
 _symmetry_equiv_pos_site_id
 _symmetry_equiv_pos_as_xyz
  1  'x, y, z'
loop_
 _atom_site_type_symbol
 _atom_site_label
 _atom_site_symmetry_multiplicity
 _atom_site_fract_x
 _atom_site_fract_y
 _atom_site_fract_z
 _atom_site_occupancy
  V  V0  1  0.61717667  0.12082319  0.49915800  1
  V  V1  1  -0.00050109  0.61416031  0.11921122  1
  V  V2  1  0.12396986  0.87526355  0.75724822  1
  V  V3  1  0.62417255  0.37146258  0.25131573  1
  V  V4  1  -0.00274827  0.87405931  0.37502365  1
  V  V5  1  0.87135624  0.25012574  0.12272864  1
  V  V6  1  0.75330091  0.37116266  0.62843299  1
  V  V7  1  0.62586464  0.50140988  0.62253200  1
  V  V8  1  -0.01074035  0.75393461  0.74863148  1
  V  V9  1  0.74586848  0.24848497  0.50194596  1
  V  V10  1  0.37926502  0.25423688  0.13164953  1
  V  V11  1  0.62888852  0.00046995  0.13348642  1
  V  V12  1  -0.01769834  0.62442327  0.63345215  1
  V  V13  1  0.50171875  0.12850676  0.12755520  1
  V  V14  1  0.38098936  0.88176970  0.50176048  1
  V  V15  1  0.36799775  0.61754547  0.74996896  1
  V  V16  1  0.62130069  0.75620229  0.87697657  1
  V  V17  1  0.49876722  0.49996628  0.49294291  1
  V  V18  1  0.12271554  0.62821798  0.50613366  1
  V  V19  1  0.74723263  0.12186569  0.36852704  1
  V  V20  1  0.74944855  0.37484491  0.12698208  1
  V  V21  1  0.00136980  -0.00288526  -0.00759970  1
  V  V22  1  0.37529949  0.75362472  0.62487688  1
  V  V23  1  0.87311975  0.36857359  0.50304525  1
  V  V24  1  0.25571468  0.49932659  0.26281563  1
  V  V25  1  0.62055851  0.37742525  0.75447050  1
  V  V26  1  0.75278058  0.87919564  0.13226425  1
  V  V27  1  0.12795723  0.36883359  0.25909659  1
  V  V28  1  0.49603040  0.12072268  0.62673953  1
  V  V29  1  0.87908319  0.87504190  -0.00736440  1
  V  V30  1  0.25115916  0.01545494  0.75486923  1
  V  V31  1  0.25045427  0.24826499  0.49929062  1
  V  V32  1  0.50485247  0.86039094  0.37344679  1
  V  V33  1  0.50165649  -0.00454634  -0.00451036  1
  V  V34  1  -0.00854731  0.13315674  0.62402789  1
  V  V35  1  0.00894376  0.37709596  0.88101841  1
  V  V36  1  0.38087834  0.12615632  0.25097680  1
  V  V37  1  0.12516122  0.61162784  -0.00171292  1
  V  V38  1  0.87086253  0.87025207  0.51323636  1
  V  V39  1  0.00611087  0.36928583  0.37881367  1
  V  V40  1  0.87644548  0.74842817  0.12428581  1
  V  V41  1  0.86806452  -0.00383021  0.36589997  1
  V  V42  1  0.37055449  0.24877681  0.62909959  1
  V  V43  1  0.12369545  0.74735495  0.87560561  1
  V  V44  1  0.24755913  0.12455044  0.37128627  1
  V  V45  1  0.62777896  0.25545687  0.87935257  1
  V  V46  1  0.37935722  0.37469251  -0.00852979  1
  V  V47  1  0.62743109  0.50161170  0.12857307  1
  V  V48  1  0.37655370  0.87107321  -0.01293389  1
  V  V49  1  0.13206890  0.12904015  -0.00534968  1
  V  V50  1  0.12458007  0.74772464  0.37502038  1
  V  V51  1  0.12576453  -0.00205301  0.12433746  1
  V  V52  1  0.25066180  0.87901526  0.62660804  1
  V  V53  1  0.63082766  0.12819012  0.00094279  1
  V  V54  1  -0.00594733  0.50239836  0.50475881  1
  V  V55  1  0.49463849  0.37019443  0.37049100  1
  V  V56  1  0.74505100  0.75271041  0.51241256  1
  V  V57  1  0.75419104  0.12637164  0.87606901  1
  V  V58  1  0.25416526  0.87071883  0.12297365  1
  V  V59  1  0.62178975  0.86117995  0.25082911  1
  V  V60  1  0.75082300  0.74983089  -0.00011494  1
  V  V61  1  0.87400675  0.37884830  -0.00042350  1
  V  V62  1  0.50223413  0.49843441  -0.00916847  1
  V  V63  1  0.38233943  0.62993483  0.25539798  1
  V  V64  1  0.12631595  0.87321718  0.24920359  1
  V  V65  1  0.13496703  0.37886351  0.74058948  1
  V  V66  1  0.00024648  0.74562031  0.24880760  1
  V  V67  1  0.63081897  0.87664734  0.74832308  1
  V  V68  1  -0.00210427  -0.00117515  0.49892603  1
  V  V69  1  0.37009315  0.38092058  0.50236606  1
  V  V70  1  0.87965597  0.50379091  0.87232044  1
  V  V71  1  0.12459894  0.00109303  0.62508365  1
  V  V72  1  0.86758004  0.49670166  0.37275224  1
  V  V73  1  0.00141040  0.12719459  0.12633112  1
  V  V74  1  0.87126268  0.61839835  0.24949936  1
  V  V75  1  0.49749477  0.75683247  0.75390391  1
  V  V76  1  0.37414042  0.01886793  0.87265056  1
  V  V77  1  0.12250134  0.12901630  0.49411408  1
  V  V78  1  0.50054702  0.62632827  0.62335522  1
  V  V79  1  0.49834109  0.24802056  0.75415043  1
  V  V80  1  0.38614874  0.00010778  0.37595783  1
  V  V81  1  0.75256163  0.62591558  0.86816547  1
  V  V82  1  0.62915500  -0.00246388  0.62295257  1
  V  V83  1  0.74450580  0.63310823  0.37330802  1
  V  V84  1  0.25083584  0.37674669  0.12441382  1
  Zn  Zn85  1  0.13133077  0.24522129  0.86537483  1
  Zn  Zn86  1  0.25138867  0.74509081  -0.00222009  1
  Zn  Zn87  1  0.37524421  0.48974525  0.86474124  1
  Zn  Zn88  1  0.62005063  0.24732495  0.37024388  1
  Zn  Zn89  1  0.75310024  0.50381892  0.74910597  1
  Zn  Zn90  1  0.12311345  0.49537808  0.12615919  1
  Zn  Zn91  1  -0.00770634  0.25658992  0.74875295  1
  Zn  Zn92  1  0.62035336  0.63296368  0.49222732  1
  Zn  Zn93  1  0.00215700  0.24791413  0.25487068  1
  Zn  Zn94  1  0.87521610  0.00030204  0.87137429  1
  Zn  Zn95  1  0.38402331  0.75073450  0.12629829  1
  Zn  Zn96  1  0.25732364  0.24550546  -0.00536646  1
  Zn  Zn97  1  0.50182894  0.62983072  0.12730965  1
  Zn  Zn98  1  0.86801417  0.12978005  0.74107917  1
  Zn  Zn99  1  0.15074116  0.50379429  0.63329833  1
  Zn  Zn100  1  0.24806386  0.61606708  0.87300043  1
  Zn  Zn101  1  0.87083072  0.12348024  0.24717613  1
  Zn  Zn102  1  0.25251385  -0.00210900  0.24982835  1
  Zn  Zn103  1  0.24928383  0.75479659  0.49985115  1
  Zn  Zn104  1  0.62340946  0.62668390  0.00093753  1
  Zn  Zn105  1  0.25072530  0.62388638  0.37848938  1
  Zn  Zn106  1  0.75403505  -0.00131019  0.74819510  1
  Zn  Zn107  1  0.18999073  0.18991791  0.18601386  1
  Zn  Zn108  1  0.17965187  0.19371095  0.68359347  1
  Zn  Zn109  1  0.19039239  0.68376999  0.18514855  1
  Zn  Zn110  1  0.18558006  0.69116737  0.68514863  1
  Zn  Zn111  1  0.68834193  0.19281451  0.18726137  1
  Zn  Zn112  1  0.68598924  0.18771016  0.68890138  1
  Zn  Zn113  1  0.68895342  0.68601140  0.18630259  1
  Zn  Zn114  1  0.68667078  0.68847238  0.68756450  1
  Zn  Zn115  1  0.31483268  0.31155579  0.31679729  1
  Zn  Zn116  1  0.30814510  0.30513088  0.81390304  1
  Zn  Zn117  1  0.31299562  0.81139369  0.31304722  1
  Zn  Zn118  1  0.30795309  0.81228099  0.81256634  1
  Zn  Zn119  1  0.81078643  0.30969947  0.31005207  1
  Zn  Zn120  1  0.81443807  0.30881166  0.81221301  1
  Zn  Zn121  1  0.81055576  0.80974806  0.31250161  1
  Zn  Zn122  1  0.80896298  0.81392178  0.81185068  1
  Zn  Zn123  1  0.19491747  0.44824546  0.46219579  1
  Zn  Zn124  1  0.19560929  0.43797622  0.93358249  1
  Zn  Zn125  1  0.19025982  0.94010226  0.43660717  1
  Zn  Zn126  1  0.19132508  0.93882977  0.93618622  1
  Zn  Zn127  1  0.68628191  0.43926874  0.43542915  1
  Zn  Zn128  1  0.69170675  0.43706105  0.94024828  1
  Zn  Zn129  1  0.68538339  0.93635599  0.43880479  1
  Zn  Zn130  1  0.68937844  0.93788727  0.93906608  1
  Zn  Zn131  1  0.31444591  0.05795251  0.06407959  1
  Zn  Zn132  1  0.31313182  0.06336066  0.56335321  1
  Zn  Zn133  1  0.31347339  0.56106806  0.06485747  1
  Zn  Zn134  1  0.31232449  0.56603183  0.56010097  1
  Zn  Zn135  1  0.81308151  0.06185693  0.06112001  1
  Zn  Zn136  1  0.80828195  0.05786136  0.55542782  1
  Zn  Zn137  1  0.80998755  0.55991748  0.05741348  1
  Zn  Zn138  1  0.80804521  0.56233516  0.56000627  1
  Zn  Zn139  1  0.43975977  0.44382489  0.18713413  1
  Zn  Zn140  1  0.43958202  0.43383643  0.68102248  1
  Zn  Zn141  1  0.43968710  0.93614066  0.18700105  1
  Zn  Zn142  1  0.44050040  0.94132483  0.69434104  1
  Zn  Zn143  1  0.93765747  0.43507786  0.19169761  1
  Zn  Zn144  1  0.93939332  0.43741901  0.69261427  1
  Zn  Zn145  1  0.93980125  0.93769145  0.18494238  1
  Zn  Zn146  1  0.93840120  0.94275286  0.69125939  1
  Zn  Zn147  1  0.06105303  0.05976304  0.31087833  1
  Zn  Zn148  1  0.06011709  0.06325464  0.81022954  1
  Zn  Zn149  1  0.06196044  0.55553750  0.31433333  1
  Zn  Zn150  1  0.06244431  0.55872331  0.80956636  1
  Zn  Zn151  1  0.56261504  0.05844577  0.31203912  1
  Zn  Zn152  1  0.56238180  0.06410517  0.81295926  1
  Zn  Zn153  1  0.56556232  0.55629383  0.31066995  1
  Zn  Zn154  1  0.56205265  0.56823886  0.81210174  1
  Zn  Zn155  1  0.43740305  0.19022579  0.43942274  1
  Zn  Zn156  1  0.44469527  0.19125130  0.94153654  1
  Zn  Zn157  1  0.43297893  0.68728270  0.43667602  1
  Zn  Zn158  1  0.43908465  0.68513071  0.93808154  1
  Zn  Zn159  1  0.93279630  0.18758595  0.43746087  1
  Zn  Zn160  1  0.94157391  0.19345022  0.93974944  1
  Zn  Zn161  1  0.93382465  0.68837175  0.43976850  1
  Zn  Zn162  1  0.94134525  0.68673205  0.93454304  1
  Zn  Zn163  1  0.06161854  0.31346919  0.06370998  1
  Zn  Zn164  1  0.06573451  0.31222189  0.56049000  1
  Zn  Zn165  1  0.06292108  0.80785513  0.06023574  1
  Zn  Zn166  1  0.05792241  0.81212496  0.56793029  1
  Zn  Zn167  1  0.56234524  0.31368921  0.06288481  1
  Zn  Zn168  1  0.56074738  0.31146637  0.56287933  1
  Zn  Zn169  1  0.56038121  0.81185880  0.06434464  1
  Zn  Zn170  1  0.56183163  0.81597445  0.56119729  1
  O  O171  1  0.11930010  0.11868250  0.12099915  1
  O  O172  1  0.11545000  0.11956728  0.61325013  1
  O  O173  1  0.11629230  0.62285873  0.11787586  1
  O  O174  1  0.11916499  0.62135497  0.61953045  1
  O  O175  1  0.62067259  0.12035740  0.12206713  1
  O  O176  1  0.61707279  0.12079899  0.61779936  1
  O  O177  1  0.62656142  0.61526884  0.12273183  1
  O  O178  1  0.61911221  0.61734093  0.62257332  1
  O  O179  1  0.38300307  0.37263113  0.38742614  1
  O  O180  1  0.37725031  0.36923418  0.88830623  1
  O  O181  1  0.38369605  0.87940294  0.37969656  1
  O  O182  1  0.37088515  0.88172165  0.88452563  1
  O  O183  1  0.87664276  0.38058859  0.38168242  1
  O  O184  1  0.88205965  0.37872592  0.88383501  1
  O  O185  1  0.87964374  0.87954572  0.37831320  1
  O  O186  1  0.86937931  0.87689758  0.88942879  1
  O  O187  1  0.26222985  0.00910200  0.37332291  1
  O  O188  1  0.26342502  0.00172339  0.86955423  1
  O  O189  1  0.24576874  0.49985200  0.36509646  1
  O  O190  1  0.26400007  0.50388667  0.87696014  1
  O  O191  1  0.75673122  0.00771453  0.38033038  1
  O  O192  1  0.75109023  0.01054662  0.87481190  1
  O  O193  1  0.76237770  0.50999563  0.38321777  1
  O  O194  1  0.75596889  0.50965664  0.87545080  1
  O  O195  1  0.25029029  0.48711008  0.13600562  1
  O  O196  1  0.24026542  0.48168510  0.56868519  1
  O  O197  1  0.24452626  0.98751179  0.12580690  1
  O  O198  1  0.24496115  0.99695007  0.63203589  1
  O  O199  1  0.73690290  0.49219649  0.11800720  1
  O  O200  1  0.74158241  0.49385711  0.62698220  1
  O  O201  1  0.74140329  0.99167230  0.12030988  1
  O  O202  1  0.73408493  1.00778003  0.62805874  1
  O  O203  1  0.01016639  0.37568925  0.26089022  1
  O  O204  1  0.00574747  0.37583958  0.76418143  1
  O  O205  1  0.00597204  0.86687424  0.25366175  1
  O  O206  1  0.00913347  0.86353096  0.74261824  1
  O  O207  1  0.50596496  0.38238142  0.26062639  1
  O  O208  1  0.51315749  0.36572960  0.74201704  1
  O  O209  1  0.50586084  0.87755831  0.26296035  1
  O  O210  1  0.50746129  0.86289374  0.74837482  1
  O  O211  1  0.48992907  0.12120988  0.24357277  1
  O  O212  1  0.50623139  0.13876374  0.74137582  1
  O  O213  1  0.48506917  0.61510115  0.25246526  1
  O  O214  1  0.49381379  0.63686523  0.74246597  1
  O  O215  1  0.99928770  0.12538387  0.23828336  1
  O  O216  1  1.00265780  0.12572967  0.73158888  1
  O  O217  1  0.99100012  0.62700732  0.24527574  1
  O  O218  1  1.00184708  0.63426335  0.73979885  1
  O  O219  1  0.37956523  0.25643788  0.01335793  1
  O  O220  1  0.36888930  0.25418489  0.50887337  1
  O  O221  1  0.37297240  0.75806708  -0.00102899  1
  O  O222  1  0.37394272  0.76313890  0.50628437  1
  O  O223  1  0.88273185  0.26288785  0.01371040  1
  O  O224  1  0.86558476  0.26209669  0.49758777  1
  O  O225  1  0.87321231  0.75650208  0.00505344  1
  O  O226  1  0.86820106  0.76378327  0.49889682  1
  O  O227  1  0.13296802  0.23753771  0.50106512  1
  O  O228  1  0.12516314  0.23393657  1.00586973  1
  O  O229  1  0.11918149  0.74319296  0.49403775  1
  O  O230  1  0.12512856  0.74210155  0.98921327  1
  O  O231  1  0.63037280  0.24200440  0.49711007  1
  O  O232  1  0.61671445  0.24067713  0.99221609  1
  O  O233  1  0.63954708  0.75211697  0.50191452  1
  O  O234  1  0.63236422  0.75282691  0.99220627  1
  O  O235  1  0.49568892  0.23631863  0.12261637  1
  O  O236  1  0.49361887  0.24200473  0.63100020  1
  O  O237  1  0.49835435  0.74429742  0.12440469  1
  O  O238  1  0.49430367  0.74639559  0.63029772  1
  O  O239  1  0.99503507  0.24208970  0.12887532  1
  O  O240  1  0.99961156  0.23491739  0.61714716  1
  O  O241  1  0.99451439  0.73911436  0.13010652  1
  O  O242  1  1.00221721  0.73849440  0.63838788  1
  O  O243  1  -0.00641418  0.26407149  0.37544948  1
  O  O244  1  0.00807121  0.26348273  0.87614375  1
  O  O245  1  0.00695498  0.75353762  0.37030469  1
  O  O246  1  0.01123194  0.74454105  0.85998793  1
  O  O247  1  0.50214429  0.26462518  0.37982669  1
  O  O248  1  0.51210343  0.24526563  0.86523370  1
  O  O249  1  0.49966345  0.76160833  0.37595488  1
  O  O250  1  0.50957495  0.74566550  0.86704814  1
  O  O251  1  0.24296863  0.12843051  0.49232435  1
  O  O252  1  0.23473072  0.12249523  1.00986490  1
  O  O253  1  0.23782883  0.63560973  0.49727967  1
  O  O254  1  0.23998720  0.62669330  1.00222538  1
  O  O255  1  0.74039789  0.13161782  0.49243711  1
  O  O256  1  0.73620517  0.12174875  0.99748006  1
  O  O257  1  0.75061730  0.63828746  0.49332485  1
  O  O258  1  0.74796672  0.63482577  0.99148746  1
  O  O259  1  0.26078900  0.37429584  0.01085128  1
  O  O260  1  0.25816418  0.35309290  0.48153878  1
  O  O261  1  0.25881085  0.87271489  0.00537575  1
  O  O262  1  0.25780913  0.87630095  0.50806080  1
  O  O263  1  0.75969742  0.37500495  0.01282454  1
  O  O264  1  0.75325115  0.36811230  0.50537905  1
  O  O265  1  0.75720990  0.86938299  0.01085063  1
  O  O266  1  0.75958109  0.86390918  0.49577846  1
  O  O267  1  0.13636976  0.48980609  0.24903009  1
  O  O268  1  0.12560980  0.48719067  0.74584824  1
  O  O269  1  0.12674847  0.99106423  0.24251090  1
  O  O270  1  0.12973567  0.99277321  0.74825203  1
  O  O271  1  0.62508205  0.48725254  0.23946063  1
  O  O272  1  0.62318771  0.49477528  0.74075969  1
  O  O273  1  0.62093268  0.99222559  0.23696676  1
  O  O274  1  0.62292672  0.99159152  0.74456627  1
  O  O275  1  0.37433771  0.00743696  0.25677234  1
  O  O276  1  0.36857323  0.00080654  0.76462969  1
  O  O277  1  0.36143402  0.50654049  0.24946696  1
  O  O278  1  0.38643230  0.51403305  0.74509602  1
  O  O279  1  0.87886333  0.00076727  0.26157790  1
  O  O280  1  0.87316470  0.00998841  0.75422733  1
  O  O281  1  0.87643436  0.50736423  0.25878877  1
  O  O282  1  0.87002962  0.49329809  0.76700592  1
  O  O283  1  0.11476939  0.38479403  0.37379682  1
  O  O284  1  0.11660346  0.37798981  0.87013167  1
  O  O285  1  0.11773302  0.86957934  0.37155317  1
  O  O286  1  0.12958561  0.86840486  0.86428244  1
  O  O287  1  0.61940387  0.37471140  0.36712643  1
  O  O288  1  0.63029435  0.36906157  0.86666843  1
  O  O289  1  0.61233213  0.88097278  0.36734812  1
  O  O290  1  0.62917172  0.86402017  0.86853531  1
  O  O291  1  0.38176848  0.12949265  0.13099938  1
  O  O292  1  0.38481678  0.13377165  0.61947826  1
  O  O293  1  0.37387029  0.62531727  0.14041907  1
  O  O294  1  0.37973712  0.63159015  0.63072675  1
  O  O295  1  0.88160489  0.13179589  0.12408582  1
  O  O296  1  0.88905145  0.11808926  0.61551243  1
  O  O297  1  0.87932708  0.62565239  0.13016062  1
  O  O298  1  0.88346203  0.62343964  0.62618358  1
  O  O299  1  0.26037041  0.26042234  0.12304358  1
  O  O300  1  0.25952016  0.24169420  0.61415006  1
  O  O301  1  0.25076615  0.76185394  0.12284771  1
  O  O302  1  0.25734977  0.76206459  0.62542623  1
  O  O303  1  0.75968323  0.25810627  0.12501156  1
  O  O304  1  0.74302647  0.25709894  0.61251500  1
  O  O305  1  0.75730127  0.75639948  0.11888391  1
  O  O306  1  0.75205225  0.74609799  0.61181386  1
  O  O307  1  0.25916830  0.23088435  0.38034975  1
  O  O308  1  0.24307152  0.24840319  0.88285110  1
  O  O309  1  0.23415800  0.75293033  0.37694780  1
  O  O310  1  0.23648953  0.74198147  0.87236856  1
  O  O311  1  0.74719747  0.24284015  0.38553712  1
  O  O312  1  0.73555509  0.24345266  0.87358144  1
  O  O313  1  0.75741897  0.73924183  0.38572168  1
  O  O314  1  0.74487626  0.74523392  0.88059236  1
  O  O315  1  0.00794169  0.11858546  0.01052769  1
  O  O316  1  0.00539933  0.12057199  0.50226460  1
  O  O317  1  0.00895118  0.62919701  0.00969038  1
  O  O318  1  0.00008442  0.62616028  0.51467397  1
  O  O319  1  0.50965626  0.11559351  0.00748165  1
  O  O320  1  0.51017310  0.13005574  0.50751487  1
  O  O321  1  0.50115628  0.61086954  0.00232554  1
  O  O322  1  0.50068760  0.61899193  0.50304290  1
  O  O323  1  0.49261483  0.38142745  0.49558335  1
  O  O324  1  0.49351264  0.38776528  1.00624062  1
  O  O325  1  0.49388854  0.87490503  0.48630828  1
  O  O326  1  0.49290066  0.88890626  1.00350043  1
  O  O327  1  0.99157176  0.37959979  0.49769230  1
  O  O328  1  0.99574435  0.37527969  0.98920916  1
  O  O329  1  0.98887537  0.87704000  0.49622270  1
  O  O330  1  0.99138408  0.88383358  1.00824472  1
  O  O331  1  0.50772478  0.48985386  0.38756279  1
  O  O332  1  0.49737650  0.50253548  0.88653792  1
  O  O333  1  0.48912943  0.99377395  0.37467244  1
  O  O334  1  0.48786015  1.00542413  0.88205273  1
  O  O335  1  0.98600648  0.49253098  0.38259425  1
  O  O336  1  0.99295007  0.48981552  0.87464860  1
  O  O337  1  0.99199871  0.99399247  0.38096496  1
  O  O338  1  0.99727801  1.00452258  0.88843013  1
  O  O339  1  0.00623885  0.00705023  0.11714749  1
  O  O340  1  0.00650430  0.00716401  0.61669507  1
  O  O341  1  0.00121831  0.51046811  0.13046757  1
  O  O342  1  -0.00390896  0.51325064  0.62250064  1
  O  O343  1  0.50529824  0.01015025  0.11797688  1
  O  O344  1  0.50677040  0.01454323  0.63253463  1
  O  O345  1  0.51261258  0.50311174  0.11695140  1
  O  O346  1  0.50824503  0.50410853  0.61466361  1
  O  O347  1  0.24817249  0.38225056  0.24957538  1
  O  O348  1  0.23390599  0.36981687  0.74964625  1
  O  O349  1  0.24498413  0.87579852  0.24264638  1
  O  O350  1  0.24256296  0.88391897  0.74420813  1
  O  O351  1  0.74372267  0.37319032  0.23719968  1
  O  O352  1  0.73918526  0.37525854  0.74236685  1
  O  O353  1  0.74436975  0.87203688  0.23884801  1
  O  O354  1  0.73610537  0.87644145  0.74948602  1
  O  O355  1  0.26068220  0.12281561  0.25413468  1
  O  O356  1  0.23877684  0.11387757  0.74460437  1
  O  O357  1  0.25265205  0.61143300  0.25259707  1
  O  O358  1  0.26560094  0.62713404  0.74260583  1
  O  O359  1  0.74872486  0.12958980  0.26401297  1
  O  O360  1  0.74712823  0.12284865  0.76154341  1
  O  O361  1  0.76358208  0.63128507  0.25711478  1
  O  O362  1  0.74723325  0.62594752  0.76338026  1
  O  O363  1  0.37417186  0.11846323  0.36899513  1
  O  O364  1  0.37586485  0.11733325  0.88195730  1
  O  O365  1  0.36821217  0.62757082  0.36287848  1
  O  O366  1  0.37603142  0.62801006  0.85594639  1
  O  O367  1  0.86551697  0.11536418  0.37542410  1
  O  O368  1  0.86029044  0.12881531  0.88703525  1
  O  O369  1  0.87096693  0.61776869  0.36810636  1
  O  O370  1  0.86774534  0.61529354  0.88252300  1
  O  O371  1  0.13430131  0.37454824  0.13371336  1
  O  O372  1  0.11640262  0.38014088  0.63666504  1
  O  O373  1  0.13164481  0.87788762  0.12793235  1
  O  O374  1  0.12972392  0.88154510  0.63276027  1
  O  O375  1  0.63120901  0.37873667  0.12975329  1
  O  O376  1  0.63346210  0.38168141  0.62906429  1
  O  O377  1  0.63187366  0.88210286  0.13098009  1
  O  O378  1  0.61687129  0.88683914  0.63304361  1
  O  O379  1  0.12688833  0.26399914  0.25088372  1
  O  O380  1  0.11461052  0.26277974  0.74774402  1
  O  O381  1  0.12009375  0.75192112  0.25625551  1
  O  O382  1  0.11914214  0.75762462  0.75469414  1
  O  O383  1  0.62453167  0.26474626  0.25041974  1
  O  O384  1  0.61847217  0.25828745  0.75629952  1
  O  O385  1  0.62851330  0.76192674  0.24812440  1
  O  O386  1  0.61816125  0.75660385  0.75501176  1
  O  O387  1  0.37358925  0.24294871  0.23974670  1
  O  O388  1  0.38409988  0.25923510  0.73858330  1
  O  O389  1  0.36772255  0.73382636  0.24846604  1
  O  O390  1  0.38089235  0.74643857  0.74447431  1
  O  O391  1  0.87907417  0.24757354  0.23831504  1
  O  O392  1  0.87925236  0.24250385  0.75079027  1
  O  O393  1  0.88137736  0.74174429  0.24400787  1
  O  O394  1  0.89031594  0.75750042  0.75462902  1
  O  O395  1  0.38704479  0.49256244  0.50275294  1
  O  O396  1  0.38785491  0.49151227  1.00346461  1
  O  O397  1  0.37165359  0.98946695  0.49286302  1
  O  O398  1  0.38105702  0.99637366  0.98993234  1
  O  O399  1  0.87595304  0.48928865  0.49511266  1
  O  O400  1  0.87270575  0.48753695  0.99110056  1
  O  O401  1  0.87649110  0.98732337  0.48971069  1
  O  O402  1  0.88440423  0.99182618  1.00158288  1
  O  O403  1  0.12018458  0.00599198  0.00467619  1
  O  O404  1  0.11938857  0.00837001  0.50273708  1
  O  O405  1  0.12722568  0.50843349  0.00343842  1
  O  O406  1  0.10643977  0.51967057  0.49091249  1
  O  O407  1  0.61765756  0.00432044  0.00826846  1
  O  O408  1  0.62609294  0.00870708  0.50801365  1
  O  O409  1  0.61477723  0.49888018  0.00403506  1
  O  O410  1  0.62037260  0.50208242  0.51005852  1
  O  O411  1  0.37202312  0.36860099  0.12345582  1
  O  O412  1  0.37805001  0.36512570  0.61077385  1
  O  O413  1  0.36854839  0.87654994  0.11553700  1
  O  O414  1  0.37385892  0.87643245  0.61901037  1
  O  O415  1  0.86999776  0.37185829  0.12159864  1
  O  O416  1  0.86142829  0.38190404  0.61887056  1
  O  O417  1  0.86861504  0.87061043  0.12024058  1
  O  O418  1  0.87660853  0.88193846  0.61127984  1
  O  O419  1  0.13416302  0.11708942  0.38110853  1
  O  O420  1  0.11775763  0.12401262  0.89182555  1
  O  O421  1  0.12118997  0.63433344  0.38088016  1
  O  O422  1  0.12402352  0.62853947  0.88141998  1
  O  O423  1  0.62810929  0.12394633  0.38121918  1
  O  O424  1  0.63212773  0.13051084  0.88371479  1
  O  O425  1  0.64017092  0.61745609  0.37388272  1
  O  O426  1  0.63245158  0.63729820  0.87689071  1
