# generated using pymatgen
data_V85Zn86O256
_symmetry_space_group_name_H-M   'P 1'
_cell_length_a   16.91575085
_cell_length_b   16.92476173
_cell_length_c   16.91082803
_cell_angle_alpha   89.95629807
_cell_angle_beta   89.99539096
_cell_angle_gamma   90.00418576
_symmetry_Int_Tables_number   1
_chemical_formula_structural   V85Zn86O256
_chemical_formula_sum   'V85 Zn86 O256'
_cell_volume   4841.48496327
_cell_formula_units_Z   1
loop_
 _symmetry_equiv_pos_site_id
 _symmetry_equiv_pos_as_xyz
  1  'x, y, z'
loop_
 _atom_site_type_symbol
 _atom_site_label
 _atom_site_symmetry_multiplicity
 _atom_site_fract_x
 _atom_site_fract_y
 _atom_site_fract_z
 _atom_site_occupancy
  V  V0  1  0.75270740  -0.01117038  0.25015195  1
  V  V1  1  0.61755892  -0.00340276  0.12301618  1
  V  V2  1  0.12414415  0.25163115  0.37643272  1
  V  V3  1  0.62296696  0.00224578  0.62404062  1
  V  V4  1  0.77355886  0.61958383  0.87021472  1
  V  V5  1  0.38096157  0.50182038  0.37644872  1
  V  V6  1  0.38584923  0.75048427  0.62087790  1
  V  V7  1  0.00390871  0.00405248  -0.00082079  1
  V  V8  1  0.24824204  0.62322870  0.87330707  1
  V  V9  1  0.25638736  0.87030592  0.12678898  1
  V  V10  1  0.36035248  0.37495505  0.00147498  1
  V  V11  1  0.62541993  0.25072273  0.87617543  1
  V  V12  1  0.75131142  0.37406256  0.12218575  1
  V  V13  1  0.12703425  0.12111125  0.50953899  1
  V  V14  1  -0.00504437  0.38012373  0.38796039  1
  V  V15  1  0.62512953  0.62453278  -0.01552368  1
  V  V16  1  0.00326693  0.25400721  0.75456884  1
  V  V17  1  0.37160339  0.00147936  0.87945148  1
  V  V18  1  0.24904083  0.74989069  0.50257836  1
  V  V19  1  0.24322930  0.48620519  0.74657192  1
  V  V20  1  0.75124420  0.87822597  0.62235356  1
  V  V21  1  0.25606587  0.74851991  0.00320358  1
  V  V22  1  0.62706612  0.13284242  0.49205730  1
  V  V23  1  0.74535280  0.75401109  0.49322813  1
  V  V24  1  0.12310622  0.87705737  0.74137887  1
  V  V25  1  -0.00415327  0.74362154  0.74871559  1
  V  V26  1  0.38377472  0.87554285  0.00210968  1
  V  V27  1  0.00654166  0.38450375  0.87875311  1
  V  V28  1  0.75091223  0.87393218  0.11408471  1
  V  V29  1  0.12869777  0.00579162  0.12077796  1
  V  V30  1  0.49746456  0.87433121  0.36966404  1
  V  V31  1  0.25321946  0.12197647  0.37829718  1
  V  V32  1  0.12623460  0.87466488  0.25064584  1
  V  V33  1  -0.00248272  0.87321037  0.88085445  1
  V  V34  1  0.87292500  -0.00583340  0.88109297  1
  V  V35  1  0.87971502  0.38842135  -0.00376044  1
  V  V36  1  0.62602183  0.37257890  0.25000320  1
  V  V37  1  0.75254683  0.37684672  0.62187015  1
  V  V38  1  0.48961940  0.00464649  0.49127938  1
  V  V39  1  0.37195773  0.25371580  0.62720501  1
  V  V40  1  0.74939413  0.12383943  0.87586027  1
  V  V41  1  0.49328220  0.63014606  0.12129488  1
  V  V42  1  0.87672651  0.87852282  0.49434740  1
  V  V43  1  0.11028743  0.50060137  0.12363146  1
  V  V44  1  0.87714024  0.12550604  0.74879030  1
  V  V45  1  -0.00515458  0.12325908  0.12912323  1
  V  V46  1  0.75820113  0.25187859  0.49829144  1
  V  V47  1  0.37336396  0.62628951  0.74389422  1
  V  V48  1  0.75816996  0.49692204  0.75428796  1
  V  V49  1  0.25210028  0.49702904  0.24222824  1
  V  V50  1  0.12595973  0.75113506  0.87539894  1
  V  V51  1  0.37595909  0.38006550  0.50428028  1
  V  V52  1  0.37029642  0.25661917  0.12871489  1
  V  V53  1  0.87459145  0.50146928  0.39543327  1
  V  V54  1  0.50095609  0.87616948  0.87138805  1
  V  V55  1  0.37644807  0.12421918  0.25513798  1
  V  V56  1  0.75258794  0.49918899  0.24857427  1
  V  V57  1  -0.00691089  0.61468817  0.62203725  1
  V  V58  1  0.74577542  0.62864133  0.36740713  1
  V  V59  1  0.11787393  0.61847495  0.49942155  1
  V  V60  1  0.75412868  0.13328024  0.36230217  1
  V  V61  1  0.12740819  0.23561114  0.87763634  1
  V  V62  1  0.87776548  0.75301522  0.11832192  1
  V  V63  1  -0.00703134  0.24672793  0.25237329  1
  V  V64  1  0.25140467  0.62375660  0.37505390  1
  V  V65  1  0.12702374  0.37417767  0.24751333  1
  V  V66  1  0.25233752  0.00060098  0.25363492  1
  V  V67  1  0.12418643  0.48932151  0.62582575  1
  V  V68  1  0.87414720  0.74500741  0.62343046  1
  V  V69  1  0.49993013  0.12646341  0.62424674  1
  V  V70  1  0.50912808  0.37752263  0.38080143  1
  V  V71  1  0.00197128  0.74627882  0.24508992  1
  V  V72  1  0.50051050  0.24811156  0.75291965  1
  V  V73  1  0.36771828  0.12555655  0.75699656  1
  V  V74  1  0.75458569  0.24804705  -0.00023734  1
  V  V75  1  0.74979285  0.00026965  0.74891683  1
  V  V76  1  0.24950086  0.25685146  0.50579226  1
  V  V77  1  0.50390403  0.25169422  0.25352419  1
  V  V78  1  0.62419723  0.50021587  0.12084145  1
  V  V79  1  0.24418521  0.00295487  0.74707320  1
  V  V80  1  0.88117394  0.62057189  0.24131843  1
  V  V81  1  0.49815955  0.49467812  -0.00785161  1
  V  V82  1  0.11662318  0.62182670  0.00611078  1
  V  V83  1  0.24275856  0.23336666  0.00593597  1
  V  V84  1  0.00453152  -0.00083765  0.50588431  1
  Zn  Zn85  1  0.61427004  0.12096266  -0.00074956  1
  Zn  Zn86  1  0.88071781  0.00603116  0.36839207  1
  Zn  Zn87  1  0.62317935  0.87150629  0.74653707  1
  Zn  Zn88  1  0.62779242  0.76322182  0.35587935  1
  Zn  Zn89  1  0.37485597  0.63283152  0.24521356  1
  Zn  Zn90  1  0.87492516  0.24594725  0.12650527  1
  Zn  Zn91  1  0.61798531  0.62613371  0.50010465  1
  Zn  Zn92  1  0.12339354  0.74772509  0.37410768  1
  Zn  Zn93  1  0.24698840  0.87841150  0.62164257  1
  Zn  Zn94  1  0.37031898  0.88150680  0.49787971  1
  Zn  Zn95  1  0.52710162  0.52410410  0.56281332  1
  Zn  Zn96  1  0.37086380  0.49683051  0.87384594  1
  Zn  Zn97  1  0.49793107  0.75891115  0.23914191  1
  Zn  Zn98  1  0.00517872  0.12174160  0.63012358  1
  Zn  Zn99  1  0.75408727  0.75049667  -0.00637425  1
  Zn  Zn100  1  0.50312125  0.74760914  0.74797933  1
  Zn  Zn101  1  0.00130269  0.87655710  0.37263101  1
  Zn  Zn102  1  0.61852050  0.38129375  0.74144542  1
  Zn  Zn103  1  0.49849294  0.12355225  0.12311052  1
  Zn  Zn104  1  0.62848341  0.75014318  0.87000713  1
  Zn  Zn105  1  0.49619342  0.37035258  0.87866562  1
  Zn  Zn106  1  0.88061046  0.25226280  0.62254146  1
  Zn  Zn107  1  0.18467950  0.18707044  0.18776622  1
  Zn  Zn108  1  0.18742640  0.19228627  0.69130105  1
  Zn  Zn109  1  0.18910521  0.68512378  0.18727835  1
  Zn  Zn110  1  0.18431463  0.68484013  0.68509664  1
  Zn  Zn111  1  0.68456238  0.18585352  0.18482699  1
  Zn  Zn112  1  0.68847620  0.19095786  0.68550444  1
  Zn  Zn113  1  0.68197818  0.68998513  0.18198288  1
  Zn  Zn114  1  0.68447336  0.68452237  0.68788727  1
  Zn  Zn115  1  0.31290682  0.31400335  0.31809612  1
  Zn  Zn116  1  0.30799345  0.30952769  0.81970592  1
  Zn  Zn117  1  0.32294448  0.80949780  0.31581838  1
  Zn  Zn118  1  0.31193753  0.81367208  0.81083342  1
  Zn  Zn119  1  0.81420646  0.31595791  0.31606391  1
  Zn  Zn120  1  0.81674240  0.31592738  0.81302812  1
  Zn  Zn121  1  0.81716611  0.81369133  0.30726328  1
  Zn  Zn122  1  0.81154532  0.81086608  0.80999895  1
  Zn  Zn123  1  0.18746416  0.43905727  0.43645322  1
  Zn  Zn124  1  0.18260905  0.43565908  0.93805357  1
  Zn  Zn125  1  0.18686790  0.93811392  0.43646595  1
  Zn  Zn126  1  0.18960201  0.93766266  0.93529103  1
  Zn  Zn127  1  0.68684849  0.44113549  0.44383298  1
  Zn  Zn128  1  0.68784926  0.43904257  0.92925259  1
  Zn  Zn129  1  0.68325063  0.94376857  0.43451722  1
  Zn  Zn130  1  0.68416631  0.93690680  0.93977021  1
  Zn  Zn131  1  0.31973957  0.06179732  0.06712295  1
  Zn  Zn132  1  0.31017474  0.06656277  0.57014839  1
  Zn  Zn133  1  0.30928471  0.56026073  0.06075507  1
  Zn  Zn134  1  0.31124755  0.56215983  0.56343555  1
  Zn  Zn135  1  0.81284525  0.06107884  0.06261833  1
  Zn  Zn136  1  0.81434779  0.06563975  0.55955151  1
  Zn  Zn137  1  0.81188759  0.56522946  0.06103100  1
  Zn  Zn138  1  0.77981825  0.57538891  0.57197702  1
  Zn  Zn139  1  0.43820894  0.43967346  0.18558705  1
  Zn  Zn140  1  0.42830706  0.43320252  0.69358415  1
  Zn  Zn141  1  0.43387399  0.93822573  0.19091308  1
  Zn  Zn142  1  0.43393578  0.93650705  0.68570556  1
  Zn  Zn143  1  0.93728558  0.43079077  0.18984644  1
  Zn  Zn144  1  0.93190556  0.43428711  0.69050299  1
  Zn  Zn145  1  0.93570196  0.93611385  0.18656622  1
  Zn  Zn146  1  0.93792093  0.93546812  0.68714455  1
  Zn  Zn147  1  0.06463721  0.06268279  0.31671691  1
  Zn  Zn148  1  0.06303000  0.06210387  0.81379754  1
  Zn  Zn149  1  0.05920918  0.56001096  0.31303057  1
  Zn  Zn150  1  0.06299665  0.56461501  0.81028271  1
  Zn  Zn151  1  0.56812164  0.06017025  0.30971082  1
  Zn  Zn152  1  0.55863819  0.06155096  0.81533281  1
  Zn  Zn153  1  0.56466874  0.56419668  0.31176532  1
  Zn  Zn154  1  0.55302373  0.54721872  0.77070972  1
  Zn  Zn155  1  0.43811200  0.19257985  0.43608229  1
  Zn  Zn156  1  0.43449744  0.18541536  0.94149262  1
  Zn  Zn157  1  0.44194087  0.68537325  0.44110450  1
  Zn  Zn158  1  0.43703216  0.68755829  0.93387056  1
  Zn  Zn159  1  0.93807880  0.18459771  0.43639840  1
  Zn  Zn160  1  0.93867688  0.18503345  0.93831935  1
  Zn  Zn161  1  0.93554267  0.68712643  0.43269513  1
  Zn  Zn162  1  0.94099050  0.68791187  0.94014358  1
  Zn  Zn163  1  0.06396899  0.31323599  0.06376919  1
  Zn  Zn164  1  0.06007829  0.30832338  0.56453107  1
  Zn  Zn165  1  0.06596636  0.81381258  0.06342596  1
  Zn  Zn166  1  0.06125378  0.80753609  0.56052758  1
  Zn  Zn167  1  0.56049041  0.30920612  0.06243881  1
  Zn  Zn168  1  0.56645033  0.31414418  0.56247303  1
  Zn  Zn169  1  0.56957560  0.81110567  0.06009757  1
  Zn  Zn170  1  0.56207275  0.81774780  0.55527861  1
  O  O171  1  0.11713667  0.11095841  0.12937697  1
  O  O172  1  0.12672715  0.12975822  0.61332689  1
  O  O173  1  0.12949013  0.61096983  0.12045349  1
  O  O174  1  0.11348574  0.61786367  0.61743544  1
  O  O175  1  0.62432821  0.11131100  0.12321377  1
  O  O176  1  0.61929628  0.12147196  0.61798714  1
  O  O177  1  0.61866151  0.61555851  0.10934813  1
  O  O178  1  0.67463042  0.61801068  0.60254124  1
  O  O179  1  0.38378576  0.38208166  0.38371709  1
  O  O180  1  0.37503778  0.37526770  0.88646579  1
  O  O181  1  0.38853009  0.87995037  0.38178554  1
  O  O182  1  0.37862920  0.88118033  0.88212483  1
  O  O183  1  0.88102305  0.39034676  0.37324310  1
  O  O184  1  0.88818865  0.36944497  0.88931810  1
  O  O185  1  0.87711907  0.87827867  0.38422933  1
  O  O186  1  0.88467473  0.88242432  0.86867251  1
  O  O187  1  0.24631304  0.01439228  0.37076831  1
  O  O188  1  0.26232926  -0.00588825  0.86377270  1
  O  O189  1  0.25866275  0.50616890  0.36790242  1
  O  O190  1  0.24398258  0.50623244  0.86492750  1
  O  O191  1  0.75019367  0.00769049  0.36178260  1
  O  O192  1  0.75625802  0.00225913  0.87047891  1
  O  O193  1  0.75719765  0.50847775  0.36737238  1
  O  O194  1  0.75797249  0.51182239  0.87403917  1
  O  O195  1  0.24526921  0.50256697  0.13956653  1
  O  O196  1  0.24010643  0.50369854  0.63820234  1
  O  O197  1  0.24429828  0.99425973  0.13097337  1
  O  O198  1  0.25248591  0.99728803  0.64075190  1
  O  O199  1  0.74449836  0.49392528  0.12784635  1
  O  O200  1  0.75611642  0.48456078  0.64068753  1
  O  O201  1  0.74874922  0.99268190  0.13257894  1
  O  O202  1  0.74351350  0.99836145  0.62728870  1
  O  O203  1  0.01034779  0.36760881  0.25817466  1
  O  O204  1  -0.00682670  0.36275692  0.76626644  1
  O  O205  1  0.01062978  0.87039242  0.24943869  1
  O  O206  1  0.00572858  0.86810560  0.75758216  1
  O  O207  1  0.50552602  0.37108322  0.25578889  1
  O  O208  1  0.49743248  0.35784286  0.75648287  1
  O  O209  1  0.49708494  0.88077221  0.26526960  1
  O  O210  1  0.50013351  0.87350706  0.75748172  1
  O  O211  1  0.49321787  0.13365274  0.25165803  1
  O  O212  1  0.49159003  0.13267239  0.74667622  1
  O  O213  1  0.49946842  0.61408491  0.22767738  1
  O  O214  1  0.47694745  0.63122034  0.76492501  1
  O  O215  1  1.00713941  0.13412443  0.24403378  1
  O  O216  1  0.99421290  0.13221746  0.75175166  1
  O  O217  1  0.99340015  0.63273290  0.25021504  1
  O  O218  1  1.00276655  0.63700111  0.74229586  1
  O  O219  1  0.36111343  0.25454756  0.00728388  1
  O  O220  1  0.36787258  0.25744449  0.50501314  1
  O  O221  1  0.36227220  0.75738243  -0.00515264  1
  O  O222  1  0.36537815  0.75023361  0.50658859  1
  O  O223  1  0.86444920  0.25225881  0.00020205  1
  O  O224  1  0.86260053  0.24277572  0.50191999  1
  O  O225  1  0.87567390  0.74491102  0.01407678  1
  O  O226  1  0.86941342  0.75982700  0.50199644  1
  O  O227  1  0.13280350  0.24519966  0.49647205  1
  O  O228  1  0.13599951  0.24945528  0.99744730  1
  O  O229  1  0.13043448  0.73791415  0.49692729  1
  O  O230  1  0.13492165  0.74473551  0.99631831  1
  O  O231  1  0.63494155  0.23807098  0.50278165  1
  O  O232  1  0.63770389  0.24872800  0.99469384  1
  O  O233  1  0.63987870  0.75315031  0.49660667  1
  O  O234  1  0.63164439  0.73921989  0.99309610  1
  O  O235  1  0.48963843  0.25180816  0.13829819  1
  O  O236  1  0.49442295  0.24532422  0.63296245  1
  O  O237  1  0.50236918  0.73252864  0.11438051  1
  O  O238  1  0.48887453  0.75711666  0.62433406  1
  O  O239  1  1.00317578  0.24007805  0.13276255  1
  O  O240  1  0.99966828  0.24631322  0.63904405  1
  O  O241  1  0.99438526  0.75757906  0.13531970  1
  O  O242  1  0.99351989  0.74051277  0.63001311  1
  O  O243  1  0.00424311  0.25443071  0.36942832  1
  O  O244  1  0.01060937  0.25231838  0.87448992  1
  O  O245  1  0.00162233  0.75298335  0.36028610  1
  O  O246  1  0.00260470  0.75611335  0.86766571  1
  O  O247  1  0.49446636  0.26250978  0.36226902  1
  O  O248  1  0.50755577  0.24605680  0.86938223  1
  O  O249  1  0.50167541  0.76643385  0.38019984  1
  O  O250  1  0.49817170  0.76460164  0.87347886  1
  O  O251  1  0.24622194  0.13128545  0.49567908  1
  O  O252  1  0.25301579  0.13522670  1.00353424  1
  O  O253  1  0.24326783  0.62863889  0.49093220  1
  O  O254  1  0.24411459  0.63110514  0.99414210  1
  O  O255  1  0.74415356  0.13080653  0.49102778  1
  O  O256  1  0.75099560  0.13216663  0.99241224  1
  O  O257  1  0.76339584  0.64220995  0.47603238  1
  O  O258  1  0.74479069  0.62332050  0.98503492  1
  O  O259  1  0.25756153  0.36846690  -0.00030171  1
  O  O260  1  0.26005706  0.36579718  0.49142270  1
  O  O261  1  0.25602499  0.86730002  0.00727360  1
  O  O262  1  0.24812050  0.86553548  0.50023616  1
  O  O263  1  0.76137675  0.36925211  -0.00002853  1
  O  O264  1  0.74729139  0.36650699  0.50962007  1
  O  O265  1  0.75199773  0.87291680  0.00949616  1
  O  O266  1  0.75748972  0.87406996  0.50042690  1
  O  O267  1  0.12916386  0.49454876  0.24225129  1
  O  O268  1  0.13585335  0.50443475  0.74181516  1
  O  O269  1  0.13169021  0.99299645  0.24428954  1
  O  O270  1  0.13170914  0.99109128  0.75692286  1
  O  O271  1  0.63251284  0.49331504  0.24233382  1
  O  O272  1  0.64841033  0.48875594  0.77357314  1
  O  O273  1  0.64161052  1.00502694  0.23671959  1
  O  O274  1  0.62886668  1.00396460  0.73709778  1
  O  O275  1  0.36740187  0.01582263  0.24552492  1
  O  O276  1  0.36778255  0.00787778  0.75525072  1
  O  O277  1  0.36668954  0.50004333  0.25701612  1
  O  O278  1  0.35740169  0.50745870  0.75234000  1
  O  O279  1  0.85968032  -0.00069874  0.24956387  1
  O  O280  1  0.87225542  0.00518379  0.75891589  1
  O  O281  1  0.86881791  0.50587403  0.24799179  1
  O  O282  1  0.85971254  0.49059750  0.76042385  1
  O  O283  1  0.11688474  0.37158849  0.37001514  1
  O  O284  1  0.11052330  0.36243840  0.88546426  1
  O  O285  1  0.12711052  0.87207115  0.36058926  1
  O  O286  1  0.11745001  0.86889707  0.86697622  1
  O  O287  1  0.61453916  0.37980774  0.36854996  1
  O  O288  1  0.62197415  0.35844957  0.87687663  1
  O  O289  1  0.60709799  0.87764494  0.38325096  1
  O  O290  1  0.61503678  0.87650604  0.87190523  1
  O  O291  1  0.37414831  0.13790575  0.13730641  1
  O  O292  1  0.38106410  0.13347274  0.63622267  1
  O  O293  1  0.38968801  0.61833820  0.12027202  1
  O  O294  1  0.36643932  0.63497622  0.63377802  1
  O  O295  1  0.89003385  0.12450253  0.12295472  1
  O  O296  1  0.87621398  0.12537856  0.63940337  1
  O  O297  1  0.87030858  0.63253975  0.13494738  1
  O  O298  1  0.87778403  0.63773365  0.61716100  1
  O  O299  1  0.25236103  0.24799514  0.11494417  1
  O  O300  1  0.25505111  0.24818075  0.61408241  1
  O  O301  1  0.24522762  0.75928095  0.11685254  1
  O  O302  1  0.25111542  0.74842328  0.61185983  1
  O  O303  1  0.75196026  0.25486475  0.11677335  1
  O  O304  1  0.75541153  0.25525210  0.61647965  1
  O  O305  1  0.75776757  0.75810937  0.12264197  1
  O  O306  1  0.75937180  0.76106110  0.61450131  1
  O  O307  1  0.24572625  0.24209908  0.38538740  1
  O  O308  1  0.23567014  0.25093610  0.88849749  1
  O  O309  1  0.24959350  0.74012860  0.38440139  1
  O  O310  1  0.24430135  0.74402774  0.88108550  1
  O  O311  1  0.75180089  0.24061522  0.37906118  1
  O  O312  1  0.74467272  0.24494616  0.87979300  1
  O  O313  1  0.74872393  0.74848964  0.37481405  1
  O  O314  1  0.75248736  0.73417144  0.87252336  1
  O  O315  1  -0.00061012  0.11101080  0.00723610  1
  O  O316  1  0.00958864  0.11893807  0.50211709  1
  O  O317  1  0.01739716  0.62816472  -0.00180554  1
  O  O318  1  0.00654712  0.63009767  0.50795591  1
  O  O319  1  0.50061078  0.12991834  0.00942701  1
  O  O320  1  0.50745383  0.12360079  0.50084153  1
  O  O321  1  0.50410314  0.61623042  0.00292195  1
  O  O322  1  0.50257326  0.62340458  0.50982600  1
  O  O323  1  0.49242108  0.36979487  0.49192512  1
  O  O324  1  0.48839765  0.37894226  1.00087105  1
  O  O325  1  0.49538031  0.89021308  0.49456761  1
  O  O326  1  0.48771789  0.86998553  0.99647166  1
  O  O327  1  1.00005126  0.36820919  0.48701864  1
  O  O328  1  0.98910946  0.36993157  0.99289297  1
  O  O329  1  0.99537255  0.88041691  0.49737185  1
  O  O330  1  1.00549438  0.88179173  0.98758297  1
  O  O331  1  0.48747103  0.49278411  0.36549390  1
  O  O332  1  0.49605303  0.49661444  0.88476774  1
  O  O333  1  0.50505724  0.99648137  0.38369497  1
  O  O334  1  0.48581231  0.98876959  0.87025208  1
  O  O335  1  0.98754289  0.49337622  0.37484964  1
  O  O336  1  1.01026897  0.48373303  0.87222975  1
  O  O337  1  0.99874345  0.99855201  0.38650342  1
  O  O338  1  0.99456769  0.99353592  0.88140468  1
  O  O339  1  0.00667491  0.00241764  0.11911326  1
  O  O340  1  -0.00360809  0.00176681  0.61189725  1
  O  O341  1  0.01162035  0.49943211  0.13029299  1
  O  O342  1  0.00206642  0.51060000  0.63576911  1
  O  O343  1  0.51471645  -0.00142640  0.13346002  1
  O  O344  1  0.50611230  0.00736446  0.61898238  1
  O  O345  1  0.50479281  0.50349064  0.11034705  1
  O  O346  1  0.51426554  0.49849703  0.66786899  1
  O  O347  1  0.23634426  0.38232048  0.26054287  1
  O  O348  1  0.25132181  0.38751370  0.75369862  1
  O  O349  1  0.24753303  0.87812356  0.24422579  1
  O  O350  1  0.23918962  0.88164596  0.74919926  1
  O  O351  1  0.74576259  0.37836679  0.24383681  1
  O  O352  1  0.74901837  0.37751810  0.74399225  1
  O  O353  1  0.74972536  0.88535694  0.24326474  1
  O  O354  1  0.74863284  0.88398888  0.74128817  1
  O  O355  1  0.25500901  0.12379822  0.25934319  1
  O  O356  1  0.25732507  0.11894418  0.74845510  1
  O  O357  1  0.25082578  0.61740442  0.26077502  1
  O  O358  1  0.25330553  0.62186289  0.75792908  1
  O  O359  1  0.74900408  0.12230285  0.25961608  1
  O  O360  1  0.75706379  0.12041827  0.75571025  1
  O  O361  1  0.75714855  0.62116725  0.25286858  1
  O  O362  1  0.75164076  0.61200516  0.76359770  1
  O  O363  1  0.36578056  0.13380361  0.36685584  1
  O  O364  1  0.37715104  0.11750827  0.86519354  1
  O  O365  1  0.36852776  0.61665853  0.37454197  1
  O  O366  1  0.35908424  0.62288569  0.87243702  1
  O  O367  1  0.85827938  0.12260511  0.37800725  1
  O  O368  1  0.87110908  0.11612685  0.86645937  1
  O  O369  1  0.87098487  0.61777059  0.36068843  1
  O  O370  1  0.87187577  0.62494852  0.87462560  1
  O  O371  1  0.12194345  0.38696910  0.13424095  1
  O  O372  1  0.11723542  0.39001232  0.61968031  1
  O  O373  1  0.13511642  0.88339669  0.13331011  1
  O  O374  1  0.12316129  0.86904502  0.63781718  1
  O  O375  1  0.63106436  0.38063817  0.12759682  1
  O  O376  1  0.64390451  0.36537213  0.62861354  1
  O  O377  1  0.63427520  0.88578051  0.12145958  1
  O  O378  1  0.63081713  0.88702215  0.62207693  1
  O  O379  1  0.11962130  0.25782117  0.25555478  1
  O  O380  1  0.12000341  0.24691777  0.76746450  1
  O  O381  1  0.11964798  0.75624115  0.24820329  1
  O  O382  1  0.11711656  0.75551506  0.75522193  1
  O  O383  1  0.61541336  0.25906129  0.24389540  1
  O  O384  1  0.61590047  0.24760294  0.75813343  1
  O  O385  1  0.61084323  0.74665005  0.24473563  1
  O  O386  1  0.62193937  0.75170723  0.75099729  1
  O  O387  1  0.37725578  0.24699144  0.24527311  1
  O  O388  1  0.37726276  0.24350496  0.75015559  1
  O  O389  1  0.38508429  0.74585503  0.24876141  1
  O  O390  1  0.37014241  0.74391953  0.73803425  1
  O  O391  1  0.88937197  0.25706622  0.24791901  1
  O  O392  1  0.88507328  0.24012796  0.75496431  1
  O  O393  1  0.88311718  0.74221711  0.24155960  1
  O  O394  1  0.88478478  0.75819067  0.73581285  1
  O  O395  1  0.37113080  0.49145336  0.49285578  1
  O  O396  1  0.37805425  0.49039251  0.99878193  1
  O  O397  1  0.38692401  1.00817150  0.50620493  1
  O  O398  1  0.36701631  0.98935366  0.99112903  1
  O  O399  1  0.86113761  0.51161184  0.49224315  1
  O  O400  1  0.87533618  0.48685064  1.00333850  1
  O  O401  1  0.88193911  0.99352010  0.49723669  1
  O  O402  1  0.88244016  1.00165837  0.98730002  1
  O  O403  1  0.11814600  -0.00683148  0.00863534  1
  O  O404  1  0.11909510  0.00937379  0.49718973  1
  O  O405  1  0.13186423  0.50531414  0.01650643  1
  O  O406  1  0.13142116  0.51158616  0.50799349  1
  O  O407  1  0.63215442  0.00306820  0.01757293  1
  O  O408  1  0.61985124  0.01347608  0.50933566  1
  O  O409  1  0.61705468  0.50219154  0.00060677  1
  O  O410  1  0.61293362  0.50727273  0.49068713  1
  O  O411  1  0.37493286  0.36349105  0.12102091  1
  O  O412  1  0.37708370  0.36974003  0.61308831  1
  O  O413  1  0.36433882  0.88184110  0.11759214  1
  O  O414  1  0.36822131  0.86565364  0.62020529  1
  O  O415  1  0.87148165  0.37004998  0.11297260  1
  O  O416  1  0.86042641  0.36802717  0.62816811  1
  O  O417  1  0.86533241  0.86456836  0.13031045  1
  O  O418  1  0.87312848  0.86866384  0.61238254  1
  O  O419  1  0.13317226  0.13341951  0.38489135  1
  O  O420  1  0.12080548  0.13649854  0.88156203  1
  O  O421  1  0.13196912  0.62243690  0.38144939  1
  O  O422  1  0.13283869  0.63008592  0.88144860  1
  O  O423  1  0.63971431  0.12140481  0.38140135  1
  O  O424  1  0.63095051  0.13232102  0.87654473  1
  O  O425  1  0.63702671  0.63086462  0.37176934  1
  O  O426  1  0.62148749  0.62259814  0.88269697  1
