# generated using pymatgen
data_V85Zn86O256
_symmetry_space_group_name_H-M   'P 1'
_cell_length_a   16.94738593
_cell_length_b   16.95594763
_cell_length_c   16.94039440
_cell_angle_alpha   89.91776644
_cell_angle_beta   90.10005372
_cell_angle_gamma   90.04074904
_symmetry_Int_Tables_number   1
_chemical_formula_structural   V85Zn86O256
_chemical_formula_sum   'V85 Zn86 O256'
_cell_volume   4867.96093655
_cell_formula_units_Z   1
loop_
 _symmetry_equiv_pos_site_id
 _symmetry_equiv_pos_as_xyz
  1  'x, y, z'
loop_
 _atom_site_type_symbol
 _atom_site_label
 _atom_site_symmetry_multiplicity
 _atom_site_fract_x
 _atom_site_fract_y
 _atom_site_fract_z
 _atom_site_occupancy
  V  V0  1  0.00696124  0.50839940  -0.00191007  1
  V  V1  1  0.62401788  0.62025031  0.50066237  1
  V  V2  1  -0.01822818  0.12677238  0.63187172  1
  V  V3  1  0.12805256  0.62006937  0.51314042  1
  V  V4  1  0.61911623  0.25280996  0.37463377  1
  V  V5  1  0.12752361  0.74745411  0.37882527  1
  V  V6  1  0.62597371  0.00366687  0.12170547  1
  V  V7  1  0.75078859  0.24686793  -0.01309114  1
  V  V8  1  0.00089236  0.87302713  0.37953653  1
  V  V9  1  0.75253110  0.00117019  0.24911433  1
  V  V10  1  0.00145425  0.00294324  -0.00119850  1
  V  V11  1  0.62542141  0.75021556  0.37441036  1
  V  V12  1  0.61747957  0.37435981  0.24742813  1
  V  V13  1  0.75012772  0.62342953  0.37441593  1
  V  V14  1  0.13440046  0.50175781  0.12367333  1
  V  V15  1  -0.00108014  0.12983397  0.11986352  1
  V  V16  1  0.13370682  0.25194063  0.87431780  1
  V  V17  1  -0.00033358  0.24960340  0.24961670  1
  V  V18  1  0.49779061  0.00148136  0.49819983  1
  V  V19  1  0.12683929  0.86665139  0.75469327  1
  V  V20  1  0.74739630  0.37516593  0.12133824  1
  V  V21  1  0.75410048  0.86837840  0.62908607  1
  V  V22  1  0.62601422  0.87604984  0.24910857  1
  V  V23  1  0.25648748  0.74495881  0.50754272  1
  V  V24  1  -0.00155788  0.37280486  0.37722943  1
  V  V25  1  0.49683502  0.13710871  0.12617122  1
  V  V26  1  0.74283759  0.74178128  0.00251401  1
  V  V27  1  0.75298426  0.00410175  0.75428316  1
  V  V28  1  0.87079440  0.00464218  0.87402350  1
  V  V29  1  0.87840027  0.51056901  0.86550704  1
  V  V30  1  0.24440919  0.12883433  0.37088824  1
  V  V31  1  0.00664510  0.37676288  0.88060977  1
  V  V32  1  0.87840658  0.00114232  0.37675388  1
  V  V33  1  0.87703557  0.25190702  0.12039117  1
  V  V34  1  0.00250353  0.74746265  0.25352208  1
  V  V35  1  0.87509378  0.49800758  0.37621687  1
  V  V36  1  0.49935696  0.74850578  0.24728714  1
  V  V37  1  0.49301910  0.87760847  0.87579759  1
  V  V38  1  0.37317139  0.74930759  0.11951586  1
  V  V39  1  0.49951278  0.87685795  0.37294158  1
  V  V40  1  0.25725894  -0.00126816  0.75755755  1
  V  V41  1  0.62493688  0.86977618  0.75367451  1
  V  V42  1  0.00329110  0.86946377  0.87704434  1
  V  V43  1  0.12771180  0.13447880  0.00172654  1
  V  V44  1  0.87645665  0.62322397  0.25074998  1
  V  V45  1  0.87223730  0.37083551  0.51622722  1
  V  V46  1  0.75049901  0.49771172  0.24768265  1
  V  V47  1  0.25312808  0.87269007  0.62792853  1
  V  V48  1  0.48922293  0.63115142  0.61821754  1
  V  V49  1  0.25003080  0.37413503  0.61404990  1
  V  V50  1  0.63093060  0.12432434  -0.01462785  1
  V  V51  1  0.48875887  0.75175275  0.74468195  1
  V  V52  1  0.37676619  0.87141369  0.50503094  1
  V  V53  1  0.75406093  0.87515003  0.12407509  1
  V  V54  1  -0.01510352  0.62820747  0.62765782  1
  V  V55  1  0.24993638  0.88066572  0.13140414  1
  V  V56  1  0.49139760  0.00256554  -0.00347170  1
  V  V57  1  0.50491180  0.62098167  0.11556489  1
  V  V58  1  0.62289708  0.49036143  0.62780763  1
  V  V59  1  0.00267485  0.49833713  0.50947661  1
  V  V60  1  0.37302348  0.36852701  0.48181487  1
  V  V61  1  0.87648855  0.75184394  0.12588767  1
  V  V62  1  0.75405808  0.25015943  0.50723263  1
  V  V63  1  0.87707447  0.38096739  -0.00073137  1
  V  V64  1  0.49496588  0.13095690  0.62609849  1
  V  V65  1  0.25819858  0.12334123  0.88189211  1
  V  V66  1  0.25461136  0.61598066  0.37710078  1
  V  V67  1  0.49393064  0.49977837  -0.01777520  1
  V  V68  1  0.74570531  0.62588683  0.86752700  1
  V  V69  1  0.62197346  -0.00392953  0.62479819  1
  V  V70  1  0.48850797  0.49284597  0.48742600  1
  V  V71  1  0.37571998  0.13536361  0.75314592  1
  V  V72  1  0.24280917  0.62071591  0.87401406  1
  V  V73  1  0.87659354  0.86934898  0.50515796  1
  V  V74  1  -0.01406589  0.74702345  0.74897327  1
  V  V75  1  0.37614745  0.61473761  0.25136764  1
  V  V76  1  0.36496563  0.00154219  0.35981791  1
  V  V77  1  0.12520162  0.38276301  0.74185654  1
  V  V78  1  0.36226909  0.36855899  -0.00089008  1
  V  V79  1  0.12662919  0.00445018  0.62694902  1
  V  V80  1  0.23130311  0.74714263  -0.00534337  1
  V  V81  1  0.12948349  0.37602653  0.24598799  1
  V  V82  1  0.75163781  0.74940171  0.50208754  1
  V  V83  1  0.00802186  0.62756500  0.12178552  1
  V  V84  1  0.75072989  0.12754780  0.37521695  1
  Zn  Zn85  1  0.37383953  0.62447859  0.75785662  1
  Zn  Zn86  1  0.61761596  0.74342208  0.88193301  1
  Zn  Zn87  1  0.62218170  0.12809319  0.49884163  1
  Zn  Zn88  1  0.62827890  0.50528364  0.11616741  1
  Zn  Zn89  1  0.12816420  0.25272596  0.38115598  1
  Zn  Zn90  1  0.25498070  0.49369370  0.24969137  1
  Zn  Zn91  1  0.75443103  0.50341659  0.74074876  1
  Zn  Zn92  1  0.36812103  0.87867709  -0.00484316  1
  Zn  Zn93  1  0.87650674  0.12605289  0.24990639  1
  Zn  Zn94  1  0.36525785  0.24876502  0.61644124  1
  Zn  Zn95  1  0.13476821  0.88120409  0.25913605  1
  Zn  Zn96  1  0.13180395  0.13583049  0.50755546  1
  Zn  Zn97  1  -0.00642047  0.24726164  0.74789383  1
  Zn  Zn98  1  0.62392515  0.25947423  0.85104996  1
  Zn  Zn99  1  0.71070871  0.33781657  0.67200799  1
  Zn  Zn100  1  0.35549907  0.25347915  0.12817946  1
  Zn  Zn101  1  0.00355567  0.00093048  0.50388646  1
  Zn  Zn102  1  0.49281851  0.36596046  0.86089180  1
  Zn  Zn103  1  0.49483277  0.24918982  0.25270044  1
  Zn  Zn104  1  0.87604279  0.87311345  0.00136413  1
  Zn  Zn105  1  0.13005152  0.00306311  0.13115801  1
  Zn  Zn106  1  0.24616972  0.50359317  0.74362077  1
  Zn  Zn107  1  0.18659416  0.17925621  0.19973980  1
  Zn  Zn108  1  0.18679656  0.19150950  0.69175470  1
  Zn  Zn109  1  0.19029446  0.68980051  0.19005937  1
  Zn  Zn110  1  0.18321630  0.68927603  0.68922748  1
  Zn  Zn111  1  0.68712396  0.18932690  0.18388376  1
  Zn  Zn112  1  0.68733242  0.17352091  0.68380577  1
  Zn  Zn113  1  0.68716503  0.68707561  0.18742778  1
  Zn  Zn114  1  0.68442775  0.68687971  0.68762166  1
  Zn  Zn115  1  0.31484302  0.30659361  0.30582823  1
  Zn  Zn116  1  0.31282664  0.31702462  0.81334107  1
  Zn  Zn117  1  0.31584875  0.80719154  0.31447706  1
  Zn  Zn118  1  0.31255287  0.80786848  0.81669956  1
  Zn  Zn119  1  0.81309317  0.31232372  0.31163329  1
  Zn  Zn120  1  0.82082093  0.31819689  0.81039466  1
  Zn  Zn121  1  0.81461735  0.81259992  0.31318587  1
  Zn  Zn122  1  0.81411267  0.81376483  0.81860392  1
  Zn  Zn123  1  0.18530537  0.43497706  0.43925000  1
  Zn  Zn124  1  0.18824349  0.44710574  0.93315949  1
  Zn  Zn125  1  0.18924075  0.93716009  0.44338998  1
  Zn  Zn126  1  0.18576250  0.93957654  0.94183907  1
  Zn  Zn127  1  0.68465206  0.43249703  0.43932522  1
  Zn  Zn128  1  0.68326960  0.44515286  0.93230869  1
  Zn  Zn129  1  0.68825913  0.93882754  0.43832428  1
  Zn  Zn130  1  0.68572402  0.93169293  0.93887221  1
  Zn  Zn131  1  0.31339183  0.06667040  0.06668372  1
  Zn  Zn132  1  0.31098242  0.06041551  0.55992166  1
  Zn  Zn133  1  0.31601773  0.56584199  0.05606019  1
  Zn  Zn134  1  0.31703197  0.54979490  0.58354003  1
  Zn  Zn135  1  0.81574420  0.06296505  0.05695725  1
  Zn  Zn136  1  0.80926065  0.05650972  0.56113721  1
  Zn  Zn137  1  0.81677031  0.56533517  0.05937108  1
  Zn  Zn138  1  0.81033392  0.55787371  0.56084008  1
  Zn  Zn139  1  0.43365321  0.43261719  0.17801006  1
  Zn  Zn140  1  0.42853031  0.44629565  0.68083283  1
  Zn  Zn141  1  0.43966207  0.93732483  0.18131909  1
  Zn  Zn142  1  0.43556623  0.94034133  0.68835008  1
  Zn  Zn143  1  0.94198856  0.43809387  0.18494171  1
  Zn  Zn144  1  0.94032368  0.43801406  0.69184785  1
  Zn  Zn145  1  0.95226379  0.94073498  0.19391096  1
  Zn  Zn146  1  0.93933714  0.93847597  0.68971878  1
  Zn  Zn147  1  0.06658263  0.06209886  0.31204068  1
  Zn  Zn148  1  0.06585704  0.06079960  0.81230589  1
  Zn  Zn149  1  0.06580997  0.56029848  0.31643748  1
  Zn  Zn150  1  0.06843651  0.57115450  0.81378582  1
  Zn  Zn151  1  0.56260526  0.06420404  0.31061530  1
  Zn  Zn152  1  0.56043309  0.06170631  0.81120392  1
  Zn  Zn153  1  0.56347219  0.55947658  0.30843182  1
  Zn  Zn154  1  0.56209868  0.56581053  0.80707417  1
  Zn  Zn155  1  0.43276059  0.18418654  0.43290142  1
  Zn  Zn156  1  0.44139995  0.19551332  0.93797692  1
  Zn  Zn157  1  0.43773721  0.68609144  0.43586548  1
  Zn  Zn158  1  0.43163462  0.68956873  0.93524295  1
  Zn  Zn159  1  0.94301484  0.18628884  0.44521088  1
  Zn  Zn160  1  0.92482344  0.20268075  0.90874818  1
  Zn  Zn161  1  0.93797903  0.68524930  0.44181931  1
  Zn  Zn162  1  0.93593641  0.69039176  0.93721130  1
  Zn  Zn163  1  0.18899461  0.31493065  0.06797131  1
  Zn  Zn164  1  0.05759079  0.30343710  0.56514692  1
  Zn  Zn165  1  0.06344297  0.81677965  0.06599612  1
  Zn  Zn166  1  0.06506808  0.81064228  0.56833528  1
  Zn  Zn167  1  0.57735292  0.32863538  0.01732231  1
  Zn  Zn168  1  0.54412563  0.30865640  0.69277432  1
  Zn  Zn169  1  0.56209178  0.81477216  0.06160101  1
  Zn  Zn170  1  0.56468610  0.81177615  0.56190776  1
  O  O171  1  0.11155753  0.12242961  0.11955290  1
  O  O172  1  0.12936461  0.11431254  0.62673310  1
  O  O173  1  0.11287885  0.62139372  0.13458180  1
  O  O174  1  0.11567141  0.62867043  0.61518787  1
  O  O175  1  0.62441740  0.11253392  0.11840973  1
  O  O176  1  0.61319531  0.11261654  0.61979544  1
  O  O177  1  0.60821524  0.62754010  0.12828480  1
  O  O178  1  0.61938291  0.62389952  0.61018290  1
  O  O179  1  0.36668354  0.37771948  0.38350849  1
  O  O180  1  0.37534057  0.37256632  0.89031060  1
  O  O181  1  0.38157073  0.88111080  0.38095895  1
  O  O182  1  0.38820376  0.87315373  0.87621712  1
  O  O183  1  0.88558946  0.38057615  0.37626282  1
  O  O184  1  0.88772280  0.39173386  0.88346865  1
  O  O185  1  0.87899775  0.88081087  0.38344269  1
  O  O186  1  0.88911502  0.88004275  0.87873254  1
  O  O187  1  0.26338553  -0.01077213  0.37299796  1
  O  O188  1  0.24409221  0.00889134  0.86817777  1
  O  O189  1  0.24214147  0.51431436  0.37274131  1
  O  O190  1  0.25167530  0.51655513  0.86934621  1
  O  O191  1  0.75596516  0.00912572  0.37132080  1
  O  O192  1  0.76276009  -0.01472860  0.86923771  1
  O  O193  1  0.75539968  0.50412403  0.36999883  1
  O  O194  1  0.75843232  0.51372097  0.87747752  1
  O  O195  1  0.23668851  0.51536227  0.12669962  1
  O  O196  1  0.23117092  0.47880264  0.61816767  1
  O  O197  1  0.25089583  0.98463012  0.12174447  1
  O  O198  1  0.24497100  0.99162634  0.63351286  1
  O  O199  1  0.75056605  0.49405978  0.12707611  1
  O  O200  1  0.72966245  0.50512680  0.62047179  1
  O  O201  1  0.74673513  0.99564277  0.12865941  1
  O  O202  1  0.74328897  0.98685816  0.63150717  1
  O  O203  1  0.00575894  0.37010184  0.25654692  1
  O  O204  1  0.00961723  0.37601608  0.76295589  1
  O  O205  1  -0.00685811  0.85781926  0.26421489  1
  O  O206  1  0.00620197  0.86628344  0.75597008  1
  O  O207  1  0.51549167  0.37731791  0.23914444  1
  O  O208  1  0.48892341  0.38499555  0.74803723  1
  O  O209  1  0.50697225  0.86866286  0.25121537  1
  O  O210  1  0.50575525  0.87177757  0.75471555  1
  O  O211  1  0.51010928  0.12597131  0.23010303  1
  O  O212  1  0.48631366  0.11130179  0.73911277  1
  O  O213  1  0.49417093  0.63033941  0.24233835  1
  O  O214  1  0.49546715  0.63441872  0.73853425  1
  O  O215  1  0.99758537  0.13452271  0.24233087  1
  O  O216  1  1.00697574  0.12119191  0.73480698  1
  O  O217  1  0.99598114  0.63007505  0.24749572  1
  O  O218  1  1.00473172  0.63936726  0.74359675  1
  O  O219  1  0.37632893  0.26451188  0.00639687  1
  O  O220  1  0.37938235  0.26454950  0.49578435  1
  O  O221  1  0.37200884  0.75522190  0.01220292  1
  O  O222  1  0.36738331  0.76071032  0.49083910  1
  O  O223  1  0.86962234  0.25888422  0.00109745  1
  O  O224  1  0.86646548  0.26002979  0.49189171  1
  O  O225  1  0.86692237  0.75233670  0.01050794  1
  O  O226  1  0.86791330  0.76175804  0.49450413  1
  O  O227  1  0.11902130  0.24892468  0.49309354  1
  O  O228  1  0.12981740  0.23862089  0.99516797  1
  O  O229  1  0.13266959  0.74195170  0.49622113  1
  O  O230  1  0.13356915  0.74819916  1.00602668  1
  O  O231  1  0.64140247  0.24763325  0.48357092  1
  O  O232  1  0.64006786  0.23455520  1.01097618  1
  O  O233  1  0.63096893  0.74259913  0.49246165  1
  O  O234  1  0.63804783  0.75430913  1.00048081  1
  O  O235  1  0.51178640  0.23538674  0.11887693  1
  O  O236  1  0.49434833  0.23316700  0.62091069  1
  O  O237  1  0.49374756  0.74228245  0.12603614  1
  O  O238  1  0.50934409  0.74291446  0.63322853  1
  O  O239  1  0.99280064  0.24230807  0.13222219  1
  O  O240  1  0.99263843  0.23281915  0.63051744  1
  O  O241  1  0.99758703  0.74532758  0.13291763  1
  O  O242  1  1.00115354  0.74409123  0.63860999  1
  O  O243  1  -0.00436993  0.25800353  0.36680715  1
  O  O244  1  0.02112225  0.26613948  0.88955875  1
  O  O245  1  0.00918947  0.75037629  0.37479397  1
  O  O246  1  -0.00240270  0.75670462  0.86387584  1
  O  O247  1  0.51565757  0.23837032  0.37195144  1
  O  O248  1  0.51059008  0.24947582  0.87146049  1
  O  O249  1  0.50636915  0.75672979  0.36820457  1
  O  O250  1  0.50094678  0.75602410  0.86623035  1
  O  O251  1  0.24670365  0.10850890  0.48000771  1
  O  O252  1  0.24120319  0.11444974  0.99107616  1
  O  O253  1  0.24526802  0.62827869  0.49852089  1
  O  O254  1  0.25306974  0.64041521  0.99236792  1
  O  O255  1  0.75002787  0.12936083  0.49166656  1
  O  O256  1  0.74424462  0.13380765  1.00216860  1
  O  O257  1  0.74399503  0.62916976  0.49346818  1
  O  O258  1  0.75175053  0.63389818  0.99290511  1
  O  O259  1  0.25585454  0.37990521  -0.00301202  1
  O  O260  1  0.26102639  0.37693341  0.50134620  1
  O  O261  1  0.24906761  0.86503255  0.00895789  1
  O  O262  1  0.25883903  0.86530577  0.50585593  1
  O  O263  1  0.75653161  0.37191554  0.00616108  1
  O  O264  1  0.76087564  0.36446120  0.49482213  1
  O  O265  1  0.75291415  0.86572805  0.00890263  1
  O  O266  1  0.75544151  0.87044415  0.50786876  1
  O  O267  1  0.12329690  0.49311487  0.24145505  1
  O  O268  1  0.12428376  0.48622487  0.75480752  1
  O  O269  1  0.08951114  0.98350188  0.23689003  1
  O  O270  1  0.13410915  0.99025972  0.74362234  1
  O  O271  1  0.63413968  0.49287883  0.24480731  1
  O  O272  1  0.62391869  0.50772153  0.73009322  1
  O  O273  1  0.63204772  0.99487454  0.24218233  1
  O  O274  1  0.63041512  0.98620459  0.74722954  1
  O  O275  1  0.38128180  -0.00654495  0.26251056  1
  O  O276  1  0.36096981  0.00567372  0.74786304  1
  O  O277  1  0.37356972  0.51108093  0.24361011  1
  O  O278  1  0.35360000  0.52575035  0.70358187  1
  O  O279  1  0.87233707  -0.00093855  0.26306397  1
  O  O280  1  0.86781233  -0.01025248  0.76476834  1
  O  O281  1  0.87144143  0.50468409  0.25446061  1
  O  O282  1  0.88153026  0.50745363  0.76284353  1
  O  O283  1  0.11006421  0.37787291  0.36890314  1
  O  O284  1  0.12444369  0.37167348  0.86863194  1
  O  O285  1  0.12144720  0.86302697  0.37941744  1
  O  O286  1  0.11183825  0.88373381  0.86875944  1
  O  O287  1  0.63341658  0.36381104  0.36109424  1
  O  O288  1  0.61040525  0.36588182  0.90313450  1
  O  O289  1  0.61985117  0.87190279  0.36941754  1
  O  O290  1  0.61533447  0.86998408  0.86804924  1
  O  O291  1  0.39356403  0.12903327  0.11734190  1
  O  O292  1  0.37741721  0.12460670  0.63100724  1
  O  O293  1  0.38305076  0.63267440  0.13120663  1
  O  O294  1  0.39046670  0.63984761  0.60375290  1
  O  O295  1  0.88484397  0.13122937  0.12358278  1
  O  O296  1  0.88343948  0.11234426  0.62851816  1
  O  O297  1  0.88582763  0.63143582  0.13214981  1
  O  O298  1  0.88556425  0.62499218  0.61640295  1
  O  O299  1  0.24278016  0.23644064  0.12498075  1
  O  O300  1  0.24529879  0.26695110  0.62766888  1
  O  O301  1  0.25588182  0.75424135  0.11604955  1
  O  O302  1  0.24565159  0.75452902  0.61361741  1
  O  O303  1  0.75975190  0.25854844  0.12021690  1
  O  O304  1  0.74853012  0.24418653  0.61059623  1
  O  O305  1  0.75561082  0.75282985  0.12063101  1
  O  O306  1  0.74427345  0.76119148  0.61966412  1
  O  O307  1  0.24840538  0.23233146  0.36767729  1
  O  O308  1  0.24074549  0.24015329  0.87032705  1
  O  O309  1  0.24408378  0.74301919  0.38632703  1
  O  O310  1  0.24531081  0.75365230  0.89116534  1
  O  O311  1  0.74900202  0.23710127  0.37405727  1
  O  O312  1  0.74386679  0.25659665  0.88599112  1
  O  O313  1  0.74444593  0.74413534  0.37936694  1
  O  O314  1  0.75035924  0.73982423  0.88317109  1
  O  O315  1  0.00664094  0.12115174  0.00404865  1
  O  O316  1  0.00238256  0.11935734  0.51800929  1
  O  O317  1  -0.00405337  0.62217440  0.01128889  1
  O  O318  1  0.00669443  0.61885790  0.50803542  1
  O  O319  1  0.51149454  0.11749421  0.00653062  1
  O  O320  1  0.49682081  0.11509044  0.50552642  1
  O  O321  1  0.49050268  0.61850648  0.00983428  1
  O  O322  1  0.50868955  0.62136888  0.50014962  1
  O  O323  1  0.48333707  0.38959594  0.49712618  1
  O  O324  1  0.48471712  0.39248872  1.00179864  1
  O  O325  1  0.49430335  0.87887088  0.49447054  1
  O  O326  1  0.49976455  0.88355297  0.99240383  1
  O  O327  1  0.99314939  0.38129565  0.49526104  1
  O  O328  1  0.99813721  0.39104076  0.98807332  1
  O  O329  1  0.99235730  0.87311163  0.49818472  1
  O  O330  1  1.00182680  0.88285915  0.99411132  1
  O  O331  1  0.50219742  0.50656146  0.38910883  1
  O  O332  1  0.49601839  0.50731848  0.88138816  1
  O  O333  1  0.49335329  0.99671125  0.37993043  1
  O  O334  1  0.50674002  0.99080901  0.88540694  1
  O  O335  1  0.99365716  0.49500168  0.38500795  1
  O  O336  1  0.99761922  0.50425940  0.88137008  1
  O  O337  1  0.99209522  0.99328197  0.38214161  1
  O  O338  1  0.99309051  0.99512304  0.88249176  1
  O  O339  1  -0.01002402  0.00895793  0.10830566  1
  O  O340  1  0.00927659  0.00600913  0.62718901  1
  O  O341  1  0.00702283  0.50989211  0.11785992  1
  O  O342  1  -0.00331333  0.50787821  0.61543156  1
  O  O343  1  0.51029150  0.00366273  0.11594170  1
  O  O344  1  0.50237784  0.00246224  0.61502513  1
  O  O345  1  0.50020075  0.51634855  0.12563803  1
  O  O346  1  0.50984069  0.51268210  0.60976080  1
  O  O347  1  0.23301418  0.37738600  0.26096431  1
  O  O348  1  0.23833497  0.37826935  0.74361643  1
  O  O349  1  0.25107004  0.86442220  0.23579699  1
  O  O350  1  0.24529295  0.87909596  0.75040677  1
  O  O351  1  0.74673185  0.37953879  0.23947782  1
  O  O352  1  0.76504118  0.39092701  0.75086284  1
  O  O353  1  0.74551317  0.88050837  0.24491272  1
  O  O354  1  0.74319780  0.87442654  0.74523530  1
  O  O355  1  0.23648937  0.10537013  0.27111007  1
  O  O356  1  0.25574139  0.11713892  0.75924702  1
  O  O357  1  0.25921114  0.62689859  0.26007686  1
  O  O358  1  0.24583641  0.63063092  0.76175262  1
  O  O359  1  0.75446692  0.11849880  0.25541370  1
  O  O360  1  0.74727366  0.10305065  0.74868950  1
  O  O361  1  0.75501330  0.61856663  0.25476331  1
  O  O362  1  0.75024339  0.62502999  0.76225259  1
  O  O363  1  0.36372686  0.10846601  0.37577801  1
  O  O364  1  0.36535992  0.12939253  0.87096929  1
  O  O365  1  0.36627328  0.63182758  0.36423345  1
  O  O366  1  0.35394800  0.64083910  0.87053473  1
  O  O367  1  0.87080512  0.11575122  0.37644475  1
  O  O368  1  0.87337318  0.10214869  0.88426240  1
  O  O369  1  0.87010776  0.61874132  0.37162326  1
  O  O370  1  0.86279585  0.61993603  0.88153548  1
  O  O371  1  0.12438287  0.38802290  0.13354397  1
  O  O372  1  0.12081056  0.36878300  0.63987265  1
  O  O373  1  0.14063649  0.87407074  0.12856651  1
  O  O374  1  0.13280486  0.88036158  0.63506131  1
  O  O375  1  0.63886308  0.37604106  0.12493174  1
  O  O376  1  0.61793079  0.38867817  0.61927574  1
  O  O377  1  0.63124084  0.88609414  0.12824334  1
  O  O378  1  0.63137393  0.87856958  0.63228947  1
  O  O379  1  0.11184225  0.25751351  0.25540542  1
  O  O380  1  0.11831118  0.26031586  0.76025689  1
  O  O381  1  0.11993306  0.75123438  0.26252009  1
  O  O382  1  0.11726281  0.76422227  0.74848294  1
  O  O383  1  0.62603417  0.25815144  0.25530921  1
  O  O384  1  0.63906788  0.26096688  0.73515995  1
  O  O385  1  0.62065798  0.75592546  0.25480046  1
  O  O386  1  0.61778951  0.76027142  0.75185377  1
  O  O387  1  0.38478178  0.25752822  0.23836273  1
  O  O388  1  0.36728307  0.23731154  0.74441539  1
  O  O389  1  0.38124525  0.74299155  0.23897378  1
  O  O390  1  0.38594806  0.75380180  0.74504103  1
  O  O391  1  0.88525257  0.25138685  0.24202697  1
  O  O392  1  0.89516887  0.23919488  0.80174165  1
  O  O393  1  0.88006167  0.74110281  0.24642555  1
  O  O394  1  0.88745172  0.75519200  0.74972424  1
  O  O395  1  0.38349696  0.49641135  0.50110582  1
  O  O396  1  0.38642596  0.49524602  1.00295198  1
  O  O397  1  0.38476731  0.98954826  0.49233567  1
  O  O398  1  0.38858371  0.99838638  1.00467100  1
  O  O399  1  0.88048511  0.49069496  0.49471018  1
  O  O400  1  0.88815581  0.49878186  0.99573762  1
  O  O401  1  0.87292720  0.98739199  0.49005489  1
  O  O402  1  0.88061801  0.99268117  0.99034790  1
  O  O403  1  0.11544702  0.01014664  0.00448792  1
  O  O404  1  0.12386024  -0.00579625  0.51754777  1
  O  O405  1  0.11449543  0.50031543  0.00754290  1
  O  O406  1  0.11303848  0.50948464  0.49269015  1
  O  O407  1  0.62261481  0.00548115  0.00569402  1
  O  O408  1  0.61156830  -0.00167738  0.50254975  1
  O  O409  1  0.60134644  0.50024733  0.00290833  1
  O  O410  1  0.61697166  0.50457898  0.50298653  1
  O  O411  1  0.36824980  0.37557138  0.10809255  1
  O  O412  1  0.36188527  0.37284360  0.61177936  1
  O  O413  1  0.36539047  0.86776906  0.12310546  1
  O  O414  1  0.37033094  0.87868868  0.61301240  1
  O  O415  1  0.86917967  0.37292266  0.11840058  1
  O  O416  1  0.87965083  0.37649127  0.61593218  1
  O  O417  1  0.87285060  0.86742571  0.12907748  1
  O  O418  1  0.86649262  0.88080604  0.61671922  1
  O  O419  1  0.13200048  0.12278561  0.38229020  1
  O  O420  1  0.13131386  0.13261484  0.88154992  1
  O  O421  1  0.13094349  0.63409125  0.38441295  1
  O  O422  1  0.14114769  0.63039125  0.87842138  1
  O  O423  1  0.63572423  0.12898901  0.37520232  1
  O  O424  1  0.62621222  0.12427477  0.88342401  1
  O  O425  1  0.62974258  0.62817456  0.38291951  1
  O  O426  1  0.63987274  0.62591062  0.87282054  1
