# generated using pymatgen
data_V85Zn86O256
_symmetry_space_group_name_H-M   'P 1'
_cell_length_a   16.92345135
_cell_length_b   16.91641824
_cell_length_c   16.91945786
_cell_angle_alpha   89.96626740
_cell_angle_beta   89.93746863
_cell_angle_gamma   89.98920571
_symmetry_Int_Tables_number   1
_chemical_formula_structural   V85Zn86O256
_chemical_formula_sum   'V85 Zn86 O256'
_cell_volume   4843.76933073
_cell_formula_units_Z   1
loop_
 _symmetry_equiv_pos_site_id
 _symmetry_equiv_pos_as_xyz
  1  'x, y, z'
loop_
 _atom_site_type_symbol
 _atom_site_label
 _atom_site_symmetry_multiplicity
 _atom_site_fract_x
 _atom_site_fract_y
 _atom_site_fract_z
 _atom_site_occupancy
  V  V0  1  0.11598844  -0.00036295  0.13978500  1
  V  V1  1  0.75595246  0.62879800  0.87075973  1
  V  V2  1  0.24538840  0.74927265  0.50211535  1
  V  V3  1  0.50421408  0.35992463  0.87124900  1
  V  V4  1  0.62460729  0.00075419  0.62468217  1
  V  V5  1  0.87907601  0.75315606  0.12444371  1
  V  V6  1  0.50142775  0.74104064  0.74563415  1
  V  V7  1  0.24530481  0.49263635  0.75327239  1
  V  V8  1  0.62537427  0.36114490  0.75150341  1
  V  V9  1  0.49992776  0.49747635  -0.00238670  1
  V  V10  1  0.74940779  0.37419628  0.12346892  1
  V  V11  1  0.25834255  0.11411961  0.37313795  1
  V  V12  1  -0.00225203  0.87014100  0.36947047  1
  V  V13  1  0.87288237  0.49397786  0.38321014  1
  V  V14  1  -0.00190268  0.37304679  0.38267664  1
  V  V15  1  0.37072651  0.11120671  0.24376512  1
  V  V16  1  0.37639643  0.13182241  0.75725220  1
  V  V17  1  0.49582051  0.62507069  0.12345756  1
  V  V18  1  0.00028386  0.24572818  0.24677229  1
  V  V19  1  0.62536833  0.49937610  0.12418505  1
  V  V20  1  0.87609912  0.24520423  0.12229262  1
  V  V21  1  0.63172431  0.12489586  0.48964856  1
  V  V22  1  -0.00144592  0.62319227  0.12446643  1
  V  V23  1  0.74906981  0.74952278  0.50120973  1
  V  V24  1  0.62281169  0.13191204  -0.00464788  1
  V  V25  1  0.75723570  0.87919502  0.12416264  1
  V  V26  1  0.37878550  0.74305049  0.62211877  1
  V  V27  1  0.61134308  0.62682947  0.50574294  1
  V  V28  1  0.25566713  0.37369952  0.61891950  1
  V  V29  1  0.75408565  0.75730023  -0.00048717  1
  V  V30  1  0.12391938  0.49729623  0.12081671  1
  V  V31  1  0.13018758  0.13063098  0.50002552  1
  V  V32  1  0.38077764  0.48497611  0.37647280  1
  V  V33  1  0.74763629  0.13246739  0.87337264  1
  V  V34  1  0.25149498  0.00236543  0.76185706  1
  V  V35  1  0.75599406  0.25474392  0.49049409  1
  V  V36  1  0.25211063  0.36346166  0.12294247  1
  V  V37  1  0.00538351  0.74680334  0.75437757  1
  V  V38  1  0.87544844  0.25910732  0.62337160  1
  V  V39  1  0.12223896  0.49574329  0.62829812  1
  V  V40  1  0.38497235  -0.01359693  0.87860463  1
  V  V41  1  0.12802764  0.00125596  0.63043596  1
  V  V42  1  0.49008434  0.25436075  0.25649195  1
  V  V43  1  0.87407516  0.74136467  0.63253484  1
  V  V44  1  0.74880308  0.50431320  0.74824630  1
  V  V45  1  0.62491167  0.62625392  -0.00045041  1
  V  V46  1  0.87830199  -0.00631079  0.89014287  1
  V  V47  1  0.17575687  0.80689764  0.32237280  1
  V  V48  1  0.61474980  0.87872703  0.75384895  1
  V  V49  1  0.25186103  0.49555651  0.24891630  1
  V  V50  1  0.12385663  0.37127440  0.24910759  1
  V  V51  1  0.25061801  0.75208571  0.01728952  1
  V  V52  1  0.37425707  0.87701300  0.49372396  1
  V  V53  1  0.74932257  0.49960354  0.25001524  1
  V  V54  1  0.37563204  0.62680975  0.24853987  1
  V  V55  1  0.87926410  0.12378301  0.74995119  1
  V  V56  1  0.88302270  0.37589632  -0.00372472  1
  V  V57  1  0.50427287  0.74671757  0.24648012  1
  V  V58  1  0.74894704  0.62483111  0.37602978  1
  V  V59  1  0.37585082  0.49946935  0.87361383  1
  V  V60  1  0.49629306  0.48158052  0.50460403  1
  V  V61  1  0.00284001  0.12711989  0.62904088  1
  V  V62  1  0.87490278  0.87431868  0.50364955  1
  V  V63  1  0.24606484  0.63562498  0.87246185  1
  V  V64  1  0.00288145  0.26470450  0.75498763  1
  V  V65  1  0.50060865  0.13389937  0.62867061  1
  V  V66  1  0.74869698  0.00826804  0.25386728  1
  V  V67  1  0.62803025  0.87657157  0.25099822  1
  V  V68  1  0.25123097  0.87647530  0.62621713  1
  V  V69  1  0.00027879  0.00076677  0.50329236  1
  V  V70  1  0.11995825  0.62539627  0.49759355  1
  V  V71  1  0.24797389  0.23693034  -0.00438650  1
  V  V72  1  0.00537682  0.87465672  0.88589449  1
  V  V73  1  0.87364296  0.12652489  0.25036923  1
  V  V74  1  0.49458143  0.00347251  0.49710938  1
  V  V75  1  0.61667604  0.75579951  0.87777713  1
  V  V76  1  0.87134805  0.00771555  0.37800628  1
  V  V77  1  0.88030116  0.50075563  0.87206854  1
  V  V78  1  0.10336579  0.11378178  -0.00104388  1
  V  V79  1  0.12224330  0.25892329  0.87538513  1
  V  V80  1  0.49647929  0.88012108  0.37194826  1
  V  V81  1  0.24678071  0.62148569  0.37517118  1
  V  V82  1  0.75361858  -0.00216617  0.75027250  1
  V  V83  1  0.37452711  0.36590606  -0.00004201  1
  V  V84  1  0.49698478  0.13120402  0.12141608  1
  Zn  Zn85  1  0.62246011  0.25457894  0.37303922  1
  Zn  Zn86  1  0.74970408  0.37869652  0.62156514  1
  Zn  Zn87  1  -0.00313132  0.62193707  0.62892928  1
  Zn  Zn88  1  0.38273773  0.25665383  0.62592573  1
  Zn  Zn89  1  0.61628420  0.37375536  0.25270045  1
  Zn  Zn90  1  0.12731734  0.87209399  0.75643138  1
  Zn  Zn91  1  0.50565580  -0.00771117  -0.00249763  1
  Zn  Zn92  1  0.61771112  0.50313670  0.63071089  1
  Zn  Zn93  1  0.00279545  0.49898829  -0.00642460  1
  Zn  Zn94  1  0.12824350  0.24852175  0.37267508  1
  Zn  Zn95  1  0.00199078  0.74938634  0.25325644  1
  Zn  Zn96  1  0.38094304  0.86204894  0.02417859  1
  Zn  Zn97  1  0.24351750  0.88712301  0.13301781  1
  Zn  Zn98  1  0.26268016  0.25691952  0.49150836  1
  Zn  Zn99  1  0.87589025  0.62498435  0.25152672  1
  Zn  Zn100  1  0.12203166  0.63169720  -0.00515214  1
  Zn  Zn101  1  0.37809813  0.62115083  0.74487717  1
  Zn  Zn102  1  0.74878494  0.87455142  0.62572728  1
  Zn  Zn103  1  0.62563718  0.75021699  0.37617024  1
  Zn  Zn104  1  0.74623457  0.25453217  -0.00612463  1
  Zn  Zn105  1  -0.00500336  0.49710414  0.50463065  1
  Zn  Zn106  1  0.62747346  0.00351507  0.12154967  1
  Zn  Zn107  1  0.18543700  0.17709409  0.18296125  1
  Zn  Zn108  1  0.19019417  0.18867604  0.69492869  1
  Zn  Zn109  1  0.18711253  0.67896537  0.18476838  1
  Zn  Zn110  1  0.18706292  0.68336389  0.68708829  1
  Zn  Zn111  1  0.68271140  0.18999095  0.18610035  1
  Zn  Zn112  1  0.69159814  0.18526261  0.68211253  1
  Zn  Zn113  1  0.68819320  0.68749763  0.18654217  1
  Zn  Zn114  1  0.68639489  0.68766803  0.68682169  1
  Zn  Zn115  1  0.31161114  0.30314437  0.30995219  1
  Zn  Zn116  1  0.30819388  0.31190234  0.81383145  1
  Zn  Zn117  1  0.34901103  0.84206464  0.26269433  1
  Zn  Zn118  1  0.31532844  0.81327687  0.80910107  1
  Zn  Zn119  1  0.81080242  0.31513870  0.31129899  1
  Zn  Zn120  1  0.81511397  0.31677674  0.80845911  1
  Zn  Zn121  1  0.81525093  0.81377247  0.31196299  1
  Zn  Zn122  1  0.81314560  0.81601448  0.81215676  1
  Zn  Zn123  1  0.18456841  0.43897764  0.43796366  1
  Zn  Zn124  1  0.18855018  0.43567227  0.93777670  1
  Zn  Zn125  1  0.18852244  0.94475228  0.44330489  1
  Zn  Zn126  1  0.18947053  0.93539331  0.94366281  1
  Zn  Zn127  1  0.68067595  0.43510590  0.43703280  1
  Zn  Zn128  1  0.68931901  0.43704394  0.93399476  1
  Zn  Zn129  1  0.68632856  0.93766883  0.43645299  1
  Zn  Zn130  1  0.68703746  0.94116732  0.93714932  1
  Zn  Zn131  1  0.30846752  0.05639711  0.06320413  1
  Zn  Zn132  1  0.31524045  0.06750185  0.56559894  1
  Zn  Zn133  1  0.31074978  0.56087515  0.05945318  1
  Zn  Zn134  1  0.31287196  0.55894345  0.56025167  1
  Zn  Zn135  1  0.81068360  0.06669586  0.06174094  1
  Zn  Zn136  1  0.81222864  0.06766042  0.56485680  1
  Zn  Zn137  1  0.81373232  0.56485826  0.05891215  1
  Zn  Zn138  1  0.80799910  0.56280003  0.56197490  1
  Zn  Zn139  1  0.43453231  0.43700642  0.18414793  1
  Zn  Zn140  1  0.43975572  0.43681947  0.68930222  1
  Zn  Zn141  1  0.44346699  0.94411561  0.17657959  1
  Zn  Zn142  1  0.43612987  0.93806276  0.68578119  1
  Zn  Zn143  1  0.93548715  0.43548274  0.19061393  1
  Zn  Zn144  1  0.93497279  0.44040701  0.69042259  1
  Zn  Zn145  1  0.94122928  0.94222127  0.18445821  1
  Zn  Zn146  1  0.94068665  0.93281594  0.69147554  1
  Zn  Zn147  1  0.05905538  0.06494399  0.31785203  1
  Zn  Zn148  1  0.06386082  0.06496160  0.81968247  1
  Zn  Zn149  1  0.06064172  0.56030146  0.31065097  1
  Zn  Zn150  1  0.06339047  0.56567869  0.80966573  1
  Zn  Zn151  1  0.55894038  0.06546517  0.31013693  1
  Zn  Zn152  1  0.56090837  0.06629432  0.81355963  1
  Zn  Zn153  1  0.56333283  0.55760733  0.31705948  1
  Zn  Zn154  1  0.56576248  0.56164830  0.81524975  1
  Zn  Zn155  1  0.43418838  0.18904864  0.43913028  1
  Zn  Zn156  1  0.43383951  0.18324326  0.93565573  1
  Zn  Zn157  1  0.43321555  0.68969704  0.42939735  1
  Zn  Zn158  1  0.43359723  0.68857156  0.93656393  1
  Zn  Zn159  1  0.93915257  0.18894141  0.43864521  1
  Zn  Zn160  1  0.93493099  0.18871187  0.93409883  1
  Zn  Zn161  1  0.93612434  0.68647219  0.43951574  1
  Zn  Zn162  1  0.93782354  0.69004997  0.93927244  1
  Zn  Zn163  1  0.06214447  0.30829396  0.06106796  1
  Zn  Zn164  1  0.06698278  0.31348449  0.56633207  1
  Zn  Zn165  1  0.06893699  0.81532268  0.06429619  1
  Zn  Zn166  1  0.06157500  0.81202036  0.56556224  1
  Zn  Zn167  1  0.56162660  0.30865177  0.06448204  1
  Zn  Zn168  1  0.57138939  0.31102917  0.56477632  1
  Zn  Zn169  1  0.56558534  0.81539346  0.06615549  1
  Zn  Zn170  1  0.56132918  0.81428044  0.56343965  1
  O  O171  1  0.12373357  0.11716749  0.10855500  1
  O  O172  1  0.12439168  0.12041110  0.62113713  1
  O  O173  1  0.11737113  0.61402270  0.12162517  1
  O  O174  1  0.12533216  0.61243517  0.61776303  1
  O  O175  1  0.61763023  0.12546831  0.11458359  1
  O  O176  1  0.61876654  0.11730636  0.62037446  1
  O  O177  1  0.61924318  0.61963192  0.11818764  1
  O  O178  1  0.62720072  0.62301222  0.60969630  1
  O  O179  1  0.37015564  0.38670170  0.36875030  1
  O  O180  1  0.38121287  0.38060924  0.87895676  1
  O  O181  1  0.39040421  0.87212798  0.37145294  1
  O  O182  1  0.37751449  0.88581470  0.87270505  1
  O  O183  1  0.88381307  0.38272719  0.37072943  1
  O  O184  1  0.86657416  0.38660984  0.88489937  1
  O  O185  1  0.87996666  0.88273835  0.38645203  1
  O  O186  1  0.88115354  0.88812192  0.87261408  1
  O  O187  1  0.24630383  0.01473806  0.37380363  1
  O  O188  1  0.25898807  -0.00666787  0.86523109  1
  O  O189  1  0.25973630  0.50078408  0.36883393  1
  O  O190  1  0.25708442  0.50296447  0.87030715  1
  O  O191  1  0.75984936  -0.00547475  0.36666734  1
  O  O192  1  0.76186858  0.00450986  0.86829191  1
  O  O193  1  0.75430410  0.50524788  0.37184793  1
  O  O194  1  0.75565082  0.51115514  0.87023188  1
  O  O195  1  0.24257671  0.49105117  0.12904503  1
  O  O196  1  0.24647899  0.49228192  0.63209706  1
  O  O197  1  0.22813140  1.00194422  0.11932819  1
  O  O198  1  0.24761974  0.99444179  0.63264645  1
  O  O199  1  0.74662054  0.49559334  0.12885488  1
  O  O200  1  0.74725145  0.49856787  0.63394826  1
  O  O201  1  0.75210105  0.99366321  0.13256514  1
  O  O202  1  0.74363513  1.00022254  0.63366336  1
  O  O203  1  0.00356278  0.36530305  0.25787872  1
  O  O204  1  -0.00087914  0.36382909  0.74852952  1
  O  O205  1  -0.00616895  0.87546991  0.26617167  1
  O  O206  1  0.00430500  0.86506705  0.75842588  1
  O  O207  1  0.49534050  0.35799538  0.24020472  1
  O  O208  1  0.51480448  0.37898349  0.75741237  1
  O  O209  1  0.50676987  0.86896794  0.25237942  1
  O  O210  1  0.51090067  0.86675886  0.74580120  1
  O  O211  1  0.48872123  0.13044371  0.24365938  1
  O  O212  1  0.48837061  0.11957006  0.74227511  1
  O  O213  1  0.49661444  0.62905336  0.24816890  1
  O  O214  1  0.50099360  0.63643583  0.75275781  1
  O  O215  1  0.99116488  0.13885971  0.25733763  1
  O  O216  1  0.99606970  0.12975757  0.74544179  1
  O  O217  1  0.99844276  0.62641479  0.23790066  1
  O  O218  1  0.99857063  0.64152587  0.75022438  1
  O  O219  1  0.36520395  0.25885787  -0.00821239  1
  O  O220  1  0.37165187  0.23966748  0.51415675  1
  O  O221  1  0.35729546  0.74825026  -0.00430938  1
  O  O222  1  0.36865227  0.75629366  0.50337319  1
  O  O223  1  0.87161779  0.25738030  0.00559352  1
  O  O224  1  0.86411928  0.24375112  0.50755691  1
  O  O225  1  0.86598964  0.74755950  0.01284218  1
  O  O226  1  0.86991279  0.75800722  0.50787254  1
  O  O227  1  0.12951014  0.23787885  0.50201829  1
  O  O228  1  0.12790991  0.24111037  0.99390553  1
  O  O229  1  0.13066643  0.73609080  0.50934909  1
  O  O230  1  0.14382104  0.74793195  1.00190262  1
  O  O231  1  0.63733757  0.24159981  0.49902253  1
  O  O232  1  0.62785253  0.23854169  0.99990187  1
  O  O233  1  0.62811257  0.74155395  0.49930693  1
  O  O234  1  0.63112994  0.74769484  0.99323103  1
  O  O235  1  0.49952575  0.23752720  0.13269364  1
  O  O236  1  0.50482652  0.23718258  0.62516515  1
  O  O237  1  0.50710396  0.74113491  0.13871368  1
  O  O238  1  0.49152120  0.75363774  0.63250315  1
  O  O239  1  0.98847531  0.25700926  0.13474131  1
  O  O240  1  0.99642470  0.24621114  0.63148877  1
  O  O241  1  0.99446941  0.74465950  0.12683827  1
  O  O242  1  0.99142120  0.75043783  0.63645821  1
  O  O243  1  0.00211648  0.25719390  0.36836075  1
  O  O244  1  0.00812125  0.24806547  0.86709462  1
  O  O245  1  -0.00703051  0.76110353  0.37376890  1
  O  O246  1  -0.00943779  0.76080610  0.86311010  1
  O  O247  1  0.49865731  0.24349669  0.35997417  1
  O  O248  1  0.49609348  0.26114756  0.87628705  1
  O  O249  1  0.50365744  0.75645803  0.36242932  1
  O  O250  1  0.51174824  0.74619572  0.86876716  1
  O  O251  1  0.24564258  0.12229834  0.48987704  1
  O  O252  1  0.24993923  0.13644262  1.00110530  1
  O  O253  1  0.24475237  0.63002427  0.49377784  1
  O  O254  1  0.24990818  0.63356515  0.99012177  1
  O  O255  1  0.74118758  0.13668618  0.50627404  1
  O  O256  1  0.74318888  0.12814384  0.98960454  1
  O  O257  1  0.73964687  0.62969748  0.49310967  1
  O  O258  1  0.74365642  0.63808959  0.99557362  1
  O  O259  1  0.25650400  0.36654249  0.00494984  1
  O  O260  1  0.24753017  0.37647585  0.51441569  1
  O  O261  1  0.25614943  0.86173422  0.00491185  1
  O  O262  1  0.25553546  0.87050036  0.50375969  1
  O  O263  1  0.75615618  0.37568042  0.00943456  1
  O  O264  1  0.74487273  0.35918695  0.50357745  1
  O  O265  1  0.74551189  0.86545394  0.00796790  1
  O  O266  1  0.75728569  0.86882033  0.50085036  1
  O  O267  1  0.12995555  0.49231614  0.23891553  1
  O  O268  1  0.13329411  0.50455623  0.74207320  1
  O  O269  1  0.11977333  1.01056250  0.23970616  1
  O  O270  1  0.13501011  1.00280445  0.74734695  1
  O  O271  1  0.63143072  0.49928220  0.24228616  1
  O  O272  1  0.63549139  0.49665474  0.75070619  1
  O  O273  1  0.63329123  0.99603924  0.24966444  1
  O  O274  1  0.63053674  0.99473785  0.74684577  1
  O  O275  1  0.38183149  0.01306004  0.25407903  1
  O  O276  1  0.37083141  0.00336690  0.75898358  1
  O  O277  1  0.37513872  0.50602080  0.26020498  1
  O  O278  1  0.37057605  0.50114404  0.76007200  1
  O  O279  1  0.86999339  0.00672603  0.25809164  1
  O  O280  1  0.86701838  0.00353054  0.75049662  1
  O  O281  1  0.86552658  0.50230063  0.25962639  1
  O  O282  1  0.86001574  0.49535232  0.75840719  1
  O  O283  1  0.11833316  0.37380937  0.36610875  1
  O  O284  1  0.12039780  0.35893364  0.88558538  1
  O  O285  1  0.11789243  0.87148693  0.38182685  1
  O  O286  1  0.10958625  0.88142901  0.87523720  1
  O  O287  1  0.63057085  0.36873773  0.36487241  1
  O  O288  1  0.61828316  0.37739140  0.86370042  1
  O  O289  1  0.61544446  0.87314075  0.36880938  1
  O  O290  1  0.63071337  0.86700661  0.86655706  1
  O  O291  1  0.37893007  0.11900909  0.13571009  1
  O  O292  1  0.38606478  0.12191050  0.63853744  1
  O  O293  1  0.38261569  0.61277029  0.13563180  1
  O  O294  1  0.36790396  0.63885248  0.62430993  1
  O  O295  1  0.86944518  0.13894778  0.12943994  1
  O  O296  1  0.88252935  0.13446637  0.63164675  1
  O  O297  1  0.88224908  0.63184474  0.12608637  1
  O  O298  1  0.87581965  0.63782143  0.61922220  1
  O  O299  1  0.24282658  0.25897074  0.11653219  1
  O  O300  1  0.24411178  0.26911244  0.63026921  1
  O  O301  1  0.25091399  0.74826214  0.11907035  1
  O  O302  1  0.25597112  0.75735182  0.62264259  1
  O  O303  1  0.75627853  0.25941580  0.12359090  1
  O  O304  1  0.76060885  0.25161926  0.61756689  1
  O  O305  1  0.75644062  0.75683840  0.11858570  1
  O  O306  1  0.75701034  0.75322357  0.62109912  1
  O  O307  1  0.24592978  0.23761943  0.37642895  1
  O  O308  1  0.23500100  0.25287882  0.88213369  1
  O  O309  1  0.23937733  0.74623343  0.37930497  1
  O  O310  1  0.25191511  0.73679579  0.86990826  1
  O  O311  1  0.75518657  0.24800572  0.38773627  1
  O  O312  1  0.76040922  0.23533814  0.87193819  1
  O  O313  1  0.75013435  0.74222563  0.38087211  1
  O  O314  1  0.74530246  0.74765183  0.88117410  1
  O  O315  1  0.00450230  0.12546507  -0.00001757  1
  O  O316  1  0.00867272  0.12086804  0.50724452  1
  O  O317  1  0.00240689  0.62303596  0.01027889  1
  O  O318  1  0.00758842  0.62178946  0.50302124  1
  O  O319  1  0.50493633  0.12471595  0.00449457  1
  O  O320  1  0.50787455  0.11754061  0.50701477  1
  O  O321  1  0.50399441  0.61944958  0.00260219  1
  O  O322  1  0.51059842  0.62684256  0.49167649  1
  O  O323  1  0.50393644  0.38317122  0.50197153  1
  O  O324  1  0.49283400  0.37735058  0.99486123  1
  O  O325  1  0.49567967  0.88137268  0.49111336  1
  O  O326  1  0.49160499  0.88032006  1.01709053  1
  O  O327  1  1.00699744  0.37504636  0.48663953  1
  O  O328  1  0.98653612  0.37808059  1.00488998  1
  O  O329  1  0.99289763  0.88020084  0.49537240  1
  O  O330  1  0.99826023  0.86248996  0.98418333  1
  O  O331  1  0.48825713  0.50080940  0.38524030  1
  O  O332  1  0.49262701  0.49480537  0.88041422  1
  O  O333  1  0.50659261  0.99309823  0.38571814  1
  O  O334  1  0.48853531  0.99882864  0.87520983  1
  O  O335  1  0.98999813  0.49129425  0.37407163  1
  O  O336  1  0.98474088  0.50872372  0.87297884  1
  O  O337  1  0.99242303  0.99314006  0.38491503  1
  O  O338  1  0.98682142  0.98812166  0.86985184  1
  O  O339  1  0.01361158  -0.00007530  0.12177500  1
  O  O340  1  0.00674351  0.00504938  0.62240250  1
  O  O341  1  0.00611100  0.50510366  0.12505238  1
  O  O342  1  0.00633719  0.50148264  0.62532930  1
  O  O343  1  0.50783890  0.01737103  0.12264299  1
  O  O344  1  0.50697365  0.00481598  0.61701594  1
  O  O345  1  0.50571165  0.50372076  0.11738042  1
  O  O346  1  0.49645314  0.50008610  0.60917408  1
  O  O347  1  0.24626411  0.37583046  0.24079148  1
  O  O348  1  0.25083826  0.38737762  0.74465984  1
  O  O349  1  0.23570929  0.86549968  0.26608112  1
  O  O350  1  0.24746229  0.88225395  0.74351472  1
  O  O351  1  0.75151351  0.38202540  0.23605042  1
  O  O352  1  0.73875039  0.38323289  0.75083071  1
  O  O353  1  0.74787547  0.88517385  0.24550638  1
  O  O354  1  0.74143742  0.88588802  0.74901901  1
  O  O355  1  0.26266644  0.12868573  0.25725441  1
  O  O356  1  0.26559386  0.11445756  0.74372707  1
  O  O357  1  0.25780094  0.61558824  0.25317362  1
  O  O358  1  0.25323600  0.61578026  0.75932103  1
  O  O359  1  0.75380038  0.11453721  0.24530570  1
  O  O360  1  0.75476922  0.11475082  0.75464253  1
  O  O361  1  0.74888766  0.61834234  0.25893493  1
  O  O362  1  0.74502382  0.62013502  0.76014270  1
  O  O363  1  0.36393466  0.12424625  0.36625939  1
  O  O364  1  0.37853069  0.11372840  0.86107367  1
  O  O365  1  0.36685724  0.61571949  0.36749228  1
  O  O366  1  0.36467990  0.61514777  0.87304629  1
  O  O367  1  0.87873685  0.11283192  0.37324097  1
  O  O368  1  0.87107827  0.11242134  0.86871640  1
  O  O369  1  0.86290038  0.61878400  0.37506905  1
  O  O370  1  0.86183660  0.62026678  0.88275317  1
  O  O371  1  0.13099620  0.37935670  0.12788372  1
  O  O372  1  0.13472644  0.38886163  0.62263030  1
  O  O373  1  0.12619324  0.89061631  0.12687266  1
  O  O374  1  0.13256877  0.88545955  0.62503372  1
  O  O375  1  0.63248700  0.38023197  0.12633230  1
  O  O376  1  0.62653414  0.38011797  0.63944109  1
  O  O377  1  0.64077885  0.87702072  0.13443090  1
  O  O378  1  0.62668018  0.88395515  0.63221846  1
  O  O379  1  0.11629346  0.25245370  0.24688299  1
  O  O380  1  0.11820313  0.24448830  0.76642391  1
  O  O381  1  0.12367511  0.74739557  0.25611611  1
  O  O382  1  0.10994536  0.75156008  0.74400291  1
  O  O383  1  0.60764138  0.24647015  0.25097559  1
  O  O384  1  0.63310453  0.26222880  0.74811769  1
  O  O385  1  0.62134041  0.75666034  0.25275348  1
  O  O386  1  0.61972649  0.75746926  0.75565165  1
  O  O387  1  0.38558415  0.23796974  0.24901283  1
  O  O388  1  0.36937937  0.23561561  0.74845597  1
  O  O389  1  0.38621014  0.73299046  0.25403142  1
  O  O390  1  0.38521208  0.74879197  0.74123830  1
  O  O391  1  0.87858910  0.24586087  0.24308228  1
  O  O392  1  0.88331176  0.24491828  0.74414411  1
  O  O393  1  0.87466014  0.74692121  0.23727317  1
  O  O394  1  0.88315592  0.75911797  0.73993114  1
  O  O395  1  0.38670218  0.50163078  0.48940705  1
  O  O396  1  0.37681218  0.48960960  0.98930133  1
  O  O397  1  0.38713713  0.99444976  0.50517106  1
  O  O398  1  0.37323465  0.99980791  0.98407632  1
  O  O399  1  0.87439682  0.50238579  0.48792059  1
  O  O400  1  0.87504134  0.49320689  0.99153618  1
  O  O401  1  0.87731501  0.99502263  0.49660857  1
  O  O402  1  0.87149197  1.00067511  0.98820395  1
  O  O403  1  0.12161868  0.01244520  -0.00522314  1
  O  O404  1  0.12031335  0.01162635  0.50937143  1
  O  O405  1  0.12373528  0.49896991  0.01097438  1
  O  O406  1  0.12290376  0.50952992  0.50800626  1
  O  O407  1  0.62561085  0.01388362  0.00014934  1
  O  O408  1  0.62061467  0.00606920  0.50597617  1
  O  O409  1  0.62061548  0.50522371  0.00341280  1
  O  O410  1  0.60964137  0.50824278  0.50007822  1
  O  O411  1  0.36383153  0.38042196  0.11193352  1
  O  O412  1  0.36013947  0.37557802  0.63188988  1
  O  O413  1  0.35955112  0.87560079  0.14788163  1
  O  O414  1  0.36927253  0.86657668  0.61738608  1
  O  O415  1  0.86757173  0.36838083  0.11864727  1
  O  O416  1  0.87378990  0.36275107  0.62786382  1
  O  O417  1  0.86526951  0.86956726  0.13046575  1
  O  O418  1  0.87452200  0.87123046  0.61392806  1
  O  O419  1  0.13334167  0.12585128  0.38435918  1
  O  O420  1  0.12029824  0.13479132  0.89098686  1
  O  O421  1  0.13242590  0.61426431  0.38425498  1
  O  O422  1  0.14200225  0.61702688  0.87799483  1
  O  O423  1  0.62232333  0.12698224  0.38724423  1
  O  O424  1  0.63640084  0.12108196  0.87929105  1
  O  O425  1  0.63461489  0.62444269  0.38448382  1
  O  O426  1  0.63464348  0.63450618  0.88122258  1
