# generated using pymatgen
data_V85Zn86O256
_symmetry_space_group_name_H-M   'P 1'
_cell_length_a   16.93266864
_cell_length_b   16.92191017
_cell_length_c   16.92361984
_cell_angle_alpha   89.98457681
_cell_angle_beta   89.96026533
_cell_angle_gamma   90.02451879
_symmetry_Int_Tables_number   1
_chemical_formula_structural   V85Zn86O256
_chemical_formula_sum   'V85 Zn86 O256'
_cell_volume   4849.17542871
_cell_formula_units_Z   1
loop_
 _symmetry_equiv_pos_site_id
 _symmetry_equiv_pos_as_xyz
  1  'x, y, z'
loop_
 _atom_site_type_symbol
 _atom_site_label
 _atom_site_symmetry_multiplicity
 _atom_site_fract_x
 _atom_site_fract_y
 _atom_site_fract_z
 _atom_site_occupancy
  V  V0  1  0.62616913  0.12412210  -0.00484542  1
  V  V1  1  0.87594367  0.87541312  -0.00025238  1
  V  V2  1  0.25454484  0.13217077  0.87735913  1
  V  V3  1  0.37134153  0.37393358  -0.01038209  1
  V  V4  1  0.25037252  0.00020838  0.74914137  1
  V  V5  1  0.25637229  0.37575751  0.61724640  1
  V  V6  1  0.50548388  0.25544217  0.74572629  1
  V  V7  1  0.87047321  0.49832920  0.36956107  1
  V  V8  1  0.73716829  0.62232602  0.37117337  1
  V  V9  1  0.37715503  0.62298738  0.74891420  1
  V  V10  1  0.50850408  0.62817615  0.61591790  1
  V  V11  1  0.74459716  0.87084744  0.63257442  1
  V  V12  1  0.87207665  0.24892752  0.12774553  1
  V  V13  1  0.13036685  0.13077649  0.00123764  1
  V  V14  1  0.25528900  0.75101382  0.00364852  1
  V  V15  1  0.74738840  0.38203161  0.63763061  1
  V  V16  1  0.23895059  0.74245107  0.50039873  1
  V  V17  1  0.11967395  0.87359267  0.74803653  1
  V  V18  1  0.49681465  -0.02026464  0.49469916  1
  V  V19  1  0.37615075  -0.00057253  0.87662967  1
  V  V20  1  0.11923795  0.37670727  0.25728534  1
  V  V21  1  0.11954616  0.75012815  0.87025560  1
  V  V22  1  0.38184350  0.12808147  0.74475271  1
  V  V23  1  0.48203487  0.62998519  0.12490725  1
  V  V24  1  0.88398010  0.74455779  0.12490536  1
  V  V25  1  0.12636207  -0.00448240  0.12498155  1
  V  V26  1  0.74567055  0.00444096  0.75269953  1
  V  V27  1  0.61325612  0.12336240  0.50550236  1
  V  V28  1  0.87020377  0.00619326  0.87522343  1
  V  V29  1  0.88027683  0.62200983  0.24954903  1
  V  V30  1  0.87637791  0.75205729  0.62864901  1
  V  V31  1  0.25211425  0.36691273  0.12086905  1
  V  V32  1  0.00068943  0.50216280  0.00338086  1
  V  V33  1  0.26196910  0.50127169  0.24776247  1
  V  V34  1  -0.00520078  0.00019485  0.49203311  1
  V  V35  1  0.49890633  0.12717362  0.12911043  1
  V  V36  1  0.74047549  0.74143844  0.49950300  1
  V  V37  1  0.47345830  0.74735179  0.25558539  1
  V  V38  1  0.12525384  0.50270440  0.12610796  1
  V  V39  1  0.48975533  0.37361188  0.37891423  1
  V  V40  1  0.87306487  0.49973993  0.86983796  1
  V  V41  1  0.87164199  0.87678068  0.49250902  1
  V  V42  1  0.38145590  0.25271158  0.61774731  1
  V  V43  1  0.75255812  0.12023294  0.38163169  1
  V  V44  1  0.87289838  0.37532548  0.00186387  1
  V  V45  1  0.62800688  0.75549192  0.86997041  1
  V  V46  1  0.74798708  0.74987005  0.00167731  1
  V  V47  1  0.25239807  0.24865044  0.49023936  1
  V  V48  1  0.87759610  0.37345256  0.49507669  1
  V  V49  1  0.25082418  0.00602368  0.25906888  1
  V  V50  1  0.75190002  0.24311858  -0.00682767  1
  V  V51  1  0.50322792  0.38472335  0.87208541  1
  V  V52  1  0.62538652  0.25275922  0.37111451  1
  V  V53  1  0.00233478  0.24951393  0.74987956  1
  V  V54  1  0.12913534  0.25049345  0.87707165  1
  V  V55  1  0.00245897  0.37536008  0.87524726  1
  V  V56  1  0.88449195  0.62860803  0.75098916  1
  V  V57  1  0.87606998  0.25096135  0.62656166  1
  V  V58  1  0.25306462  0.50129204  0.74782657  1
  V  V59  1  0.25211009  0.87747040  0.61758083  1
  V  V60  1  0.12555025  0.50335482  0.61840731  1
  V  V61  1  0.61737048  -0.00118983  0.63160230  1
  V  V62  1  0.26042004  0.87377007  0.12847325  1
  V  V63  1  0.37454143  0.75387309  0.61544503  1
  V  V64  1  0.50234386  0.87517353  0.87418448  1
  V  V65  1  0.12292262  0.62585069  0.00181759  1
  V  V66  1  0.61805518  0.86033220  0.26325638  1
  V  V67  1  0.87467621  0.11807428  0.25442687  1
  V  V68  1  0.12870167  0.12373234  0.49030079  1
  V  V69  1  0.74736082  -0.00386410  0.25899450  1
  V  V70  1  0.00104757  0.49965610  0.49215911  1
  V  V71  1  0.74959582  0.24909630  0.50370787  1
  V  V72  1  0.00023170  -0.00106699  -0.00222376  1
  V  V73  1  0.62313739  -0.00193455  0.12747152  1
  V  V74  1  0.00393285  0.62916257  0.62105848  1
  V  V75  1  0.50123829  0.50434048  0.49667345  1
  V  V76  1  0.74894499  0.62127873  0.87172707  1
  V  V77  1  0.24958007  0.62741081  0.36984337  1
  V  V78  1  0.12748615  0.37515453  0.74779779  1
  V  V79  1  0.25382233  0.62228364  0.87360648  1
  V  V80  1  0.74748869  0.87083827  0.12820976  1
  V  V81  1  0.00195694  0.12349478  0.62506416  1
  V  V82  1  0.50299110  0.75337027  0.74867092  1
  V  V83  1  0.62779080  0.25619257  0.87126214  1
  V  V84  1  -0.00066069  0.12383618  0.12662988  1
  Zn  Zn85  1  0.37014897  0.13039071  0.25807689  1
  Zn  Zn86  1  0.62920559  0.50585710  0.12765871  1
  Zn  Zn87  1  0.49627918  0.25684405  0.24563747  1
  Zn  Zn88  1  0.12257673  0.86986045  0.25573930  1
  Zn  Zn89  1  0.87318236  0.12659957  0.75477116  1
  Zn  Zn90  1  0.49688080  0.50193614  0.00319370  1
  Zn  Zn91  1  0.11750029  0.74537192  0.37535101  1
  Zn  Zn92  1  0.37849252  0.87067306  0.00136430  1
  Zn  Zn93  1  0.11819992  0.25296640  0.37657718  1
  Zn  Zn94  1  0.37402465  0.50176848  0.38210641  1
  Zn  Zn95  1  0.63102310  0.39554896  0.25479224  1
  Zn  Zn96  1  0.62601150  0.49550687  0.62838325  1
  Zn  Zn97  1  -0.00279215  0.87273928  0.86886471  1
  Zn  Zn98  1  0.37427473  0.00149511  0.38441948  1
  Zn  Zn99  1  0.37337805  0.24746777  0.12043862  1
  Zn  Zn100  1  -0.00449755  0.25505663  0.25872603  1
  Zn  Zn101  1  -0.00205263  0.87152719  0.37209217  1
  Zn  Zn102  1  0.50035289  -0.00246921  0.00167718  1
  Zn  Zn103  1  0.74335970  0.38015254  0.13375188  1
  Zn  Zn104  1  0.61900297  0.62421641  0.00204894  1
  Zn  Zn105  1  0.00155362  0.74907638  0.25278965  1
  Zn  Zn106  1  0.12442977  0.00036191  0.62442806  1
  Zn  Zn107  1  0.18553475  0.18901962  0.18898321  1
  Zn  Zn108  1  0.19070590  0.18810734  0.68408515  1
  Zn  Zn109  1  0.18956302  0.68817271  0.18940562  1
  Zn  Zn110  1  0.18622601  0.68894559  0.68634905  1
  Zn  Zn111  1  0.68910680  0.19360956  0.18955584  1
  Zn  Zn112  1  0.68771718  0.18521829  0.68759300  1
  Zn  Zn113  1  0.68530671  0.67466112  0.18881100  1
  Zn  Zn114  1  0.67846044  0.65722021  0.69927034  1
  Zn  Zn115  1  0.31260946  0.31253809  0.30618163  1
  Zn  Zn116  1  0.31619230  0.31365365  0.80851469  1
  Zn  Zn117  1  0.31127806  0.82381745  0.32426164  1
  Zn  Zn118  1  0.31030941  0.81041757  0.80938870  1
  Zn  Zn119  1  0.81169775  0.31073911  0.31451776  1
  Zn  Zn120  1  0.81289722  0.31108256  0.81435290  1
  Zn  Zn121  1  0.81066959  0.80565423  0.31349806  1
  Zn  Zn122  1  0.81451397  0.81472306  0.81064760  1
  Zn  Zn123  1  0.19105293  0.44095353  0.43747186  1
  Zn  Zn124  1  0.19150897  0.43923726  0.93670825  1
  Zn  Zn125  1  0.18356590  0.93347537  0.43812315  1
  Zn  Zn126  1  0.18926942  0.93794341  0.93732930  1
  Zn  Zn127  1  0.68470559  0.43946902  0.44319869  1
  Zn  Zn128  1  0.68793135  0.43944770  0.95236639  1
  Zn  Zn129  1  0.68368533  0.93352653  0.44303576  1
  Zn  Zn130  1  0.68700125  0.93594830  0.93687074  1
  Zn  Zn131  1  0.31316988  0.06153925  0.06305158  1
  Zn  Zn132  1  0.31550796  0.06593997  0.56233591  1
  Zn  Zn133  1  0.31398106  0.55552475  0.05827154  1
  Zn  Zn134  1  0.31965892  0.56570879  0.55720212  1
  Zn  Zn135  1  0.80844194  0.06141645  0.06550004  1
  Zn  Zn136  1  0.81176306  0.06009507  0.56751042  1
  Zn  Zn137  1  0.81219736  0.56493461  0.06202998  1
  Zn  Zn138  1  0.81470412  0.56244122  0.56002463  1
  Zn  Zn139  1  0.44425145  0.43529840  0.18573270  1
  Zn  Zn140  1  0.43987063  0.43922826  0.68443734  1
  Zn  Zn141  1  0.43811012  0.93575984  0.19491611  1
  Zn  Zn142  1  0.43779084  0.93612191  0.68830972  1
  Zn  Zn143  1  0.93534267  0.43974985  0.18568807  1
  Zn  Zn144  1  0.93735565  0.43845382  0.68585570  1
  Zn  Zn145  1  0.93587516  0.93535544  0.18865409  1
  Zn  Zn146  1  0.93492198  0.93879718  0.68525078  1
  Zn  Zn147  1  0.06306421  0.05953944  0.31221553  1
  Zn  Zn148  1  0.06296078  0.06061907  0.81279961  1
  Zn  Zn149  1  0.06530241  0.56601676  0.31390011  1
  Zn  Zn150  1  0.06416401  0.56249667  0.81026398  1
  Zn  Zn151  1  0.56310767  0.06206134  0.31558744  1
  Zn  Zn152  1  0.56271324  0.06676431  0.81219660  1
  Zn  Zn153  1  0.55590793  0.56583480  0.30319528  1
  Zn  Zn154  1  0.56839640  0.56337779  0.80695030  1
  Zn  Zn155  1  0.43553112  0.18315300  0.43402470  1
  Zn  Zn156  1  0.44217897  0.19257826  0.93990640  1
  Zn  Zn157  1  0.43239634  0.69065649  0.43332026  1
  Zn  Zn158  1  0.43646677  0.68599166  0.93566014  1
  Zn  Zn159  1  0.93967693  0.18787379  0.43518343  1
  Zn  Zn160  1  0.94080399  0.18602151  0.93846053  1
  Zn  Zn161  1  0.93341410  0.68602987  0.43957768  1
  Zn  Zn162  1  0.93985389  0.68787016  0.93987378  1
  Zn  Zn163  1  0.06072745  0.31305465  0.06720738  1
  Zn  Zn164  1  0.06400571  0.31371633  0.55905384  1
  Zn  Zn165  1  0.06521944  0.81297929  0.06154139  1
  Zn  Zn166  1  0.06034209  0.81492071  0.56197709  1
  Zn  Zn167  1  0.56335518  0.31698221  0.06153728  1
  Zn  Zn168  1  0.56502415  0.31664858  0.55881816  1
  Zn  Zn169  1  0.55997402  0.80627554  0.06680314  1
  Zn  Zn170  1  0.56753073  0.80978257  0.56616242  1
  O  O171  1  0.12181479  0.11728579  0.11774952  1
  O  O172  1  0.11342582  0.12676144  0.61925312  1
  O  O173  1  0.13242985  0.61122046  0.11561703  1
  O  O174  1  0.11596509  0.61585915  0.62997368  1
  O  O175  1  0.62200386  0.11741745  0.11743077  1
  O  O176  1  0.63314801  0.11210737  0.61619783  1
  O  O177  1  0.61165233  0.62837693  0.11951834  1
  O  O178  1  0.60693948  0.64747807  0.60922480  1
  O  O179  1  0.38722287  0.37523363  0.37341734  1
  O  O180  1  0.38317318  0.37179208  0.88168119  1
  O  O181  1  0.37062099  0.89143819  0.38478731  1
  O  O182  1  0.38082005  0.88355677  0.87270164  1
  O  O183  1  0.86856617  0.38351119  0.38345894  1
  O  O184  1  0.88064761  0.38267705  0.88027457  1
  O  O185  1  0.87102018  0.87167503  0.38953207  1
  O  O186  1  0.87767619  0.88348831  0.88194559  1
  O  O187  1  0.24066374  -0.00019352  0.36025305  1
  O  O188  1  0.25813500  0.00913892  0.86955444  1
  O  O189  1  0.25199864  0.50717481  0.36673052  1
  O  O190  1  0.24329859  0.51431771  0.86519095  1
  O  O191  1  0.74318648  0.00441259  0.36689816  1
  O  O192  1  0.75716788  -0.00716366  0.86574805  1
  O  O193  1  0.75811035  0.51353578  0.38758170  1
  O  O194  1  0.76115631  0.51000459  0.88404284  1
  O  O195  1  0.24333384  0.49256624  0.13005438  1
  O  O196  1  0.24441388  0.49525238  0.62505306  1
  O  O197  1  0.24200760  0.99283562  0.12726295  1
  O  O198  1  0.25070055  0.99320832  0.63029109  1
  O  O199  1  0.74540801  0.48951889  0.10269034  1
  O  O200  1  0.75511869  0.48408117  0.61856878  1
  O  O201  1  0.73920590  0.99447188  0.13549403  1
  O  O202  1  0.74236965  0.99003580  0.63242555  1
  O  O203  1  0.01612227  0.37629474  0.23982646  1
  O  O204  1  0.00711778  0.37088296  0.75501062  1
  O  O205  1  0.00114285  0.87256229  0.25241441  1
  O  O206  1  0.01508549  0.88253002  0.74870255  1
  O  O207  1  0.50657638  0.37508540  0.26559320  1
  O  O208  1  0.49569110  0.36427931  0.75642036  1
  O  O209  1  0.51011659  0.85988522  0.24344933  1
  O  O210  1  0.49486277  0.86256399  0.76079144  1
  O  O211  1  0.50148770  0.11948786  0.23662609  1
  O  O212  1  0.49084480  0.13912417  0.75572016  1
  O  O213  1  0.49102793  0.63863047  0.23982241  1
  O  O214  1  0.49225685  0.63649787  0.74279690  1
  O  O215  1  0.99021587  0.12127344  0.24463266  1
  O  O216  1  1.00007819  0.13021793  0.74261281  1
  O  O217  1  0.98458810  0.62294934  0.25313921  1
  O  O218  1  0.99193817  0.62249211  0.74086502  1
  O  O219  1  0.37828688  0.26635181  0.00169322  1
  O  O220  1  0.36888508  0.24281225  0.51176315  1
  O  O221  1  0.35834295  0.75194585  -0.00967150  1
  O  O222  1  0.36488858  0.74786548  0.51216260  1
  O  O223  1  0.87040586  0.25105032  0.00503178  1
  O  O224  1  0.87096598  0.25600336  0.50631574  1
  O  O225  1  0.86921509  0.75501458  0.00454469  1
  O  O226  1  0.86665261  0.75702211  0.51189487  1
  O  O227  1  0.13390362  0.24299390  0.50032161  1
  O  O228  1  0.11878735  0.23770531  0.99637467  1
  O  O229  1  0.13639377  0.74982372  0.50455544  1
  O  O230  1  0.13286485  0.74189439  0.99432645  1
  O  O231  1  0.63042586  0.24113494  0.49442897  1
  O  O232  1  0.63361969  0.24349056  0.99367776  1
  O  O233  1  0.64302052  0.75772630  0.49740527  1
  O  O234  1  0.63425400  0.75023571  0.99188062  1
  O  O235  1  0.50243241  0.23928686  0.12584709  1
  O  O236  1  0.49328605  0.25921844  0.63152071  1
  O  O237  1  0.49706004  0.74055883  0.13586043  1
  O  O238  1  0.49102300  0.75119107  0.63120307  1
  O  O239  1  0.98795609  0.24239088  0.12793082  1
  O  O240  1  0.99592676  0.24486531  0.62937270  1
  O  O241  1  0.98637423  0.75183572  0.12002915  1
  O  O242  1  0.99137188  0.73977223  0.61851533  1
  O  O243  1  0.00336130  0.25181778  0.37206942  1
  O  O244  1  0.00745912  0.25540256  0.87015110  1
  O  O245  1  -0.00173093  0.75030126  0.37554948  1
  O  O246  1  0.01478588  0.75253717  0.87983588  1
  O  O247  1  0.50648445  0.26103052  0.37941113  1
  O  O248  1  0.50856526  0.25913531  0.86684521  1
  O  O249  1  0.49446102  0.74459519  0.35485777  1
  O  O250  1  0.50663451  0.75456045  0.86822274  1
  O  O251  1  0.23949088  0.13499675  0.50923948  1
  O  O252  1  0.24214371  0.12065017  0.99021152  1
  O  O253  1  0.25047550  0.63268296  0.49247961  1
  O  O254  1  0.24250707  0.62773711  0.99214683  1
  O  O255  1  0.74590190  0.12707811  0.49620904  1
  O  O256  1  0.74285091  0.13376141  1.00233130  1
  O  O257  1  0.75314545  0.63534058  0.49483922  1
  O  O258  1  0.75630814  0.63969874  0.98701187  1
  O  O259  1  0.26115342  0.37879303  0.00407524  1
  O  O260  1  0.24523632  0.36761526  0.51097098  1
  O  O261  1  0.25031670  0.86703577  0.00632720  1
  O  O262  1  0.24556951  0.86846191  0.51391621  1
  O  O263  1  0.75909173  0.35773200  -0.00259278  1
  O  O264  1  0.76120207  0.36776939  0.50638487  1
  O  O265  1  0.75463607  0.86562304  0.00509041  1
  O  O266  1  0.75560903  0.86852984  0.51018157  1
  O  O267  1  0.12913715  0.49338174  0.24178899  1
  O  O268  1  0.13109957  0.49544090  0.73854771  1
  O  O269  1  0.13238743  0.99959845  0.23956755  1
  O  O270  1  0.13376601  0.99430815  0.74857585  1
  O  O271  1  0.63210724  0.50934387  0.24633880  1
  O  O272  1  0.64301133  0.54735760  0.72737398  1
  O  O273  1  0.62951672  0.99035937  0.24464522  1
  O  O274  1  0.63117307  1.00464206  0.74426918  1
  O  O275  1  0.35795985  0.00111354  0.24621527  1
  O  O276  1  0.37381871  0.00942425  0.75832708  1
  O  O277  1  0.36305185  0.49169958  0.25113351  1
  O  O278  1  0.36929489  0.51497221  0.74105083  1
  O  O279  1  0.86241759  0.01041815  0.24346407  1
  O  O280  1  0.86806788  0.00050250  0.75878205  1
  O  O281  1  0.87601343  0.50267745  0.26141305  1
  O  O282  1  0.88251848  0.50810889  0.76313463  1
  O  O283  1  0.12822896  0.38001715  0.35929241  1
  O  O284  1  0.12380958  0.36937375  0.86987075  1
  O  O285  1  0.11825465  0.86740926  0.37545276  1
  O  O286  1  0.12635492  0.86789541  0.86719278  1
  O  O287  1  0.62068642  0.36539399  0.37713291  1
  O  O288  1  0.61953802  0.36315171  0.88065522  1
  O  O289  1  0.62791539  0.87477913  0.36106846  1
  O  O290  1  0.61800359  0.86421009  0.87568273  1
  O  O291  1  0.38613141  0.12543250  0.12272880  1
  O  O292  1  0.37132234  0.13542682  0.63849146  1
  O  O293  1  0.38211003  0.62646280  0.11852697  1
  O  O294  1  0.38074307  0.63650341  0.63147376  1
  O  O295  1  0.87826434  0.12874605  0.13233121  1
  O  O296  1  0.88643974  0.13275276  0.62574006  1
  O  O297  1  0.86988680  0.63305747  0.13436969  1
  O  O298  1  0.87977524  0.63000213  0.63356549  1
  O  O299  1  0.24622094  0.26404457  0.12410680  1
  O  O300  1  0.25813159  0.25911504  0.61911485  1
  O  O301  1  0.24257556  0.76111296  0.11515313  1
  O  O302  1  0.25547518  0.75499756  0.61966574  1
  O  O303  1  0.76267033  0.24366368  0.11477288  1
  O  O304  1  0.75741237  0.25595783  0.62206758  1
  O  O305  1  0.75646712  0.75165728  0.11673927  1
  O  O306  1  0.75531783  0.75356879  0.61776623  1
  O  O307  1  0.24728310  0.25891943  0.38797275  1
  O  O308  1  0.24708696  0.23889270  0.86867782  1
  O  O309  1  0.24765919  0.74112662  0.38285749  1
  O  O310  1  0.23981009  0.74106375  0.87925859  1
  O  O311  1  0.74325942  0.23978454  0.38551582  1
  O  O312  1  0.74261271  0.24880414  0.88042926  1
  O  O313  1  0.75766774  0.73569747  0.39018873  1
  O  O314  1  0.74442642  0.74955431  0.87985902  1
  O  O315  1  0.00813049  0.11779079  0.00611644  1
  O  O316  1  0.00477444  0.11870007  0.50724681  1
  O  O317  1  0.01465641  0.61762024  -0.00496893  1
  O  O318  1  -0.00895673  0.61319423  0.51343105  1
  O  O319  1  0.50906408  0.12175091  0.00930406  1
  O  O320  1  0.51242939  0.12417884  0.50271969  1
  O  O321  1  0.49668685  0.62825721  0.01053651  1
  O  O322  1  0.49106141  0.61997807  0.50553780  1
  O  O323  1  0.50332785  0.38212028  0.48579191  1
  O  O324  1  0.49112532  0.37558226  0.98771794  1
  O  O325  1  0.50270044  0.88124614  0.50352914  1
  O  O326  1  0.49852075  0.87355285  0.98782571  1
  O  O327  1  0.98617406  0.38372685  0.50795576  1
  O  O328  1  0.99472336  0.38101880  0.99451815  1
  O  O329  1  0.98879858  0.88429224  0.50351136  1
  O  O330  1  0.99456208  0.88312569  0.99866020  1
  O  O331  1  0.49800336  0.49276107  0.37989407  1
  O  O332  1  0.50709700  0.48734514  0.86567793  1
  O  O333  1  0.50767080  0.99828345  0.39337142  1
  O  O334  1  0.49487300  0.99148738  0.87385201  1
  O  O335  1  0.99308983  0.50487994  0.38714016  1
  O  O336  1  0.99822077  0.49463810  0.88338660  1
  O  O337  1  0.99862594  1.00034366  0.38891544  1
  O  O338  1  0.99302583  0.99778582  0.88234161  1
  O  O339  1  0.00700535  0.00453445  0.11817295  1
  O  O340  1  0.00058514  0.00985851  0.61837387  1
  O  O341  1  0.00729083  0.49615152  0.11065327  1
  O  O342  1  0.00748862  0.50567795  0.61836344  1
  O  O343  1  0.51126605  0.00156847  0.12433143  1
  O  O344  1  0.51271903  -0.00688009  0.62203465  1
  O  O345  1  0.49730973  0.51808267  0.12700962  1
  O  O346  1  0.50300353  0.51213238  0.62067774  1
  O  O347  1  0.23978381  0.38248806  0.24059865  1
  O  O348  1  0.24689306  0.38122477  0.74083728  1
  O  O349  1  0.24416017  0.88554713  0.24113796  1
  O  O350  1  0.24152584  0.88069853  0.74286470  1
  O  O351  1  0.73594068  0.34598162  0.24322337  1
  O  O352  1  0.75799483  0.37442403  0.73631284  1
  O  O353  1  0.74447519  0.87989415  0.24763700  1
  O  O354  1  0.75538836  0.88346222  0.73855422  1
  O  O355  1  0.24817436  0.11005670  0.24221965  1
  O  O356  1  0.25796752  0.12043031  0.75665614  1
  O  O357  1  0.24800818  0.61533633  0.25875317  1
  O  O358  1  0.25666293  0.62290277  0.75457190  1
  O  O359  1  0.75321048  0.11652881  0.25907375  1
  O  O360  1  0.75546468  0.10948582  0.74448962  1
  O  O361  1  0.76076415  0.63215547  0.26637055  1
  O  O362  1  0.77063484  0.63707207  0.76712744  1
  O  O363  1  0.37777789  0.11372947  0.37114294  1
  O  O364  1  0.37103186  0.12210996  0.86943969  1
  O  O365  1  0.35617108  0.62066079  0.37928877  1
  O  O366  1  0.36493127  0.63028503  0.86356105  1
  O  O367  1  0.86096238  0.12594270  0.36942411  1
  O  O368  1  0.87908607  0.11063505  0.87630436  1
  O  O369  1  0.86814384  0.61486754  0.36997885  1
  O  O370  1  0.87525472  0.61978032  0.87006737  1
  O  O371  1  0.13223494  0.38552237  0.12627844  1
  O  O372  1  0.13246310  0.38167793  0.63032489  1
  O  O373  1  0.13146375  0.88773833  0.12068209  1
  O  O374  1  0.13270708  0.87632793  0.63225902  1
  O  O375  1  0.62240022  0.38016352  0.13114561  1
  O  O376  1  0.64275253  0.37349048  0.62465341  1
  O  O377  1  0.63023471  0.88118785  0.13005768  1
  O  O378  1  0.63526936  0.88275099  0.62526443  1
  O  O379  1  0.12431431  0.26529689  0.24993870  1
  O  O380  1  0.12183688  0.25504392  0.75507998  1
  O  O381  1  0.11929409  0.75017082  0.25098854  1
  O  O382  1  0.13033337  0.75973779  0.75842739  1
  O  O383  1  0.61639550  0.23430919  0.26868078  1
  O  O384  1  0.61780796  0.24321388  0.75851947  1
  O  O385  1  0.63189036  0.76192613  0.24873776  1
  O  O386  1  0.61524730  0.74387399  0.75747977  1
  O  O387  1  0.37781927  0.24691440  0.24121023  1
  O  O388  1  0.38280454  0.24496970  0.74099203  1
  O  O389  1  0.37497002  0.75820869  0.24989892  1
  O  O390  1  0.37998373  0.74133722  0.74291943  1
  O  O391  1  0.87426017  0.23561104  0.24312834  1
  O  O392  1  0.88417684  0.24766385  0.74629089  1
  O  O393  1  0.87553888  0.74177035  0.24040482  1
  O  O394  1  0.87705267  0.74642099  0.73797088  1
  O  O395  1  0.39178489  0.49650649  0.50219114  1
  O  O396  1  0.37979847  0.48223524  0.99855059  1
  O  O397  1  0.39664721  1.00495906  0.51094050  1
  O  O398  1  0.37754614  0.99897412  0.98565372  1
  O  O399  1  0.88158026  0.49207081  0.49233705  1
  O  O400  1  0.88604167  0.49911885  0.98971717  1
  O  O401  1  0.88150102  0.98937209  0.50824525  1
  O  O402  1  0.87730007  0.99533338  0.99550432  1
  O  O403  1  0.12112776  0.00932383  0.00417901  1
  O  O404  1  0.11707036  0.00780569  0.50425342  1
  O  O405  1  0.12064006  0.50572792  0.00430478  1
  O  O406  1  0.11647339  0.49236493  0.51069518  1
  O  O407  1  0.62666815  0.00668471  0.00762851  1
  O  O408  1  0.61630946  0.00335385  0.50983020  1
  O  O409  1  0.61296374  0.50685171  -0.00038975  1
  O  O410  1  0.60913399  0.49696553  0.50886920  1
  O  O411  1  0.36767604  0.37379219  0.11550600  1
  O  O412  1  0.36599254  0.36643293  0.63012509  1
  O  O413  1  0.36369289  0.88264190  0.11996013  1
  O  O414  1  0.36379048  0.86533104  0.63565499  1
  O  O415  1  0.87518712  0.36422554  0.11928345  1
  O  O416  1  0.86921070  0.36870412  0.61956777  1
  O  O417  1  0.86576789  0.86846062  0.11868322  1
  O  O418  1  0.86774023  0.86732511  0.62049189  1
  O  O419  1  0.12249792  0.12658948  0.38733077  1
  O  O420  1  0.13363768  0.12941754  0.88135280  1
  O  O421  1  0.14131114  0.62416706  0.37661596  1
  O  O422  1  0.13112009  0.63136048  0.87912231  1
  O  O423  1  0.63494981  0.12715631  0.38618776  1
  O  O424  1  0.61806037  0.13468230  0.88933321  1
  O  O425  1  0.63917801  0.62308369  0.37298207  1
  O  O426  1  0.63515787  0.63686167  0.87831462  1
