# generated using pymatgen
data_V85Zn86O256
_symmetry_space_group_name_H-M   'P 1'
_cell_length_a   16.92426113
_cell_length_b   16.93067392
_cell_length_c   16.92574382
_cell_angle_alpha   90.01816001
_cell_angle_beta   90.08198242
_cell_angle_gamma   90.02306183
_symmetry_Int_Tables_number   1
_chemical_formula_structural   V85Zn86O256
_chemical_formula_sum   'V85 Zn86 O256'
_cell_volume   4849.88258452
_cell_formula_units_Z   1
loop_
 _symmetry_equiv_pos_site_id
 _symmetry_equiv_pos_as_xyz
  1  'x, y, z'
loop_
 _atom_site_type_symbol
 _atom_site_label
 _atom_site_symmetry_multiplicity
 _atom_site_fract_x
 _atom_site_fract_y
 _atom_site_fract_z
 _atom_site_occupancy
  V  V0  1  0.74420022  0.74391231  -0.00113516  1
  V  V1  1  0.12467443  0.36907705  0.25830775  1
  V  V2  1  0.74571522  0.87623677  0.12291340  1
  V  V3  1  0.24713883  -0.00189815  0.74984978  1
  V  V4  1  0.61910333  0.24699276  0.85887833  1
  V  V5  1  0.49945281  0.00716795  0.49460894  1
  V  V6  1  0.49305262  0.87737101  0.36899898  1
  V  V7  1  0.24324373  0.24092376  -0.00188340  1
  V  V8  1  0.00368581  0.00042561  -0.00237152  1
  V  V9  1  0.87283367  0.87227988  0.49932399  1
  V  V10  1  0.25392031  0.62411536  0.37243894  1
  V  V11  1  0.12134886  0.62333057  -0.00477756  1
  V  V12  1  0.87687371  0.49970757  0.37704293  1
  V  V13  1  0.25211667  0.50081340  0.24997203  1
  V  V14  1  0.38219844  0.38296063  0.00080645  1
  V  V15  1  0.13051878  0.50220745  0.63743202  1
  V  V16  1  0.87552368  0.87256702  -0.00067886  1
  V  V17  1  0.00428796  0.12433055  0.12611654  1
  V  V18  1  0.87738293  0.75074581  0.12916698  1
  V  V19  1  0.87846063  0.75209047  0.63391878  1
  V  V20  1  0.12444492  0.13611369  0.49248296  1
  V  V21  1  0.74538698  0.12403505  0.38164884  1
  V  V22  1  0.25329706  0.36705914  0.63564935  1
  V  V23  1  0.11992726  0.87076467  0.24721508  1
  V  V24  1  0.12568139  -0.00302239  0.62467314  1
  V  V25  1  0.74893538  0.00062307  0.74825927  1
  V  V26  1  0.24863759  0.74679515  -0.00479862  1
  V  V27  1  0.37620601  0.63237858  0.73430972  1
  V  V28  1  0.12548695  0.49960022  0.12424229  1
  V  V29  1  0.50222754  0.50174613  0.51507139  1
  V  V30  1  -0.00965254  0.48378205  -0.00002215  1
  V  V31  1  0.00097420  0.62902861  0.12832659  1
  V  V32  1  0.00083744  0.00220416  0.49782489  1
  V  V33  1  0.62271005  0.00519857  0.61874397  1
  V  V34  1  0.50637354  0.11991857  0.12752699  1
  V  V35  1  0.50446656  0.62474126  0.11700849  1
  V  V36  1  0.62382528  0.37854155  0.25026330  1
  V  V37  1  0.74348392  0.25055238  0.50426608  1
  V  V38  1  0.62416640  0.25006492  0.37627069  1
  V  V39  1  0.61000406  0.74705877  0.37111497  1
  V  V40  1  -0.00105105  0.87186842  0.37022524  1
  V  V41  1  0.11985693  0.74743726  0.37020189  1
  V  V42  1  0.74453133  0.62725347  0.37530026  1
  V  V43  1  0.61930584  0.39724490  0.74387806  1
  V  V44  1  0.88645660  0.13622244  0.75991077  1
  V  V45  1  0.00216598  0.50087444  0.50556963  1
  V  V46  1  0.25309358  0.87212758  0.62788963  1
  V  V47  1  0.87353605  0.61572988  0.74733414  1
  V  V48  1  0.74869790  0.50103925  0.24833644  1
  V  V49  1  0.87488924  -0.00418786  0.87381810  1
  V  V50  1  0.75177772  0.37747130  0.11540085  1
  V  V51  1  0.37961336  0.74787906  0.12905039  1
  V  V52  1  0.87808689  0.62759894  0.25051397  1
  V  V53  1  0.37417738  0.50286261  0.86430422  1
  V  V54  1  0.12136048  0.62664575  0.50437799  1
  V  V55  1  0.38039647  0.49850665  0.37498579  1
  V  V56  1  0.00445443  0.13410011  0.62753593  1
  V  V57  1  0.62328601  0.12255039  0.00161042  1
  V  V58  1  0.87497645  0.25428645  0.12685852  1
  V  V59  1  0.62057645  0.87088508  0.24414807  1
  V  V60  1  0.37675160  0.14118907  0.74717442  1
  V  V61  1  0.25234215  0.37394677  0.12499711  1
  V  V62  1  0.25468667  0.13229760  0.37420368  1
  V  V63  1  0.37534051  0.88141765  0.49836058  1
  V  V64  1  0.37986091  0.24785336  0.12569121  1
  V  V65  1  0.12792513  0.00212174  0.12118667  1
  V  V66  1  0.25031621  0.87362509  0.12278516  1
  V  V67  1  0.62269632  0.74444787  0.87335642  1
  V  V68  1  0.74807224  0.24878187  -0.00041098  1
  V  V69  1  0.87372950  0.12384438  0.25103296  1
  V  V70  1  0.87235098  0.25165168  0.62786294  1
  V  V71  1  0.74618491  0.39040918  0.63321299  1
  V  V72  1  0.74629194  0.61358047  0.87335262  1
  V  V73  1  0.74666716  0.12287664  0.87572704  1
  V  V74  1  0.49691797  0.13653984  0.62424820  1
  V  V75  1  0.49901254  0.87040352  0.86936842  1
  V  V76  1  0.25584726  -0.00137216  0.25670970  1
  V  V77  1  0.25703465  0.75093754  0.49952467  1
  V  V78  1  0.61982483  0.62627759  0.51477551  1
  V  V79  1  0.87300383  -0.00158627  0.37467594  1
  V  V80  1  0.50441659  -0.00193211  0.00026929  1
  V  V81  1  0.37575414  0.00058986  0.87059935  1
  V  V82  1  0.62087123  0.50249099  0.10376030  1
  V  V83  1  0.00713272  0.86720178  0.86214846  1
  V  V84  1  0.74277290  0.00008593  0.24442425  1
  Zn  Zn85  1  0.50070798  0.24879099  0.25119408  1
  Zn  Zn86  1  0.04341202  0.69061583  0.69034368  1
  Zn  Zn87  1  0.00576789  0.36814968  0.38309045  1
  Zn  Zn88  1  0.87330979  0.37662348  0.50152974  1
  Zn  Zn89  1  0.09621833  0.24203687  0.85795020  1
  Zn  Zn90  1  0.75045102  0.87813145  0.62364228  1
  Zn  Zn91  1  0.50039292  0.37651514  0.37717713  1
  Zn  Zn92  1  0.38864647  0.63023102  0.25348390  1
  Zn  Zn93  1  0.87779194  0.49202810  0.87304291  1
  Zn  Zn94  1  0.00516380  0.24510721  0.25833237  1
  Zn  Zn95  1  0.38067046  0.11924832  0.25375569  1
  Zn  Zn96  1  0.74840033  0.74993524  0.50133972  1
  Zn  Zn97  1  0.24165109  0.12427631  0.87821003  1
  Zn  Zn98  1  0.62412462  0.87472213  0.74601301  1
  Zn  Zn99  1  0.50180002  0.37567925  0.87518252  1
  Zn  Zn100  1  0.50339483  0.74327368  0.73262922  1
  Zn  Zn101  1  0.12417619  0.74756441  0.85664794  1
  Zn  Zn102  1  0.25361184  0.25567003  0.50004433  1
  Zn  Zn103  1  0.24566107  0.61284821  0.86999314  1
  Zn  Zn104  1  0.37397354  0.87236693  -0.00259071  1
  Zn  Zn105  1  0.37690409  0.37144246  0.50885524  1
  Zn  Zn106  1  0.11198437  0.36600753  0.75827308  1
  Zn  Zn107  1  0.19061142  0.18727987  0.18717990  1
  Zn  Zn108  1  0.18883387  0.18733136  0.69226264  1
  Zn  Zn109  1  0.18954610  0.68745728  0.18556024  1
  Zn  Zn110  1  0.20576621  0.68509852  0.68866274  1
  Zn  Zn111  1  0.68563455  0.18781739  0.18887721  1
  Zn  Zn112  1  0.68985082  0.18155033  0.68426133  1
  Zn  Zn113  1  0.68384147  0.68610137  0.18597679  1
  Zn  Zn114  1  0.69357654  0.69301681  0.69069576  1
  Zn  Zn115  1  0.31467095  0.31119664  0.31434360  1
  Zn  Zn116  1  0.30271170  0.31907104  0.81726365  1
  Zn  Zn117  1  0.31135316  0.81201654  0.31208725  1
  Zn  Zn118  1  0.31157925  0.81024248  0.81142041  1
  Zn  Zn119  1  0.81211012  0.31394366  0.31080269  1
  Zn  Zn120  1  0.93293316  0.32646714  0.82107572  1
  Zn  Zn121  1  0.80760787  0.81038020  0.31144302  1
  Zn  Zn122  1  0.81104384  0.81145560  0.81308345  1
  Zn  Zn123  1  0.19090501  0.43800871  0.44257919  1
  Zn  Zn124  1  0.18606850  0.42656504  0.93285602  1
  Zn  Zn125  1  0.18685669  0.94014790  0.43660852  1
  Zn  Zn126  1  0.18671553  0.93653308  0.93573763  1
  Zn  Zn127  1  0.68632593  0.43976434  0.44195240  1
  Zn  Zn128  1  0.74206672  0.39147367  0.88339350  1
  Zn  Zn129  1  0.68259691  0.93741243  0.43538339  1
  Zn  Zn130  1  0.68424243  0.93291115  0.93558448  1
  Zn  Zn131  1  0.31923377  0.06087835  0.06379018  1
  Zn  Zn132  1  0.31476900  0.06517472  0.56115415  1
  Zn  Zn133  1  0.31291035  0.56445103  0.06173619  1
  Zn  Zn134  1  0.30850571  0.55494257  0.55934094  1
  Zn  Zn135  1  0.81475796  0.06173095  0.06324505  1
  Zn  Zn136  1  0.81433250  0.06540017  0.56342823  1
  Zn  Zn137  1  0.81040211  0.56368844  0.05997110  1
  Zn  Zn138  1  0.81239064  0.56845239  0.56209914  1
  Zn  Zn139  1  0.44126673  0.44148351  0.18711097  1
  Zn  Zn140  1  0.43759163  0.43405606  0.69290970  1
  Zn  Zn141  1  0.43716218  0.93532903  0.18356691  1
  Zn  Zn142  1  0.43675894  0.93662791  0.68448821  1
  Zn  Zn143  1  0.93933901  0.43870704  0.18710897  1
  Zn  Zn144  1  0.93661523  0.44316910  0.68029505  1
  Zn  Zn145  1  0.93598579  0.93768507  0.18725998  1
  Zn  Zn146  1  0.93705411  0.94259831  0.68646891  1
  Zn  Zn147  1  0.06641380  0.06125457  0.31129877  1
  Zn  Zn148  1  0.06715938  0.06605056  0.81540887  1
  Zn  Zn149  1  0.06309530  0.55881178  0.31301169  1
  Zn  Zn150  1  0.05547446  0.55676953  0.81821816  1
  Zn  Zn151  1  0.56447721  0.06045779  0.31303525  1
  Zn  Zn152  1  0.55917612  0.06332369  0.80790641  1
  Zn  Zn153  1  0.55944020  0.56467275  0.30807060  1
  Zn  Zn154  1  0.55199839  0.56410198  0.82282932  1
  Zn  Zn155  1  0.43423018  0.18981931  0.43884157  1
  Zn  Zn156  1  0.43514925  0.18866769  0.93722231  1
  Zn  Zn157  1  0.43760484  0.69151065  0.55853377  1
  Zn  Zn158  1  0.43721832  0.68428460  0.93914998  1
  Zn  Zn159  1  0.93437734  0.19110043  0.43965982  1
  Zn  Zn160  1  0.93438000  0.18477004  0.94763315  1
  Zn  Zn161  1  0.93771749  0.68815441  0.44008627  1
  Zn  Zn162  1  0.93457356  0.68428676  0.93608375  1
  Zn  Zn163  1  0.06615391  0.31082337  0.06794696  1
  Zn  Zn164  1  0.06438878  0.31677002  0.57045489  1
  Zn  Zn165  1  0.06232296  0.81089924  0.05803919  1
  Zn  Zn166  1  0.06406756  0.81583148  0.55863908  1
  Zn  Zn167  1  0.56393172  0.31201425  0.06220748  1
  Zn  Zn168  1  0.56366644  0.31725493  0.56233385  1
  Zn  Zn169  1  0.56002473  0.81036543  0.05941596  1
  Zn  Zn170  1  0.56699344  0.81992245  0.55856560  1
  O  O171  1  0.11342469  0.11676667  0.13247574  1
  O  O172  1  0.11995857  0.11525996  0.61649330  1
  O  O173  1  0.11739486  0.62024037  0.12022646  1
  O  O174  1  0.12630396  0.61860136  0.61900788  1
  O  O175  1  0.61423530  0.12589504  0.12018255  1
  O  O176  1  0.61431818  0.11295291  0.62957743  1
  O  O177  1  0.62142477  0.61171470  0.12367091  1
  O  O178  1  0.63179198  0.63197970  0.61268878  1
  O  O179  1  0.37650484  0.38919114  0.37306920  1
  O  O180  1  0.37601808  0.38140784  0.88547162  1
  O  O181  1  0.38530848  0.87093527  0.37874146  1
  O  O182  1  0.38118061  0.88114454  0.87614138  1
  O  O183  1  0.86837866  0.39160490  0.37683908  1
  O  O184  1  0.85174582  0.38181782  0.87391871  1
  O  O185  1  0.87891416  0.87673484  0.37851478  1
  O  O186  1  0.88279948  0.87794172  0.88031761  1
  O  O187  1  0.24369510  0.00834210  0.36382305  1
  O  O188  1  0.25654607  0.00025620  0.86774192  1
  O  O189  1  0.25527837  0.50722221  0.37168332  1
  O  O190  1  0.26851861  0.49596658  0.88670577  1
  O  O191  1  0.75263683  0.00718657  0.36967675  1
  O  O192  1  0.75227829  0.00375031  0.86871239  1
  O  O193  1  0.75470999  0.51112588  0.37233526  1
  O  O194  1  0.74533670  0.51330269  0.88354906  1
  O  O195  1  0.24572523  0.49505648  0.13008309  1
  O  O196  1  0.23402612  0.49578691  0.62270383  1
  O  O197  1  0.24340490  0.99529462  0.12769689  1
  O  O198  1  0.24418428  0.99547270  0.62942997  1
  O  O199  1  0.74162403  0.49444199  0.12606788  1
  O  O200  1  0.75158824  0.48813762  0.61890553  1
  O  O201  1  0.75541904  0.99108223  0.13381608  1
  O  O202  1  0.74330838  1.00405774  0.63121827  1
  O  O203  1  0.01638800  0.37776080  0.24969532  1
  O  O204  1  -0.00248094  0.38614429  0.75179075  1
  O  O205  1  0.01190070  0.87951338  0.25351060  1
  O  O206  1  -0.00460946  0.88010338  0.76398510  1
  O  O207  1  0.51346530  0.37440964  0.25173787  1
  O  O208  1  0.51548009  0.37424842  0.75235855  1
  O  O209  1  0.50833939  0.88252153  0.25639516  1
  O  O210  1  0.49887957  0.87453414  0.76102564  1
  O  O211  1  0.50012384  0.12371326  0.24233178  1
  O  O212  1  0.48484790  0.12183971  0.74105195  1
  O  O213  1  0.50181199  0.62392682  0.23097079  1
  O  O214  1  0.48160227  0.62584648  0.75373583  1
  O  O215  1  0.99324002  0.12246417  0.24334606  1
  O  O216  1  0.99102280  0.11098342  0.73801616  1
  O  O217  1  0.99530394  0.61882783  0.23711760  1
  O  O218  1  0.98039514  0.62377914  0.75780660  1
  O  O219  1  0.37183381  0.25640057  0.01170598  1
  O  O220  1  0.36796819  0.26003625  0.49074946  1
  O  O221  1  0.36505122  0.74868788  0.00813401  1
  O  O222  1  0.36237201  0.75969537  0.49549132  1
  O  O223  1  0.85959840  0.24020851  0.01661766  1
  O  O224  1  0.86184616  0.25163447  0.51185253  1
  O  O225  1  0.86794815  0.75390364  0.00908140  1
  O  O226  1  0.87160740  0.75697939  0.50554389  1
  O  O227  1  0.12706769  0.23825257  0.50601445  1
  O  O228  1  0.14333794  0.24876307  1.01144583  1
  O  O229  1  0.13367647  0.74551400  0.49169663  1
  O  O230  1  0.13020343  0.73690135  1.00011899  1
  O  O231  1  0.63555735  0.25481593  0.49173705  1
  O  O232  1  0.63425962  0.24200867  1.00008044  1
  O  O233  1  0.62648072  0.74051001  0.49011016  1
  O  O234  1  0.63578799  0.75639965  0.99067983  1
  O  O235  1  0.49648699  0.24077593  0.12694196  1
  O  O236  1  0.50521543  0.23546503  0.61515518  1
  O  O237  1  0.49072971  0.74207060  0.12056583  1
  O  O238  1  0.49722741  0.76099065  0.62102266  1
  O  O239  1  0.99222462  0.24094029  0.12792033  1
  O  O240  1  0.98922486  0.23976192  0.61699906  1
  O  O241  1  0.98996497  0.74209002  0.12028053  1
  O  O242  1  0.98499308  0.75222822  0.61388133  1
  O  O243  1  -0.01281833  0.25733912  0.36915963  1
  O  O244  1  -0.02141913  0.23152601  0.86026200  1
  O  O245  1  0.01250068  0.75351605  0.37731962  1
  O  O246  1  -0.00017856  0.76420203  0.88077235  1
  O  O247  1  0.51406162  0.24977697  0.37359458  1
  O  O248  1  0.51706602  0.25313140  0.88304085  1
  O  O249  1  0.50968900  0.76113917  0.37414089  1
  O  O250  1  0.50626947  0.75600719  0.87686867  1
  O  O251  1  0.24330558  0.12343157  0.48766677  1
  O  O252  1  0.25829752  0.13735311  1.00352539  1
  O  O253  1  0.24195706  0.63201661  0.49297648  1
  O  O254  1  0.23884598  0.63037817  0.99991201  1
  O  O255  1  0.75286003  0.13348034  0.49107107  1
  O  O256  1  0.74239135  0.12671110  0.99764671  1
  O  O257  1  0.73726710  0.62443293  0.49190155  1
  O  O258  1  0.75530233  0.63748218  0.99147052  1
  O  O259  1  0.26198239  0.36390992  0.00903291  1
  O  O260  1  0.24912889  0.37591527  0.51547072  1
  O  O261  1  0.24912891  0.86661647  0.00589577  1
  O  O262  1  0.25659097  0.87074176  0.50082567  1
  O  O263  1  0.74359542  0.36315977  0.01096535  1
  O  O264  1  0.74866547  0.36872912  0.51179227  1
  O  O265  1  0.75552528  0.86796232  0.00382364  1
  O  O266  1  0.76279947  0.87653312  0.49631482  1
  O  O267  1  0.13219741  0.49291571  0.24409574  1
  O  O268  1  0.12059547  0.50619575  0.73819417  1
  O  O269  1  0.13238770  0.99201145  0.23867669  1
  O  O270  1  0.13871152  1.00448483  0.74045283  1
  O  O271  1  0.63337563  0.49270019  0.24854421  1
  O  O272  1  0.61930439  0.49497805  0.75347917  1
  O  O273  1  0.63707430  0.98990533  0.25398079  1
  O  O274  1  0.63338031  0.99985775  0.74349572  1
  O  O275  1  0.35940873  -0.00072196  0.24142323  1
  O  O276  1  0.36794111  0.00156291  0.75886989  1
  O  O277  1  0.36948571  0.50323884  0.25612383  1
  O  O278  1  0.37647412  0.50737995  0.76006802  1
  O  O279  1  0.86425479  0.00197239  0.25651980  1
  O  O280  1  0.86874955  0.00962409  0.75543078  1
  O  O281  1  0.86978553  0.50663164  0.25660619  1
  O  O282  1  0.86887099  0.51416827  0.74558139  1
  O  O283  1  0.12693079  0.38200769  0.36143470  1
  O  O284  1  0.12650499  0.35500433  0.87450498  1
  O  O285  1  0.12084113  0.86749385  0.36760877  1
  O  O286  1  0.11056980  0.87193032  0.87762209  1
  O  O287  1  0.62819791  0.36845797  0.36720396  1
  O  O288  1  0.63253996  0.36316990  0.85629453  1
  O  O289  1  0.61834449  0.86753888  0.36582525  1
  O  O290  1  0.61660435  0.86469380  0.87089166  1
  O  O291  1  0.38818423  0.13131837  0.12720986  1
  O  O292  1  0.38085098  0.12178180  0.63823534  1
  O  O293  1  0.38468189  0.63019692  0.12573239  1
  O  O294  1  0.37036581  0.62466302  0.62906601  1
  O  O295  1  0.88377040  0.12829354  0.13259056  1
  O  O296  1  0.88375983  0.13214400  0.63167524  1
  O  O297  1  0.88079647  0.63199570  0.12900013  1
  O  O298  1  0.86935105  0.63655102  0.63694155  1
  O  O299  1  0.26085335  0.25305380  0.12057721  1
  O  O300  1  0.24656236  0.26432686  0.62394592  1
  O  O301  1  0.25393043  0.75355084  0.11362067  1
  O  O302  1  0.24615677  0.76206821  0.61185403  1
  O  O303  1  0.75386919  0.25645371  0.12135874  1
  O  O304  1  0.75306185  0.25313223  0.61886586  1
  O  O305  1  0.75481506  0.75396894  0.11712658  1
  O  O306  1  0.76274150  0.75793106  0.62080218  1
  O  O307  1  0.24611385  0.23537749  0.37107047  1
  O  O308  1  0.26011002  0.24544796  0.89447885  1
  O  O309  1  0.24141738  0.74350753  0.37929707  1
  O  O310  1  0.24662298  0.74931686  0.88684624  1
  O  O311  1  0.74448460  0.24481657  0.38180188  1
  O  O312  1  0.73608949  0.24043619  0.88699916  1
  O  O313  1  0.74389594  0.73754944  0.37634343  1
  O  O314  1  0.74274296  0.74535980  0.88150895  1
  O  O315  1  -0.00669716  0.10842272  0.01190390  1
  O  O316  1  0.00565436  0.12125749  0.50593071  1
  O  O317  1  0.00529209  0.62152204  0.01030508  1
  O  O318  1  0.01499833  0.62021845  0.49276444  1
  O  O319  1  0.50391761  0.11778119  0.00518883  1
  O  O320  1  0.49073325  0.11251577  0.50545436  1
  O  O321  1  0.50099888  0.62652835  0.01528796  1
  O  O322  1  0.51053303  0.61709035  0.50212665  1
  O  O323  1  0.50188294  0.39009574  0.49705814  1
  O  O324  1  0.48562241  0.36844860  0.99966493  1
  O  O325  1  0.49223779  0.88386808  0.48941411  1
  O  O326  1  0.49860527  0.88221159  0.98860274  1
  O  O327  1  0.99604719  0.38509771  0.50114963  1
  O  O328  1  1.00024712  0.38516963  1.01147232  1
  O  O329  1  0.98961949  0.88032190  0.49090023  1
  O  O330  1  0.99416699  0.88508199  0.99736500  1
  O  O331  1  0.49171636  0.50234561  0.37993288  1
  O  O332  1  0.48113184  0.49337572  0.87988601  1
  O  O333  1  0.50529950  0.99094239  0.38252210  1
  O  O334  1  0.49354541  0.99305295  0.87785979  1
  O  O335  1  0.99262777  0.49783430  0.38461848  1
  O  O336  1  0.99548828  0.49998986  0.89587257  1
  O  O337  1  0.99350723  0.99403705  0.37787736  1
  O  O338  1  0.99721057  0.99167784  0.88261028  1
  O  O339  1  0.00675953  0.00417984  0.12027029  1
  O  O340  1  0.00713860  0.00712527  0.61780452  1
  O  O341  1  0.00546723  0.50754074  0.11744584  1
  O  O342  1  0.01080143  0.50338778  0.61194731  1
  O  O343  1  0.49423349  0.00637115  0.11175411  1
  O  O344  1  0.50559448  0.00420659  0.61579579  1
  O  O345  1  0.51415754  0.50582940  0.12368530  1
  O  O346  1  0.49664613  0.49840893  0.61352827  1
  O  O347  1  0.24285206  0.37964822  0.24558948  1
  O  O348  1  0.24135294  0.37563198  0.73918605  1
  O  O349  1  0.23994812  0.88104609  0.24523572  1
  O  O350  1  0.25644210  0.88346296  0.73877697  1
  O  O351  1  0.74161176  0.37996107  0.23863279  1
  O  O352  1  0.73429193  0.37736509  0.73651416  1
  O  O353  1  0.74216457  0.88124385  0.24468950  1
  O  O354  1  0.75273359  0.89056513  0.74928643  1
  O  O355  1  0.24881906  0.11721740  0.25955711  1
  O  O356  1  0.26326026  0.11591579  0.74885383  1
  O  O357  1  0.24822865  0.61774434  0.25762489  1
  O  O358  1  0.27059135  0.62045699  0.75476535  1
  O  O359  1  0.75320168  0.11644918  0.25458871  1
  O  O360  1  0.75975627  0.11635946  0.75541778  1
  O  O361  1  0.75555144  0.61987441  0.25584232  1
  O  O362  1  0.76283809  0.63391923  0.76109456  1
  O  O363  1  0.35966743  0.12365299  0.37135588  1
  O  O364  1  0.37569873  0.11726200  0.86362297  1
  O  O365  1  0.36076260  0.61586668  0.37187872  1
  O  O366  1  0.37183928  0.61081323  0.87777129  1
  O  O367  1  0.86336542  0.11956206  0.37013102  1
  O  O368  1  0.86597246  0.11515455  0.87193662  1
  O  O369  1  0.86866303  0.61828941  0.37192799  1
  O  O370  1  0.86634026  0.62032539  0.86603769  1
  O  O371  1  0.13308867  0.38190400  0.13367349  1
  O  O372  1  0.13175408  0.38972998  0.62822341  1
  O  O373  1  0.12857109  0.87922464  0.13072698  1
  O  O374  1  0.13457457  0.88973555  0.61390820  1
  O  O375  1  0.63000513  0.38483872  0.12979559  1
  O  O376  1  0.63212929  0.37567567  0.63561746  1
  O  O377  1  0.62811211  0.86854721  0.13566596  1
  O  O378  1  0.63084626  0.89005754  0.62575190  1
  O  O379  1  0.12497156  0.26572487  0.24284932  1
  O  O380  1  0.11373338  0.24966139  0.74150155  1
  O  O381  1  0.13075216  0.75872654  0.25724574  1
  O  O382  1  0.12639736  0.74279442  0.74342491  1
  O  O383  1  0.62720165  0.26013311  0.25802909  1
  O  O384  1  0.62581991  0.24139770  0.75908070  1
  O  O385  1  0.63149089  0.75956726  0.25853353  1
  O  O386  1  0.62232940  0.75509070  0.75731954  1
  O  O387  1  0.37837714  0.24901454  0.23781978  1
  O  O388  1  0.36992261  0.23892899  0.75747258  1
  O  O389  1  0.36400084  0.74715443  0.23356879  1
  O  O390  1  0.37693714  0.73529184  0.75212001  1
  O  O391  1  0.87060961  0.24224340  0.23933196  1
  O  O392  1  0.86731444  0.23952476  0.73706917  1
  O  O393  1  0.86946049  0.74511554  0.23722496  1
  O  O394  1  0.87475998  0.74908928  0.73769844  1
  O  O395  1  0.38718436  0.50009867  0.49316783  1
  O  O396  1  0.37421022  0.48441673  1.00438863  1
  O  O397  1  0.38048589  0.98888629  0.49946492  1
  O  O398  1  0.38384251  0.99966618  0.98651844  1
  O  O399  1  0.88367827  0.50445972  0.49439049  1
  O  O400  1  0.88859562  0.50021351  1.00666096  1
  O  O401  1  0.88032118  0.99391699  0.49439868  1
  O  O402  1  0.88149263  0.99271123  0.99387446  1
  O  O403  1  0.11881642  -0.00551897  0.01297049  1
  O  O404  1  0.11881560  0.00816936  0.50486795  1
  O  O405  1  0.11806771  0.50692860  0.00565062  1
  O  O406  1  0.11976292  0.50962536  0.50514468  1
  O  O407  1  0.61232951  0.00516699  -0.00758933  1
  O  O408  1  0.61436095  -0.00207245  0.50630164  1
  O  O409  1  0.62621352  0.49422995  0.00928874  1
  O  O410  1  0.61225257  0.51372394  0.49538004  1
  O  O411  1  0.37407228  0.36948124  0.11901078  1
  O  O412  1  0.35670579  0.38523660  0.62836156  1
  O  O413  1  0.36880309  0.86629646  0.11975291  1
  O  O414  1  0.36220305  0.88121576  0.61331361  1
  O  O415  1  0.86476895  0.36632748  0.13285275  1
  O  O416  1  0.86103704  0.36844827  0.62568119  1
  O  O417  1  0.86955727  0.86727657  0.12098846  1
  O  O418  1  0.87540316  0.87013619  0.61651765  1
  O  O419  1  0.13436419  0.12030297  0.38295008  1
  O  O420  1  0.12864371  0.13243510  0.87739175  1
  O  O421  1  0.13300742  0.63048351  0.37891338  1
  O  O422  1  0.12585877  0.62509935  0.88277225  1
  O  O423  1  0.63783317  0.13392596  0.36803121  1
  O  O424  1  0.62632882  0.13097003  0.87902759  1
  O  O425  1  0.62933529  0.63149179  0.37693954  1
  O  O426  1  0.62950017  0.63667950  0.87003844  1
