# generated using pymatgen
data_V85Zn86O256
_symmetry_space_group_name_H-M   'P 1'
_cell_length_a   16.94369037
_cell_length_b   16.94465636
_cell_length_c   16.93606548
_cell_angle_alpha   90.03702301
_cell_angle_beta   89.93874414
_cell_angle_gamma   90.04439093
_symmetry_Int_Tables_number   1
_chemical_formula_structural   V85Zn86O256
_chemical_formula_sum   'V85 Zn86 O256'
_cell_volume   4862.42400957
_cell_formula_units_Z   1
loop_
 _symmetry_equiv_pos_site_id
 _symmetry_equiv_pos_as_xyz
  1  'x, y, z'
loop_
 _atom_site_type_symbol
 _atom_site_label
 _atom_site_symmetry_multiplicity
 _atom_site_fract_x
 _atom_site_fract_y
 _atom_site_fract_z
 _atom_site_occupancy
  V  V0  1  0.00337195  0.75944515  0.24695689  1
  V  V1  1  0.62011777  0.50645017  0.62848736  1
  V  V2  1  0.74898103  0.86711604  0.61512270  1
  V  V3  1  0.00129387  0.49098300  0.00075463  1
  V  V4  1  0.37654561  0.24758334  0.13134645  1
  V  V5  1  0.24574095  0.50513400  0.75637135  1
  V  V6  1  0.87529034  -0.00319282  0.37034691  1
  V  V7  1  0.00068623  0.50170946  0.49786860  1
  V  V8  1  0.49810856  0.50822657  0.50605804  1
  V  V9  1  0.25241373  0.74953100  0.50054829  1
  V  V10  1  0.50287723  0.61160664  0.12165195  1
  V  V11  1  0.51518918  0.75702636  0.25024023  1
  V  V12  1  0.73650718  0.10745746  0.40680721  1
  V  V13  1  0.06949002  0.18116165  0.05540837  1
  V  V14  1  0.88409722  -0.00313669  0.87364261  1
  V  V15  1  -0.00838857  -0.00647895  0.49789721  1
  V  V16  1  0.62593162  0.63532736  0.50538927  1
  V  V17  1  0.12526477  0.50057865  0.62466690  1
  V  V18  1  0.12474510  0.00081904  0.62268818  1
  V  V19  1  0.11784635  -0.00225993  0.12265389  1
  V  V20  1  0.25007224  0.62401723  0.37110574  1
  V  V21  1  0.75026348  0.63017873  0.87428455  1
  V  V22  1  0.37144204  0.50079897  0.88148351  1
  V  V23  1  0.86524398  0.62452351  0.24791532  1
  V  V24  1  0.38366544  0.37382249  0.49728472  1
  V  V25  1  0.88424598  0.13519881  0.23630360  1
  V  V26  1  0.62746054  0.74987816  0.87977300  1
  V  V27  1  0.88240426  0.87458781  -0.00324418  1
  V  V28  1  0.50003515  0.24794633  0.74796209  1
  V  V29  1  0.24861731  0.24975165  0.49776852  1
  V  V30  1  0.12575561  0.62519026  0.49868089  1
  V  V31  1  0.88080539  0.63900906  0.75002252  1
  V  V32  1  0.12316083  0.49497004  0.13418076  1
  V  V33  1  0.25315631  0.12584389  0.36905009  1
  V  V34  1  0.62502412  0.26024756  0.37675846  1
  V  V35  1  0.24773396  0.74536261  -0.01006455  1
  V  V36  1  0.74285911  0.87436079  0.12592690  1
  V  V37  1  0.62828096  0.37320331  0.74259712  1
  V  V38  1  0.37602086  0.12336489  0.74888043  1
  V  V39  1  0.74907767  -0.00918726  0.74731506  1
  V  V40  1  0.00238703  0.62492997  0.12387667  1
  V  V41  1  0.37375643  -0.00128155  0.87564862  1
  V  V42  1  0.87002045  0.75299338  0.12490770  1
  V  V43  1  0.24901911  0.12344547  0.87709869  1
  V  V44  1  0.25119711  0.87476138  0.62622889  1
  V  V45  1  0.12555295  0.37398047  0.74867726  1
  V  V46  1  0.38208563  0.74633287  0.62469726  1
  V  V47  1  0.62474386  0.12185565  0.00369086  1
  V  V48  1  0.74812273  0.12335033  0.87308849  1
  V  V49  1  0.37843095  0.49789146  0.37512086  1
  V  V50  1  0.49545795  0.12293416  0.13282382  1
  V  V51  1  0.50292421  0.73684604  0.75043770  1
  V  V52  1  0.75332017  0.25017355  0.01226654  1
  V  V53  1  0.25371112  0.24586590  0.00159668  1
  V  V54  1  0.37421953  0.75014255  0.12953819  1
  V  V55  1  0.24704174  0.37368955  0.13207280  1
  V  V56  1  0.50087312  0.87381114  0.87452061  1
  V  V57  1  0.24748701  -0.00360660  0.25129946  1
  V  V58  1  0.62599194  0.87759847  0.74593771  1
  V  V59  1  0.87915522  0.75381436  0.60742196  1
  V  V60  1  0.74625109  0.39249696  0.13563086  1
  V  V61  1  0.12733764  0.76000019  0.37009109  1
  V  V62  1  0.38257001  0.00090041  0.37612527  1
  V  V63  1  0.49971838  -0.00077883  0.00066332  1
  V  V64  1  0.37241409  0.62385252  0.75280979  1
  V  V65  1  0.37794096  0.24825501  0.62356731  1
  V  V66  1  0.24318420  0.87235230  0.12793537  1
  V  V67  1  0.74427964  0.00575525  0.24345982  1
  V  V68  1  0.86696351  0.25615274  0.62344224  1
  V  V69  1  0.75337522  0.49663307  0.74197418  1
  V  V70  1  0.87092678  0.12432246  0.74517668  1
  V  V71  1  0.62439136  0.24759358  0.87296067  1
  V  V72  1  0.49919109  0.37627874  0.88216664  1
  V  V73  1  0.87574926  0.49695671  0.87253702  1
  V  V74  1  0.11332482  0.86785390  0.75492306  1
  V  V75  1  0.74848944  0.63315576  0.37997205  1
  V  V76  1  0.12425109  0.24352096  0.87308298  1
  V  V77  1  0.50124512  0.25634219  0.25492310  1
  V  V78  1  0.11575258  0.25436755  0.36716711  1
  V  V79  1  0.86904865  0.50037052  0.36964001  1
  V  V80  1  0.87399771  0.38042323  0.50294847  1
  V  V81  1  -0.00408151  0.12650457  0.61902765  1
  V  V82  1  0.74597096  0.26236942  0.49962272  1
  V  V83  1  -0.00114925  0.25050550  0.74594902  1
  V  V84  1  0.51129591  0.10959082  0.61238055  1
  Zn  Zn85  1  -0.00127296  0.37189833  0.87630278  1
  Zn  Zn86  1  0.37408943  0.87384637  0.00129159  1
  Zn  Zn87  1  0.62544002  0.60230410  0.00803057  1
  Zn  Zn88  1  0.51083446  0.88061601  0.37686412  1
  Zn  Zn89  1  -0.00089030  0.37588696  0.36325859  1
  Zn  Zn90  1  0.37652136  0.62465395  0.25050838  1
  Zn  Zn91  1  0.63311578  0.75911989  0.37645374  1
  Zn  Zn92  1  0.37846548  0.37829543  0.00373995  1
  Zn  Zn93  1  0.25243353  0.37551692  0.62468250  1
  Zn  Zn94  1  0.61962656  0.39008753  0.25062206  1
  Zn  Zn95  1  0.00382219  0.63179439  0.62866756  1
  Zn  Zn96  1  0.13284239  0.61730754  -0.00877022  1
  Zn  Zn97  1  0.12151794  0.12643126  0.49680846  1
  Zn  Zn98  1  0.00675672  0.00318164  -0.00368240  1
  Zn  Zn99  1  0.38276543  0.88203406  0.50278334  1
  Zn  Zn100  1  0.24676739  -0.00126836  0.75132497  1
  Zn  Zn101  1  0.11156194  0.74249481  0.87106899  1
  Zn  Zn102  1  0.74931619  0.74722491  0.00189299  1
  Zn  Zn103  1  -0.00210260  0.87513473  0.37503418  1
  Zn  Zn104  1  0.24713053  0.49400332  0.25395882  1
  Zn  Zn105  1  0.61736542  -0.00772335  0.12910271  1
  Zn  Zn106  1  0.87282127  0.37057798  0.00187719  1
  Zn  Zn107  1  0.19427253  0.18282549  0.19268850  1
  Zn  Zn108  1  0.18992379  0.18448224  0.68606090  1
  Zn  Zn109  1  0.18643926  0.68583860  0.18593450  1
  Zn  Zn110  1  0.18992561  0.68750777  0.68933890  1
  Zn  Zn111  1  0.68423385  0.18611936  0.19206012  1
  Zn  Zn112  1  0.68786777  0.18580536  0.68214991  1
  Zn  Zn113  1  0.68023634  0.56533425  0.19425593  1
  Zn  Zn114  1  0.69148758  0.68952400  0.69017560  1
  Zn  Zn115  1  0.31492802  0.31166397  0.31297432  1
  Zn  Zn116  1  0.31166388  0.31390678  0.81250232  1
  Zn  Zn117  1  0.31405901  0.81688224  0.31088819  1
  Zn  Zn118  1  0.31170738  0.81533802  0.80928407  1
  Zn  Zn119  1  0.81188055  0.31188476  0.31337190  1
  Zn  Zn120  1  0.80937823  0.31229086  0.81402870  1
  Zn  Zn121  1  0.81005014  0.81657779  0.30895331  1
  Zn  Zn122  1  0.93599853  0.81611227  0.81415938  1
  Zn  Zn123  1  0.18986469  0.43318047  0.43723905  1
  Zn  Zn124  1  0.18552333  0.43101823  0.94166720  1
  Zn  Zn125  1  0.18989106  0.93855979  0.44160119  1
  Zn  Zn126  1  0.18688988  0.93394044  0.94092411  1
  Zn  Zn127  1  0.68579339  0.44400572  0.43461712  1
  Zn  Zn128  1  0.68871255  0.43406140  0.93456640  1
  Zn  Zn129  1  0.68608011  0.93639259  0.43732234  1
  Zn  Zn130  1  0.69381768  0.93505762  0.93732130  1
  Zn  Zn131  1  0.31058179  0.06171805  0.06442135  1
  Zn  Zn132  1  0.31408701  0.06500556  0.55971049  1
  Zn  Zn133  1  0.31281601  0.56397408  0.06607720  1
  Zn  Zn134  1  0.31200474  0.56404041  0.56670599  1
  Zn  Zn135  1  0.81699862  0.06321429  0.06337245  1
  Zn  Zn136  1  0.79944758  0.05543333  0.55804778  1
  Zn  Zn137  1  0.81507256  0.56403181  0.05719533  1
  Zn  Zn138  1  0.81017830  0.56654625  0.56376775  1
  Zn  Zn139  1  0.43345537  0.43588961  0.19060577  1
  Zn  Zn140  1  0.43851628  0.43705903  0.69074904  1
  Zn  Zn141  1  0.43068240  0.93572884  0.19281498  1
  Zn  Zn142  1  0.43907339  0.93507385  0.68932331  1
  Zn  Zn143  1  0.92686031  0.43571917  0.18506672  1
  Zn  Zn144  1  0.94067100  0.44003459  0.68620194  1
  Zn  Zn145  1  0.93363716  0.94061971  0.18767753  1
  Zn  Zn146  1  0.93344412  0.93805544  0.67975557  1
  Zn  Zn147  1  0.06428603  0.06579510  0.31001568  1
  Zn  Zn148  1  0.06170325  0.06293672  0.80534760  1
  Zn  Zn149  1  0.05772598  0.56664668  0.31101974  1
  Zn  Zn150  1  0.06105136  0.56732576  0.81664555  1
  Zn  Zn151  1  0.56623824  0.06875685  0.31280549  1
  Zn  Zn152  1  0.56141025  0.06128489  0.80840227  1
  Zn  Zn153  1  0.55539751  0.57213834  0.31823037  1
  Zn  Zn154  1  0.57381709  0.54657834  0.84125939  1
  Zn  Zn155  1  0.43950528  0.18242446  0.43576480  1
  Zn  Zn156  1  0.43726041  0.18721980  0.94065487  1
  Zn  Zn157  1  0.43956693  0.68921874  0.43673292  1
  Zn  Zn158  1  0.43452981  0.68525976  0.94029601  1
  Zn  Zn159  1  0.92868489  0.18148400  0.43291648  1
  Zn  Zn160  1  0.93137575  0.18831509  0.93167088  1
  Zn  Zn161  1  0.94055188  0.68628885  0.43339272  1
  Zn  Zn162  1  0.93948504  0.68332073  0.94200293  1
  Zn  Zn163  1  0.06246887  0.31567007  0.19176328  1
  Zn  Zn164  1  0.06058242  0.31487792  0.55803795  1
  Zn  Zn165  1  0.06358503  0.81336788  0.05879346  1
  Zn  Zn166  1  0.06238893  0.81323249  0.56146908  1
  Zn  Zn167  1  0.56704105  0.31259978  0.06542809  1
  Zn  Zn168  1  0.56166826  0.31393564  0.56239363  1
  Zn  Zn169  1  0.55985173  0.80764182  0.06227205  1
  Zn  Zn170  1  0.55939251  0.82201919  0.56030616  1
  O  O171  1  0.12693514  0.12132191  0.11902900  1
  O  O172  1  0.11723766  0.11713426  0.62379870  1
  O  O173  1  0.11633284  0.61768601  0.11960419  1
  O  O174  1  0.12493238  0.61969402  0.61855983  1
  O  O175  1  0.61616331  0.12196909  0.11685608  1
  O  O176  1  0.61011692  0.12552114  0.62751486  1
  O  O177  1  0.60962623  0.62205366  0.12177083  1
  O  O178  1  0.63163831  0.61389368  0.62299863  1
  O  O179  1  0.36937868  0.38376143  0.38602914  1
  O  O180  1  0.38088149  0.37935540  0.87765297  1
  O  O181  1  0.37252851  0.89120105  0.37624859  1
  O  O182  1  0.38096162  0.88334630  0.87483846  1
  O  O183  1  0.87419113  0.38455721  0.38320626  1
  O  O184  1  0.87655033  0.38494673  0.87469766  1
  O  O185  1  0.87701859  0.89098854  0.36787058  1
  O  O186  1  0.87195179  0.88614212  0.88162048  1
  O  O187  1  0.24864986  0.00770322  0.36911474  1
  O  O188  1  0.25722550  0.00380105  0.87537757  1
  O  O189  1  0.25723327  0.50694809  0.37717018  1
  O  O190  1  0.25484826  0.48875404  0.86279927  1
  O  O191  1  0.75686542  0.00170430  0.35541518  1
  O  O192  1  0.75755216  0.00487270  0.86504408  1
  O  O193  1  0.76336741  0.51275831  0.38140896  1
  O  O194  1  0.76045167  0.50858153  0.86344904  1
  O  O195  1  0.24208573  0.49107364  0.12531476  1
  O  O196  1  0.24305387  0.49777210  0.63621160  1
  O  O197  1  0.24500822  0.99276458  0.13070060  1
  O  O198  1  0.24202302  0.99381703  0.62418026  1
  O  O199  1  0.74460874  0.49728393  0.12159595  1
  O  O200  1  0.74428986  0.50180526  0.63680169  1
  O  O201  1  0.74864294  0.99375996  0.12967411  1
  O  O202  1  0.76063691  0.98224481  0.63896460  1
  O  O203  1  -0.00718793  0.37626473  0.25093327  1
  O  O204  1  0.01155699  0.37013357  0.75059528  1
  O  O205  1  -0.00306530  0.86227611  0.24899579  1
  O  O206  1  0.00931523  0.87811036  0.74491806  1
  O  O207  1  0.50151907  0.36038743  0.24355821  1
  O  O208  1  0.50586179  0.36492566  0.75541140  1
  O  O209  1  0.49493051  0.86130851  0.25241436  1
  O  O210  1  0.50724377  0.86661368  0.75640609  1
  O  O211  1  0.50579871  0.13482937  0.23705269  1
  O  O212  1  0.49335037  0.13096153  0.74385759  1
  O  O213  1  0.49597151  0.63731404  0.23804910  1
  O  O214  1  0.49507153  0.63536855  0.75501513  1
  O  O215  1  0.98276829  0.12512373  0.25835697  1
  O  O216  1  0.99127096  0.13176222  0.73965711  1
  O  O217  1  0.99057574  0.63251305  0.23820607  1
  O  O218  1  0.98315282  0.61513436  0.74479405  1
  O  O219  1  0.36881859  0.25224702  0.01020033  1
  O  O220  1  0.37211214  0.25617926  0.50386244  1
  O  O221  1  0.36555856  0.75133505  0.01053019  1
  O  O222  1  0.36945959  0.74760074  0.51006453  1
  O  O223  1  0.85661588  0.25081395  -0.00763076  1
  O  O224  1  0.87586104  0.26620181  0.50476033  1
  O  O225  1  0.87322726  0.75588739  0.00907032  1
  O  O226  1  0.87465916  0.74491233  0.50902702  1
  O  O227  1  0.13414618  0.24941279  0.49361347  1
  O  O228  1  0.13143188  0.24040311  0.99055683  1
  O  O229  1  0.13152906  0.74432236  0.49338944  1
  O  O230  1  0.13879042  0.75055084  0.99841532  1
  O  O231  1  0.63430903  0.25809483  0.49455698  1
  O  O232  1  0.63178616  0.23801238  0.99504280  1
  O  O233  1  0.61888611  0.73672595  0.50723072  1
  O  O234  1  0.62629175  0.74861140  0.98653825  1
  O  O235  1  0.49375728  0.24337748  0.12844033  1
  O  O236  1  0.48989614  0.24492413  0.62779497  1
  O  O237  1  0.49091630  0.74930721  0.13413237  1
  O  O238  1  0.48782200  0.75604707  0.63547961  1
  O  O239  1  1.01803553  0.24435065  0.11053721  1
  O  O240  1  0.99031133  0.24657549  0.62619610  1
  O  O241  1  0.99473781  0.74337023  0.12812390  1
  O  O242  1  0.98526663  0.74964277  0.61970868  1
  O  O243  1  0.01428995  0.24884889  0.38436793  1
  O  O244  1  0.00704798  0.24917009  0.86561026  1
  O  O245  1  0.00872316  0.75101473  0.36588366  1
  O  O246  1  -0.00165265  0.75256129  0.87991654  1
  O  O247  1  0.50951705  0.24077297  0.36576145  1
  O  O248  1  0.50434863  0.25285827  0.86790614  1
  O  O249  1  0.49932009  0.74643751  0.35806188  1
  O  O250  1  0.50666577  0.75374912  0.86965871  1
  O  O251  1  0.24906818  0.13779392  0.49310101  1
  O  O252  1  0.25591108  0.13718014  0.99346599  1
  O  O253  1  0.24623336  0.62982242  0.49142578  1
  O  O254  1  0.25055212  0.64181907  1.00681193  1
  O  O255  1  0.77281050  0.15706335  0.50189819  1
  O  O256  1  0.74365006  0.13217651  0.99694921  1
  O  O257  1  0.73899322  0.62163735  0.49295583  1
  O  O258  1  0.74414743  0.62521389  0.98931843  1
  O  O259  1  0.24982276  0.35998323  0.00966111  1
  O  O260  1  0.25978601  0.36367953  0.50282488  1
  O  O261  1  0.25266076  0.86388460  0.00832480  1
  O  O262  1  0.25186500  0.86814416  0.51269014  1
  O  O263  1  0.74574707  0.36230300  0.00258981  1
  O  O264  1  0.75985146  0.37242682  0.49779898  1
  O  O265  1  0.76281655  0.87401365  0.00785537  1
  O  O266  1  0.74718977  0.87455379  0.51719127  1
  O  O267  1  0.12551888  0.50664242  0.23824988  1
  O  O268  1  0.12882198  0.49285045  0.74728151  1
  O  O269  1  0.13790969  1.00909280  0.24014674  1
  O  O270  1  0.12370575  0.99067788  0.73717981  1
  O  O271  1  0.62249021  0.50185604  0.26458504  1
  O  O272  1  0.63191272  0.49391627  0.74593601  1
  O  O273  1  0.63962575  1.00542963  0.24616121  1
  O  O274  1  0.63212028  0.98625346  0.75578016  1
  O  O275  1  0.35966543  -0.00110978  0.26169802  1
  O  O276  1  0.37346383  0.00341150  0.76152700  1
  O  O277  1  0.37056378  0.50194167  0.26192569  1
  O  O278  1  0.36410775  0.50602025  0.75280574  1
  O  O279  1  0.86858000  0.01050725  0.25302077  1
  O  O280  1  0.86864053  0.00239837  0.75514443  1
  O  O281  1  0.87814575  0.51229391  0.25880975  1
  O  O282  1  0.86931094  0.50385798  0.75347918  1
  O  O283  1  0.12417866  0.35885384  0.37752755  1
  O  O284  1  0.12373232  0.36074299  0.86790374  1
  O  O285  1  0.12562891  0.86252221  0.37886279  1
  O  O286  1  0.12944948  0.87528779  0.85622538  1
  O  O287  1  0.62913696  0.36429195  0.37321016  1
  O  O288  1  0.61707684  0.36546867  0.86177087  1
  O  O289  1  0.62578227  0.87140641  0.37591812  1
  O  O290  1  0.62271677  0.86728451  0.86865334  1
  O  O291  1  0.38407959  0.13386071  0.11972128  1
  O  O292  1  0.38068754  0.13081918  0.63024455  1
  O  O293  1  0.38211197  0.63263882  0.12814493  1
  O  O294  1  0.37180098  0.63341322  0.63958331  1
  O  O295  1  0.87882267  0.12472440  0.13543018  1
  O  O296  1  0.87662470  0.13339817  0.62812214  1
  O  O297  1  0.87890012  0.63278853  0.12963677  1
  O  O298  1  0.87322008  0.63870295  0.63274853  1
  O  O299  1  0.25655568  0.25212008  0.12084283  1
  O  O300  1  0.26148107  0.24794908  0.61680803  1
  O  O301  1  0.25375231  0.75623804  0.12063703  1
  O  O302  1  0.25990896  0.75626956  0.62281229  1
  O  O303  1  0.74375504  0.25118744  0.11301192  1
  O  O304  1  0.76142845  0.25419515  0.62199217  1
  O  O305  1  0.76340399  0.75855356  0.12434411  1
  O  O306  1  0.76148544  0.76023176  0.62999397  1
  O  O307  1  0.24483842  0.24469022  0.37983861  1
  O  O308  1  0.24413494  0.24656102  0.88266839  1
  O  O309  1  0.24548447  0.74397227  0.37837644  1
  O  O310  1  0.25329052  0.75600812  0.88905851  1
  O  O311  1  0.74225174  0.24746753  0.38517082  1
  O  O312  1  0.74137201  0.24205914  0.87979081  1
  O  O313  1  0.75405411  0.73759445  0.37027755  1
  O  O314  1  0.74447756  0.73771555  0.87611715  1
  O  O315  1  0.00224501  0.12641073  -0.00037904  1
  O  O316  1  -0.00085027  0.11665619  0.50437968  1
  O  O317  1  -0.00356485  0.61238903  0.01358625  1
  O  O318  1  0.00588634  0.61517666  0.50087210  1
  O  O319  1  0.50716734  0.11963929  0.00807288  1
  O  O320  1  0.49756632  0.12361770  0.51363985  1
  O  O321  1  0.50017504  0.63302598  0.01836914  1
  O  O322  1  0.50609064  0.61456918  0.50050371  1
  O  O323  1  0.48904710  0.38590409  0.50459068  1
  O  O324  1  0.50099811  0.36671983  0.98587814  1
  O  O325  1  0.49460845  0.87618147  0.49175904  1
  O  O326  1  0.49792216  0.88162531  0.99351485  1
  O  O327  1  0.99405687  0.38843699  0.49388428  1
  O  O328  1  0.99386610  0.38794212  0.99800907  1
  O  O329  1  1.00384188  0.88939424  0.49747649  1
  O  O330  1  0.98650671  0.88006641  1.00523202  1
  O  O331  1  0.48439574  0.50641878  0.38738549  1
  O  O332  1  0.48044765  0.48371093  0.85633758  1
  O  O333  1  0.48526525  1.00580307  0.36458265  1
  O  O334  1  0.49282509  0.99574667  0.87943953  1
  O  O335  1  0.98912010  0.50322634  0.38204421  1
  O  O336  1  0.99104106  0.49836255  0.88116191  1
  O  O337  1  0.99441397  1.00065019  0.38055955  1
  O  O338  1  0.98801007  1.00751836  0.87367874  1
  O  O339  1  0.01508931  -0.00424463  0.12700856  1
  O  O340  1  0.00375977  0.00604338  0.61708027  1
  O  O341  1  0.00440001  0.50521979  0.11987303  1
  O  O342  1  0.00793605  0.50347410  0.61513053  1
  O  O343  1  0.49707369  0.00552067  0.12179366  1
  O  O344  1  0.49722377  0.01064634  0.62844189  1
  O  O345  1  0.49034373  0.51271640  0.12583692  1
  O  O346  1  0.50815585  0.49920413  0.62051141  1
  O  O347  1  0.25348925  0.37374972  0.23732982  1
  O  O348  1  0.23822441  0.37872002  0.74689184  1
  O  O349  1  0.24835604  0.88287367  0.24124550  1
  O  O350  1  0.24141508  0.87704681  0.73833008  1
  O  O351  1  0.74951401  0.37678719  0.23716433  1
  O  O352  1  0.73986951  0.38394092  0.75519151  1
  O  O353  1  0.75943176  0.89080390  0.23574636  1
  O  O354  1  0.74012310  0.88080647  0.74574005  1
  O  O355  1  0.25366662  0.11742109  0.26179009  1
  O  O356  1  0.25868405  0.12161400  0.75639553  1
  O  O357  1  0.25016222  0.62269998  0.26264798  1
  O  O358  1  0.25743543  0.61552766  0.75035417  1
  O  O359  1  0.75711711  0.11183295  0.24289195  1
  O  O360  1  0.75281048  0.11533194  0.75087705  1
  O  O361  1  0.76104840  0.62558965  0.25511186  1
  O  O362  1  0.76251210  0.61829689  0.75427245  1
  O  O363  1  0.36403618  0.11522206  0.37836889  1
  O  O364  1  0.37137249  0.11841393  0.86980962  1
  O  O365  1  0.36524307  0.61828298  0.37620805  1
  O  O366  1  0.37955624  0.61542085  0.86372506  1
  O  O367  1  0.85474243  0.11379270  0.37331834  1
  O  O368  1  0.86610460  0.11892549  0.86504583  1
  O  O369  1  0.87025866  0.62090318  0.36751873  1
  O  O370  1  0.86951026  0.61899607  0.86544893  1
  O  O371  1  0.13358970  0.38289694  0.12617377  1
  O  O372  1  0.12630989  0.38062704  0.63155228  1
  O  O373  1  0.13548964  0.88144169  0.12256746  1
  O  O374  1  0.12996650  0.88078999  0.63162088  1
  O  O375  1  0.64103305  0.37373093  0.12642827  1
  O  O376  1  0.61959056  0.38519600  0.63671446  1
  O  O377  1  0.63889872  0.87460340  0.11519410  1
  O  O378  1  0.63805746  0.86738336  0.63359044  1
  O  O379  1  0.12683413  0.24664573  0.26268826  1
  O  O380  1  0.12208461  0.25602664  0.75249372  1
  O  O381  1  0.11566554  0.74202933  0.25848659  1
  O  O382  1  0.12544136  0.76450871  0.74701968  1
  O  O383  1  0.61837405  0.25435356  0.25813458  1
  O  O384  1  0.62165594  0.25591875  0.75075255  1
  O  O385  1  0.61242024  0.75066127  0.24890052  1
  O  O386  1  0.61857730  0.75849881  0.75506860  1
  O  O387  1  0.38236366  0.25137158  0.23932985  1
  O  O388  1  0.37802334  0.24527851  0.74142770  1
  O  O389  1  0.37185582  0.74776708  0.23793853  1
  O  O390  1  0.38049971  0.74251860  0.74742976  1
  O  O391  1  0.86717712  0.23330816  0.25490533  1
  O  O392  1  0.87768676  0.24809883  0.74167098  1
  O  O393  1  0.88252275  0.74433421  0.24249304  1
  O  O394  1  0.87574721  0.74047571  0.74559075  1
  O  O395  1  0.37986858  0.49420184  0.50039357  1
  O  O396  1  0.36569815  0.49881888  0.98530329  1
  O  O397  1  0.36504804  0.99969848  0.48118176  1
  O  O398  1  0.37937578  0.99989728  0.98904464  1
  O  O399  1  0.88178896  0.49725234  0.49732671  1
  O  O400  1  0.88008274  0.49954527  0.98718828  1
  O  O401  1  0.88190625  1.00477367  0.48855711  1
  O  O402  1  0.87749432  0.99490980  0.99023106  1
  O  O403  1  0.12420036  -0.00131904  0.01100595  1
  O  O404  1  0.11909659  0.00271447  0.51060650  1
  O  O405  1  0.11761916  0.49832843  0.00910804  1
  O  O406  1  0.11976699  0.50318342  0.50242684  1
  O  O407  1  0.62204333  0.00984042  -0.00078949  1
  O  O408  1  0.70107390  0.03813198  0.48412402  1
  O  O409  1  0.60937588  0.50897042  -0.05198727  1
  O  O410  1  0.61624595  0.50536951  0.50929489  1
  O  O411  1  0.36788415  0.36711254  0.12127623  1
  O  O412  1  0.37426182  0.36517969  0.61954073  1
  O  O413  1  0.36278815  0.86865004  0.12329171  1
  O  O414  1  0.36630887  0.86752859  0.62752841  1
  O  O415  1  0.85167246  0.38041307  0.11698903  1
  O  O416  1  0.88148683  0.36963993  0.61475633  1
  O  O417  1  0.86982343  0.86972572  0.11827759  1
  O  O418  1  0.86608082  0.86060293  0.62731062  1
  O  O419  1  0.13437643  0.13622288  0.37712631  1
  O  O420  1  0.13179279  0.13575941  0.86332583  1
  O  O421  1  0.13157835  0.63103733  0.38053677  1
  O  O422  1  0.12726537  0.62902799  0.87812454  1
  O  O423  1  0.64104733  0.13580862  0.37013318  1
  O  O424  1  0.62814041  0.12778657  0.88105408  1
  O  O425  1  0.63251608  0.63282611  0.38709245  1
  O  O426  1  0.63673761  0.64013657  0.85814323  1
