# generated using pymatgen
data_V85Zn86O256
_symmetry_space_group_name_H-M   'P 1'
_cell_length_a   16.94038463
_cell_length_b   16.95382350
_cell_length_c   16.94009390
_cell_angle_alpha   89.84954374
_cell_angle_beta   90.04114932
_cell_angle_gamma   89.96437973
_symmetry_Int_Tables_number   1
_chemical_formula_structural   V85Zn86O256
_chemical_formula_sum   'V85 Zn86 O256'
_cell_volume   4865.24868292
_cell_formula_units_Z   1
loop_
 _symmetry_equiv_pos_site_id
 _symmetry_equiv_pos_as_xyz
  1  'x, y, z'
loop_
 _atom_site_type_symbol
 _atom_site_label
 _atom_site_symmetry_multiplicity
 _atom_site_fract_x
 _atom_site_fract_y
 _atom_site_fract_z
 _atom_site_occupancy
  V  V0  1  0.62474178  0.50292338  0.11642752  1
  V  V1  1  0.37982604  0.24824791  0.62925795  1
  V  V2  1  0.25022242  0.50256786  0.25324221  1
  V  V3  1  0.00331309  0.37637957  0.87181450  1
  V  V4  1  -0.00133984  0.12631641  0.13162762  1
  V  V5  1  -0.00398453  0.75195794  0.74869649  1
  V  V6  1  0.37375536  0.74998964  0.12555163  1
  V  V7  1  0.49720027  0.74925302  0.25181881  1
  V  V8  1  0.74617017  0.62237573  0.38213486  1
  V  V9  1  0.00455556  0.11811992  0.62120723  1
  V  V10  1  0.74940886  0.74945297  0.49961204  1
  V  V11  1  0.74270825  0.37770615  0.64369414  1
  V  V12  1  0.12379371  0.87638372  0.24923990  1
  V  V13  1  -0.00084648  0.24815622  0.74725000  1
  V  V14  1  0.75218721  0.37772624  0.12663129  1
  V  V15  1  0.37428826  -0.00284976  0.38643378  1
  V  V16  1  0.13095774  0.24551502  0.87240528  1
  V  V17  1  0.76319164  0.12484715  0.36829316  1
  V  V18  1  0.47970594  0.49137033  0.00142786  1
  V  V19  1  0.12363206  0.75039959  0.37654898  1
  V  V20  1  0.74404703  -0.00125776  0.75021846  1
  V  V21  1  0.25335033  0.75764980  0.49912903  1
  V  V22  1  0.24888815  0.75026997  -0.00232983  1
  V  V23  1  0.56219980  0.56457123  0.58364097  1
  V  V24  1  0.19005019  0.54226351  0.68008480  1
  V  V25  1  0.37435597  0.49804705  0.85168095  1
  V  V26  1  0.25526505  0.37233307  0.62735746  1
  V  V27  1  0.87564464  0.11400265  0.75812670  1
  V  V28  1  0.24698136  0.87709350  0.12567409  1
  V  V29  1  0.74770215  0.87538587  0.11979124  1
  V  V30  1  -0.01005650  0.88017487  0.37125540  1
  V  V31  1  0.00335852  0.50098641  -0.00132935  1
  V  V32  1  0.38111933  0.50138990  0.37775212  1
  V  V33  1  0.87283802  0.75430337  0.62160703  1
  V  V34  1  0.62049813  -0.00094634  0.12499822  1
  V  V35  1  0.38631960  0.37211498  0.50069754  1
  V  V36  1  0.00244783  0.49180105  0.50393297  1
  V  V37  1  0.13076916  0.11825947  0.49413523  1
  V  V38  1  0.51052796  0.11822858  0.62538608  1
  V  V39  1  0.50872923  0.37565611  0.37762895  1
  V  V40  1  0.12632915  0.62467287  -0.00259008  1
  V  V41  1  0.25345941  0.24548659  0.48942623  1
  V  V42  1  -0.00504826  0.00007916  0.49657335  1
  V  V43  1  -0.00553949  0.88088323  0.87988144  1
  V  V44  1  0.37090535  0.87751402  -0.00184958  1
  V  V45  1  0.12686325  0.49906678  0.12436379  1
  V  V46  1  0.74209146  0.62620192  0.87922589  1
  V  V47  1  0.87652635  0.37553321  -0.00036621  1
  V  V48  1  0.25585956  0.88524282  0.62174739  1
  V  V49  1  0.24509261  0.00828341  0.75192739  1
  V  V50  1  0.37178595  0.12798184  0.75798561  1
  V  V51  1  0.76190172  0.00235722  0.25293617  1
  V  V52  1  0.12411966  0.37404985  0.25421036  1
  V  V53  1  0.87564983  0.25174931  0.61717528  1
  V  V54  1  0.25713752  0.25413932  -0.00209323  1
  V  V55  1  -0.00070232  0.75048937  0.24987266  1
  V  V56  1  0.87354884  0.62369412  0.25202787  1
  V  V57  1  0.52214682  0.25093928  0.75631855  1
  V  V58  1  0.12128247  0.88419046  0.74087798  1
  V  V59  1  -0.00051036  0.62586491  0.12458755  1
  V  V60  1  0.37133763  0.12717418  0.25942625  1
  V  V61  1  0.50452325  0.62909725  0.11770109  1
  V  V62  1  0.24870573  0.00515190  0.25559995  1
  V  V63  1  0.87528441  0.49286467  0.38189119  1
  V  V64  1  0.12396166  0.12594343  -0.00198360  1
  V  V65  1  0.62733744  0.37085413  0.25228028  1
  V  V66  1  0.12532510  0.75064611  0.87339049  1
  V  V67  1  0.74617161  0.25769828  0.49477103  1
  V  V68  1  0.13027452  0.61981973  0.49963021  1
  V  V69  1  0.49630192  0.87051239  0.39102341  1
  V  V70  1  0.49726814  0.12613033  0.12773094  1
  V  V71  1  0.87238003  0.75175574  0.11592892  1
  V  V72  1  0.88136575  0.25258713  0.13675765  1
  V  V73  1  0.50570407  0.24859645  0.25561104  1
  V  V74  1  0.12752676  0.37512928  0.74238719  1
  V  V75  1  0.48952229  0.73553054  0.75684255  1
  V  V76  1  0.86655744  0.62258383  0.74609127  1
  V  V77  1  0.61428773  0.87615671  0.74134627  1
  V  V78  1  0.49542131  0.00252614  -0.00117897  1
  V  V79  1  0.62160011  0.87618410  0.25333317  1
  V  V80  1  0.62677000  0.11866248  0.49010355  1
  V  V81  1  0.00103465  0.62100956  0.62479445  1
  V  V82  1  0.87029265  0.50013236  0.86883385  1
  V  V83  1  0.62367749  0.74417566  0.37526933  1
  V  V84  1  0.37314390  0.74185661  0.62842147  1
  Zn  Zn85  1  0.36425946  0.00680385  0.87956104  1
  Zn  Zn86  1  0.62360346  0.14639102  -0.02486526  1
  Zn  Zn87  1  0.87004198  0.88167440  0.49404701  1
  Zn  Zn88  1  0.25706556  0.37974977  0.11925804  1
  Zn  Zn89  1  0.37627465  0.62629900  0.25329582  1
  Zn  Zn90  1  0.12243347  0.00148903  0.12113633  1
  Zn  Zn91  1  0.49605879  0.87723015  0.87287732  1
  Zn  Zn92  1  0.84980137  0.89572022  -0.02482971  1
  Zn  Zn93  1  0.73202173  0.74209888  0.00644633  1
  Zn  Zn94  1  0.74075910  0.24945607  -0.01139254  1
  Zn  Zn95  1  0.61961979  0.75776697  0.87956994  1
  Zn  Zn96  1  0.00235962  0.24508926  0.25840803  1
  Zn  Zn97  1  0.25170817  0.61724520  0.85979925  1
  Zn  Zn98  1  0.12667096  0.24778995  0.37451178  1
  Zn  Zn99  1  -0.01503256  0.01422966  -0.00463329  1
  Zn  Zn100  1  0.37748893  0.25678197  0.12310629  1
  Zn  Zn101  1  0.50575627  -0.01161892  0.50975928  1
  Zn  Zn102  1  0.73660335  0.88215284  0.61735925  1
  Zn  Zn103  1  0.51208746  0.36884892  0.88060065  1
  Zn  Zn104  1  0.25449105  0.62706447  0.37770889  1
  Zn  Zn105  1  -0.00001449  0.37065705  0.38063666  1
  Zn  Zn106  1  0.74555891  0.50122505  0.25479346  1
  Zn  Zn107  1  0.18754715  0.18919979  0.18379289  1
  Zn  Zn108  1  0.18783386  0.18780665  0.68050661  1
  Zn  Zn109  1  0.18787564  0.68653231  0.18803600  1
  Zn  Zn110  1  0.18378516  0.70590849  0.68338851  1
  Zn  Zn111  1  0.69759776  0.17850895  0.16364953  1
  Zn  Zn112  1  0.69459340  0.17943795  0.68289401  1
  Zn  Zn113  1  0.68648145  0.68599148  0.19068693  1
  Zn  Zn114  1  0.68362042  0.68881334  0.69514819  1
  Zn  Zn115  1  0.31710895  0.31788430  0.30640672  1
  Zn  Zn116  1  0.31897766  0.31952555  0.81503605  1
  Zn  Zn117  1  0.31321186  0.81646141  0.31443954  1
  Zn  Zn118  1  0.30934294  0.81785905  0.81079711  1
  Zn  Zn119  1  0.80949985  0.31212858  0.31554712  1
  Zn  Zn120  1  0.81099470  0.30081479  0.81477397  1
  Zn  Zn121  1  0.80992843  0.81050698  0.30738132  1
  Zn  Zn122  1  0.80384724  0.81361975  0.80700413  1
  Zn  Zn123  1  0.19217994  0.43619848  0.43956197  1
  Zn  Zn124  1  0.19484019  0.43593472  0.93051433  1
  Zn  Zn125  1  0.18202432  0.93908743  0.43563663  1
  Zn  Zn126  1  0.18135379  0.94074145  0.93362084  1
  Zn  Zn127  1  0.68007664  0.44568523  0.45152032  1
  Zn  Zn128  1  0.68532647  0.43261675  0.93745967  1
  Zn  Zn129  1  0.68694768  0.93876047  0.43632314  1
  Zn  Zn130  1  0.66890453  0.96999977  0.91394140  1
  Zn  Zn131  1  0.30723593  0.06908414  0.06670068  1
  Zn  Zn132  1  0.31433313  0.06514371  0.56766811  1
  Zn  Zn133  1  0.31066747  0.56867164  0.06495166  1
  Zn  Zn134  1  0.36787674  0.54005968  0.58558499  1
  Zn  Zn135  1  0.80699005  0.07139001  0.05592286  1
  Zn  Zn136  1  0.81254908  0.06266256  0.56395466  1
  Zn  Zn137  1  0.81223117  0.56057323  0.06017740  1
  Zn  Zn138  1  0.81098958  0.55826983  0.56314053  1
  Zn  Zn139  1  0.43769969  0.43810296  0.18846263  1
  Zn  Zn140  1  0.48808900  0.45242942  0.69716874  1
  Zn  Zn141  1  0.43379056  0.93685458  0.19148550  1
  Zn  Zn142  1  0.43149981  0.93883407  0.68769512  1
  Zn  Zn143  1  0.94003350  0.44022298  0.19174516  1
  Zn  Zn144  1  0.93348325  0.43541025  0.68380314  1
  Zn  Zn145  1  0.93665623  0.94002553  0.17786201  1
  Zn  Zn146  1  0.93847638  0.93829964  0.68162994  1
  Zn  Zn147  1  0.06307258  0.06283079  0.31480145  1
  Zn  Zn148  1  0.06051475  0.06348572  0.81205037  1
  Zn  Zn149  1  0.06261413  0.56118033  0.31632948  1
  Zn  Zn150  1  0.05768261  0.56581677  0.81299859  1
  Zn  Zn151  1  0.56079235  0.05920821  0.31715267  1
  Zn  Zn152  1  0.56171770  0.06393763  0.81019504  1
  Zn  Zn153  1  0.56212955  0.55971791  0.30851383  1
  Zn  Zn154  1  0.60995589  0.51642582  0.79755823  1
  Zn  Zn155  1  0.44294092  0.18675218  0.43653822  1
  Zn  Zn156  1  0.44045048  0.18836965  0.93575269  1
  Zn  Zn157  1  0.43943945  0.68237247  0.44803131  1
  Zn  Zn158  1  0.43400237  0.67944069  0.93333434  1
  Zn  Zn159  1  0.93767637  0.18732343  0.43651740  1
  Zn  Zn160  1  0.92181798  0.19717227  0.93391166  1
  Zn  Zn161  1  0.93826692  0.68447616  0.43846122  1
  Zn  Zn162  1  0.93427815  0.68986293  0.93531595  1
  Zn  Zn163  1  0.06592431  0.31239646  0.06372013  1
  Zn  Zn164  1  0.06793350  0.30794334  0.56150291  1
  Zn  Zn165  1  0.06080828  0.81439299  0.06082286  1
  Zn  Zn166  1  0.06087145  0.81463386  0.56005169  1
  Zn  Zn167  1  0.56531510  0.31162607  0.06379238  1
  Zn  Zn168  1  0.56906950  0.30449029  0.56591094  1
  Zn  Zn169  1  0.56116497  0.81348714  0.05748523  1
  Zn  Zn170  1  0.57338620  0.76326676  0.57872102  1
  O  O171  1  0.11649786  0.12609182  0.11532906  1
  O  O172  1  0.11126463  0.13364661  0.61224044  1
  O  O173  1  0.11813836  0.62054551  0.11886526  1
  O  O174  1  0.12613580  0.61687451  0.62154744  1
  O  O175  1  0.60438593  0.11019627  0.14360688  1
  O  O176  1  0.61911346  0.12532326  0.61416458  1
  O  O177  1  0.61624265  0.61605559  0.13299162  1
  O  O178  1  0.61288268  0.65584906  0.61572763  1
  O  O179  1  0.38855234  0.37847932  0.37976643  1
  O  O180  1  0.38817536  0.39155956  0.87016877  1
  O  O181  1  0.38507838  0.88372157  0.37308797  1
  O  O182  1  0.36966071  0.87959602  0.88936471  1
  O  O183  1  0.87670968  0.39019365  0.37022493  1
  O  O184  1  0.88314958  0.38464634  0.88105022  1
  O  O185  1  0.88672591  0.86718660  0.37222292  1
  O  O186  1  0.89029795  0.86034787  0.87250450  1
  O  O187  1  0.25815968  -0.00892669  0.36349696  1
  O  O188  1  0.24724845  -0.00234597  0.85813937  1
  O  O189  1  0.25699192  0.50295815  0.36798279  1
  O  O190  1  0.26668740  0.49605483  0.86674905  1
  O  O191  1  0.74410491  0.01250154  0.36516318  1
  O  O192  1  0.76635898  -0.02119031  0.84813357  1
  O  O193  1  0.75579918  0.50684632  0.38020401  1
  O  O194  1  0.76592188  0.50896204  0.88088844  1
  O  O195  1  0.24250461  0.50294103  0.13418387  1
  O  O196  1  0.26181169  0.49047566  0.62164885  1
  O  O197  1  0.24807151  0.99424727  0.13697166  1
  O  O198  1  0.25105602  0.99439211  0.63413147  1
  O  O199  1  0.74417256  0.49391178  0.12735157  1
  O  O200  1  0.76364333  0.47505889  0.62309398  1
  O  O201  1  0.73629176  0.99222571  0.13451689  1
  O  O202  1  0.76041226  0.99423867  0.63985560  1
  O  O203  1  0.01563131  0.38012989  0.25362854  1
  O  O204  1  0.00816360  0.36863864  0.74956449  1
  O  O205  1  0.00371810  0.87142809  0.25272386  1
  O  O206  1  0.00437367  0.87152201  0.75542325  1
  O  O207  1  0.50762514  0.36804731  0.25787806  1
  O  O208  1  0.50589187  0.35142199  0.74570711  1
  O  O209  1  0.50511429  0.86749352  0.25674803  1
  O  O210  1  0.50249905  0.87759774  0.75275698  1
  O  O211  1  0.49324967  0.13134531  0.25011881  1
  O  O212  1  0.49445900  0.13137463  0.74405446  1
  O  O213  1  0.49803787  0.63302047  0.24060437  1
  O  O214  1  0.49397592  0.64074662  0.75729768  1
  O  O215  1  1.00705440  0.12563941  0.23647307  1
  O  O216  1  0.99724757  0.12808167  0.73762404  1
  O  O217  1  0.99350552  0.63017261  0.24566219  1
  O  O218  1  0.99083318  0.63294313  0.74394854  1
  O  O219  1  0.36033643  0.24135156  -0.00076954  1
  O  O220  1  0.37291927  0.25280712  0.50547743  1
  O  O221  1  0.36792426  0.75777856  0.00436536  1
  O  O222  1  0.36417485  0.74911136  0.51336308  1
  O  O223  1  0.89406209  0.27312728  0.02095075  1
  O  O224  1  0.86552449  0.24087197  0.51136983  1
  O  O225  1  0.87102682  0.75165321  0.01136521  1
  O  O226  1  0.86658626  0.75018864  0.50406233  1
  O  O227  1  0.13779559  0.24247194  0.49767031  1
  O  O228  1  0.13104552  0.24671359  0.98986109  1
  O  O229  1  0.12890125  0.74494274  0.49465246  1
  O  O230  1  0.12810658  0.74685364  0.99121765  1
  O  O231  1  0.63718418  0.23327349  0.50308345  1
  O  O232  1  0.62623006  0.25900453  0.98726457  1
  O  O233  1  0.64163277  0.75411141  0.48729517  1
  O  O234  1  0.61913865  0.74620150  0.99224451  1
  O  O235  1  0.49985468  0.24209623  0.13595118  1
  O  O236  1  0.49701522  0.23874209  0.63473828  1
  O  O237  1  0.49428246  0.74525475  0.13029571  1
  O  O238  1  0.47796041  0.75836126  0.64018262  1
  O  O239  1  0.99901541  0.24572754  0.13299223  1
  O  O240  1  0.99166621  0.24424707  0.62526409  1
  O  O241  1  0.99177029  0.74646896  0.12959962  1
  O  O242  1  0.99395816  0.74230542  0.62765251  1
  O  O243  1  0.00395207  0.25381047  0.37482530  1
  O  O244  1  0.00685244  0.25965232  0.86660879  1
  O  O245  1  0.00429207  0.75450870  0.36805834  1
  O  O246  1  0.00950816  0.75521612  0.87036406  1
  O  O247  1  0.50119071  0.25750120  0.36273876  1
  O  O248  1  0.50190336  0.24920517  0.86094612  1
  O  O249  1  0.50266246  0.75197038  0.37236491  1
  O  O250  1  0.49041052  0.75452213  0.86582654  1
  O  O251  1  0.24244703  0.13274823  0.50759113  1
  O  O252  1  0.23453530  0.13673769  1.00316717  1
  O  O253  1  0.23705701  0.64116218  0.49971636  1
  O  O254  1  0.24092702  0.63495076  0.99997176  1
  O  O255  1  0.74363879  0.12593039  0.48841005  1
  O  O256  1  0.72349050  0.14356571  1.04686644  1
  O  O257  1  0.75757935  0.63233055  0.48884702  1
  O  O258  1  0.75516261  0.62581981  0.98398603  1
  O  O259  1  0.24342188  0.35873116  0.00100620  1
  O  O260  1  0.25878222  0.36538739  0.50942878  1
  O  O261  1  0.25073182  0.87189154  0.00483951  1
  O  O262  1  0.23910759  0.86683207  0.50798800  1
  O  O263  1  0.76062880  0.37708019  0.00742447  1
  O  O264  1  0.74450418  0.35967926  0.49581399  1
  O  O265  1  0.74305182  0.87116666  0.01466323  1
  O  O266  1  0.75301736  0.86804312  0.49994541  1
  O  O267  1  0.13206693  0.49785769  0.24626236  1
  O  O268  1  0.12135755  0.49181383  0.74575940  1
  O  O269  1  0.13343450  0.99435070  0.24994404  1
  O  O270  1  0.12870072  0.99392553  0.75010589  1
  O  O271  1  0.62397512  0.48716264  0.24005762  1
  O  O272  1  0.58188180  0.52220326  0.69001713  1
  O  O273  1  0.62246873  0.98769152  0.24493720  1
  O  O274  1  0.63560992  0.99234579  0.74409135  1
  O  O275  1  0.36804277  0.00651148  0.25887215  1
  O  O276  1  0.36447519  0.01085484  0.75169841  1
  O  O277  1  0.36765894  0.50150178  0.26197830  1
  O  O278  1  0.39140187  0.49844939  0.75403854  1
  O  O279  1  0.86042494  -0.00505655  0.24488559  1
  O  O280  1  0.87453641  0.01057684  0.74179841  1
  O  O281  1  0.87467452  0.51269601  0.25737161  1
  O  O282  1  0.88292470  0.51025972  0.75797552  1
  O  O283  1  0.12458076  0.37455757  0.36823180  1
  O  O284  1  0.12315188  0.36909454  0.86050636  1
  O  O285  1  0.11444708  0.86841946  0.36690547  1
  O  O286  1  0.11471917  0.86827586  0.86549034  1
  O  O287  1  0.61584744  0.38465214  0.37093888  1
  O  O288  1  0.61358881  0.41941319  0.85494884  1
  O  O289  1  0.61752793  0.86869628  0.36803797  1
  O  O290  1  0.61797951  0.87861363  0.85968112  1
  O  O291  1  0.38448967  0.12659134  0.13751747  1
  O  O292  1  0.38362442  0.13585823  0.63115031  1
  O  O293  1  0.38125557  0.63564538  0.12969594  1
  O  O294  1  0.36005582  0.64384232  0.63024597  1
  O  O295  1  0.88577689  0.14278246  0.12069777  1
  O  O296  1  0.88600522  0.13243112  0.62822577  1
  O  O297  1  0.87827611  0.63010257  0.13118649  1
  O  O298  1  0.87733282  0.63342850  0.63007545  1
  O  O299  1  0.25053585  0.25169186  0.10956126  1
  O  O300  1  0.26113260  0.25526115  0.61641841  1
  O  O301  1  0.25368675  0.75683094  0.11993964  1
  O  O302  1  0.25616314  0.76298938  0.61875171  1
  O  O303  1  0.76355713  0.26970114  0.13050509  1
  O  O304  1  0.76048316  0.25314148  0.61783365  1
  O  O305  1  0.75512798  0.75553947  0.12687082  1
  O  O306  1  0.75746965  0.75023941  0.61542826  1
  O  O307  1  0.25593397  0.25592728  0.38731308  1
  O  O308  1  0.24203591  0.25624319  0.88340543  1
  O  O309  1  0.24458259  0.75240653  0.38346987  1
  O  O310  1  0.23713884  0.75025406  0.87553760  1
  O  O311  1  0.75356663  0.23606481  0.38086878  1
  O  O312  1  0.81019986  0.23425277  0.90183136  1
  O  O313  1  0.74647370  0.74243532  0.37911409  1
  O  O314  1  0.74648324  0.73570377  0.87436221  1
  O  O315  1  0.00878915  0.13284413  0.00571841  1
  O  O316  1  0.00611878  0.11769960  0.50287980  1
  O  O317  1  0.00499449  0.62131936  0.00339046  1
  O  O318  1  0.01282966  0.62165723  0.50652131  1
  O  O319  1  0.50168886  0.12004763  0.01067125  1
  O  O320  1  0.51371153  0.12589112  0.50606581  1
  O  O321  1  0.49201449  0.61583024  0.01465107  1
  O  O322  1  0.50204540  0.62499275  0.52088057  1
  O  O323  1  0.49391533  0.35966830  0.49235135  1
  O  O324  1  0.50098683  0.38933774  1.00232295  1
  O  O325  1  0.50712285  0.86882474  0.49131503  1
  O  O326  1  0.48566824  0.88466152  1.00147888  1
  O  O327  1  1.00839338  0.38836501  0.50288847  1
  O  O328  1  1.00035361  0.38448370  0.99353847  1
  O  O329  1  0.99936885  0.88213966  0.48882729  1
  O  O330  1  1.00002084  0.87478738  0.98407271  1
  O  O331  1  0.49228912  0.49048996  0.37125214  1
  O  O332  1  0.48304551  0.50930894  0.89810364  1
  O  O333  1  0.49239666  0.98795117  0.38065396  1
  O  O334  1  0.48903941  1.00131614  0.89100106  1
  O  O335  1  0.99217496  0.50081982  0.38547367  1
  O  O336  1  0.99224557  0.49665499  0.87934330  1
  O  O337  1  1.00207546  0.98985410  0.37988384  1
  O  O338  1  1.00318988  0.98366436  0.87528483  1
  O  O339  1  0.00255200  0.01120070  0.11917931  1
  O  O340  1  0.00140151  0.00835534  0.61451056  1
  O  O341  1  0.00702249  0.50779882  0.11971150  1
  O  O342  1  -0.00761119  0.50836655  0.61591960  1
  O  O343  1  0.49889318  0.00455948  0.11998570  1
  O  O344  1  0.48976603  0.01446491  0.62271305  1
  O  O345  1  0.50487794  0.50794683  0.12061969  1
  O  O346  1  0.47239724  0.49720670  0.59503123  1
  O  O347  1  0.24038587  0.38852606  0.25265226  1
  O  O348  1  0.24548087  0.36943714  0.73564042  1
  O  O349  1  0.24313926  0.88107310  0.24471284  1
  O  O350  1  0.23999434  0.88380268  0.74109698  1
  O  O351  1  0.74373566  0.38028839  0.24604384  1
  O  O352  1  0.75463521  0.36687323  0.74384113  1
  O  O353  1  0.73975057  0.88067897  0.24476505  1
  O  O354  1  0.73691020  0.87775828  0.73963203  1
  O  O355  1  0.25777951  0.11668736  0.24597939  1
  O  O356  1  0.25778879  0.11949981  0.74068677  1
  O  O357  1  0.25148696  0.61476975  0.25387394  1
  O  O358  1  0.23184213  0.61656829  0.74101848  1
  O  O359  1  0.74320476  0.11848912  0.26049362  1
  O  O360  1  0.76445139  0.11212474  0.74810613  1
  O  O361  1  0.75821482  0.62289212  0.26029462  1
  O  O362  1  0.76101848  0.62755466  0.75565928  1
  O  O363  1  0.38153073  0.11539048  0.36560066  1
  O  O364  1  0.37557582  0.12656448  0.86156153  1
  O  O365  1  0.37567961  0.61583474  0.37649561  1
  O  O366  1  0.36556450  0.60627930  0.87901319  1
  O  O367  1  0.86184465  0.12276121  0.37434943  1
  O  O368  1  0.89843212  0.11423748  0.85422995  1
  O  O369  1  0.86924252  0.61964763  0.36761158  1
  O  O370  1  0.86999247  0.62055630  0.86548993  1
  O  O371  1  0.12914421  0.38485656  0.13298488  1
  O  O372  1  0.13607495  0.37040882  0.63415110  1
  O  O373  1  0.12751875  0.87696065  0.13192535  1
  O  O374  1  0.13120168  0.86773527  0.63662990  1
  O  O375  1  0.63411998  0.38177173  0.13216648  1
  O  O376  1  0.64356965  0.36600569  0.62609595  1
  O  O377  1  0.62745027  0.87788696  0.13538308  1
  O  O378  1  0.61952894  0.86046165  0.63718757  1
  O  O379  1  0.12878866  0.26089914  0.25331079  1
  O  O380  1  0.12128064  0.25481911  0.75381212  1
  O  O381  1  0.11933392  0.75524886  0.25513097  1
  O  O382  1  0.11559098  0.75980325  0.75706338  1
  O  O383  1  0.62006311  0.26398062  0.24198957  1
  O  O384  1  0.62044899  0.23618474  0.75219080  1
  O  O385  1  0.61965042  0.75952299  0.25569568  1
  O  O386  1  0.60629464  0.75753946  0.75818066  1
  O  O387  1  0.38359441  0.24033275  0.25246462  1
  O  O388  1  0.37579916  0.24416003  0.74230090  1
  O  O389  1  0.37965769  0.75126903  0.24380801  1
  O  O390  1  0.37811861  0.75563844  0.74313945  1
  O  O391  1  0.88276853  0.26395113  0.24068489  1
  O  O392  1  0.88106374  0.23470773  0.73759522  1
  O  O393  1  0.87819900  0.73903963  0.24133764  1
  O  O394  1  0.87736497  0.74382500  0.74077146  1
  O  O395  1  0.36352329  0.48209542  0.48363102  1
  O  O396  1  0.38003659  0.49424537  1.01272844  1
  O  O397  1  0.37606876  1.00595949  0.48882390  1
  O  O398  1  0.37583329  0.99616898  1.00354110  1
  O  O399  1  0.88855612  0.50894316  0.49129738  1
  O  O400  1  0.88351044  0.49281333  0.99460094  1
  O  O401  1  0.88882931  0.99915060  0.50195139  1
  O  O402  1  0.87231562  0.99980415  1.00628260  1
  O  O403  1  0.12126728  0.01336697  -0.00150818  1
  O  O404  1  0.11420023  0.00810973  0.49716426  1
  O  O405  1  0.12384423  0.50479572  0.00194060  1
  O  O406  1  0.11965174  0.51061435  0.49496085  1
  O  O407  1  0.61036266  -0.01191659  0.01868410  1
  O  O408  1  0.62393100  0.01250832  0.49957121  1
  O  O409  1  0.61844625  0.49796492  0.01490895  1
  O  O410  1  0.62474341  0.51581156  0.52151739  1
  O  O411  1  0.36803620  0.36830249  0.13975903  1
  O  O412  1  0.37300814  0.36107331  0.61596477  1
  O  O413  1  0.36812556  0.87020854  0.11660159  1
  O  O414  1  0.35906139  0.86950016  0.62691193  1
  O  O415  1  0.86995842  0.38071781  0.12061230  1
  O  O416  1  0.87029530  0.35523088  0.62957607  1
  O  O417  1  0.86246575  0.86453819  0.12932525  1
  O  O418  1  0.87970584  0.85998865  0.62003467  1
  O  O419  1  0.12474143  0.12728726  0.38889769  1
  O  O420  1  0.11771359  0.13942704  0.87917145  1
  O  O421  1  0.12673570  0.63335917  0.38275310  1
  O  O422  1  0.12799131  0.63296604  0.87820388  1
  O  O423  1  0.62813491  0.12391301  0.38636375  1
  O  O424  1  0.63848149  0.07973508  0.88812623  1
  O  O425  1  0.63575882  0.62972546  0.36605786  1
  O  O426  1  0.64397870  0.61099217  0.86013817  1
