# generated using pymatgen
data_V85Zn86O256
_symmetry_space_group_name_H-M   'P 1'
_cell_length_a   16.92808930
_cell_length_b   16.92491299
_cell_length_c   16.92320965
_cell_angle_alpha   90.08112074
_cell_angle_beta   89.97505123
_cell_angle_gamma   89.91605529
_symmetry_Int_Tables_number   1
_chemical_formula_structural   V85Zn86O256
_chemical_formula_sum   'V85 Zn86 O256'
_cell_volume   4848.59799734
_cell_formula_units_Z   1
loop_
 _symmetry_equiv_pos_site_id
 _symmetry_equiv_pos_as_xyz
  1  'x, y, z'
loop_
 _atom_site_type_symbol
 _atom_site_label
 _atom_site_symmetry_multiplicity
 _atom_site_fract_x
 _atom_site_fract_y
 _atom_site_fract_z
 _atom_site_occupancy
  V  V0  1  0.25465468  0.25308820  0.00374864  1
  V  V1  1  0.87234744  0.37714541  0.00558605  1
  V  V2  1  -0.00156402  0.63067798  0.12859206  1
  V  V3  1  0.74565923  0.75632974  0.01014255  1
  V  V4  1  0.37481337  0.61590921  0.74917407  1
  V  V5  1  0.13002723  0.74517723  0.37066976  1
  V  V6  1  0.01893007  0.12687152  0.12348900  1
  V  V7  1  0.75112066  0.87522769  0.62568765  1
  V  V8  1  0.38218338  0.23516713  0.12730572  1
  V  V9  1  0.75027212  0.12519785  0.37147556  1
  V  V10  1  0.85744580  0.62339149  0.25031053  1
  V  V11  1  0.36122845  0.37067196  0.49944815  1
  V  V12  1  0.49982497  0.01169434  0.00668388  1
  V  V13  1  0.24991397  0.51247960  0.25181197  1
  V  V14  1  0.87282058  0.12305372  0.24436383  1
  V  V15  1  0.70667448  0.64655154  0.42964604  1
  V  V16  1  0.25048797  0.87095434  0.62399380  1
  V  V17  1  0.00038781  0.24792619  0.75423438  1
  V  V18  1  0.37296350  0.12463890  0.74780339  1
  V  V19  1  0.13085731  0.13740283  0.49578358  1
  V  V20  1  0.62613313  0.00168405  0.62487895  1
  V  V21  1  0.62186674  0.74951939  0.87393486  1
  V  V22  1  0.87137452  0.12654209  0.75479236  1
  V  V23  1  0.37689542  -0.00472798  0.37098307  1
  V  V24  1  0.50446562  -0.01728904  0.49545039  1
  V  V25  1  0.74791882  0.25593415  0.50269852  1
  V  V26  1  0.25478467  0.13702528  0.37495958  1
  V  V27  1  0.74915651  0.00409782  0.75687558  1
  V  V28  1  0.12814310  0.87826885  0.24408402  1
  V  V29  1  0.62889949  0.12594836  0.00109070  1
  V  V30  1  0.60567797  0.62552844  0.00147971  1
  V  V31  1  0.49967229  0.61512303  0.61093730  1
  V  V32  1  0.37332973  0.50339129  0.37999884  1
  V  V33  1  0.12669264  -0.00216007  0.62285463  1
  V  V34  1  0.74626660  0.62693326  0.87658627  1
  V  V35  1  0.38039227  0.74771172  0.12721416  1
  V  V36  1  0.62243587  0.50257069  0.13303367  1
  V  V37  1  -0.00059085  0.61810531  0.62215740  1
  V  V38  1  0.12706792  0.37374235  0.25359768  1
  V  V39  1  0.50383096  0.76407972  0.26071274  1
  V  V40  1  0.12102063  0.61824526  0.49382529  1
  V  V41  1  0.49754727  0.37135368  0.88373929  1
  V  V42  1  0.24929952  0.74176646  0.49718120  1
  V  V43  1  0.49878709  0.24939334  0.74818978  1
  V  V44  1  0.49829760  0.12665392  0.61734564  1
  V  V45  1  0.62480866  0.87365803  0.74762679  1
  V  V46  1  0.87080568  0.25658206  0.62708214  1
  V  V47  1  0.50110767  0.23936337  0.25112927  1
  V  V48  1  0.88074024  0.37776101  0.49432293  1
  V  V49  1  0.24560400  0.12316070  0.88074248  1
  V  V50  1  0.00093021  0.86769641  0.87945673  1
  V  V51  1  0.87430578  0.00268524  0.88065422  1
  V  V52  1  0.87289314  0.50054295  0.87647758  1
  V  V53  1  0.00055034  0.12381004  0.62525687  1
  V  V54  1  0.49778012  0.87872284  0.87316427  1
  V  V55  1  0.62158575  0.49647832  0.61790330  1
  V  V56  1  0.74998150  0.24903997  -0.00185168  1
  V  V57  1  0.74751096  0.49464213  0.74797542  1
  V  V58  1  0.62553649  0.37328955  0.74922441  1
  V  V59  1  0.00095479  0.50161348  0.00112626  1
  V  V60  1  0.00471601  0.87428562  0.37685618  1
  V  V61  1  0.87481316  0.87368377  0.50082137  1
  V  V62  1  0.12607740  0.50499726  0.12170537  1
  V  V63  1  0.25055727  -0.00106595  0.74988191  1
  V  V64  1  0.26421550  0.37979264  0.12356398  1
  V  V65  1  0.50129504  0.74688880  0.74656114  1
  V  V66  1  0.12609352  0.49178615  0.62173467  1
  V  V67  1  0.12500958  0.86499886  0.75343906  1
  V  V68  1  0.87615112  0.74834652  0.62321814  1
  V  V69  1  0.00335318  0.00081303  0.49995220  1
  V  V70  1  0.37833604  0.74600901  0.62283470  1
  V  V71  1  0.25034807  0.00396486  0.24648304  1
  V  V72  1  0.87107927  0.62659213  0.75147999  1
  V  V73  1  0.00163092  0.37424922  0.87720133  1
  V  V74  1  0.87574377  -0.00233015  0.36896454  1
  V  V75  1  0.62866069  -0.00601342  0.13239489  1
  V  V76  1  0.12467126  0.24884193  0.88555078  1
  V  V77  1  0.35986247  0.25159190  0.61904329  1
  V  V78  1  0.37168222  0.49237568  0.88534133  1
  V  V79  1  0.25036009  0.48738219  0.74606100  1
  V  V80  1  0.01892571  0.00531857  0.00183872  1
  V  V81  1  0.00415219  0.24992654  0.25831013  1
  V  V82  1  0.37796625  0.87795310  0.00567105  1
  V  V83  1  0.50354443  0.37890186  0.37954403  1
  V  V84  1  0.38576065  0.62373994  0.24815081  1
  Zn  Zn85  1  0.37564243  0.00390807  0.87638783  1
  Zn  Zn86  1  0.00728946  0.74045257  0.75942978  1
  Zn  Zn87  1  0.86870636  0.88199972  0.00903999  1
  Zn  Zn88  1  0.49304227  0.49829488  0.00617976  1
  Zn  Zn89  1  0.63106577  0.87791545  0.27098145  1
  Zn  Zn90  1  0.62582825  0.12788773  0.49765471  1
  Zn  Zn91  1  0.79066289  -0.06915854  0.19074823  1
  Zn  Zn92  1  0.86980360  0.51318194  0.37725947  1
  Zn  Zn93  1  0.75051045  0.38147299  0.13411567  1
  Zn  Zn94  1  0.24026360  0.62918991  0.87380515  1
  Zn  Zn95  1  0.12782416  0.36954375  0.74615451  1
  Zn  Zn96  1  0.87088550  0.76110487  0.13059850  1
  Zn  Zn97  1  0.37789193  0.86865347  0.49568841  1
  Zn  Zn98  1  0.24876882  0.87825363  0.12295102  1
  Zn  Zn99  1  0.87574764  0.25185311  0.12685635  1
  Zn  Zn100  1  0.24638587  0.74984664  -0.00344527  1
  Zn  Zn101  1  0.62809836  0.24337232  0.87414394  1
  Zn  Zn102  1  -0.00168217  0.75037358  0.24955229  1
  Zn  Zn103  1  0.62738745  0.25305231  0.37370734  1
  Zn  Zn104  1  0.63121350  0.37759140  0.25323469  1
  Zn  Zn105  1  0.00545805  0.38163265  0.37831010  1
  Zn  Zn106  1  0.11711772  0.64756576  -0.01796962  1
  Zn  Zn107  1  0.19326112  0.19052925  0.19260987  1
  Zn  Zn108  1  0.18395348  0.18547749  0.69058107  1
  Zn  Zn109  1  0.19067136  0.69057970  0.17972908  1
  Zn  Zn110  1  0.18938685  0.67940470  0.68743803  1
  Zn  Zn111  1  0.68624231  0.18817435  0.18139170  1
  Zn  Zn112  1  0.68727980  0.18820615  0.68675693  1
  Zn  Zn113  1  0.67529714  0.68694849  0.18688432  1
  Zn  Zn114  1  0.67425429  0.69897817  0.59412430  1
  Zn  Zn115  1  0.31652182  0.31739265  0.30723413  1
  Zn  Zn116  1  0.31356525  0.30996593  0.81230260  1
  Zn  Zn117  1  0.31199446  0.81296534  0.31191874  1
  Zn  Zn118  1  0.31461651  0.81166936  0.81213948  1
  Zn  Zn119  1  0.81150919  0.31049446  0.31029664  1
  Zn  Zn120  1  0.81084480  0.31339145  0.81789075  1
  Zn  Zn121  1  0.80906699  0.79686993  0.32030995  1
  Zn  Zn122  1  0.81295358  0.81327785  0.81512933  1
  Zn  Zn123  1  0.18916040  0.43876211  0.43428035  1
  Zn  Zn124  1  0.18857314  0.43817331  0.93813538  1
  Zn  Zn125  1  0.19221807  0.93666447  0.43518995  1
  Zn  Zn126  1  0.18978042  0.92989190  0.93537113  1
  Zn  Zn127  1  0.69522674  0.44665159  0.43067428  1
  Zn  Zn128  1  0.68316409  0.43829164  0.94022763  1
  Zn  Zn129  1  0.69400662  0.94113970  0.43602887  1
  Zn  Zn130  1  0.68403891  0.94001471  0.93796812  1
  Zn  Zn131  1  0.30863750  0.06429832  0.06216946  1
  Zn  Zn132  1  0.31420165  0.06039503  0.55641596  1
  Zn  Zn133  1  0.30876485  0.57176062  0.06146840  1
  Zn  Zn134  1  0.30896023  0.55736045  0.56000037  1
  Zn  Zn135  1  0.81098028  0.06885934  0.06301769  1
  Zn  Zn136  1  0.81370928  0.06525020  0.56178894  1
  Zn  Zn137  1  0.80684696  0.56803422  0.06590284  1
  Zn  Zn138  1  0.81116245  0.55166473  0.56710365  1
  Zn  Zn139  1  0.44555221  0.43719424  0.19145989  1
  Zn  Zn140  1  0.43723405  0.43158700  0.68533653  1
  Zn  Zn141  1  0.43968702  0.94342465  0.18770870  1
  Zn  Zn142  1  0.43668020  0.93748640  0.68279159  1
  Zn  Zn143  1  0.93708551  0.44271870  0.19440755  1
  Zn  Zn144  1  0.93903236  0.43615745  0.68792453  1
  Zn  Zn145  1  0.95380601  0.93974007  0.18467879  1
  Zn  Zn146  1  0.94010985  0.93711606  0.69195995  1
  Zn  Zn147  1  0.06714587  0.06535003  0.31349171  1
  Zn  Zn148  1  0.06437756  0.05944193  0.81408657  1
  Zn  Zn149  1  0.05383539  0.55768795  0.31497430  1
  Zn  Zn150  1  0.06356869  0.55904639  0.81106373  1
  Zn  Zn151  1  0.56338379  0.06180583  0.31499033  1
  Zn  Zn152  1  0.56201513  0.06552644  0.81471714  1
  Zn  Zn153  1  0.55626198  0.56119654  0.31278898  1
  Zn  Zn154  1  0.55816326  0.55954767  0.81330388  1
  Zn  Zn155  1  0.43545394  0.18801991  0.43450559  1
  Zn  Zn156  1  0.43400294  0.19017755  0.93849316  1
  Zn  Zn157  1  0.43482636  0.68118522  0.43384966  1
  Zn  Zn158  1  0.41320795  0.69568977  0.92555654  1
  Zn  Zn159  1  0.93769069  0.18823967  0.43634325  1
  Zn  Zn160  1  0.93602198  0.18574662  0.94184024  1
  Zn  Zn161  1  0.93916514  0.68760827  0.43585800  1
  Zn  Zn162  1  0.93169723  0.68886008  0.94535835  1
  Zn  Zn163  1  0.06442690  0.31472870  0.06891295  1
  Zn  Zn164  1  0.05963332  0.30954354  0.56404458  1
  Zn  Zn165  1  0.06134934  0.81509500  0.06193892  1
  Zn  Zn166  1  0.06160786  0.80639320  0.56488591  1
  Zn  Zn167  1  0.56412629  0.31351818  0.06742714  1
  Zn  Zn168  1  0.55944289  0.31512893  0.56054495  1
  Zn  Zn169  1  0.55809653  0.81479701  0.06714983  1
  Zn  Zn170  1  0.57686765  0.79907998  0.43850548  1
  O  O171  1  0.11821980  0.12936920  0.12808247  1
  O  O172  1  0.12081494  0.11722886  0.61861238  1
  O  O173  1  0.11960206  0.61535812  0.12283080  1
  O  O174  1  0.11683505  0.61607598  0.61930736  1
  O  O175  1  0.62576172  0.11392390  0.11146609  1
  O  O176  1  0.61454044  0.11961384  0.62544497  1
  O  O177  1  0.62119866  0.61588001  0.11332831  1
  O  O178  1  0.60511579  0.61463120  0.63407603  1
  O  O179  1  0.37984593  0.37937100  0.38291963  1
  O  O180  1  0.38320421  0.38139384  0.87003900  1
  O  O181  1  0.36931589  0.89034342  0.37879910  1
  O  O182  1  0.38698514  0.88053548  0.88018299  1
  O  O183  1  0.87318837  0.37425928  0.38905408  1
  O  O184  1  0.88106419  0.38040761  0.88624496  1
  O  O185  1  0.88336869  0.87490030  0.38589486  1
  O  O186  1  0.88390082  0.88699443  0.87508411  1
  O  O187  1  0.26139860  0.00579839  0.37027134  1
  O  O188  1  0.25149388  0.00808198  0.87047607  1
  O  O189  1  0.26132010  0.49463391  0.36244689  1
  O  O190  1  0.25773421  0.49738647  0.86581706  1
  O  O191  1  0.76392093  0.01691289  0.38396182  1
  O  O192  1  0.75722008  -0.00434284  0.86436688  1
  O  O193  1  0.75579561  0.53953798  0.40707315  1
  O  O194  1  0.75331932  0.50644432  0.86989938  1
  O  O195  1  0.24472490  0.49579942  0.12899552  1
  O  O196  1  0.23878049  0.50286731  0.63335460  1
  O  O197  1  0.25644871  1.00081998  0.14173007  1
  O  O198  1  0.24707053  0.99179507  0.62836423  1
  O  O199  1  0.72866906  0.49989045  0.11216873  1
  O  O200  1  0.73947800  0.49863772  0.64241536  1
  O  O201  1  0.73531315  1.00296075  0.12099229  1
  O  O202  1  0.75106646  0.99431823  0.63568168  1
  O  O203  1  0.00867057  0.36615169  0.24581724  1
  O  O204  1  -0.00106648  0.36527254  0.75994509  1
  O  O205  1  0.01124125  0.87393255  0.25959387  1
  O  O206  1  0.00869094  0.87270839  0.75988200  1
  O  O207  1  0.50253592  0.36665276  0.26452731  1
  O  O208  1  0.50418757  0.36590808  0.75715027  1
  O  O209  1  0.49832796  0.86559209  0.25329032  1
  O  O210  1  0.50265702  0.87184315  0.75477013  1
  O  O211  1  0.49871835  0.14045967  0.25655063  1
  O  O212  1  0.49331598  0.12796500  0.73981769  1
  O  O213  1  0.48853363  0.63667867  0.25277902  1
  O  O214  1  0.48809170  0.62605479  0.74430656  1
  O  O215  1  0.99872546  0.13043817  0.24314138  1
  O  O216  1  0.99398687  0.12829253  0.74666246  1
  O  O217  1  1.00446404  0.62727090  0.23465284  1
  O  O218  1  0.98598825  0.62261348  0.74558286  1
  O  O219  1  0.36962354  0.25009075  0.01570326  1
  O  O220  1  0.37539870  0.25985048  0.50548492  1
  O  O221  1  0.38674807  0.76333846  0.01492078  1
  O  O222  1  0.36692540  0.74689670  0.50475704  1
  O  O223  1  0.86950125  0.25945398  0.00150568  1
  O  O224  1  0.87046318  0.25372264  0.50925698  1
  O  O225  1  0.85772361  0.75498767  0.00538337  1
  O  O226  1  0.88378484  0.75843591  0.51485145  1
  O  O227  1  0.12385550  0.23621150  0.50509937  1
  O  O228  1  0.13139108  0.25326140  0.99125877  1
  O  O229  1  0.13064803  0.73993167  0.49508806  1
  O  O230  1  0.13226898  0.76171981  0.99682307  1
  O  O231  1  0.63428574  0.24926120  0.50007560  1
  O  O232  1  0.63110340  0.24278841  1.00239016  1
  O  O233  1  0.63658464  0.72123418  0.48953901  1
  O  O234  1  0.62749490  0.74650915  0.99554393  1
  O  O235  1  0.48948210  0.25421589  0.13462432  1
  O  O236  1  0.49284880  0.24169064  0.62937900  1
  O  O237  1  0.48870987  0.75595482  0.14075477  1
  O  O238  1  0.48723266  0.73344133  0.62804287  1
  O  O239  1  0.99818275  0.24120213  0.13029774  1
  O  O240  1  0.99295201  0.24166786  0.63432479  1
  O  O241  1  0.99542511  0.74394096  0.12524568  1
  O  O242  1  0.99350370  0.73780126  0.63246222  1
  O  O243  1  -0.00004500  0.25224739  0.36138189  1
  O  O244  1  0.00757851  0.25195705  0.87533833  1
  O  O245  1  0.01424464  0.75763455  0.37536198  1
  O  O246  1  -0.01010068  0.76439544  0.87749195  1
  O  O247  1  0.50045266  0.25559300  0.36467505  1
  O  O248  1  0.49889009  0.25443626  0.86610094  1
  O  O249  1  0.49280564  0.75255456  0.36592897  1
  O  O250  1  0.49978666  0.75933648  0.86659800  1
  O  O251  1  0.24183516  0.12077712  0.48855224  1
  O  O252  1  0.25260115  0.13838977  0.99307167  1
  O  O253  1  0.23981439  0.63533500  0.50507200  1
  O  O254  1  0.23866038  0.62758540  0.99538053  1
  O  O255  1  0.75289311  0.13657307  0.49358128  1
  O  O256  1  0.74297516  0.13580231  1.00004058  1
  O  O257  1  0.74530967  0.63232809  0.53023421  1
  O  O258  1  0.74127857  0.63858141  0.99260801  1
  O  O259  1  0.24561139  0.36267533  0.00903313  1
  O  O260  1  0.26190094  0.37073833  0.49419796  1
  O  O261  1  0.26773715  0.87869053  0.00021163  1
  O  O262  1  0.24859456  0.86019127  0.50808294  1
  O  O263  1  0.75856743  0.37147031  0.00093353  1
  O  O264  1  0.76180727  0.36161005  0.49641605  1
  O  O265  1  0.74793542  0.86003560  -0.00942698  1
  O  O266  1  0.76727279  0.88462930  0.51058553  1
  O  O267  1  0.13334799  0.49815459  0.24169096  1
  O  O268  1  0.13303012  0.49479535  0.74048401  1
  O  O269  1  0.13708792  0.99007878  0.26073771  1
  O  O270  1  0.13127910  0.99048779  0.74288467  1
  O  O271  1  0.62033543  0.50329465  0.23607342  1
  O  O272  1  0.63027115  0.49194329  0.74876531  1
  O  O273  1  0.61773488  0.99937734  0.23598651  1
  O  O274  1  0.63276476  0.99723031  0.74707571  1
  O  O275  1  0.37054761  -0.00056946  0.26374459  1
  O  O276  1  0.36811774  0.00629970  0.74937383  1
  O  O277  1  0.37017029  0.50766523  0.25302926  1
  O  O278  1  0.36797044  0.50022830  0.75117505  1
  O  O279  1  0.87825065  0.00545280  0.25354790  1
  O  O280  1  0.87002661  0.00708278  0.75846747  1
  O  O281  1  0.87114860  0.51811899  0.24807258  1
  O  O282  1  0.86702878  0.50258674  0.75522166  1
  O  O283  1  0.12556505  0.38082280  0.35861813  1
  O  O284  1  0.11861336  0.36648888  0.87368545  1
  O  O285  1  0.12246453  0.86671243  0.37065046  1
  O  O286  1  0.11494833  0.88072542  0.86424020  1
  O  O287  1  0.61767801  0.37744559  0.37614924  1
  O  O288  1  0.61504034  0.37300676  0.86529764  1
  O  O289  1  0.61231786  0.88992984  0.38429670  1
  O  O290  1  0.61313590  0.87240132  0.86980972  1
  O  O291  1  0.37406690  0.13713128  0.12714134  1
  O  O292  1  0.38011906  0.13047155  0.62608523  1
  O  O293  1  0.37370911  0.63498526  0.13424990  1
  O  O294  1  0.38100081  0.62354181  0.62875858  1
  O  O295  1  0.88381548  0.12353073  0.13598097  1
  O  O296  1  0.88139393  0.13094293  0.63587238  1
  O  O297  1  0.88121814  0.62863548  0.13275065  1
  O  O298  1  0.88055175  0.62971616  0.63193043  1
  O  O299  1  0.26177172  0.25649758  0.12230439  1
  O  O300  1  0.26086368  0.24515378  0.63008292  1
  O  O301  1  0.26608326  0.75781754  0.12389531  1
  O  O302  1  0.26010781  0.74888464  0.62005887  1
  O  O303  1  0.75476832  0.25517393  0.11274264  1
  O  O304  1  0.76033115  0.24421407  0.61759307  1
  O  O305  1  0.74273466  0.74981069  0.11225404  1
  O  O306  1  0.75957839  0.76831787  0.63304558  1
  O  O307  1  0.25917868  0.23597542  0.36768252  1
  O  O308  1  0.24508566  0.24597863  0.88375413  1
  O  O309  1  0.23927234  0.75245883  0.38318248  1
  O  O310  1  0.29533262  0.73387295  0.88834631  1
  O  O311  1  0.75195109  0.23938132  0.38425649  1
  O  O312  1  0.74646146  0.25517884  0.89098486  1
  O  O313  1  0.75959605  0.72074359  0.38813235  1
  O  O314  1  0.74128778  0.74487144  0.87864419  1
  O  O315  1  -0.00061545  0.11349371  0.00649988  1
  O  O316  1  0.00762128  0.11967082  0.50348413  1
  O  O317  1  0.00015326  0.62018275  0.01001524  1
  O  O318  1  0.00893957  0.62899141  0.51006734  1
  O  O319  1  0.50284698  0.11563466  -0.00369735  1
  O  O320  1  0.49945370  0.12178663  0.50968484  1
  O  O321  1  0.50523618  0.62976024  -0.01183122  1
  O  O322  1  0.49223643  0.61878829  0.51251313  1
  O  O323  1  0.48951582  0.36733993  0.48395889  1
  O  O324  1  0.50370348  0.37204122  0.98641234  1
  O  O325  1  0.49999932  0.88159901  0.50445063  1
  O  O326  1  0.49368071  0.88486600  0.99288607  1
  O  O327  1  0.98478955  0.36245264  0.49627405  1
  O  O328  1  0.99334192  0.38011680  0.99648034  1
  O  O329  1  0.99437283  0.87973683  0.49889972  1
  O  O330  1  0.99569511  0.89140763  0.99536688  1
  O  O331  1  0.48623182  0.48959716  0.37005192  1
  O  O332  1  0.48950973  0.48739550  0.87535838  1
  O  O333  1  0.48539017  1.01106805  0.38400481  1
  O  O334  1  0.49821660  0.99345004  0.88171194  1
  O  O335  1  0.98525444  0.49306450  0.37186343  1
  O  O336  1  0.99262434  0.49334293  0.87995767  1
  O  O337  1  0.99582427  0.99416030  0.38063578  1
  O  O338  1  0.99429482  0.99684169  0.88499915  1
  O  O339  1  0.00430401  0.00970075  0.10930953  1
  O  O340  1  0.00532522  0.00497424  0.62073783  1
  O  O341  1  0.00823871  0.50643115  0.12053689  1
  O  O342  1  0.00653287  0.51106567  0.63053674  1
  O  O343  1  0.51000195  0.00003468  0.11550786  1
  O  O344  1  0.50321791  0.00638150  0.61522282  1
  O  O345  1  0.51195834  0.49693822  0.12004363  1
  O  O346  1  0.50444508  0.50815554  0.63042076  1
  O  O347  1  0.24528101  0.38404460  0.24061027  1
  O  O348  1  0.24907239  0.38314056  0.75005146  1
  O  O349  1  0.24399261  0.88433119  0.25098651  1
  O  O350  1  0.24511451  0.87772381  0.74672135  1
  O  O351  1  0.74591966  0.37308204  0.24846490  1
  O  O352  1  0.73985888  0.38248684  0.75810095  1
  O  O353  1  0.74522561  0.87342425  0.27193244  1
  O  O354  1  0.74788472  0.88474822  0.74562892  1
  O  O355  1  0.24440802  0.11748793  0.26535440  1
  O  O356  1  0.25404644  0.11848368  0.75671116  1
  O  O357  1  0.25680258  0.61561457  0.24408846  1
  O  O358  1  0.26272312  0.61378846  0.74940538  1
  O  O359  1  0.76132753  0.13329754  0.25685706  1
  O  O360  1  0.75897334  0.11646841  0.74624820  1
  O  O361  1  0.75870382  0.63148768  0.24328856  1
  O  O362  1  0.76276517  0.61512650  0.75805419  1
  O  O363  1  0.36111126  0.11370177  0.38397899  1
  O  O364  1  0.36234192  0.12682257  0.86834344  1
  O  O365  1  0.37361592  0.61258371  0.36590695  1
  O  O366  1  0.38086421  0.60459950  0.86108147  1
  O  O367  1  0.87447012  0.11976994  0.36298788  1
  O  O368  1  0.88057740  0.11915745  0.86265086  1
  O  O369  1  0.88723767  0.62976275  0.35328165  1
  O  O370  1  0.86972160  0.62092796  0.87022710  1
  O  O371  1  0.13350162  0.38750016  0.13261304  1
  O  O372  1  0.11635034  0.38752821  0.62471941  1
  O  O373  1  0.12607925  0.87507519  0.14047540  1
  O  O374  1  0.12991271  0.87794570  0.63133985  1
  O  O375  1  0.62611276  0.38938186  0.12572958  1
  O  O376  1  0.61362771  0.38065415  0.64148354  1
  O  O377  1  0.62359473  0.89144687  0.12439700  1
  O  O378  1  0.63820682  0.88429402  0.63228252  1
  O  O379  1  0.11834657  0.26228465  0.24234601  1
  O  O380  1  0.11879871  0.25026305  0.76197004  1
  O  O381  1  0.12828520  0.75658359  0.25717272  1
  O  O382  1  0.12651932  0.76089104  0.74323468  1
  O  O383  1  0.61120606  0.25154928  0.24783909  1
  O  O384  1  0.61887971  0.25523346  0.75185162  1
  O  O385  1  0.60707019  0.75540949  0.24841146  1
  O  O386  1  0.61544092  0.75871727  0.75629426  1
  O  O387  1  0.38564099  0.25511059  0.23670767  1
  O  O388  1  0.37986580  0.24397534  0.74088554  1
  O  O389  1  0.38058753  0.74460712  0.24793926  1
  O  O390  1  0.37968369  0.73872275  0.73916984  1
  O  O391  1  0.88645284  0.24111411  0.24763248  1
  O  O392  1  0.87666840  0.24407960  0.74678232  1
  O  O393  1  0.87915550  0.73960239  0.24628671  1
  O  O394  1  0.87558523  0.74180157  0.74219082  1
  O  O395  1  0.36839186  0.48680607  0.49115995  1
  O  O396  1  0.37331515  0.50275346  0.98869145  1
  O  O397  1  0.38424429  0.99339832  0.49226598  1
  O  O398  1  0.38345468  0.99733603  1.00092727  1
  O  O399  1  0.87655131  0.47861465  0.51113457  1
  O  O400  1  0.87944543  0.49659110  0.99628566  1
  O  O401  1  0.88568250  0.99433444  0.49621907  1
  O  O402  1  0.87401329  1.00385322  0.98795623  1
  O  O403  1  0.11707180  0.00075674  -0.00592368  1
  O  O404  1  0.12038248  0.00315077  0.50506449  1
  O  O405  1  0.11576117  0.49657685  0.00808154  1
  O  O406  1  0.13197574  0.51005670  0.50535129  1
  O  O407  1  0.61765664  0.00521235  0.00591689  1
  O  O408  1  0.61871528  0.00633703  0.50879455  1
  O  O409  1  0.61584866  0.51214405  -0.00060798  1
  O  O410  1  0.62883759  0.48541613  0.51969410  1
  O  O411  1  0.36578335  0.37512426  0.12861245  1
  O  O412  1  0.37929775  0.36680738  0.60840852  1
  O  O413  1  0.37614427  0.87297919  0.11895852  1
  O  O414  1  0.36995257  0.86118481  0.62315804  1
  O  O415  1  0.87685397  0.37880035  0.11375107  1
  O  O416  1  0.88018854  0.36083476  0.62036368  1
  O  O417  1  0.87364074  0.88048140  0.12666324  1
  O  O418  1  0.87421182  0.86873323  0.62259997  1
  O  O419  1  0.13890489  0.12195262  0.38559571  1
  O  O420  1  0.13753129  0.13267059  0.87023791  1
  O  O421  1  0.11909820  0.63153368  0.38295194  1
  O  O422  1  0.12547022  0.62978341  0.86784894  1
  O  O423  1  0.63675398  0.12779228  0.37624218  1
  O  O424  1  0.62045555  0.12521430  0.89207752  1
  O  O425  1  0.62464594  0.62231017  0.37473506  1
  O  O426  1  0.62744707  0.63083024  0.87856875  1
