# generated using pymatgen
data_V85Zn86O256
_symmetry_space_group_name_H-M   'P 1'
_cell_length_a   16.93890960
_cell_length_b   16.96409861
_cell_length_c   16.94423691
_cell_angle_alpha   89.96782822
_cell_angle_beta   89.91923674
_cell_angle_gamma   89.91903618
_symmetry_Int_Tables_number   1
_chemical_formula_structural   V85Zn86O256
_chemical_formula_sum   'V85 Zn86 O256'
_cell_volume   4868.97248733
_cell_formula_units_Z   1
loop_
 _symmetry_equiv_pos_site_id
 _symmetry_equiv_pos_as_xyz
  1  'x, y, z'
loop_
 _atom_site_type_symbol
 _atom_site_label
 _atom_site_symmetry_multiplicity
 _atom_site_fract_x
 _atom_site_fract_y
 _atom_site_fract_z
 _atom_site_occupancy
  V  V0  1  0.62270307  0.75130974  0.37736203  1
  V  V1  1  0.89067605  0.49794213  0.36124441  1
  V  V2  1  0.00557548  0.76119890  0.25079111  1
  V  V3  1  0.24613659  0.49252438  0.24724965  1
  V  V4  1  0.11132143  0.12038990  -0.00116151  1
  V  V5  1  0.24958267  0.50219734  0.74892819  1
  V  V6  1  0.24697294  0.87588710  0.12900307  1
  V  V7  1  0.11858622  0.00195369  0.62925191  1
  V  V8  1  0.12300796  0.76600018  0.37187543  1
  V  V9  1  0.24169070  0.62633658  0.87808890  1
  V  V10  1  -0.00040467  -0.00724893  0.49378866  1
  V  V11  1  0.88424406  0.24227986  0.61857093  1
  V  V12  1  0.37295059  0.63321700  0.74757731  1
  V  V13  1  0.62546568  0.62512127  0.49983251  1
  V  V14  1  0.37783015  0.12180266  0.25626102  1
  V  V15  1  0.00948978  0.62576797  0.11759249  1
  V  V16  1  0.24389980  0.74693806  0.00079213  1
  V  V17  1  0.12339605  0.37419718  0.74667451  1
  V  V18  1  0.12243969  0.87697334  0.76072248  1
  V  V19  1  0.89000219  0.88618325  -0.00714186  1
  V  V20  1  0.87694057  0.00867276  0.86196452  1
  V  V21  1  0.50039661  0.36536747  0.86662748  1
  V  V22  1  0.87290019  0.62669341  0.75877873  1
  V  V23  1  0.25692612  0.87061794  0.62886465  1
  V  V24  1  0.24604288  -0.00411425  0.25358581  1
  V  V25  1  0.37048022  0.37362323  0.00185144  1
  V  V26  1  0.13187605  0.49466067  0.11070541  1
  V  V27  1  -0.00611766  0.75763796  0.75710708  1
  V  V28  1  0.87480887  0.37757046  0.49573088  1
  V  V29  1  0.25591833  0.24217339  0.50302387  1
  V  V30  1  0.25669451  0.37124006  0.62458165  1
  V  V31  1  0.37416096  0.50143502  0.87479122  1
  V  V32  1  0.75287627  0.37419515  0.62458298  1
  V  V33  1  0.74567493  0.75661783  -0.01085725  1
  V  V34  1  0.37385274  0.75013135  0.12453827  1
  V  V35  1  0.50168567  0.12427777  0.12260038  1
  V  V36  1  0.37820676  0.14059603  0.74940154  1
  V  V37  1  0.86780575  -0.00851118  0.37924842  1
  V  V38  1  -0.00336816  0.50601379  0.50377508  1
  V  V39  1  0.49528557  0.13341171  0.62312053  1
  V  V40  1  0.75379678  0.49813933  0.75891258  1
  V  V41  1  0.49872684  0.50036149  -0.00135692  1
  V  V42  1  0.49669051  0.63153715  0.62440407  1
  V  V43  1  0.62692491  0.50100826  0.62608856  1
  V  V44  1  0.62435951  0.87667966  0.25476093  1
  V  V45  1  0.49803412  0.75627698  0.25261090  1
  V  V46  1  0.24680389  0.24903686  0.00340651  1
  V  V47  1  0.75968390  0.25036147  -0.00762965  1
  V  V48  1  0.25310920  0.11911090  0.87798448  1
  V  V49  1  0.37513775  0.62326860  0.24992127  1
  V  V50  1  0.12326947  0.62709834  0.50114791  1
  V  V51  1  -0.00017214  0.13193645  0.14109357  1
  V  V52  1  0.25487684  0.74760630  0.50618668  1
  V  V53  1  0.37360237  0.87853167  -0.00645316  1
  V  V54  1  0.62406079  0.49571049  0.12014564  1
  V  V55  1  0.74952904  0.87872681  0.12388448  1
  V  V56  1  0.75516148  0.86978718  0.61857169  1
  V  V57  1  0.75117055  0.62438881  0.37210950  1
  V  V58  1  -0.01062725  0.63656776  0.62835744  1
  V  V59  1  0.74768464  0.50019115  0.24598346  1
  V  V60  1  0.62263779  0.63056763  -0.00774916  1
  V  V61  1  0.74542600  0.24466670  0.48720276  1
  V  V62  1  0.11932029  0.12387473  0.50211673  1
  V  V63  1  0.24266568  0.62314249  0.37373594  1
  V  V64  1  0.50377719  0.87498674  0.87564701  1
  V  V65  1  0.62373969  -0.00039667  0.62869327  1
  V  V66  1  0.26072473  -0.00107064  0.75198465  1
  V  V67  1  0.37192337  0.25385048  0.12765901  1
  V  V68  1  0.86617730  0.13278312  0.26093783  1
  V  V69  1  0.50910060  0.37565596  0.37256368  1
  V  V70  1  0.49516065  -0.01201836  0.49708289  1
  V  V71  1  -0.01793130  0.50003234  -0.00568932  1
  V  V72  1  0.49804795  0.50039429  0.49966821  1
  V  V73  1  -0.01260897  0.37784288  0.87300779  1
  V  V74  1  0.87585087  0.63043249  0.24414110  1
  V  V75  1  0.50589653  0.75009180  0.75562286  1
  V  V76  1  0.87494809  0.75335458  0.12122378  1
  V  V77  1  0.00185798  0.23962229  0.74076872  1
  V  V78  1  0.49885403  0.00168145  -0.00447773  1
  V  V79  1  0.12255644  0.25000337  0.87360128  1
  V  V80  1  0.11544018  -0.00511386  0.12620316  1
  V  V81  1  0.51190607  0.25064124  0.24926383  1
  V  V82  1  0.38068173  0.36257277  0.50172849  1
  V  V83  1  0.12477546  0.50227111  0.62602814  1
  V  V84  1  0.63546688  0.87612179  0.75521992  1
  Zn  Zn85  1  0.12379627  0.24828771  0.36366162  1
  Zn  Zn86  1  0.37310823  0.49877464  0.37655041  1
  Zn  Zn87  1  0.63484970  0.11833958  0.48855157  1
  Zn  Zn88  1  0.18890460  0.33248609  0.18935012  1
  Zn  Zn89  1  0.76128784  0.74363807  0.50350286  1
  Zn  Zn90  1  0.63205708  0.37009439  0.24777848  1
  Zn  Zn91  1  0.74680003  0.00424036  0.25474869  1
  Zn  Zn92  1  0.25522155  0.12052446  0.38079043  1
  Zn  Zn93  1  0.88703571  0.86283383  0.50036448  1
  Zn  Zn94  1  0.63353625  0.12444639  -0.00634736  1
  Zn  Zn95  1  0.37922738  -0.02250911  0.37029197  1
  Zn  Zn96  1  0.11734677  0.75194386  0.88185579  1
  Zn  Zn97  1  0.62453124  0.00115215  0.12608205  1
  Zn  Zn98  1  0.74779477  0.62430237  0.87560186  1
  Zn  Zn99  1  0.84554485  0.13081822  0.75931672  1
  Zn  Zn100  1  0.63218718  0.23263900  0.86569912  1
  Zn  Zn101  1  0.77317873  0.38080258  0.11363850  1
  Zn  Zn102  1  0.37942817  0.86322942  0.49936841  1
  Zn  Zn103  1  0.62019355  0.36922811  0.74692344  1
  Zn  Zn104  1  0.50065367  0.62637092  0.12389774  1
  Zn  Zn105  1  0.00648433  0.35914632  0.35852782  1
  Zn  Zn106  1  0.87897964  0.25620373  0.12403881  1
  Zn  Zn107  1  0.18790208  0.17262732  0.19029204  1
  Zn  Zn108  1  0.18968696  0.18678275  0.68427259  1
  Zn  Zn109  1  0.18523741  0.68502975  0.18870588  1
  Zn  Zn110  1  0.18051801  0.69022332  0.69105487  1
  Zn  Zn111  1  0.69366395  0.18934933  0.17324510  1
  Zn  Zn112  1  0.68051312  0.18890947  0.68698813  1
  Zn  Zn113  1  0.68481091  0.68903337  0.18039557  1
  Zn  Zn114  1  0.68688849  0.68931326  0.69016865  1
  Zn  Zn115  1  0.32175112  0.30799502  0.32185373  1
  Zn  Zn116  1  0.30962302  0.31197232  0.81621915  1
  Zn  Zn117  1  0.30909282  0.81062334  0.31553335  1
  Zn  Zn118  1  0.31334780  0.81114419  0.81397219  1
  Zn  Zn119  1  0.81408227  0.31562273  0.30909864  1
  Zn  Zn120  1  0.81186034  0.30894874  0.80846633  1
  Zn  Zn121  1  0.81023451  0.81296595  0.31409643  1
  Zn  Zn122  1  0.81660483  0.81667408  0.81381890  1
  Zn  Zn123  1  0.18835772  0.43563390  0.43688691  1
  Zn  Zn124  1  0.18550619  0.43470704  0.93472816  1
  Zn  Zn125  1  0.19330691  0.93815550  0.44174450  1
  Zn  Zn126  1  0.18593593  0.94014638  0.94122748  1
  Zn  Zn127  1  0.69080021  0.43990445  0.43467527  1
  Zn  Zn128  1  0.68697992  0.43009802  0.93827521  1
  Zn  Zn129  1  0.68681818  0.93687900  0.44193385  1
  Zn  Zn130  1  0.68904777  0.94598745  0.93475357  1
  Zn  Zn131  1  0.31340562  0.06190485  0.06477408  1
  Zn  Zn132  1  0.31688045  0.05731795  0.56688455  1
  Zn  Zn133  1  0.31156481  0.56341288  0.06252942  1
  Zn  Zn134  1  0.31494844  0.56097292  0.56239813  1
  Zn  Zn135  1  0.81484725  0.06479859  0.06269974  1
  Zn  Zn136  1  0.79957929  0.07449549  0.58908189  1
  Zn  Zn137  1  0.80906547  0.56815937  0.06188933  1
  Zn  Zn138  1  0.81344531  0.56432079  0.56398971  1
  Zn  Zn139  1  0.43808724  0.43729769  0.18606726  1
  Zn  Zn140  1  0.43531830  0.44282369  0.68658886  1
  Zn  Zn141  1  0.43641823  0.93689035  0.18458265  1
  Zn  Zn142  1  0.43924996  0.93587550  0.68689199  1
  Zn  Zn143  1  0.94486630  0.43902390  0.18700272  1
  Zn  Zn144  1  0.93575161  0.43782396  0.68772129  1
  Zn  Zn145  1  0.93206122  0.94189557  0.18970323  1
  Zn  Zn146  1  0.93825190  0.94000858  0.68804620  1
  Zn  Zn147  1  0.06450810  0.06170124  0.31951680  1
  Zn  Zn148  1  0.05576122  0.05651047  0.81739390  1
  Zn  Zn149  1  0.05854921  0.55016677  0.30328538  1
  Zn  Zn150  1  0.05935939  0.56375051  0.81356839  1
  Zn  Zn151  1  0.56665895  0.06165633  0.31662767  1
  Zn  Zn152  1  0.55842588  0.05938044  0.81103862  1
  Zn  Zn153  1  0.56149226  0.56355587  0.31160023  1
  Zn  Zn154  1  0.56336610  0.55768335  0.81265677  1
  Zn  Zn155  1  0.47496407  0.17148421  0.42279362  1
  Zn  Zn156  1  0.43612335  0.18513091  0.93554752  1
  Zn  Zn157  1  0.43548575  0.68870338  0.43371519  1
  Zn  Zn158  1  0.43428077  0.68957698  0.93594027  1
  Zn  Zn159  1  0.93997393  0.18504962  0.43718565  1
  Zn  Zn160  1  0.93634060  0.18652373  0.93394627  1
  Zn  Zn161  1  0.93946048  0.68807038  0.43265430  1
  Zn  Zn162  1  0.93381383  0.68889369  0.93817500  1
  Zn  Zn163  1  0.05235861  0.31370321  0.05743782  1
  Zn  Zn164  1  0.07296298  0.32286499  0.53419014  1
  Zn  Zn165  1  0.06416263  0.81252541  0.06624917  1
  Zn  Zn166  1  0.06889668  0.81388531  0.56855844  1
  Zn  Zn167  1  0.56681990  0.31004594  0.05440938  1
  Zn  Zn168  1  0.56589493  0.31223943  0.56363407  1
  Zn  Zn169  1  0.56269781  0.81333990  0.06547107  1
  Zn  Zn170  1  0.56727564  0.80985061  0.56763439  1
  O  O171  1  0.11445888  0.11629459  0.12039883  1
  O  O172  1  0.13520554  0.11038738  0.61793035  1
  O  O173  1  0.11519609  0.61593825  0.12515521  1
  O  O174  1  0.11558526  0.61910368  0.62445121  1
  O  O175  1  0.61067264  0.12371861  0.12129448  1
  O  O176  1  0.60740687  0.11495359  0.61877710  1
  O  O177  1  0.62273801  0.61479244  0.11307573  1
  O  O178  1  0.61855321  0.62007828  0.62046355  1
  O  O179  1  0.38638179  0.38025684  0.38611085  1
  O  O180  1  0.38064163  0.38063255  0.88004957  1
  O  O181  1  0.37562339  0.86445016  0.38397259  1
  O  O182  1  0.37898164  0.87094796  0.88872900  1
  O  O183  1  0.87729284  0.38169651  0.38230121  1
  O  O184  1  0.88875216  0.37532025  0.86406942  1
  O  O185  1  0.87322948  0.88745821  0.37648709  1
  O  O186  1  0.87612058  0.88029261  0.88873560  1
  O  O187  1  0.25725977  -0.00154738  0.36687271  1
  O  O188  1  0.24447623  0.01274806  0.86895674  1
  O  O189  1  0.24903822  0.50547152  0.36685384  1
  O  O190  1  0.25439527  0.50673726  0.86900621  1
  O  O191  1  0.76268015  -0.00065755  0.37765437  1
  O  O192  1  0.77584916  -0.00373065  0.88473278  1
  O  O193  1  0.75965402  0.50576383  0.36261727  1
  O  O194  1  0.74319979  0.49857223  0.86154396  1
  O  O195  1  0.23932854  0.50271952  0.12900160  1
  O  O196  1  0.24586145  0.49546444  0.63156221  1
  O  O197  1  0.24359011  0.99270991  0.13164728  1
  O  O198  1  0.24365904  0.99051086  0.63505598  1
  O  O199  1  0.74193417  0.49870070  0.12721038  1
  O  O200  1  0.74524137  0.49238878  0.62874622  1
  O  O201  1  0.74740067  0.98865428  0.12727284  1
  O  O202  1  0.72974696  0.98289756  0.61046029  1
  O  O203  1  -0.01375405  0.44791016  0.29024684  1
  O  O204  1  0.00817205  0.37374778  0.75473803  1
  O  O205  1  -0.00467601  0.85953065  0.24028882  1
  O  O206  1  0.00836647  0.86768867  0.74499038  1
  O  O207  1  0.50192153  0.36916848  0.25535319  1
  O  O208  1  0.49513185  0.38184890  0.76331915  1
  O  O209  1  0.50560439  0.86291139  0.24531631  1
  O  O210  1  0.50337366  0.86695925  0.75762275  1
  O  O211  1  0.49452258  0.13110773  0.24052223  1
  O  O212  1  0.48450455  0.11884476  0.73958441  1
  O  O213  1  0.49075890  0.63415426  0.24922894  1
  O  O214  1  0.49502179  0.63079348  0.74664480  1
  O  O215  1  0.99453391  0.12097397  0.24357400  1
  O  O216  1  1.00933780  0.14000467  0.74942525  1
  O  O217  1  0.99125634  0.62794397  0.23686860  1
  O  O218  1  0.99144278  0.63058161  0.74628434  1
  O  O219  1  0.36885607  0.25442520  0.00772331  1
  O  O220  1  0.37447199  0.26054649  0.49887246  1
  O  O221  1  0.36507732  0.75686303  0.00580429  1
  O  O222  1  0.35870940  0.74141594  0.50133368  1
  O  O223  1  0.86566272  0.24546503  0.00145105  1
  O  O224  1  0.87058502  0.26111508  0.50142844  1
  O  O225  1  0.86595948  0.75998161  0.00391995  1
  O  O226  1  0.87443523  0.75092052  0.49570748  1
  O  O227  1  0.13902802  0.23204767  0.51170365  1
  O  O228  1  0.12820133  0.24232771  0.99556816  1
  O  O229  1  0.13160370  0.74432752  0.49257898  1
  O  O230  1  0.13886720  0.75461303  0.99941079  1
  O  O231  1  0.64426372  0.25392718  0.50402665  1
  O  O232  1  0.63569047  0.24663087  0.99165616  1
  O  O233  1  0.62424042  0.74243814  0.49104149  1
  O  O234  1  0.63265901  0.74229677  1.00731280  1
  O  O235  1  0.49206696  0.24443282  0.12847383  1
  O  O236  1  0.50151546  0.23245857  0.61735454  1
  O  O237  1  0.49225476  0.74770251  0.13397266  1
  O  O238  1  0.50293434  0.73724751  0.63411230  1
  O  O239  1  1.00168543  0.23438720  0.12441843  1
  O  O240  1  0.99397787  0.26704255  0.63133709  1
  O  O241  1  0.99776563  0.74064772  0.12862265  1
  O  O242  1  1.00905833  0.74249609  0.64005013  1
  O  O243  1  0.00718381  0.24951340  0.37743839  1
  O  O244  1  0.00488492  0.25837286  0.86582175  1
  O  O245  1  0.01284403  0.74261324  0.36254743  1
  O  O246  1  0.00167230  0.74384071  0.86295175  1
  O  O247  1  0.48943452  0.26530274  0.35848440  1
  O  O248  1  0.49529501  0.26473727  0.87763472  1
  O  O249  1  0.51300176  0.74269994  0.36654411  1
  O  O250  1  0.49583055  0.76222017  0.86888945  1
  O  O251  1  0.25118019  0.12874104  0.50299262  1
  O  O252  1  0.24514316  0.12859244  0.99410957  1
  O  O253  1  0.24321946  0.62737383  0.49433491  1
  O  O254  1  0.25705914  0.63515270  0.99052907  1
  O  O255  1  0.75059961  0.14005607  0.50183515  1
  O  O256  1  0.74824413  0.14166761  1.01346656  1
  O  O257  1  0.74307161  0.62391217  0.49304785  1
  O  O258  1  0.74177162  0.63623876  0.99772852  1
  O  O259  1  0.26325257  0.36760668  -0.00850050  1
  O  O260  1  0.26162364  0.36926195  0.50783428  1
  O  O261  1  0.25670548  0.87115875  0.00822508  1
  O  O262  1  0.24909816  0.86358672  0.51219037  1
  O  O263  1  0.74863563  0.36035525  0.00024036  1
  O  O264  1  0.75991908  0.37555712  0.50403833  1
  O  O265  1  0.75037296  0.87045059  0.00808852  1
  O  O266  1  0.74849443  0.86659704  0.51055645  1
  O  O267  1  0.13784608  0.50183248  0.23423194  1
  O  O268  1  0.12998961  0.49538998  0.74514129  1
  O  O269  1  0.13876109  1.00568795  0.24326263  1
  O  O270  1  0.13114413  0.99577696  0.74642377  1
  O  O271  1  0.63518039  0.50541960  0.24061041  1
  O  O272  1  0.63299354  0.49776428  0.74031697  1
  O  O273  1  0.62524994  0.99104073  0.25043010  1
  O  O274  1  0.61585710  0.98702134  0.74005036  1
  O  O275  1  0.36842887  0.00468855  0.24945650  1
  O  O276  1  0.36265477  0.00137902  0.74935694  1
  O  O277  1  0.36962660  0.51174191  0.24784257  1
  O  O278  1  0.36814732  0.51220122  0.75500538  1
  O  O279  1  0.87238448  0.00727144  0.26420687  1
  O  O280  1  0.87620191  0.00487146  0.75741322  1
  O  O281  1  0.86041794  0.51759749  0.24096188  1
  O  O282  1  0.86399471  0.51095525  0.74322396  1
  O  O283  1  0.11145682  0.35956724  0.41435090  1
  O  O284  1  0.12109053  0.36727145  0.86589418  1
  O  O285  1  0.13142191  0.86455713  0.37687250  1
  O  O286  1  0.12999311  0.87615152  0.86462287  1
  O  O287  1  0.61352026  0.38280270  0.37021538  1
  O  O288  1  0.60521682  0.37908433  0.87291178  1
  O  O289  1  0.63037662  0.86586621  0.36379447  1
  O  O290  1  0.61732143  0.88052367  0.86658404  1
  O  O291  1  0.38212413  0.13338226  0.13254749  1
  O  O292  1  0.38086522  0.12086937  0.64045220  1
  O  O293  1  0.37411812  0.63216447  0.13369789  1
  O  O294  1  0.38439802  0.61937430  0.63555160  1
  O  O295  1  0.88928373  0.12129265  0.13873330  1
  O  O296  1  0.89262348  0.14347675  0.60665018  1
  O  O297  1  0.88254336  0.63400975  0.12659241  1
  O  O298  1  0.88494360  0.62423589  0.63434113  1
  O  O299  1  0.25662273  0.24956909  0.12091717  1
  O  O300  1  0.25224162  0.25971706  0.61593899  1
  O  O301  1  0.25240473  0.75571625  0.12067483  1
  O  O302  1  0.24033472  0.75628087  0.61730108  1
  O  O303  1  0.75667777  0.26117588  0.11460869  1
  O  O304  1  0.76323803  0.26630226  0.61398844  1
  O  O305  1  0.75491799  0.76109701  0.11826479  1
  O  O306  1  0.74159266  0.76517265  0.62301457  1
  O  O307  1  0.25289771  0.24703396  0.39284821  1
  O  O308  1  0.24251997  0.23846243  0.88039028  1
  O  O309  1  0.23990160  0.73974108  0.38117402  1
  O  O310  1  0.24944546  0.74281997  0.88379968  1
  O  O311  1  0.75342750  0.25758391  0.38893096  1
  O  O312  1  0.75224535  0.25077349  0.88530428  1
  O  O313  1  0.73718622  0.74195460  0.37248649  1
  O  O314  1  0.75080289  0.75144636  0.88663239  1
  O  O315  1  0.00903171  0.12765217  0.00898003  1
  O  O316  1  0.01415302  0.11180626  0.49851607  1
  O  O317  1  -0.00468298  0.61365753  0.00482199  1
  O  O318  1  0.00566758  0.62929062  0.51531410  1
  O  O319  1  0.49181633  0.11532470  0.00732921  1
  O  O320  1  0.48271102  0.10737363  0.51858434  1
  O  O321  1  0.50381625  0.62040147  -0.00038335  1
  O  O322  1  0.50227597  0.62194090  0.50753966  1
  O  O323  1  0.49760723  0.37878624  0.49468175  1
  O  O324  1  0.48811903  0.37941227  0.99076973  1
  O  O325  1  0.49886905  0.88413223  0.51209943  1
  O  O326  1  0.49371254  0.87789438  0.99523712  1
  O  O327  1  0.98473480  0.39292031  0.50696431  1
  O  O328  1  1.00385828  0.39075422  0.98776431  1
  O  O329  1  1.00364375  0.88747662  0.50837203  1
  O  O330  1  0.98727462  0.86942525  1.00438078  1
  O  O331  1  0.49734399  0.49548110  0.38083385  1
  O  O332  1  0.49073134  0.49464332  0.88081674  1
  O  O333  1  0.49620447  0.99747114  0.39352159  1
  O  O334  1  0.49464850  0.98442825  0.88267757  1
  O  O335  1  0.99711175  0.53570364  0.40267434  1
  O  O336  1  1.00383963  0.49601360  0.88762312  1
  O  O337  1  0.99003564  1.00080306  0.38359100  1
  O  O338  1  0.98051443  0.99926183  0.87866830  1
  O  O339  1  0.01119393  0.00778120  0.13338596  1
  O  O340  1  0.01411788  -0.00297719  0.62053717  1
  O  O341  1  0.01187697  0.50644805  0.10973512  1
  O  O342  1  0.00216335  0.51101338  0.61891402  1
  O  O343  1  0.49966279  0.00859934  0.11856462  1
  O  O344  1  0.50643317  0.00150781  0.61942594  1
  O  O345  1  0.50462655  0.50429731  0.11682280  1
  O  O346  1  0.50713818  0.51028586  0.62101799  1
  O  O347  1  0.26577622  0.38909649  0.25395618  1
  O  O348  1  0.24598911  0.37968515  0.74314827  1
  O  O349  1  0.25593426  0.87943251  0.23643395  1
  O  O350  1  0.24525050  0.88047968  0.74888122  1
  O  O351  1  0.74936371  0.38815303  0.24538727  1
  O  O352  1  0.75274381  0.38284695  0.73949964  1
  O  O353  1  0.74155156  0.87536733  0.24236301  1
  O  O354  1  0.73958321  0.86922049  0.74277651  1
  O  O355  1  0.26249683  0.11164906  0.25225843  1
  O  O356  1  0.25923356  0.11953694  0.75569877  1
  O  O357  1  0.25562578  0.61763176  0.25628039  1
  O  O358  1  0.25692915  0.62465382  0.75483728  1
  O  O359  1  0.76317611  0.12259795  0.24330318  1
  O  O360  1  0.75992459  0.11395120  0.69250521  1
  O  O361  1  0.75524923  0.62376522  0.24962971  1
  O  O362  1  0.75549387  0.61865203  0.75080238  1
  O  O363  1  0.38070854  0.12327654  0.36130576  1
  O  O364  1  0.36665560  0.12706924  0.86217293  1
  O  O365  1  0.36205617  0.62322659  0.36726649  1
  O  O366  1  0.36607512  0.62038815  0.86756238  1
  O  O367  1  0.87732674  0.11642119  0.36372949  1
  O  O368  1  0.87633851  0.11656780  0.86792358  1
  O  O369  1  0.87017455  0.62131498  0.36005656  1
  O  O370  1  0.87025204  0.62568891  0.86297436  1
  O  O371  1  0.12065477  0.38929683  0.11807489  1
  O  O372  1  0.13782894  0.38306520  0.62394364  1
  O  O373  1  0.13462707  0.88378988  0.12131834  1
  O  O374  1  0.13602464  0.88265760  0.63839085  1
  O  O375  1  0.61863849  0.39011452  0.12481539  1
  O  O376  1  0.63361638  0.38373238  0.62473159  1
  O  O377  1  0.63133438  0.87469278  0.13785633  1
  O  O378  1  0.62981194  0.87928175  0.63537324  1
  O  O379  1  0.14127896  0.25332234  0.25072745  1
  O  O380  1  0.12145886  0.25616174  0.75118316  1
  O  O381  1  0.11804160  0.74657406  0.25866329  1
  O  O382  1  0.11739834  0.76117404  0.75678368  1
  O  O383  1  0.61475077  0.25100992  0.23997589  1
  O  O384  1  0.62898354  0.25707152  0.75382839  1
  O  O385  1  0.61587471  0.75409470  0.25409689  1
  O  O386  1  0.61254396  0.75727612  0.75035035  1
  O  O387  1  0.37993108  0.24227082  0.24215982  1
  O  O388  1  0.37068430  0.23880744  0.74994864  1
  O  O389  1  0.37950311  0.74076560  0.24680964  1
  O  O390  1  0.38493989  0.73908848  0.75455168  1
  O  O391  1  0.87347492  0.23559857  0.24994599  1
  O  O392  1  0.88298676  0.24536978  0.73767709  1
  O  O393  1  0.87981953  0.74332586  0.24435607  1
  O  O394  1  0.88209706  0.74364166  0.75130078  1
  O  O395  1  0.38379821  0.49201056  0.49962385  1
  O  O396  1  0.37745317  0.49190018  0.99672019  1
  O  O397  1  0.38448154  0.98886123  0.50259529  1
  O  O398  1  0.38530522  0.98999896  1.00736985  1
  O  O399  1  0.87985432  0.49707663  0.49256741  1
  O  O400  1  0.88380226  0.50175124  1.00154690  1
  O  O401  1  0.88351328  0.99885773  0.48934168  1
  O  O402  1  0.87856903  0.98692854  1.00602865  1
  O  O403  1  0.12997464  0.00976600  0.01291920  1
  O  O404  1  0.12252011  0.00405787  0.50818089  1
  O  O405  1  0.12862817  0.50302068  0.00899995  1
  O  O406  1  0.11793605  0.50869862  0.50828175  1
  O  O407  1  0.60979079  -0.00200538  0.00454391  1
  O  O408  1  0.61138181  -0.00009396  0.50554072  1
  O  O409  1  0.61921574  0.50546574  0.00388673  1
  O  O410  1  0.61925365  0.50579862  0.50565017  1
  O  O411  1  0.37983319  0.36276672  0.11672466  1
  O  O412  1  0.36496070  0.38180746  0.61858690  1
  O  O413  1  0.36809726  0.86850899  0.11579918  1
  O  O414  1  0.36064948  0.87247352  0.62812630  1
  O  O415  1  0.88723482  0.37047682  0.12808548  1
  O  O416  1  0.86834180  0.37447740  0.61553294  1
  O  O417  1  0.86736916  0.87172005  0.11807576  1
  O  O418  1  0.85699286  0.88380460  0.62433585  1
  O  O419  1  0.13467818  0.12365962  0.38847706  1
  O  O420  1  0.12911557  0.12823369  0.88320300  1
  O  O421  1  0.13479130  0.62485627  0.37732014  1
  O  O422  1  0.13888424  0.62721695  0.86872339  1
  O  O423  1  0.58403039  0.14004697  0.39107541  1
  O  O424  1  0.61297222  0.12111816  0.88190612  1
  O  O425  1  0.63080331  0.62992013  0.37927992  1
  O  O426  1  0.62496551  0.62094252  0.88809452  1
