# generated using pymatgen
data_V85Zn86O256
_symmetry_space_group_name_H-M   'P 1'
_cell_length_a   16.94284847
_cell_length_b   16.94807673
_cell_length_c   16.93881410
_cell_angle_alpha   90.01078457
_cell_angle_beta   89.96698083
_cell_angle_gamma   89.98334788
_symmetry_Int_Tables_number   1
_chemical_formula_structural   V85Zn86O256
_chemical_formula_sum   'V85 Zn86 O256'
_cell_volume   4863.95727648
_cell_formula_units_Z   1
loop_
 _symmetry_equiv_pos_site_id
 _symmetry_equiv_pos_as_xyz
  1  'x, y, z'
loop_
 _atom_site_type_symbol
 _atom_site_label
 _atom_site_symmetry_multiplicity
 _atom_site_fract_x
 _atom_site_fract_y
 _atom_site_fract_z
 _atom_site_occupancy
  V  V0  1  0.63490357  0.61631454  0.00191347  1
  V  V1  1  0.50475178  0.49925763  0.01268387  1
  V  V2  1  0.50041797  0.25575148  0.25560206  1
  V  V3  1  0.87821728  0.37719162  0.00681560  1
  V  V4  1  -0.00579382  0.49686363  0.49501073  1
  V  V5  1  0.12540329  0.49434222  0.62489794  1
  V  V6  1  0.50533378  0.63234496  0.63067017  1
  V  V7  1  0.12139699  0.74886127  0.87460715  1
  V  V8  1  0.25229375  0.62490101  0.87926311  1
  V  V9  1  0.75805784  0.87494682  0.12201303  1
  V  V10  1  0.13146050  0.12423115  0.48120640  1
  V  V11  1  0.48706040  0.13142483  0.62154093  1
  V  V12  1  0.62522388  0.74489469  0.87482848  1
  V  V13  1  0.37941419  0.87264391  0.50150530  1
  V  V14  1  0.12068413  0.61658913  0.00066024  1
  V  V15  1  0.75817019  0.62388260  0.37281606  1
  V  V16  1  0.87006497  0.75105964  0.62042565  1
  V  V17  1  0.12408773  0.87473361  0.75229372  1
  V  V18  1  0.62402335  -0.00411366  0.12979868  1
  V  V19  1  0.76015998  0.12761131  0.87125254  1
  V  V20  1  0.87257493  0.62539042  0.74999159  1
  V  V21  1  0.24544834  0.37294861  0.12616197  1
  V  V22  1  0.62426669  0.63228239  0.48895290  1
  V  V23  1  0.87698155  0.24979304  0.62212591  1
  V  V24  1  0.62761004  0.37294476  0.74747287  1
  V  V25  1  0.49492548  0.00139603  -0.00457323  1
  V  V26  1  0.87650107  0.37367842  0.48710465  1
  V  V27  1  0.24973241  0.74877408  0.50483350  1
  V  V28  1  0.12437830  0.75240546  0.37306110  1
  V  V29  1  0.25092931  0.75135101  0.00327049  1
  V  V30  1  -0.00136201  0.12267613  0.62999677  1
  V  V31  1  0.01769636  0.24769746  0.25400588  1
  V  V32  1  0.37669610  0.50305545  0.87797952  1
  V  V33  1  0.87035859  0.24895202  0.13772603  1
  V  V34  1  0.37410758  0.37633527  -0.00019159  1
  V  V35  1  0.37819515  0.75041531  0.63084855  1
  V  V36  1  0.25102673  0.87499435  0.62945965  1
  V  V37  1  -0.00474232  0.24688722  0.75256437  1
  V  V38  1  0.37425084  0.00127014  0.36895761  1
  V  V39  1  0.62816523  0.50275126  0.62513844  1
  V  V40  1  0.25075251  0.49674404  0.74650569  1
  V  V41  1  0.49780303  0.87347312  0.87539178  1
  V  V42  1  0.38087910  0.63298360  0.75647485  1
  V  V43  1  0.75123803  0.25566448  0.00457858  1
  V  V44  1  0.11801636  0.49598433  0.12689067  1
  V  V45  1  0.51119385  0.86118751  0.35837279  1
  V  V46  1  0.74808824  -0.00576329  0.25025285  1
  V  V47  1  0.49987782  -0.00167035  0.49774235  1
  V  V48  1  0.87636248  0.50248162  0.87830369  1
  V  V49  1  0.74925108  0.12770841  0.36844699  1
  V  V50  1  0.75560197  0.00410594  0.74881525  1
  V  V51  1  -0.01058114  -0.00080964  0.00216953  1
  V  V52  1  0.37534834  0.87694632  0.00175312  1
  V  V53  1  0.49827306  0.12564424  0.12899875  1
  V  V54  1  0.75273787  0.50116667  0.75304985  1
  V  V55  1  0.24642749  0.49395249  0.25041605  1
  V  V56  1  0.12496678  0.00007820  0.62600376  1
  V  V57  1  0.37891695  0.48845950  0.37471270  1
  V  V58  1  0.51090025  0.65931071  0.13065524  1
  V  V59  1  0.25724347  0.62388785  0.37564204  1
  V  V60  1  0.62565701  0.12541646  -0.00125324  1
  V  V61  1  -0.00391165  -0.00180914  0.49864843  1
  V  V62  1  -0.01235169  0.87265614  0.87988868  1
  V  V63  1  0.62078677  0.87224583  0.75125207  1
  V  V64  1  0.50260619  0.49845961  0.49654643  1
  V  V65  1  0.00128312  0.37883315  0.87686395  1
  V  V66  1  0.37429916  0.25078119  0.12566627  1
  V  V67  1  0.25278041  0.00270350  0.76460698  1
  V  V68  1  0.37144830  0.37472243  0.52468753  1
  V  V69  1  0.12329468  0.62369193  0.50128503  1
  V  V70  1  0.75462867  0.75317139  -0.00307195  1
  V  V71  1  0.02114754  0.37429965  0.37174235  1
  V  V72  1  0.62164008  0.12880560  0.49763302  1
  V  V73  1  0.37084914  0.12753832  0.76429032  1
  V  V74  1  0.62602769  0.24944657  0.87285793  1
  V  V75  1  0.62496623  0.38323199  0.23216029  1
  V  V76  1  0.12095488  0.00208369  0.12495065  1
  V  V77  1  0.12999932  0.24228485  0.87624863  1
  V  V78  1  0.24971791  0.87971813  0.12844781  1
  V  V79  1  0.62130135  0.26373186  0.37652255  1
  V  V80  1  0.62415243  0.00306844  0.62699537  1
  V  V81  1  0.75436855  0.49872122  0.23848219  1
  V  V82  1  0.87332176  0.00206354  0.36895891  1
  V  V83  1  0.00219824  0.62511665  0.12656719  1
  V  V84  1  0.50116059  0.37634475  0.87438593  1
  Zn  Zn85  1  0.25356920  0.24282389  -0.00452314  1
  Zn  Zn86  1  -0.00392546  0.87302883  0.37300384  1
  Zn  Zn87  1  -0.00430504  0.12497046  0.12816537  1
  Zn  Zn88  1  0.75397657  0.37464679  0.62101652  1
  Zn  Zn89  1  0.12219286  0.87611207  0.25209171  1
  Zn  Zn90  1  0.24043996  0.00672784  0.25999555  1
  Zn  Zn91  1  0.86828708  0.87635622  0.49819025  1
  Zn  Zn92  1  0.38763538  0.63051583  0.24567964  1
  Zn  Zn93  1  0.36782244  0.13437805  0.26070061  1
  Zn  Zn94  1  -0.00292920  0.62516521  0.62429791  1
  Zn  Zn95  1  0.49138923  0.25428235  0.74603784  1
  Zn  Zn96  1  0.87997026  0.62175965  0.25143796  1
  Zn  Zn97  1  0.74538004  0.75817720  0.48636410  1
  Zn  Zn98  1  -0.00364104  0.74968969  0.74821552  1
  Zn  Zn99  1  0.74764876  0.87601428  0.62195002  1
  Zn  Zn100  1  -0.00520493  0.75002462  0.25050209  1
  Zn  Zn101  1  0.12951036  0.12003316  -0.00304485  1
  Zn  Zn102  1  0.24839919  0.24956067  0.50013771  1
  Zn  Zn103  1  0.87856026  0.75141097  0.12353838  1
  Zn  Zn104  1  0.12924356  0.37083677  0.74896383  1
  Zn  Zn105  1  0.87221828  -0.00131966  0.87612978  1
  Zn  Zn106  1  0.74956393  0.25195310  0.49899514  1
  Zn  Zn107  1  0.19036259  0.18128221  0.18548667  1
  Zn  Zn108  1  0.19132888  0.18539769  0.68554780  1
  Zn  Zn109  1  0.22953201  0.70847335  0.20994120  1
  Zn  Zn110  1  0.18847506  0.68248435  0.69003954  1
  Zn  Zn111  1  0.68616836  0.18816113  0.18946254  1
  Zn  Zn112  1  0.68836547  0.18728762  0.68456613  1
  Zn  Zn113  1  0.68417202  0.68493521  0.18310109  1
  Zn  Zn114  1  0.69042975  0.68870288  0.69020035  1
  Zn  Zn115  1  0.30437760  0.31153095  0.31738135  1
  Zn  Zn116  1  0.31328191  0.31275354  0.80849059  1
  Zn  Zn117  1  0.31978083  0.81783663  0.31401470  1
  Zn  Zn118  1  0.31303360  0.81498585  0.81887919  1
  Zn  Zn119  1  0.80617257  0.31821121  0.31351391  1
  Zn  Zn120  1  0.81539513  0.31388245  0.81172519  1
  Zn  Zn121  1  0.81172580  0.80934681  0.30786728  1
  Zn  Zn122  1  0.80560572  0.81110195  0.80877174  1
  Zn  Zn123  1  0.19203657  0.43710655  0.44313240  1
  Zn  Zn124  1  0.18779740  0.43392608  0.93759379  1
  Zn  Zn125  1  0.18890513  0.93734333  0.44106834  1
  Zn  Zn126  1  0.18047769  0.93700054  0.94174224  1
  Zn  Zn127  1  0.69225320  0.44357883  0.43463859  1
  Zn  Zn128  1  0.69272244  0.43622432  0.93557391  1
  Zn  Zn129  1  0.68370502  0.93615998  0.43499654  1
  Zn  Zn130  1  0.68569984  0.93768474  0.93849510  1
  Zn  Zn131  1  0.31005377  0.06532147  0.06084884  1
  Zn  Zn132  1  0.31098547  0.05881034  0.56328277  1
  Zn  Zn133  1  0.32034360  0.56674976  0.07025501  1
  Zn  Zn134  1  0.31569703  0.56161141  0.56536433  1
  Zn  Zn135  1  0.81270821  0.06777273  0.06390225  1
  Zn  Zn136  1  0.81090713  0.06621992  0.55848576  1
  Zn  Zn137  1  0.81359832  0.56098395  0.06345127  1
  Zn  Zn138  1  0.81187588  0.56328204  0.56090648  1
  Zn  Zn139  1  0.43479307  0.43772665  0.19239211  1
  Zn  Zn140  1  0.44355960  0.44844074  0.69160808  1
  Zn  Zn141  1  0.43755700  0.93288431  0.18532744  1
  Zn  Zn142  1  0.43732646  0.94278630  0.69153085  1
  Zn  Zn143  1  0.93724087  0.43331925  0.19248566  1
  Zn  Zn144  1  0.94188027  0.43381552  0.68414132  1
  Zn  Zn145  1  0.93707637  0.93522137  0.19255608  1
  Zn  Zn146  1  0.93599746  0.93340878  0.68883351  1
  Zn  Zn147  1  0.05609210  0.06222864  0.30720611  1
  Zn  Zn148  1  0.05793520  0.06027055  0.81214238  1
  Zn  Zn149  1  0.06714156  0.56104472  0.31080227  1
  Zn  Zn150  1  0.05963678  0.56245461  0.81159331  1
  Zn  Zn151  1  0.55990816  0.06336790  0.31412880  1
  Zn  Zn152  1  0.56129414  0.06305558  0.81129886  1
  Zn  Zn153  1  0.56364426  0.56298461  0.30955918  1
  Zn  Zn154  1  0.56373635  0.56208868  0.81632131  1
  Zn  Zn155  1  0.40636565  0.20886078  0.42431094  1
  Zn  Zn156  1  0.43963955  0.19055544  0.93785623  1
  Zn  Zn157  1  0.43842565  0.68684795  0.43881663  1
  Zn  Zn158  1  0.44532732  0.69403834  0.95590058  1
  Zn  Zn159  1  0.94157308  0.18610913  0.43483241  1
  Zn  Zn160  1  0.94018956  0.18807905  0.94318645  1
  Zn  Zn161  1  0.93574857  0.68730964  0.43729309  1
  Zn  Zn162  1  0.93730289  0.68347139  0.93903103  1
  Zn  Zn163  1  0.05922472  0.31111441  0.06280203  1
  Zn  Zn164  1  0.09859216  0.28925064  0.57833796  1
  Zn  Zn165  1  0.06396132  0.81268911  0.06164476  1
  Zn  Zn166  1  0.05787808  0.81235001  0.56260465  1
  Zn  Zn167  1  0.56120346  0.31231250  0.06202441  1
  Zn  Zn168  1  0.55839969  0.31396090  0.56247703  1
  Zn  Zn169  1  0.56987509  0.80858364  0.07705439  1
  Zn  Zn170  1  0.56451141  0.81320864  0.56268646  1
  O  O171  1  0.11842213  0.11192623  0.12324920  1
  O  O172  1  0.11202261  0.11456411  0.62275460  1
  O  O173  1  0.11590265  0.61378122  0.11659928  1
  O  O174  1  0.12246340  0.62051982  0.61384638  1
  O  O175  1  0.61544617  0.12123864  0.11941538  1
  O  O176  1  0.61719983  0.11871902  0.61862747  1
  O  O177  1  0.61832467  0.61146071  0.10584244  1
  O  O178  1  0.62101783  0.62076845  0.62320113  1
  O  O179  1  0.37791150  0.38789020  0.38153661  1
  O  O180  1  0.38055214  0.38056836  0.87933082  1
  O  O181  1  0.38555107  0.88283279  0.38339351  1
  O  O182  1  0.38470574  0.87453893  0.88655447  1
  O  O183  1  0.87918905  0.37218380  0.38473289  1
  O  O184  1  0.88197720  0.38204312  0.88128330  1
  O  O185  1  0.87156570  0.88843220  0.37597676  1
  O  O186  1  0.88498445  0.87304551  0.86884323  1
  O  O187  1  0.27001283  -0.00864586  0.37811334  1
  O  O188  1  0.24243886  -0.00607209  0.86320859  1
  O  O189  1  0.25728742  0.50372729  0.37168348  1
  O  O190  1  0.25696398  0.50750748  0.87191575  1
  O  O191  1  0.75088631  0.00629422  0.36686638  1
  O  O192  1  0.74908528  0.00943933  0.86938753  1
  O  O193  1  0.74206910  0.51570913  0.36104144  1
  O  O194  1  0.76100966  0.49353274  0.86092411  1
  O  O195  1  0.24682501  0.49505412  0.13359510  1
  O  O196  1  0.24009525  0.51068794  0.63566413  1
  O  O197  1  0.23980043  0.98988064  0.11936423  1
  O  O198  1  0.24371585  0.99162594  0.63299659  1
  O  O199  1  0.74605875  0.50515069  0.13914376  1
  O  O200  1  0.74595001  0.49824725  0.63497215  1
  O  O201  1  0.74442792  0.99888293  0.13002686  1
  O  O202  1  0.74167878  1.00433663  0.63168217  1
  O  O203  1  -0.00051104  0.36689780  0.26499783  1
  O  O204  1  0.00199758  0.36607021  0.75888334  1
  O  O205  1  0.00424425  0.86781320  0.25473850  1
  O  O206  1  0.00757869  0.87246267  0.75924396  1
  O  O207  1  0.51415346  0.36926688  0.24529144  1
  O  O208  1  0.50890190  0.37663488  0.75523264  1
  O  O209  1  0.49815877  0.87128844  0.25875616  1
  O  O210  1  0.51068813  0.88288716  0.76009562  1
  O  O211  1  0.49869564  0.13480170  0.24228050  1
  O  O212  1  0.48764704  0.12218398  0.73942511  1
  O  O213  1  0.50345021  0.62196443  0.23376345  1
  O  O214  1  0.49266569  0.61998772  0.74353529  1
  O  O215  1  0.99835022  0.14362064  0.24995234  1
  O  O216  1  0.99806864  0.13038512  0.74027865  1
  O  O217  1  1.00235620  0.62612276  0.24175682  1
  O  O218  1  0.98609879  0.62613990  0.74808862  1
  O  O219  1  0.37785718  0.25937067  0.00732397  1
  O  O220  1  0.39428274  0.27516912  0.51832275  1
  O  O221  1  0.35498271  0.75992052  -0.01240992  1
  O  O222  1  0.36953944  0.75277848  0.51001563  1
  O  O223  1  0.86890475  0.25801950  0.00789653  1
  O  O224  1  0.87658312  0.25705926  0.50373850  1
  O  O225  1  0.85825531  0.73898941  0.00157974  1
  O  O226  1  0.86957183  0.75155769  0.50666887  1
  O  O227  1  0.11589057  0.22653310  0.48231030  1
  O  O228  1  0.12055663  0.24995411  0.98449493  1
  O  O229  1  0.12857210  0.74190743  0.49633992  1
  O  O230  1  0.13174726  0.74302944  0.98893976  1
  O  O231  1  0.62326061  0.24792573  0.49238531  1
  O  O232  1  0.63277820  0.24679070  0.99526096  1
  O  O233  1  0.62920676  0.73537321  0.50935910  1
  O  O234  1  0.63509086  0.73724520  0.99533573  1
  O  O235  1  0.49735916  0.24374399  0.13312892  1
  O  O236  1  0.50867009  0.23309452  0.62977938  1
  O  O237  1  0.47608379  0.74184273  0.07579612  1
  O  O238  1  0.49633477  0.73887200  0.62403370  1
  O  O239  1  0.99072615  0.25421785  0.14000310  1
  O  O240  1  1.00080188  0.24158577  0.63265118  1
  O  O241  1  1.00169250  0.73931461  0.12415534  1
  O  O242  1  0.98632926  0.74706095  0.62633042  1
  O  O243  1  -0.00250136  0.25948939  0.36184694  1
  O  O244  1  0.00235568  0.25711351  0.86900842  1
  O  O245  1  0.01076803  0.74953565  0.37629216  1
  O  O246  1  0.00532853  0.75529896  0.87566513  1
  O  O247  1  0.50439594  0.24672684  0.36209606  1
  O  O248  1  0.50839093  0.25808760  0.87044415  1
  O  O249  1  0.49499043  0.76268752  0.37812045  1
  O  O250  1  0.51013677  0.76477369  0.88447604  1
  O  O251  1  0.23268997  0.11928508  0.50687712  1
  O  O252  1  0.24384008  0.13027392  1.00096295  1
  O  O253  1  0.24396209  0.62711042  0.49612128  1
  O  O254  1  0.24540648  0.63280625  0.99966352  1
  O  O255  1  0.73818060  0.12651230  0.48833341  1
  O  O256  1  0.74487011  0.13584935  0.99287544  1
  O  O257  1  0.74292042  0.62149535  0.48616273  1
  O  O258  1  0.73899497  0.62754069  1.00211025  1
  O  O259  1  0.25924832  0.37169861  0.00710903  1
  O  O260  1  0.26904438  0.37732095  0.50200626  1
  O  O261  1  0.25596904  0.87141255  0.00261352  1
  O  O262  1  0.25833719  0.86896303  0.50997828  1
  O  O263  1  0.75823385  0.36186907  -0.00551577  1
  O  O264  1  0.76050298  0.37604268  0.50078748  1
  O  O265  1  0.74502788  0.86570284  0.00744369  1
  O  O266  1  0.74828022  0.87413288  0.50348993  1
  O  O267  1  0.13423884  0.49639167  0.23955003  1
  O  O268  1  0.13326332  0.50509475  0.74210652  1
  O  O269  1  0.12248745  0.99647393  0.24024501  1
  O  O270  1  0.13025136  0.99560071  0.74452070  1
  O  O271  1  0.62829042  0.48676819  0.24971564  1
  O  O272  1  0.63357303  0.49333536  0.74881335  1
  O  O273  1  0.63220255  1.00885731  0.23947391  1
  O  O274  1  0.63115107  0.99569988  0.74447451  1
  O  O275  1  0.37929363  -0.00369237  0.26438685  1
  O  O276  1  0.36474850  0.01296623  0.74756288  1
  O  O277  1  0.36919341  0.50459423  0.25986147  1
  O  O278  1  0.36952751  0.51304344  0.75702569  1
  O  O279  1  0.86391116  0.00266174  0.25756183  1
  O  O280  1  0.85907313  -0.00404610  0.75135547  1
  O  O281  1  0.85940273  0.50086188  0.24598444  1
  O  O282  1  0.87024970  0.50282047  0.75288347  1
  O  O283  1  0.11973890  0.37157163  0.37917499  1
  O  O284  1  0.11550052  0.36843166  0.87316395  1
  O  O285  1  0.12544878  0.86461020  0.37813061  1
  O  O286  1  0.11735878  0.86442719  0.87094305  1
  O  O287  1  0.62769889  0.36552456  0.37261558  1
  O  O288  1  0.62257240  0.37055119  0.86527155  1
  O  O289  1  0.60997801  0.87452959  0.37436989  1
  O  O290  1  0.61847263  0.86854111  0.87001179  1
  O  O291  1  0.38916513  0.13050690  0.12324324  1
  O  O292  1  0.38506389  0.12220448  0.62774633  1
  O  O293  1  0.40374894  0.61948922  0.12638097  1
  O  O294  1  0.38399095  0.63019502  0.63541019  1
  O  O295  1  0.87773482  0.14491996  0.12094415  1
  O  O296  1  0.88739281  0.13826967  0.61348238  1
  O  O297  1  0.89401521  0.61851650  0.12085860  1
  O  O298  1  0.87449844  0.63127069  0.63183368  1
  O  O299  1  0.25631070  0.25920498  0.12416640  1
  O  O300  1  0.20919861  0.26087514  0.60733961  1
  O  O301  1  0.23577437  0.76698249  0.11147493  1
  O  O302  1  0.25559023  0.75407028  0.62411811  1
  O  O303  1  0.75938797  0.24673854  0.11820712  1
  O  O304  1  0.76252256  0.25067200  0.62134039  1
  O  O305  1  0.74891593  0.75971060  0.11766084  1
  O  O306  1  0.76078184  0.75133105  0.62433781  1
  O  O307  1  0.29578139  0.23632315  0.39683892  1
  O  O308  1  0.23239338  0.25766586  0.87293010  1
  O  O309  1  0.24483881  0.74120792  0.38821398  1
  O  O310  1  0.23954944  0.74430542  0.88017608  1
  O  O311  1  0.73972478  0.24380888  0.37536378  1
  O  O312  1  0.74619717  0.24514921  0.87965719  1
  O  O313  1  0.74728290  0.73176070  0.36939426  1
  O  O314  1  0.73697428  0.75659008  0.88345788  1
  O  O315  1  0.00423285  0.11458669  0.00334905  1
  O  O316  1  0.00882417  0.11293989  0.50376597  1
  O  O317  1  0.01490132  0.62615011  0.00371332  1
  O  O318  1  0.00765944  0.61440476  0.49664942  1
  O  O319  1  0.50526218  0.11967104  0.00554398  1
  O  O320  1  0.50182276  0.11820052  0.51045186  1
  O  O321  1  0.51339536  0.61413850  0.00668178  1
  O  O322  1  0.50757907  0.61942587  0.50819682  1
  O  O323  1  0.49415588  0.39399099  0.51034304  1
  O  O324  1  0.49639286  0.37899428  0.99195540  1
  O  O325  1  0.49537328  0.88345267  0.50081509  1
  O  O326  1  0.49414596  0.88351611  0.99723436  1
  O  O327  1  0.99678261  0.37948392  0.48487954  1
  O  O328  1  0.98901464  0.37011206  0.99029697  1
  O  O329  1  0.99789526  0.88854880  0.49769627  1
  O  O330  1  1.00299322  0.88213776  0.98948238  1
  O  O331  1  0.49151682  0.50974124  0.38589056  1
  O  O332  1  0.49403578  0.49364475  0.88177080  1
  O  O333  1  0.49622847  0.98845889  0.38247561  1
  O  O334  1  0.50964019  0.98904900  0.88608366  1
  O  O335  1  1.00909935  0.48575229  0.38044838  1
  O  O336  1  0.99277695  0.48708806  0.86979647  1
  O  O337  1  0.98863730  1.00079610  0.38094235  1
  O  O338  1  0.99561927  0.99088694  0.88166341  1
  O  O339  1  0.00271784  -0.00053302  0.11908564  1
  O  O340  1  0.00097418  0.00484842  0.61972094  1
  O  O341  1  0.01310897  0.49932640  0.13069412  1
  O  O342  1  0.00693465  0.50423260  0.61489488  1
  O  O343  1  0.50624935  0.00687486  0.12099381  1
  O  O344  1  0.50432178  0.00897952  0.61840712  1
  O  O345  1  0.50222861  0.48429678  0.11111702  1
  O  O346  1  0.50807743  0.51472051  0.62001479  1
  O  O347  1  0.25578816  0.38413461  0.24327829  1
  O  O348  1  0.24861544  0.39264065  0.75620703  1
  O  O349  1  0.24761385  0.88292750  0.24007021  1
  O  O350  1  0.24500843  0.88033834  0.74760099  1
  O  O351  1  0.73779988  0.38925922  0.25400891  1
  O  O352  1  0.74418334  0.38106666  0.74574408  1
  O  O353  1  0.74830168  0.88766953  0.24208894  1
  O  O354  1  0.73600576  0.88538774  0.74906012  1
  O  O355  1  0.25960003  0.11596176  0.24084141  1
  O  O356  1  0.26193997  0.11830889  0.74702204  1
  O  O357  1  0.24286572  0.60625953  0.26430052  1
  O  O358  1  0.25860099  0.61805111  0.75981361  1
  O  O359  1  0.74365217  0.11806874  0.26260939  1
  O  O360  1  0.74234402  0.11736571  0.75984910  1
  O  O361  1  0.74459208  0.61568790  0.25495481  1
  O  O362  1  0.76216605  0.61570187  0.74939086  1
  O  O363  1  0.39234209  0.10334552  0.37495607  1
  O  O364  1  0.38189127  0.12463006  0.86278354  1
  O  O365  1  0.36481531  0.61700804  0.38019566  1
  O  O366  1  0.37542945  0.62411640  0.87341404  1
  O  O367  1  0.86261139  0.11414423  0.38253379  1
  O  O368  1  0.86265057  0.12651264  0.87815969  1
  O  O369  1  0.86209502  0.62190413  0.37393201  1
  O  O370  1  0.88105344  0.60934550  0.86879505  1
  O  O371  1  0.13816857  0.38066182  0.11530770  1
  O  O372  1  0.11489077  0.39214498  0.63044156  1
  O  O373  1  0.13078233  0.88565394  0.12408960  1
  O  O374  1  0.12822954  0.87896559  0.63248074  1
  O  O375  1  0.62984505  0.37079248  0.13422049  1
  O  O376  1  0.62589349  0.38211330  0.63369378  1
  O  O377  1  0.63555045  0.89183813  0.11963026  1
  O  O378  1  0.62248577  0.88455138  0.63440961  1
  O  O379  1  0.11595486  0.25054322  0.24493271  1
  O  O380  1  0.11346782  0.25014114  0.76077577  1
  O  O381  1  0.13319601  0.74802642  0.26737336  1
  O  O382  1  0.12320144  0.75024230  0.76169044  1
  O  O383  1  0.62091483  0.26203461  0.25507545  1
  O  O384  1  0.62601569  0.26120772  0.75243521  1
  O  O385  1  0.58119335  0.73441227  0.17389231  1
  O  O386  1  0.62953714  0.75983187  0.76014826  1
  O  O387  1  0.38547566  0.25429894  0.24259011  1
  O  O388  1  0.37385396  0.23510668  0.75010131  1
  O  O389  1  0.33635502  0.73130100  0.24914939  1
  O  O390  1  0.37043001  0.73925042  0.74963713  1
  O  O391  1  0.87115675  0.25842438  0.23856782  1
  O  O392  1  0.88717981  0.25507310  0.74027411  1
  O  O393  1  0.87575845  0.74084228  0.24207019  1
  O  O394  1  0.87240856  0.74064053  0.74453428  1
  O  O395  1  0.38368046  0.49611180  0.49680137  1
  O  O396  1  0.38331351  0.49561642  0.99635139  1
  O  O397  1  0.38519233  0.99464673  0.49549329  1
  O  O398  1  0.38830333  0.99506976  1.00399838  1
  O  O399  1  0.88819534  0.49190197  0.50560658  1
  O  O400  1  0.86635222  0.48924884  0.99017729  1
  O  O401  1  0.88162104  0.99999001  0.49377865  1
  O  O402  1  0.88470242  1.00361049  0.99877545  1
  O  O403  1  0.11098755  -0.00052064  0.00715063  1
  O  O404  1  0.11702620  0.00284253  0.50765509  1
  O  O405  1  0.13497934  0.50868391  0.00925178  1
  O  O406  1  0.11980472  0.50570170  0.50621742  1
  O  O407  1  0.61706833  0.00791008  0.00772523  1
  O  O408  1  0.61363901  0.00604908  0.50442074  1
  O  O409  1  0.61970274  0.50942732  -0.01482800  1
  O  O410  1  0.61976947  0.50835040  0.50510500  1
  O  O411  1  0.36551350  0.37202308  0.12018709  1
  O  O412  1  0.37356401  0.38945825  0.62335183  1
  O  O413  1  0.36592286  0.87988521  0.11107551  1
  O  O414  1  0.37341245  0.86904798  0.62371899  1
  O  O415  1  0.87937325  0.36535687  0.11511862  1
  O  O416  1  0.88075949  0.36260478  0.61335687  1
  O  O417  1  0.86143474  0.87631050  0.12521052  1
  O  O418  1  0.87063357  0.86550289  0.62370677  1
  O  O419  1  0.12976322  0.10619560  0.38373548  1
  O  O420  1  0.11734426  0.13976609  0.87309865  1
  O  O421  1  0.13519163  0.62748301  0.38692481  1
  O  O422  1  0.12896615  0.62875913  0.88178140  1
  O  O423  1  0.62713350  0.13478163  0.38047244  1
  O  O424  1  0.63014086  0.13242365  0.87982518  1
  O  O425  1  0.62896880  0.62339112  0.38464183  1
  O  O426  1  0.61852246  0.63691393  0.88405409  1
