# generated using pymatgen
data_V85Zn86O256
_symmetry_space_group_name_H-M   'P 1'
_cell_length_a   16.94915870
_cell_length_b   16.96404087
_cell_length_c   16.94858919
_cell_angle_alpha   90.00100009
_cell_angle_beta   90.15953622
_cell_angle_gamma   90.00825587
_symmetry_Int_Tables_number   1
_chemical_formula_structural   V85Zn86O256
_chemical_formula_sum   'V85 Zn86 O256'
_cell_volume   4873.14485770
_cell_formula_units_Z   1
loop_
 _symmetry_equiv_pos_site_id
 _symmetry_equiv_pos_as_xyz
  1  'x, y, z'
loop_
 _atom_site_type_symbol
 _atom_site_label
 _atom_site_symmetry_multiplicity
 _atom_site_fract_x
 _atom_site_fract_y
 _atom_site_fract_z
 _atom_site_occupancy
  V  V0  1  0.00321564  -0.00027332  0.50380248  1
  V  V1  1  0.87525827  0.74905270  0.62781477  1
  V  V2  1  0.12861103  0.50959491  0.12169881  1
  V  V3  1  0.37573503  0.87728545  0.50043176  1
  V  V4  1  0.37907083  0.13459814  0.25091632  1
  V  V5  1  0.12402246  0.24941912  0.36941175  1
  V  V6  1  0.49874244  0.62419848  0.62431451  1
  V  V7  1  0.63344788  0.50366089  0.62974380  1
  V  V8  1  0.74166058  0.00175334  0.24323618  1
  V  V9  1  0.12680857  0.11923797  0.49984248  1
  V  V10  1  0.87616904  0.62599038  0.25209657  1
  V  V11  1  0.76209246  0.37403469  0.12137542  1
  V  V12  1  0.37280704  0.75078154  0.62509290  1
  V  V13  1  0.00199900  0.87201997  0.88502564  1
  V  V14  1  0.37621005  0.63283014  0.24405153  1
  V  V15  1  0.37526799  0.37431631  0.50064761  1
  V  V16  1  -0.04623576  0.57561256  0.06902933  1
  V  V17  1  0.13130895  0.63890341  0.00298278  1
  V  V18  1  0.87107732  0.13197729  0.24180397  1
  V  V19  1  0.25154782  0.50156583  0.24868493  1
  V  V20  1  0.87852899  0.75833679  0.12193390  1
  V  V21  1  0.37837571  0.00140387  0.37822396  1
  V  V22  1  0.50112670  0.50022378  -0.00015762  1
  V  V23  1  0.12333945  0.62731217  0.49887856  1
  V  V24  1  0.12750391  0.87364815  0.24627458  1
  V  V25  1  0.87332571  0.12586890  0.74292677  1
  V  V26  1  0.01270346  0.24336244  0.76562154  1
  V  V27  1  0.50169840  -0.00286329  0.00863136  1
  V  V28  1  0.12349937  0.74970798  0.37412626  1
  V  V29  1  0.12853531  0.50014636  0.62905999  1
  V  V30  1  0.50076014  0.50028194  0.49944252  1
  V  V31  1  0.62120020  0.74924773  0.88642694  1
  V  V32  1  0.50095603  0.63228349  0.11795312  1
  V  V33  1  0.74872678  0.75509730  -0.00091330  1
  V  V34  1  0.51092558  0.87397930  0.37808439  1
  V  V35  1  0.50184269  0.74848994  0.75084196  1
  V  V36  1  0.24903691  0.12528872  0.37362572  1
  V  V37  1  0.24849772  0.25283853  0.50081053  1
  V  V38  1  0.62223804  0.88270160  0.74706913  1
  V  V39  1  -0.00174754  0.50145675  0.49800023  1
  V  V40  1  0.49015138  0.87780896  0.87933764  1
  V  V41  1  0.49882349  0.36869150  0.87415643  1
  V  V42  1  0.74654483  0.12732899  0.37625090  1
  V  V43  1  0.74362026  0.62597356  0.36786315  1
  V  V44  1  -0.00092017  0.13481778  0.61987183  1
  V  V45  1  0.50615352  0.74919476  0.25421027  1
  V  V46  1  0.74540392  0.74945821  0.49397531  1
  V  V47  1  0.24047721  0.00585249  0.75830680  1
  V  V48  1  0.74699023  0.12377642  0.87659662  1
  V  V49  1  0.62187732  0.12590065  0.51807521  1
  V  V50  1  0.12520256  0.37668645  0.24651416  1
  V  V51  1  -0.00566015  0.25262346  0.23960287  1
  V  V52  1  0.36216642  0.49644196  0.86604339  1
  V  V53  1  -0.00346143  0.37782348  0.37005891  1
  V  V54  1  0.24846215  0.37835337  0.63623510  1
  V  V55  1  0.25287957  0.00049205  0.24752981  1
  V  V56  1  0.63309256  0.37656712  0.25206460  1
  V  V57  1  0.87297953  0.87515144  0.49923851  1
  V  V58  1  0.00010260  0.87511501  0.37409343  1
  V  V59  1  0.74387396  0.62369115  0.87412963  1
  V  V60  1  0.13797959  0.11704980  -0.00415403  1
  V  V61  1  0.50802232  0.12981743  0.12676918  1
  V  V62  1  0.50315450  0.00343866  0.51556843  1
  V  V63  1  0.24987515  0.62617734  0.37355768  1
  V  V64  1  0.11634824  0.86132784  0.74969713  1
  V  V65  1  0.62415963  0.50123610  0.13040612  1
  V  V66  1  0.86985556  0.62344761  0.75619429  1
  V  V67  1  0.24432418  0.88363668  0.62621283  1
  V  V68  1  0.74495704  0.88219412  0.62319366  1
  V  V69  1  0.38799950  0.12313315  0.75138544  1
  V  V70  1  0.00197523  0.62968415  0.63626286  1
  V  V71  1  0.24589930  0.63202688  0.86780332  1
  V  V72  1  0.62918363  0.37982006  0.75119308  1
  V  V73  1  0.87279138  0.00048716  0.37291947  1
  V  V74  1  0.86765656  0.50033259  0.37031031  1
  V  V75  1  0.26628426  0.87137315  0.11827650  1
  V  V76  1  0.37531377  0.50128828  0.37402724  1
  V  V77  1  0.24638978  0.37346838  0.11638363  1
  V  V78  1  0.62342681  0.87655141  0.23930857  1
  V  V79  1  0.62495817  0.62976763  0.49467955  1
  V  V80  1  0.15392165  0.24242795  0.88124328  1
  V  V81  1  0.61903106  0.24708135  0.37318301  1
  V  V82  1  0.37104842  0.37114695  -0.00107079  1
  V  V83  1  0.49977535  0.37210000  0.36799483  1
  V  V84  1  0.37691502  0.25131859  0.12375082  1
  Zn  Zn85  1  0.79867859  0.45722604  0.81573518  1
  Zn  Zn86  1  0.50576317  0.24707139  0.73519187  1
  Zn  Zn87  1  0.75533990  0.36948466  0.62861289  1
  Zn  Zn88  1  0.96568662  0.42533117  0.92537182  1
  Zn  Zn89  1  0.74302593  0.87967347  0.11795319  1
  Zn  Zn90  1  0.62474346  0.13027816  0.00162292  1
  Zn  Zn91  1  0.76576264  0.24751845  0.00751258  1
  Zn  Zn92  1  0.87708109  0.89361228  0.00203585  1
  Zn  Zn93  1  0.88020860  0.36194278  0.51630243  1
  Zn  Zn94  1  0.10393428  0.40291950  0.78517699  1
  Zn  Zn95  1  0.75996992  0.25090001  0.50657951  1
  Zn  Zn96  1  0.00089801  0.11741136  0.12302702  1
  Zn  Zn97  1  0.24924937  0.75365395  0.50078519  1
  Zn  Zn98  1  0.00112520  0.74776681  0.24327489  1
  Zn  Zn99  1  0.12102738  -0.00310804  0.11521247  1
  Zn  Zn100  1  0.36881626  0.00400141  0.88281603  1
  Zn  Zn101  1  0.87245783  -0.00817867  0.86834462  1
  Zn  Zn102  1  0.63022700  0.25342911  0.87837097  1
  Zn  Zn103  1  0.37774097  0.24191676  0.62367949  1
  Zn  Zn104  1  0.26727911  0.75460603  -0.00163178  1
  Zn  Zn105  1  0.37076057  0.61611425  0.74538803  1
  Zn  Zn106  1  0.74572550  0.00311172  0.74453156  1
  Zn  Zn107  1  0.18720711  0.18903884  0.17857784  1
  Zn  Zn108  1  0.18863038  0.18301128  0.68314101  1
  Zn  Zn109  1  0.19214873  0.69239501  0.18518800  1
  Zn  Zn110  1  0.19061419  0.68840843  0.68666343  1
  Zn  Zn111  1  0.68829487  0.19837815  0.19078261  1
  Zn  Zn112  1  0.69210076  0.19830076  0.69492928  1
  Zn  Zn113  1  0.68442719  0.69204530  0.18447148  1
  Zn  Zn114  1  0.68738359  0.69082438  0.68701046  1
  Zn  Zn115  1  0.31140277  0.31363223  0.31065973  1
  Zn  Zn116  1  0.31207817  0.30574574  0.81121441  1
  Zn  Zn117  1  0.31516408  0.81301831  0.31319683  1
  Zn  Zn118  1  0.31070633  0.81267145  0.80860206  1
  Zn  Zn119  1  0.81106002  0.31356992  0.31817735  1
  Zn  Zn120  1  0.86429708  0.27822861  0.86859682  1
  Zn  Zn121  1  0.80842422  0.81224120  0.31027827  1
  Zn  Zn122  1  0.81312600  0.81267231  0.81159349  1
  Zn  Zn123  1  0.18564420  0.43792315  0.43742716  1
  Zn  Zn124  1  0.16372003  0.44632785  0.93351859  1
  Zn  Zn125  1  0.18932505  0.93773526  0.43503212  1
  Zn  Zn126  1  0.18151273  0.93560213  0.93525269  1
  Zn  Zn127  1  0.69147588  0.43873379  0.44453494  1
  Zn  Zn128  1  0.68205586  0.43270024  0.94897680  1
  Zn  Zn129  1  0.68508188  0.94396296  0.43859008  1
  Zn  Zn130  1  0.67990031  0.94042593  0.93510705  1
  Zn  Zn131  1  0.31593878  0.05962398  0.06374792  1
  Zn  Zn132  1  0.31333747  0.06237496  0.56747783  1
  Zn  Zn133  1  0.31450601  0.56367235  0.05733092  1
  Zn  Zn134  1  0.31094499  0.56232213  0.56049774  1
  Zn  Zn135  1  0.80569834  0.05870607  0.06267274  1
  Zn  Zn136  1  0.81377517  0.06744291  0.56149250  1
  Zn  Zn137  1  0.78952735  0.56329357  0.05463802  1
  Zn  Zn138  1  0.84746688  0.51970269  0.60366737  1
  Zn  Zn139  1  0.43836944  0.43921886  0.18765797  1
  Zn  Zn140  1  0.44087909  0.43073197  0.68503260  1
  Zn  Zn141  1  0.44271554  0.94655839  0.19254306  1
  Zn  Zn142  1  0.43124944  0.93800122  0.69343074  1
  Zn  Zn143  1  0.97109085  0.39298332  0.12523674  1
  Zn  Zn144  1  0.92037697  0.40288301  0.72785208  1
  Zn  Zn145  1  0.93479420  0.93841283  0.18756233  1
  Zn  Zn146  1  0.93859878  0.94203980  0.68500877  1
  Zn  Zn147  1  0.05074592  0.04971098  0.28763224  1
  Zn  Zn148  1  0.06449114  0.05719504  0.81492337  1
  Zn  Zn149  1  0.05816622  0.56271877  0.30687226  1
  Zn  Zn150  1  0.06264683  0.57213829  0.81756724  1
  Zn  Zn151  1  0.55998172  0.06169417  0.31459609  1
  Zn  Zn152  1  0.56196047  0.06018414  0.81641382  1
  Zn  Zn153  1  0.56235869  0.56119663  0.31140236  1
  Zn  Zn154  1  0.55858231  0.56204259  0.81550115  1
  Zn  Zn155  1  0.43950293  0.18758641  0.44240301  1
  Zn  Zn156  1  0.43090320  0.18487295  0.93777023  1
  Zn  Zn157  1  0.43743380  0.68998186  0.43596632  1
  Zn  Zn158  1  0.43365663  0.68202306  0.93368123  1
  Zn  Zn159  1  0.93868964  0.18813904  0.42919935  1
  Zn  Zn160  1  0.91905159  0.12248292  0.95983613  1
  Zn  Zn161  1  0.93520883  0.68820204  0.43876014  1
  Zn  Zn162  1  0.93383205  0.70299173  0.92907658  1
  Zn  Zn163  1  0.00080948  0.25909387  0.00768213  1
  Zn  Zn164  1  0.06381479  0.31590107  0.56094205  1
  Zn  Zn165  1  0.06383196  0.81322063  0.06332834  1
  Zn  Zn166  1  0.06202897  0.81312158  0.56472586  1
  Zn  Zn167  1  0.56554865  0.30956797  0.06126528  1
  Zn  Zn168  1  0.56794113  0.31239238  0.56208649  1
  Zn  Zn169  1  0.44527307  0.81436914  0.06464393  1
  Zn  Zn170  1  0.56213316  0.81245814  0.56319806  1
  O  O171  1  0.12688462  0.12079090  0.11318142  1
  O  O172  1  0.12058557  0.12524809  0.60595565  1
  O  O173  1  0.13026398  0.62225490  0.12024832  1
  O  O174  1  0.12208869  0.62388216  0.61620386  1
  O  O175  1  0.61044936  0.13682358  0.13157802  1
  O  O176  1  0.62766759  0.12916164  0.61545920  1
  O  O177  1  0.61268360  0.61565830  0.13388528  1
  O  O178  1  0.61666828  0.62302157  0.61841416  1
  O  O179  1  0.38142025  0.37961647  0.37891490  1
  O  O180  1  0.37529301  0.37887568  0.88159776  1
  O  O181  1  0.38237486  0.88075718  0.38240704  1
  O  O182  1  0.38798783  0.87593348  0.86752301  1
  O  O183  1  0.88102314  0.38740036  0.37316732  1
  O  O184  1  0.88794009  0.39015541  0.84487043  1
  O  O185  1  0.87835978  0.87935240  0.37986515  1
  O  O186  1  0.88327446  0.87506673  0.87789472  1
  O  O187  1  0.25998868  0.00621445  0.37029034  1
  O  O188  1  0.25245350  -0.01002737  0.86136012  1
  O  O189  1  0.25401623  0.50661065  0.36873118  1
  O  O190  1  0.25578661  0.51179626  0.88244512  1
  O  O191  1  0.75178437  0.01140923  0.36923460  1
  O  O192  1  0.74657617  0.00934188  0.86812845  1
  O  O193  1  0.75688753  0.51398121  0.38162442  1
  O  O194  1  0.74128922  0.51734947  0.89157123  1
  O  O195  1  0.24671732  0.49738993  0.13129259  1
  O  O196  1  0.24052236  0.49174837  0.61557075  1
  O  O197  1  0.24974203  0.98919833  0.13415187  1
  O  O198  1  0.25387552  0.98748977  0.63450560  1
  O  O199  1  0.73190986  0.49293947  0.12060960  1
  O  O200  1  0.73352246  0.50979260  0.62211525  1
  O  O201  1  0.74522573  0.99970773  0.13917470  1
  O  O202  1  0.75338701  0.98502851  0.62031817  1
  O  O203  1  0.00829609  0.37007127  0.24565020  1
  O  O204  1  0.01837339  0.34552712  0.73292582  1
  O  O205  1  0.01108590  0.86997276  0.25718895  1
  O  O206  1  0.01590716  0.87463057  0.73625385  1
  O  O207  1  0.50526348  0.38011951  0.26361509  1
  O  O208  1  0.50709016  0.37558836  0.76075553  1
  O  O209  1  0.50444619  0.87071358  0.25787701  1
  O  O210  1  0.50400232  0.86780786  0.75495889  1
  O  O211  1  0.48719454  0.11643983  0.24261342  1
  O  O212  1  0.49177618  0.12358920  0.74877600  1
  O  O213  1  0.49481020  0.63313557  0.24720031  1
  O  O214  1  0.49455319  0.63366420  0.74457202  1
  O  O215  1  0.98623449  0.13930238  0.25853974  1
  O  O216  1  1.00077115  0.12743433  0.73816033  1
  O  O217  1  0.98263796  0.63212553  0.25600506  1
  O  O218  1  0.99451047  0.62554517  0.74151764  1
  O  O219  1  0.37467622  0.26358749  0.00662472  1
  O  O220  1  0.36119018  0.25317998  0.49855170  1
  O  O221  1  0.38047018  0.74924106  0.00280575  1
  O  O222  1  0.37494249  0.75627913  0.51025508  1
  O  O223  1  0.88164933  0.23677603  -0.02416964  1
  O  O224  1  0.87507689  0.25141050  0.49217871  1
  O  O225  1  0.86539939  0.75639846  0.00740268  1
  O  O226  1  0.86593769  0.75540451  0.50661968  1
  O  O227  1  0.13442160  0.24535689  0.49126999  1
  O  O228  1  0.13196841  0.23796783  0.98333888  1
  O  O229  1  0.12663340  0.74422461  0.49207232  1
  O  O230  1  0.13467952  0.74172631  1.00874619  1
  O  O231  1  0.62516083  0.23769161  0.49016091  1
  O  O232  1  0.63541044  0.24935933  0.99612257  1
  O  O233  1  0.62896080  0.73827304  0.50310166  1
  O  O234  1  0.62867648  0.75479643  0.98636271  1
  O  O235  1  0.48549447  0.24652689  0.12304463  1
  O  O236  1  0.48877700  0.26576347  0.62341272  1
  O  O237  1  0.49915327  0.73960164  0.13775446  1
  O  O238  1  0.49282106  0.74493152  0.63059940  1
  O  O239  1  0.99732360  0.25018299  0.13832679  1
  O  O240  1  1.00993483  0.23630908  0.62341655  1
  O  O241  1  0.98439545  0.75572910  0.12486470  1
  O  O242  1  0.98879369  0.73901380  0.61415720  1
  O  O243  1  0.00786750  0.26027804  0.36498063  1
  O  O244  1  0.01358730  0.25222170  0.86490084  1
  O  O245  1  0.01114740  0.75591025  0.37625434  1
  O  O246  1  -0.00340581  0.77199687  0.86475455  1
  O  O247  1  0.50635833  0.26007202  0.38115221  1
  O  O248  1  0.49692288  0.26402926  0.87817420  1
  O  O249  1  0.49461374  0.76065326  0.36554667  1
  O  O250  1  0.50394173  0.75316825  0.86732753  1
  O  O251  1  0.24493576  0.13041929  0.49595563  1
  O  O252  1  0.23830702  0.11914917  1.00479660  1
  O  O253  1  0.23806955  0.62720912  0.49276178  1
  O  O254  1  0.24629840  0.63052452  0.99243704  1
  O  O255  1  0.73656104  0.12239015  0.49229041  1
  O  O256  1  0.74558222  0.12522267  0.98949845  1
  O  O257  1  0.73916347  0.63563091  0.48826050  1
  O  O258  1  0.74810259  0.64474806  0.98930508  1
  O  O259  1  0.25517386  0.38590897  0.01293714  1
  O  O260  1  0.25497729  0.36649569  0.49888802  1
  O  O261  1  0.24722216  0.87676658  0.01580348  1
  O  O262  1  0.25587148  0.87628910  0.50770970  1
  O  O263  1  0.75636646  0.37472060  0.01549173  1
  O  O264  1  0.75826153  0.37393530  0.50519044  1
  O  O265  1  0.74822631  0.86810051  -0.00203891  1
  O  O266  1  0.75069288  0.86946697  0.50292140  1
  O  O267  1  0.13097963  0.50046323  0.24127541  1
  O  O268  1  0.12325704  0.50643615  0.73116394  1
  O  O269  1  0.14455340  0.98796673  0.26234853  1
  O  O270  1  0.13765478  0.99080468  0.74938937  1
  O  O271  1  0.61780192  0.48973561  0.24168118  1
  O  O272  1  0.61284769  0.49613013  0.73892729  1
  O  O273  1  0.63148522  0.99072490  0.25953233  1
  O  O274  1  0.62268058  0.98581392  0.74957794  1
  O  O275  1  0.36699457  0.00810303  0.25722514  1
  O  O276  1  0.36521143  0.00858161  0.75370116  1
  O  O277  1  0.37179742  0.50920049  0.25650793  1
  O  O278  1  0.37873158  0.49597327  0.76308848  1
  O  O279  1  0.86182323  0.00612011  0.25796216  1
  O  O280  1  0.87081293  0.01216926  0.74353057  1
  O  O281  1  0.87380280  0.51442357  0.26763366  1
  O  O282  1  0.87054511  0.51868100  0.74365372  1
  O  O283  1  0.11887876  0.37225518  0.36539915  1
  O  O284  1  0.15477772  0.34936800  0.87210103  1
  O  O285  1  0.12466797  0.86645272  0.36641441  1
  O  O286  1  0.11426895  0.87495643  0.86138712  1
  O  O287  1  0.61918756  0.37079083  0.37195851  1
  O  O288  1  0.61468078  0.37963606  0.87028208  1
  O  O289  1  0.61327481  0.87775935  0.37369327  1
  O  O290  1  0.61334995  0.86719205  0.86556937  1
  O  O291  1  0.37909935  0.13447627  0.13229486  1
  O  O292  1  0.36791615  0.12506430  0.64352785  1
  O  O293  1  0.38605358  0.61513706  0.13603733  1
  O  O294  1  0.37808795  0.63240760  0.62467592  1
  O  O295  1  0.87467764  0.12037638  0.13963543  1
  O  O296  1  0.88666738  0.12332462  0.62936957  1
  O  O297  1  0.87851163  0.62755969  0.12665602  1
  O  O298  1  0.88453004  0.62965733  0.62955147  1
  O  O299  1  0.26268684  0.26328780  0.13125655  1
  O  O300  1  0.24924390  0.25867692  0.61517848  1
  O  O301  1  0.25586984  0.76898269  0.12817323  1
  O  O302  1  0.25936810  0.75755200  0.62299955  1
  O  O303  1  0.75352443  0.26785958  0.12721336  1
  O  O304  1  0.74593308  0.25671157  0.61999506  1
  O  O305  1  0.75698929  0.75258654  0.11587259  1
  O  O306  1  0.75527155  0.75582563  0.61200400  1
  O  O307  1  0.24453301  0.24506514  0.37946255  1
  O  O308  1  0.25185877  0.23090267  0.87339077  1
  O  O309  1  0.23999149  0.74549454  0.37610398  1
  O  O310  1  0.25947637  0.73570103  0.87696547  1
  O  O311  1  0.74065959  0.23815471  0.37631727  1
  O  O312  1  0.75331196  0.23155326  0.87256531  1
  O  O313  1  0.75293346  0.74519140  0.38716277  1
  O  O314  1  0.74027446  0.74701588  0.87878999  1
  O  O315  1  0.01704812  0.14079536  0.01060487  1
  O  O316  1  0.00755864  0.11864538  0.49947407  1
  O  O317  1  0.00596702  0.63367073  0.00064094  1
  O  O318  1  0.01123226  0.62305252  0.50134297  1
  O  O319  1  0.50111730  0.12194558  0.01042161  1
  O  O320  1  0.51244318  0.11792485  0.49932634  1
  O  O321  1  0.49527534  0.61529828  0.01023971  1
  O  O322  1  0.50535930  0.62125989  0.50204844  1
  O  O323  1  0.49605549  0.38315601  0.48888266  1
  O  O324  1  0.49034128  0.38088757  0.99534957  1
  O  O325  1  0.49630435  0.88052724  0.49446829  1
  O  O326  1  0.50233403  0.88820740  0.99513941  1
  O  O327  1  0.99967020  0.38649632  0.49236666  1
  O  O328  1  0.99587569  0.37084014  1.01759525  1
  O  O329  1  0.99622420  0.88244464  0.49445721  1
  O  O330  1  1.00116870  0.87511300  0.98950875  1
  O  O331  1  0.49445224  0.49500469  0.38113838  1
  O  O332  1  0.48991452  0.49279125  0.88430472  1
  O  O333  1  0.49406404  0.99198662  0.38368527  1
  O  O334  1  0.49704544  0.99164809  0.88400136  1
  O  O335  1  0.99533564  0.49587276  0.37877955  1
  O  O336  1  1.05418450  0.47319649  0.87068373  1
  O  O337  1  0.99227046  0.99354066  0.37727594  1
  O  O338  1  0.99470621  0.97699561  0.85764849  1
  O  O339  1  0.01765831  0.01099812  0.16827429  1
  O  O340  1  -0.00178985  0.00847838  0.60724734  1
  O  O341  1  0.00846606  0.51034054  0.12851214  1
  O  O342  1  0.01075423  0.51593639  0.61160626  1
  O  O343  1  0.49836153  0.01140057  0.11641439  1
  O  O344  1  0.49610067  -0.00961533  0.61371524  1
  O  O345  1  0.50478829  0.50618436  0.11945865  1
  O  O346  1  0.50324631  0.50662784  0.61606877  1
  O  O347  1  0.24544558  0.38327694  0.24316632  1
  O  O348  1  0.24967483  0.37069460  0.73654996  1
  O  O349  1  0.24868111  0.88078727  0.24348241  1
  O  O350  1  0.24223184  0.88088832  0.74318870  1
  O  O351  1  0.73670107  0.37354978  0.24823474  1
  O  O352  1  0.73305073  0.38610335  0.75221578  1
  O  O353  1  0.73933465  0.88465889  0.25286769  1
  O  O354  1  0.74049458  0.87360059  0.74012075  1
  O  O355  1  0.25677582  0.11754917  0.25215012  1
  O  O356  1  0.25043580  0.10705298  0.74515513  1
  O  O357  1  0.25883169  0.62273334  0.25344927  1
  O  O358  1  0.25160175  0.62643963  0.76282705  1
  O  O359  1  0.75148295  0.12159436  0.25647074  1
  O  O360  1  0.75743491  0.12313224  0.75350248  1
  O  O361  1  0.75624154  0.63561701  0.26127611  1
  O  O362  1  0.75560477  0.63235807  0.76075492  1
  O  O363  1  0.37057208  0.12317844  0.36878513  1
  O  O364  1  0.37695765  0.12128289  0.85858968  1
  O  O365  1  0.36918004  0.62085046  0.36892388  1
  O  O366  1  0.36418386  0.61278605  0.87118109  1
  O  O367  1  0.86369526  0.11830111  0.36764999  1
  O  O368  1  0.86241104  0.11317683  0.86080894  1
  O  O369  1  0.86546186  0.62530912  0.36887301  1
  O  O370  1  0.86347687  0.63506805  0.86606000  1
  O  O371  1  0.13495957  0.38960993  0.13238830  1
  O  O372  1  0.13573522  0.38828384  0.61397457  1
  O  O373  1  0.13279101  0.87626949  0.13725248  1
  O  O374  1  0.13528412  0.86964605  0.63232046  1
  O  O375  1  0.62777811  0.38061345  0.13565796  1
  O  O376  1  0.62366893  0.38880710  0.63301417  1
  O  O377  1  0.62397335  0.87402570  0.14049558  1
  O  O378  1  0.63380405  0.86710838  0.63324946  1
  O  O379  1  0.11986588  0.25561229  0.25198530  1
  O  O380  1  0.12219877  0.22970582  0.76441146  1
  O  O381  1  0.12475354  0.75665876  0.25656192  1
  O  O382  1  0.12939738  0.76284045  0.74811040  1
  O  O383  1  0.62284356  0.25979992  0.26522560  1
  O  O384  1  0.62024337  0.26411654  0.75810301  1
  O  O385  1  0.61420985  0.75847156  0.25207216  1
  O  O386  1  0.61255979  0.75750332  0.75239688  1
  O  O387  1  0.37227886  0.24041862  0.24493370  1
  O  O388  1  0.37821297  0.23476446  0.74841744  1
  O  O389  1  0.38236393  0.73798766  0.25545663  1
  O  O390  1  0.38451842  0.75050158  0.73833702  1
  O  O391  1  0.88101247  0.24282986  0.25872136  1
  O  O392  1  0.89783156  0.23310681  0.75905343  1
  O  O393  1  0.87247243  0.74477604  0.23975983  1
  O  O394  1  0.86748843  0.74236818  0.73326654  1
  O  O395  1  0.38011508  0.49591612  0.49208374  1
  O  O396  1  0.38219497  0.48881268  0.99480774  1
  O  O397  1  0.38217483  0.99793555  0.49664521  1
  O  O398  1  0.39281190  1.00748142  0.99750244  1
  O  O399  1  0.89160527  0.51059116  0.48963249  1
  O  O400  1  0.89299140  0.51931035  1.01196099  1
  O  O401  1  0.88113574  0.99511208  0.49168678  1
  O  O402  1  0.87990416  1.01134838  0.99243156  1
  O  O403  1  0.12232161  0.01016467  -0.00102816  1
  O  O404  1  0.11576813  0.00807658  0.48814018  1
  O  O405  1  0.12938935  0.51755938  0.01632708  1
  O  O406  1  0.11702376  0.51037734  0.49950604  1
  O  O407  1  0.60687689  0.00898826  -0.00397628  1
  O  O408  1  0.61677924  0.01595446  0.49822546  1
  O  O409  1  0.60748415  0.49372084  0.01202430  1
  O  O410  1  0.61804944  0.51176707  0.50585253  1
  O  O411  1  0.36985015  0.37113143  0.11996983  1
  O  O412  1  0.36314659  0.37987212  0.61433857  1
  O  O413  1  0.36988605  0.88048517  0.12942773  1
  O  O414  1  0.36772947  0.86814787  0.62040151  1
  O  O415  1  0.85656458  0.39140438  0.14244060  1
  O  O416  1  0.86982982  0.40625526  0.62650653  1
  O  O417  1  0.86766183  0.87212218  0.12241185  1
  O  O418  1  0.86903316  0.86679917  0.61803918  1
  O  O419  1  0.13162695  0.13081958  0.38131338  1
  O  O420  1  0.12321150  0.12652628  0.88699885  1
  O  O421  1  0.12724213  0.63227521  0.37807767  1
  O  O422  1  0.13953342  0.62771611  0.88452455  1
  O  O423  1  0.62911814  0.13261328  0.37578623  1
  O  O424  1  0.63637994  0.12842257  0.87092066  1
  O  O425  1  0.63065131  0.62104609  0.38231146  1
  O  O426  1  0.63019552  0.63781807  0.86630099  1
