# generated using pymatgen
data_V85Zn86O256
_symmetry_space_group_name_H-M   'P 1'
_cell_length_a   16.92691091
_cell_length_b   16.92725122
_cell_length_c   16.92090116
_cell_angle_alpha   90.07791749
_cell_angle_beta   90.04263775
_cell_angle_gamma   89.97376479
_symmetry_Int_Tables_number   1
_chemical_formula_structural   V85Zn86O256
_chemical_formula_sum   'V85 Zn86 O256'
_cell_volume   4848.27303694
_cell_formula_units_Z   1
loop_
 _symmetry_equiv_pos_site_id
 _symmetry_equiv_pos_as_xyz
  1  'x, y, z'
loop_
 _atom_site_type_symbol
 _atom_site_label
 _atom_site_symmetry_multiplicity
 _atom_site_fract_x
 _atom_site_fract_y
 _atom_site_fract_z
 _atom_site_occupancy
  V  V0  1  0.62480950  0.75210515  0.87289228  1
  V  V1  1  0.74319276  0.74922569  0.49948230  1
  V  V2  1  0.74334179  0.24763922  0.49989383  1
  V  V3  1  -0.00495947  -0.00775814  -0.00229993  1
  V  V4  1  0.25235994  0.74916446  0.50179122  1
  V  V5  1  0.50077327  0.00494419  0.01395677  1
  V  V6  1  0.00329626  0.37551511  0.87759085  1
  V  V7  1  0.37717085  -0.00105190  0.37718237  1
  V  V8  1  0.11912600  0.75323480  0.37458262  1
  V  V9  1  0.51674617  0.00178139  0.50168792  1
  V  V10  1  -0.00090773  0.12574623  0.12398687  1
  V  V11  1  0.11829530  0.87591853  0.25407714  1
  V  V12  1  0.51876844  0.12194194  0.62156063  1
  V  V13  1  0.87201764  0.11381651  0.25308434  1
  V  V14  1  0.12787003  0.37816394  0.25175367  1
  V  V15  1  0.50400618  0.50128937  0.00038330  1
  V  V16  1  0.75887834  0.37626795  0.62326511  1
  V  V17  1  0.74427225  0.62617403  0.37226797  1
  V  V18  1  0.51057464  0.37537393  0.37203692  1
  V  V19  1  0.61870971  0.85487923  0.24200594  1
  V  V20  1  0.75006348  0.48671532  0.24638633  1
  V  V21  1  0.75031689  0.02419800  0.74919057  1
  V  V22  1  0.12481598  0.12439446  0.00070349  1
  V  V23  1  0.37996452  0.24829726  0.12548037  1
  V  V24  1  0.11173210  0.86949474  0.74879888  1
  V  V25  1  0.11583884  0.00310458  0.62576110  1
  V  V26  1  0.25385837  0.87373662  0.62572845  1
  V  V27  1  0.62476451  0.50574562  0.62259327  1
  V  V28  1  0.25249527  0.37766081  0.62818790  1
  V  V29  1  0.12789524  0.50101479  0.63129766  1
  V  V30  1  -0.00377756  0.50101822  0.00886421  1
  V  V31  1  0.87810855  0.49708224  0.37417767  1
  V  V32  1  0.87346179  0.50223191  0.87353361  1
  V  V33  1  -0.00669066  0.24362893  0.74587916  1
  V  V34  1  0.50986224  0.24983938  0.24753900  1
  V  V35  1  -0.00720612  -0.00081614  0.48719451  1
  V  V36  1  0.86865292  0.37514804  0.00511862  1
  V  V37  1  0.88070402  0.63282080  0.75112965  1
  V  V38  1  0.25242869  0.24920661  0.00631185  1
  V  V39  1  0.12481640  0.62512132  0.50138799  1
  V  V40  1  0.37644361  0.63070601  0.74512966  1
  V  V41  1  0.86505779  0.00530369  0.87757293  1
  V  V42  1  0.37472123  0.87478333  -0.00079593  1
  V  V43  1  0.12653745  0.25193641  0.87694818  1
  V  V44  1  0.00118613  0.49688611  0.49809840  1
  V  V45  1  -0.00226614  0.25407971  0.25938178  1
  V  V46  1  0.37819695  0.24999290  0.62388917  1
  V  V47  1  0.37800234  0.37311370  0.00097173  1
  V  V48  1  0.76167643  0.75270271  0.00436318  1
  V  V49  1  0.87536323  0.87632484  0.48491081  1
  V  V50  1  0.12262737  0.62616036  0.00181260  1
  V  V51  1  0.62475692  0.62729035  0.00244668  1
  V  V52  1  0.25161827  0.12428655  0.87268932  1
  V  V53  1  0.24813575  0.62073684  0.86999459  1
  V  V54  1  0.74448583  0.11912524  0.37816372  1
  V  V55  1  0.63260518  0.48496307  0.12492857  1
  V  V56  1  0.24842080  0.00002445  0.74874842  1
  V  V57  1  0.38175655  0.12405540  0.24653291  1
  V  V58  1  0.50703909  0.86229936  0.37211576  1
  V  V59  1  0.11946039  0.12710661  0.50449460  1
  V  V60  1  0.86850159  0.25226542  0.12736575  1
  V  V61  1  0.50399108  0.37245422  0.87266264  1
  V  V62  1  0.24885102  0.87511288  0.12645682  1
  V  V63  1  0.37958500  0.74510053  0.13737872  1
  V  V64  1  0.62984268  0.11877029  0.00354424  1
  V  V65  1  0.37229053  0.49874387  0.86896430  1
  V  V66  1  0.25008129  0.24943960  0.50132452  1
  V  V67  1  0.25167034  0.61344078  0.36599343  1
  V  V68  1  0.25020903  0.12579520  0.37723769  1
  V  V69  1  0.74463037  0.87934017  0.63138524  1
  V  V70  1  0.13315015  0.37958645  0.75726986  1
  V  V71  1  0.73248472  0.00176058  0.24706911  1
  V  V72  1  0.88205423  0.75588736  0.62751239  1
  V  V73  1  -0.00489970  0.64071521  0.13418303  1
  V  V74  1  0.49710616  0.50161298  0.49414298  1
  V  V75  1  0.37796068  0.87338254  0.50206658  1
  V  V76  1  0.88219001  0.36621644  0.50036709  1
  V  V77  1  0.25002072  0.00112942  0.25051891  1
  V  V78  1  0.37873820  0.12354113  0.74480815  1
  V  V79  1  0.75025073  0.24660757  -0.00749848  1
  V  V80  1  0.75719576  0.87971117  0.11983975  1
  V  V81  1  0.62776556  0.37558824  0.74824872  1
  V  V82  1  0.37430880  0.37779437  0.49081630  1
  V  V83  1  0.49985516  0.87838638  0.87363299  1
  V  V84  1  0.25086386  0.75074848  -0.00265750  1
  Zn  Zn85  1  0.12493992  0.00022982  0.12473451  1
  Zn  Zn86  1  0.37816703  0.59802149  0.25615624  1
  Zn  Zn87  1  0.28455414  0.42795007  0.16869268  1
  Zn  Zn88  1  0.11868168  0.74776475  0.86693023  1
  Zn  Zn89  1  0.75303630  0.50347341  0.74815800  1
  Zn  Zn90  1  0.63377132  0.24251573  0.86844686  1
  Zn  Zn91  1  0.62007420  0.62992547  0.49569985  1
  Zn  Zn92  1  -0.04444723  0.80435352  0.30625473  1
  Zn  Zn93  1  0.11871998  0.25454670  0.37980458  1
  Zn  Zn94  1  0.62754031  0.24855015  0.37199802  1
  Zn  Zn95  1  0.75083187  0.62837460  0.87405391  1
  Zn  Zn96  1  0.49402912  0.63185940  0.61893268  1
  Zn  Zn97  1  0.37684851  0.00054559  0.87417134  1
  Zn  Zn98  1  0.50835306  0.62920284  0.13817588  1
  Zn  Zn99  1  0.62330688  0.88284077  0.74698730  1
  Zn  Zn100  1  0.49704713  0.75647963  0.74125488  1
  Zn  Zn101  1  0.00349748  0.63079737  0.63033980  1
  Zn  Zn102  1  -0.01259367  0.86888951  0.87456986  1
  Zn  Zn103  1  -0.04156052  0.13447320  0.62422017  1
  Zn  Zn104  1  0.12903523  0.50033991  0.13175858  1
  Zn  Zn105  1  0.87603693  0.63535127  0.25023273  1
  Zn  Zn106  1  0.50567121  0.24754609  0.74687092  1
  Zn  Zn107  1  0.18762232  0.19116543  0.18920909  1
  Zn  Zn108  1  0.18513706  0.19072471  0.68849902  1
  Zn  Zn109  1  0.18477671  0.69004436  0.18844167  1
  Zn  Zn110  1  0.19202038  0.68830262  0.68662455  1
  Zn  Zn111  1  0.68707491  0.18444664  0.17900017  1
  Zn  Zn112  1  0.70248011  0.19127923  0.68117776  1
  Zn  Zn113  1  0.69621919  0.68226104  0.18419034  1
  Zn  Zn114  1  0.69304077  0.68922504  0.68882972  1
  Zn  Zn115  1  0.31364830  0.31037088  0.31402280  1
  Zn  Zn116  1  0.31479189  0.30972974  0.81317277  1
  Zn  Zn117  1  0.30763274  0.81230531  0.31739035  1
  Zn  Zn118  1  0.30913644  0.81186289  0.81312605  1
  Zn  Zn119  1  0.81572079  0.31096821  0.31770709  1
  Zn  Zn120  1  0.81445338  0.31670548  0.81351566  1
  Zn  Zn121  1  0.79383414  0.80904827  0.30812353  1
  Zn  Zn122  1  0.81547296  0.81586829  0.81649217  1
  Zn  Zn123  1  0.18280371  0.43398316  0.43550223  1
  Zn  Zn124  1  0.19824283  0.44597573  0.96461364  1
  Zn  Zn125  1  0.18501999  0.93900987  0.43817378  1
  Zn  Zn126  1  0.18397789  0.93917043  0.93480516  1
  Zn  Zn127  1  0.68974879  0.43936682  0.43801282  1
  Zn  Zn128  1  0.68997470  0.43617326  0.93808020  1
  Zn  Zn129  1  0.69027122  0.93198748  0.43026470  1
  Zn  Zn130  1  0.68716616  0.93924559  0.93592161  1
  Zn  Zn131  1  0.31575322  0.06255188  0.06373079  1
  Zn  Zn132  1  0.31242841  0.05969004  0.56347268  1
  Zn  Zn133  1  0.31485063  0.56447784  0.05965522  1
  Zn  Zn134  1  0.30969523  0.55957474  0.55955062  1
  Zn  Zn135  1  0.81145634  0.06109939  0.06256518  1
  Zn  Zn136  1  0.80862696  0.05845561  0.55935762  1
  Zn  Zn137  1  0.81290465  0.56718341  0.06520756  1
  Zn  Zn138  1  0.81504290  0.56451282  0.56276076  1
  Zn  Zn139  1  0.45137164  0.43962908  0.18958329  1
  Zn  Zn140  1  0.43925374  0.44174892  0.68555401  1
  Zn  Zn141  1  0.43709054  0.93149611  0.18951155  1
  Zn  Zn142  1  0.43972795  0.93920369  0.68480469  1
  Zn  Zn143  1  0.93866935  0.43637585  0.19110976  1
  Zn  Zn144  1  0.94331729  0.43704581  0.68887041  1
  Zn  Zn145  1  0.93410392  0.94074502  0.18342501  1
  Zn  Zn146  1  0.92710398  0.94917650  0.68326302  1
  Zn  Zn147  1  0.06398094  0.06618627  0.31191858  1
  Zn  Zn148  1  0.05777308  0.06148504  0.81543831  1
  Zn  Zn149  1  0.06489271  0.56184806  0.31483259  1
  Zn  Zn150  1  0.05926807  0.56242955  0.81505818  1
  Zn  Zn151  1  0.56216671  0.06124034  0.31581859  1
  Zn  Zn152  1  0.56782862  0.06195130  0.81525699  1
  Zn  Zn153  1  0.56424467  0.56163008  0.30924712  1
  Zn  Zn154  1  0.56259770  0.56251832  0.81260365  1
  Zn  Zn155  1  0.44128271  0.18689930  0.43659354  1
  Zn  Zn156  1  0.44313640  0.18465587  0.93389983  1
  Zn  Zn157  1  0.43336771  0.68571397  0.43454220  1
  Zn  Zn158  1  0.43904009  0.68814835  0.93686650  1
  Zn  Zn159  1  0.93111671  0.18079796  0.43693145  1
  Zn  Zn160  1  0.93678950  0.18571873  0.93417126  1
  Zn  Zn161  1  0.93230554  0.68158447  0.44466176  1
  Zn  Zn162  1  0.94081348  0.69009885  0.93658099  1
  Zn  Zn163  1  0.06064852  0.31318064  0.06858739  1
  Zn  Zn164  1  0.06207750  0.31375528  0.56843456  1
  Zn  Zn165  1  0.06535828  0.81264470  0.06314048  1
  Zn  Zn166  1  0.06107959  0.81692934  0.55896084  1
  Zn  Zn167  1  0.56388607  0.30652768  0.06144994  1
  Zn  Zn168  1  0.56387269  0.31478174  0.56381189  1
  Zn  Zn169  1  0.56292755  0.81377255  0.06155948  1
  Zn  Zn170  1  0.56067871  0.81055027  0.56485564  1
  O  O171  1  0.11627198  0.12533478  0.12038241  1
  O  O172  1  0.13149834  0.11770132  0.61397895  1
  O  O173  1  0.11685119  0.62227767  0.11884773  1
  O  O174  1  0.12626465  0.61798376  0.62182730  1
  O  O175  1  0.61743208  0.13165792  0.10362486  1
  O  O176  1  0.61752363  0.13054562  0.62759371  1
  O  O177  1  0.62725769  0.61927552  0.11309100  1
  O  O178  1  0.62816078  0.61306750  0.62540214  1
  O  O179  1  0.38358376  0.36830148  0.38702387  1
  O  O180  1  0.38311426  0.38096014  0.87703531  1
  O  O181  1  0.38193315  0.88059893  0.38052087  1
  O  O182  1  0.38090243  0.87537358  0.88134339  1
  O  O183  1  0.87357426  0.38773822  0.38548784  1
  O  O184  1  0.88320712  0.38313710  0.88385723  1
  O  O185  1  0.87327751  0.86649159  0.38314639  1
  O  O186  1  0.87492460  0.89364682  0.87352171  1
  O  O187  1  0.25612881  0.00649312  0.37161028  1
  O  O188  1  0.25282680  0.00761538  0.86841234  1
  O  O189  1  0.24497008  0.51548521  0.38269509  1
  O  O190  1  0.26035769  0.50908826  0.88423537  1
  O  O191  1  0.74666241  0.00675727  0.36212676  1
  O  O192  1  0.75718672  0.00118377  0.86748299  1
  O  O193  1  0.75685446  0.50270340  0.36548035  1
  O  O194  1  0.76405699  0.50112815  0.87588156  1
  O  O195  1  0.23588083  0.48681681  0.08444396  1
  O  O196  1  0.23622241  0.49251455  0.62009291  1
  O  O197  1  0.25045617  0.99300000  0.13127048  1
  O  O198  1  0.23775823  0.99259603  0.62708589  1
  O  O199  1  0.74916239  0.50305353  0.13773572  1
  O  O200  1  0.74377487  0.49174535  0.62296533  1
  O  O201  1  0.74770418  0.98756096  0.12841966  1
  O  O202  1  0.75006750  0.98776332  0.63845018  1
  O  O203  1  0.00704134  0.36278020  0.24925098  1
  O  O204  1  0.01309548  0.36885273  0.75741639  1
  O  O205  1  0.01236090  0.88602477  0.24875610  1
  O  O206  1  0.01121399  0.88397015  0.74352485  1
  O  O207  1  0.49811546  0.36333887  0.26090258  1
  O  O208  1  0.50977952  0.37562069  0.75435229  1
  O  O209  1  0.51125478  0.87468921  0.25574957  1
  O  O210  1  0.50293827  0.87623342  0.75728241  1
  O  O211  1  0.48821453  0.13172782  0.25855611  1
  O  O212  1  0.49508326  0.12228961  0.74046531  1
  O  O213  1  0.49071016  0.61740633  0.24925466  1
  O  O214  1  0.48468619  0.62482487  0.75228056  1
  O  O215  1  0.99126930  0.12821712  0.24259248  1
  O  O216  1  1.00781874  0.14062531  0.74896849  1
  O  O217  1  1.00197418  0.62130333  0.23717205  1
  O  O218  1  0.98687423  0.62178799  0.74811163  1
  O  O219  1  0.37284095  0.24823920  0.00690050  1
  O  O220  1  0.37154556  0.25582118  0.50610671  1
  O  O221  1  0.36353703  0.75361505  0.00309105  1
  O  O222  1  0.36669134  0.76465555  0.49443245  1
  O  O223  1  0.87208847  0.25523197  0.00549336  1
  O  O224  1  0.86935697  0.26227881  0.49420536  1
  O  O225  1  0.85985388  0.74850043  -0.00163173  1
  O  O226  1  0.86646160  0.75739320  0.50776107  1
  O  O227  1  0.12890501  0.24358749  0.50215048  1
  O  O228  1  0.13354136  0.24616519  0.99843626  1
  O  O229  1  0.13177285  0.74701073  0.49626482  1
  O  O230  1  0.13558063  0.74048618  1.00238370  1
  O  O231  1  0.64008468  0.25547883  0.49936606  1
  O  O232  1  0.63546610  0.24387048  0.99644361  1
  O  O233  1  0.63915726  0.74927461  0.50406983  1
  O  O234  1  0.62755575  0.74344905  0.99138498  1
  O  O235  1  0.48887869  0.25327083  0.13198751  1
  O  O236  1  0.49535269  0.24063231  0.62309360  1
  O  O237  1  0.48254637  0.74899269  0.11791116  1
  O  O238  1  0.49950613  0.74452797  0.62826701  1
  O  O239  1  0.99004282  0.23905114  0.13009253  1
  O  O240  1  1.00338741  0.24680435  0.64035569  1
  O  O241  1  1.00338105  0.73942867  0.12540677  1
  O  O242  1  0.98609359  0.75221095  0.61905329  1
  O  O243  1  -0.00232027  0.24037458  0.36243373  1
  O  O244  1  0.00937071  0.25577136  0.87208318  1
  O  O245  1  0.01377062  0.74390736  0.38531705  1
  O  O246  1  0.00776453  0.75869399  0.88276413  1
  O  O247  1  0.50386690  0.25577170  0.36726312  1
  O  O248  1  0.50009974  0.26365302  0.87013715  1
  O  O249  1  0.50032878  0.76378274  0.38413808  1
  O  O250  1  0.50602175  0.76246926  0.87515479  1
  O  O251  1  0.24291602  0.12861310  0.49693829  1
  O  O252  1  0.24830261  0.13182389  0.99381615  1
  O  O253  1  0.24536133  0.63379501  0.49583443  1
  O  O254  1  0.24302702  0.63298884  0.99047814  1
  O  O255  1  0.75513627  0.13407593  0.48888191  1
  O  O256  1  0.73869163  0.12901816  1.00107750  1
  O  O257  1  0.75008598  0.63320597  0.49453454  1
  O  O258  1  0.74461578  0.63787508  0.99976009  1
  O  O259  1  0.26255297  0.35439206  -0.01226655  1
  O  O260  1  0.25718898  0.36995777  0.50393492  1
  O  O261  1  0.25186542  0.86907854  0.00361671  1
  O  O262  1  0.25574078  0.87108597  0.50607260  1
  O  O263  1  0.76322126  0.36755010  -0.00163186  1
  O  O264  1  0.75959622  0.37073150  0.50496927  1
  O  O265  1  0.74131438  0.86758706  0.01190199  1
  O  O266  1  0.75636592  0.87021881  0.50567998  1
  O  O267  1  0.12183858  0.48431113  0.25046429  1
  O  O268  1  0.12015311  0.49207559  0.74426501  1
  O  O269  1  0.13339913  0.99657426  0.24982398  1
  O  O270  1  0.12859984  0.99547860  0.74203144  1
  O  O271  1  0.64148054  0.49947578  0.24071548  1
  O  O272  1  0.62773125  0.49213492  0.74367290  1
  O  O273  1  0.63046315  0.99947875  0.24521462  1
  O  O274  1  0.64534254  0.99851018  0.75761024  1
  O  O275  1  0.37160401  0.00578562  0.25530043  1
  O  O276  1  0.36761700  0.00776407  0.74836752  1
  O  O277  1  0.35994577  0.49047769  0.22602703  1
  O  O278  1  0.37827565  0.50686228  0.76318414  1
  O  O279  1  0.86287691  0.01063573  0.24344682  1
  O  O280  1  0.85761365  -0.00092587  0.76012210  1
  O  O281  1  0.86907555  0.50166890  0.25806367  1
  O  O282  1  0.87687709  0.50453072  0.75925185  1
  O  O283  1  0.12463821  0.36987170  0.36134917  1
  O  O284  1  0.12354615  0.37345727  0.87358453  1
  O  O285  1  0.12900310  0.86704261  0.36786371  1
  O  O286  1  0.12550849  0.87753641  0.85541687  1
  O  O287  1  0.61412402  0.37146683  0.37971130  1
  O  O288  1  0.62016206  0.37456563  0.86651240  1
  O  O289  1  0.61918902  0.87710672  0.35639639  1
  O  O290  1  0.61727403  0.86838648  0.87409329  1
  O  O291  1  0.37316707  0.13135830  0.13720487  1
  O  O292  1  0.37922942  0.12822486  0.63284301  1
  O  O293  1  0.37130191  0.63908924  0.12534969  1
  O  O294  1  0.36948456  0.61529523  0.64312973  1
  O  O295  1  0.88014394  0.13122659  0.13143520  1
  O  O296  1  0.85174939  0.11601106  0.64251677  1
  O  O297  1  0.89187770  0.62384915  0.12656952  1
  O  O298  1  0.87619171  0.63602616  0.63254110  1
  O  O299  1  0.26213108  0.24368874  0.11607186  1
  O  O300  1  0.25631500  0.25688096  0.61998573  1
  O  O301  1  0.25639527  0.75507503  0.11746540  1
  O  O302  1  0.24612957  0.75957598  0.61184045  1
  O  O303  1  0.76288795  0.24560358  0.11380050  1
  O  O304  1  0.75177227  0.26736265  0.61526269  1
  O  O305  1  0.74489051  0.76000493  0.11121919  1
  O  O306  1  0.75874469  0.75900304  0.61861139  1
  O  O307  1  0.24936767  0.24120266  0.38438176  1
  O  O308  1  0.24625762  0.24061484  0.88024775  1
  O  O309  1  0.23958174  0.74594027  0.38660241  1
  O  O310  1  0.24373362  0.74313989  0.88248655  1
  O  O311  1  0.74795368  0.24398157  0.38193888  1
  O  O312  1  0.75391799  0.25344740  0.88776902  1
  O  O313  1  0.75087523  0.73839899  0.38663269  1
  O  O314  1  0.74241072  0.75358545  0.88808355  1
  O  O315  1  0.00465893  0.12034558  0.00755509  1
  O  O316  1  0.00254801  0.12203990  0.50860727  1
  O  O317  1  0.00518682  0.62066832  0.01015857  1
  O  O318  1  0.00712137  0.61563672  0.50740587  1
  O  O319  1  0.50072773  0.10949102  -0.00033134  1
  O  O320  1  0.49685676  0.11008092  0.50547060  1
  O  O321  1  0.50888698  0.61916938  0.00110184  1
  O  O322  1  0.49958912  0.61651515  0.49833565  1
  O  O323  1  0.49317920  0.37961715  0.49443898  1
  O  O324  1  0.49760424  0.37825069  0.99056911  1
  O  O325  1  0.49522997  0.88437825  0.49618160  1
  O  O326  1  0.49612257  0.88430573  0.99400648  1
  O  O327  1  0.99360674  0.38220197  0.50571947  1
  O  O328  1  0.99355289  0.38232269  0.99704014  1
  O  O329  1  0.98864584  0.88689613  0.50292864  1
  O  O330  1  1.00577202  0.89027270  1.00495575  1
  O  O331  1  0.50432594  0.49058434  0.38573088  1
  O  O332  1  0.49653776  0.48941585  0.87927989  1
  O  O333  1  0.49571363  0.99396192  0.38646896  1
  O  O334  1  0.49869058  0.98870201  0.88071363  1
  O  O335  1  0.99375234  0.50601291  0.38881184  1
  O  O336  1  0.98940710  0.49757564  0.88712805  1
  O  O337  1  1.00042425  1.00934136  0.38821468  1
  O  O338  1  0.99279986  0.99419275  0.88224048  1
  O  O339  1  -0.00138588  0.01236144  0.11821762  1
  O  O340  1  0.00802894  0.00670673  0.62020372  1
  O  O341  1  0.00145269  0.50328300  0.11542237  1
  O  O342  1  0.01277321  0.50025770  0.61780804  1
  O  O343  1  0.49585240  -0.00587187  0.11207833  1
  O  O344  1  0.49986655  0.00588045  0.61018530  1
  O  O345  1  0.51562831  0.50096387  0.11558453  1
  O  O346  1  0.50778224  0.50430397  0.61417696  1
  O  O347  1  0.23418229  0.36158111  0.24875650  1
  O  O348  1  0.23996938  0.37076144  0.74801043  1
  O  O349  1  0.24255732  0.88270946  0.24739898  1
  O  O350  1  0.24472782  0.88027169  0.74105475  1
  O  O351  1  0.75676129  0.38762979  0.25268000  1
  O  O352  1  0.74631895  0.37925615  0.74195370  1
  O  O353  1  0.73518427  0.88145565  0.24014815  1
  O  O354  1  0.74793186  0.87039354  0.73657244  1
  O  O355  1  0.25749494  0.12127824  0.25719246  1
  O  O356  1  0.25672065  0.12086299  0.75211095  1
  O  O357  1  0.24607511  0.62576373  0.26319193  1
  O  O358  1  0.25798906  0.62827522  0.76253136  1
  O  O359  1  0.75347124  0.11831744  0.25027414  1
  O  O360  1  0.74134246  0.12175124  0.76141940  1
  O  O361  1  0.75547858  0.61577769  0.25738621  1
  O  O362  1  0.76359795  0.62217983  0.75394882  1
  O  O363  1  0.36958450  0.11919034  0.36977213  1
  O  O364  1  0.37237316  0.12530735  0.86024467  1
  O  O365  1  0.35619949  0.62950366  0.37198360  1
  O  O366  1  0.36876923  0.61794485  0.86968508  1
  O  O367  1  0.86043452  0.12897794  0.36186692  1
  O  O368  1  0.88362081  0.10578062  0.87400513  1
  O  O369  1  0.86571259  0.61118777  0.37846077  1
  O  O370  1  0.87487392  0.61891355  0.87036086  1
  O  O371  1  0.12015214  0.37567261  0.14200544  1
  O  O372  1  0.13205393  0.38096309  0.63599775  1
  O  O373  1  0.13265203  0.87694532  0.13471169  1
  O  O374  1  0.13084073  0.88344876  0.63137329  1
  O  O375  1  0.62847692  0.38570518  0.11480758  1
  O  O376  1  0.63166551  0.38598293  0.63073797  1
  O  O377  1  0.62908062  0.87130618  0.13687367  1
  O  O378  1  0.64117023  0.87204154  0.62458309  1
  O  O379  1  0.11321668  0.25390766  0.25190736  1
  O  O380  1  0.12046286  0.25900110  0.75854802  1
  O  O381  1  0.12837670  0.76231735  0.26081324  1
  O  O382  1  0.12718811  0.76616157  0.74464526  1
  O  O383  1  0.61273754  0.24426024  0.24492113  1
  O  O384  1  0.62772441  0.26375165  0.74895371  1
  O  O385  1  0.62820842  0.75639730  0.24543005  1
  O  O386  1  0.62512972  0.74798910  0.76489401  1
  O  O387  1  0.38145641  0.24266958  0.24334577  1
  O  O388  1  0.37916098  0.24193303  0.74162279  1
  O  O389  1  0.36831010  0.75396789  0.23679378  1
  O  O390  1  0.37476866  0.73428280  0.75714171  1
  O  O391  1  0.87957545  0.24446579  0.24310325  1
  O  O392  1  0.89547468  0.25890650  0.75812659  1
  O  O393  1  0.87364205  0.74905259  0.25695443  1
  O  O394  1  0.87066937  0.74463110  0.74196513  1
  O  O395  1  0.38368790  0.48938232  0.50503777  1
  O  O396  1  0.38533432  0.49576394  0.98942312  1
  O  O397  1  0.37702210  0.98856313  0.49514113  1
  O  O398  1  0.38493383  0.99462325  0.99793059  1
  O  O399  1  0.88330702  0.49320430  0.49584291  1
  O  O400  1  0.87841957  0.49430940  0.99722892  1
  O  O401  1  0.88012320  0.98884266  0.49973233  1
  O  O402  1  0.88101730  1.00348789  0.99077492  1
  O  O403  1  0.11732297  0.00837983  0.00119868  1
  O  O404  1  0.11609720  0.00614213  0.50676388  1
  O  O405  1  0.11029811  0.51417220  -0.00517939  1
  O  O406  1  0.11793158  0.50250264  0.50664718  1
  O  O407  1  0.61456919  0.00863958  -0.00202166  1
  O  O408  1  0.61485138  -0.00478801  0.49562516  1
  O  O409  1  0.62580393  0.50771426  0.00385345  1
  O  O410  1  0.61716727  0.50025703  0.50783210  1
  O  O411  1  0.37587104  0.36444313  0.11561017  1
  O  O412  1  0.37097206  0.37109140  0.61902464  1
  O  O413  1  0.36854906  0.86491501  0.11906359  1
  O  O414  1  0.36216733  0.88198762  0.61768381  1
  O  O415  1  0.88349056  0.36474314  0.11642581  1
  O  O416  1  0.86900374  0.38399579  0.61581101  1
  O  O417  1  0.85615356  0.87531153  0.12927386  1
  O  O418  1  0.86405730  0.87165433  0.61864113  1
  O  O419  1  0.13029436  0.12737129  0.38914897  1
  O  O420  1  0.13106438  0.13050004  0.88128513  1
  O  O421  1  0.13348407  0.63217271  0.38151784  1
  O  O422  1  0.13169146  0.62557962  0.88097239  1
  O  O423  1  0.63882114  0.12873117  0.36953470  1
  O  O424  1  0.61116139  0.13209670  0.89452977  1
  O  O425  1  0.64045203  0.61462826  0.37856394  1
  O  O426  1  0.62742482  0.63004716  0.88484153  1
