# generated using pymatgen
data_V85Zn86O256
_symmetry_space_group_name_H-M   'P 1'
_cell_length_a   16.93190036
_cell_length_b   16.92161959
_cell_length_c   16.91685205
_cell_angle_alpha   90.05214146
_cell_angle_beta   89.95715027
_cell_angle_gamma   89.99029851
_symmetry_Int_Tables_number   1
_chemical_formula_structural   V85Zn86O256
_chemical_formula_sum   'V85 Zn86 O256'
_cell_volume   4846.93142458
_cell_formula_units_Z   1
loop_
 _symmetry_equiv_pos_site_id
 _symmetry_equiv_pos_as_xyz
  1  'x, y, z'
loop_
 _atom_site_type_symbol
 _atom_site_label
 _atom_site_symmetry_multiplicity
 _atom_site_fract_x
 _atom_site_fract_y
 _atom_site_fract_z
 _atom_site_occupancy
  V  V0  1  0.12436646  0.37498565  0.75119174  1
  V  V1  1  0.50195171  0.24946231  0.74868170  1
  V  V2  1  0.37393527  0.50097827  0.87857194  1
  V  V3  1  -0.00264477  0.49856365  -0.00140732  1
  V  V4  1  0.63211397  0.49740687  0.12188682  1
  V  V5  1  0.37942423  0.86633438  0.49314408  1
  V  V6  1  0.62967018  0.11928725  0.00262961  1
  V  V7  1  0.75515782  0.50328460  0.76996160  1
  V  V8  1  0.63364309  0.37544340  0.24502371  1
  V  V9  1  0.38154878  0.49387887  0.38831337  1
  V  V10  1  0.50048348  0.75164927  0.25761746  1
  V  V11  1  0.49970754  0.25594454  0.24882529  1
  V  V12  1  0.75051781  0.62396093  0.36622203  1
  V  V13  1  -0.00549422  0.00145876  0.51222113  1
  V  V14  1  0.36452042  0.75177966  0.62430075  1
  V  V15  1  0.12830658  0.86887856  0.24430554  1
  V  V16  1  0.24943324  0.25403231  0.00363263  1
  V  V17  1  0.37495733  0.12984005  0.74569841  1
  V  V18  1  0.49842257  0.12234481  0.61592608  1
  V  V19  1  0.86126938  0.37432117  0.00331006  1
  V  V20  1  0.74964169  -0.00128772  0.25474724  1
  V  V21  1  0.63894560  0.62986663  -0.00840580  1
  V  V22  1  0.50067718  0.76384513  0.74920741  1
  V  V23  1  0.62137445  0.87851561  0.25920665  1
  V  V24  1  0.62126608  -0.00871248  0.62338925  1
  V  V25  1  0.00345282  0.50198151  0.49746420  1
  V  V26  1  0.50736953  0.87916424  0.88524828  1
  V  V27  1  0.75442086  0.38690905  0.62463051  1
  V  V28  1  0.12720106  0.50388799  0.61767355  1
  V  V29  1  0.39119571  -0.00486887  0.37898272  1
  V  V30  1  0.00246457  0.37359325  0.37198415  1
  V  V31  1  0.25226476  -0.00794109  0.25027639  1
  V  V32  1  0.86732562  0.74605881  0.12627963  1
  V  V33  1  0.87092596  0.87760434  0.49311853  1
  V  V34  1  0.12489030  0.24629049  0.37424147  1
  V  V35  1  0.24925296  0.12574933  0.87683824  1
  V  V36  1  0.37910069  0.62817541  0.75209119  1
  V  V37  1  0.75340250  0.24529418  0.49998319  1
  V  V38  1  0.37530588  0.12278830  0.24883963  1
  V  V39  1  0.13149258  0.37196072  0.24087109  1
  V  V40  1  0.87306175  0.00296044  0.87841641  1
  V  V41  1  0.74241693  0.74875050  0.49889986  1
  V  V42  1  0.24765042  0.62802033  0.87963338  1
  V  V43  1  0.37368500  0.25415738  0.12555073  1
  V  V44  1  0.00378086  0.62590999  0.61951893  1
  V  V45  1  -0.00105728  0.00871751  0.00709288  1
  V  V46  1  0.74943263  0.13400033  0.87734677  1
  V  V47  1  0.85826735  0.24620780  0.12125228  1
  V  V48  1  0.62657180  0.24839481  0.37400483  1
  V  V49  1  0.25559758  0.37193338  0.62274949  1
  V  V50  1  0.63434852  0.74763036  0.87121266  1
  V  V51  1  0.12556134  0.74671452  0.38673310  1
  V  V52  1  -0.00471818  0.62092715  0.13036763  1
  V  V53  1  0.86822539  0.87099604  0.00256503  1
  V  V54  1  0.24582906  0.62549519  0.38632294  1
  V  V55  1  0.50096764  0.50359489  -0.00329809  1
  V  V56  1  0.37474671  0.37801109  0.00491410  1
  V  V57  1  0.87124289  0.74651175  0.62316876  1
  V  V58  1  0.62285914  0.60276238  0.50310610  1
  V  V59  1  -0.00477542  0.37787841  0.87651395  1
  V  V60  1  0.12589370  0.00399565  0.12731246  1
  V  V61  1  0.24673611  0.50083642  0.75240440  1
  V  V62  1  0.38255298  0.00290913  0.87842307  1
  V  V63  1  0.73920778  0.87758447  0.12311938  1
  V  V64  1  0.25293502  0.49626350  0.24445443  1
  V  V65  1  0.87846105  0.37415204  0.49712932  1
  V  V66  1  -0.00624151  0.74484513  0.25258593  1
  V  V67  1  0.50143325  0.11457207  0.11686481  1
  V  V68  1  0.25442645  0.24941825  0.50093604  1
  V  V69  1  -0.00079764  0.88357550  0.37329274  1
  V  V70  1  0.00201849  0.24629800  0.74719835  1
  V  V71  1  0.50125262  0.62864642  0.12189110  1
  V  V72  1  0.87742822  0.50388371  0.36485381  1
  V  V73  1  0.87334746  0.62118779  0.76159826  1
  V  V74  1  0.88002646  0.24519790  0.62233880  1
  V  V75  1  0.37338775  0.62459012  0.25061093  1
  V  V76  1  0.36713123  0.87831857  0.00569995  1
  V  V77  1  0.62679316  0.37723476  0.74927095  1
  V  V78  1  0.00241459  0.24400622  0.23592565  1
  V  V79  1  -0.00062324  0.87688197  0.87669462  1
  V  V80  1  0.87938611  0.11805100  0.24998738  1
  V  V81  1  0.87481999  0.12514660  0.74708653  1
  V  V82  1  -0.00191754  0.74919051  0.75133430  1
  V  V83  1  0.12021793  0.12305160  0.50965385  1
  V  V84  1  0.12417651  0.75173930  0.87823362  1
  Zn  Zn85  1  0.74154040  0.87219974  0.63011382  1
  Zn  Zn86  1  0.75714492  0.49955563  0.24267716  1
  Zn  Zn87  1  0.12930257  0.87885475  0.74844488  1
  Zn  Zn88  1  0.50116450  0.37776711  0.39787980  1
  Zn  Zn89  1  0.24694895  0.88004352  0.62034656  1
  Zn  Zn90  1  0.12405673  0.24913856  0.87780647  1
  Zn  Zn91  1  0.12174098  0.12842346  0.00515607  1
  Zn  Zn92  1  0.75376626  0.11879306  0.37526545  1
  Zn  Zn93  1  0.12730924  0.49822200  0.12337258  1
  Zn  Zn94  1  0.73933572  -0.00366583  0.75316900  1
  Zn  Zn95  1  0.61959139  0.74872044  0.37904086  1
  Zn  Zn96  1  0.24823063  -0.00021945  0.74659559  1
  Zn  Zn97  1  0.50102499  0.37505058  0.87409269  1
  Zn  Zn98  1  0.62265830  0.11913918  0.49608931  1
  Zn  Zn99  1  0.25050060  0.11989055  0.37638074  1
  Zn  Zn100  1  0.62652118  0.25232514  0.88163763  1
  Zn  Zn101  1  0.12298890  -0.00095035  0.63038597  1
  Zn  Zn102  1  0.36635661  0.75510005  0.12787174  1
  Zn  Zn103  1  0.41911880  0.30763782  0.56699691  1
  Zn  Zn104  1  0.12155499  0.62487344  0.00365813  1
  Zn  Zn105  1  0.50273045  0.62064009  0.61730919  1
  Zn  Zn106  1  0.24278335  0.75660216  0.01040340  1
  Zn  Zn107  1  0.19185525  0.18255474  0.18734795  1
  Zn  Zn108  1  0.18849498  0.18702137  0.68684249  1
  Zn  Zn109  1  0.18490564  0.68524885  0.18949059  1
  Zn  Zn110  1  0.18584854  0.68995004  0.69140788  1
  Zn  Zn111  1  0.68516995  0.18169056  0.18677023  1
  Zn  Zn112  1  0.68732330  0.18577523  0.68644114  1
  Zn  Zn113  1  0.68419629  0.68852650  0.18612750  1
  Zn  Zn114  1  0.68503600  0.68303417  0.68863737  1
  Zn  Zn115  1  0.31265029  0.31351869  0.31614947  1
  Zn  Zn116  1  0.31417912  0.31177916  0.81376893  1
  Zn  Zn117  1  0.31092073  0.80964865  0.31552994  1
  Zn  Zn118  1  0.31152782  0.81761873  0.81461314  1
  Zn  Zn119  1  0.81471930  0.30985505  0.30994427  1
  Zn  Zn120  1  0.81496863  0.31344380  0.81394991  1
  Zn  Zn121  1  0.81016065  0.81161701  0.31192290  1
  Zn  Zn122  1  0.81266104  0.81571391  0.80920718  1
  Zn  Zn123  1  0.19217048  0.43563798  0.43488432  1
  Zn  Zn124  1  0.18468478  0.43559798  0.93947043  1
  Zn  Zn125  1  0.19010625  0.93567247  0.43968926  1
  Zn  Zn126  1  0.18778584  0.94218550  0.93530133  1
  Zn  Zn127  1  0.69229756  0.43156239  0.43105387  1
  Zn  Zn128  1  0.68512115  0.43902036  0.93529634  1
  Zn  Zn129  1  0.68363568  0.93858642  0.43950796  1
  Zn  Zn130  1  0.68578079  0.94204968  0.93798671  1
  Zn  Zn131  1  0.31151982  0.06087723  0.06404683  1
  Zn  Zn132  1  0.31171470  0.05998254  0.55933137  1
  Zn  Zn133  1  0.31057211  0.56867829  0.06492696  1
  Zn  Zn134  1  0.31297103  0.56496751  0.56581928  1
  Zn  Zn135  1  0.80914380  0.06079557  0.06706344  1
  Zn  Zn136  1  0.80956077  0.05946354  0.56467297  1
  Zn  Zn137  1  0.81460107  0.56171319  0.05780406  1
  Zn  Zn138  1  0.81537844  0.56521797  0.55526896  1
  Zn  Zn139  1  0.44233116  0.44026660  0.18780010  1
  Zn  Zn140  1  0.44108236  0.44559193  0.68755603  1
  Zn  Zn141  1  0.43885927  0.93544383  0.18934914  1
  Zn  Zn142  1  0.43303811  0.94062202  0.68615233  1
  Zn  Zn143  1  0.93895963  0.43002667  0.18393187  1
  Zn  Zn144  1  0.93691853  0.43755722  0.68733029  1
  Zn  Zn145  1  0.93671022  0.93525917  0.18658539  1
  Zn  Zn146  1  0.91784204  0.92951680  0.69222225  1
  Zn  Zn147  1  0.06262542  0.06186781  0.31301287  1
  Zn  Zn148  1  0.06270913  0.06354013  0.81514963  1
  Zn  Zn149  1  0.06576375  0.56242153  0.30951132  1
  Zn  Zn150  1  0.05949748  0.56220983  0.81202500  1
  Zn  Zn151  1  0.56584287  0.06513296  0.30390533  1
  Zn  Zn152  1  0.56367670  0.06280444  0.81029673  1
  Zn  Zn153  1  0.56289508  0.56206609  0.31316090  1
  Zn  Zn154  1  0.55536281  0.55784906  0.79106991  1
  Zn  Zn155  1  0.43827606  0.18409295  0.42998289  1
  Zn  Zn156  1  0.44086075  0.18946596  0.93690393  1
  Zn  Zn157  1  0.43764174  0.68181864  0.43943588  1
  Zn  Zn158  1  0.43931180  0.69438398  0.93685688  1
  Zn  Zn159  1  0.93981583  0.18335736  0.43114067  1
  Zn  Zn160  1  0.93612963  0.19182530  0.93791163  1
  Zn  Zn161  1  0.93566262  0.68757326  0.43642286  1
  Zn  Zn162  1  0.93572903  0.68856280  0.94274942  1
  Zn  Zn163  1  0.06133802  0.31320227  0.06102446  1
  Zn  Zn164  1  0.06653180  0.31355879  0.56306360  1
  Zn  Zn165  1  0.05804551  0.81384177  0.06455840  1
  Zn  Zn166  1  0.06089056  0.81647040  0.56365978  1
  Zn  Zn167  1  0.56406771  0.31040318  0.05997940  1
  Zn  Zn168  1  0.57868670  0.31339194  0.56514730  1
  Zn  Zn169  1  0.56008487  0.80969162  0.05919069  1
  Zn  Zn170  1  0.55344854  0.81199402  0.56147426  1
  O  O171  1  0.12670028  0.10954078  0.12550477  1
  O  O172  1  0.12103901  0.12754880  0.61251906  1
  O  O173  1  0.10850545  0.62155214  0.12484285  1
  O  O174  1  0.11660526  0.61637339  0.63145581  1
  O  O175  1  0.61232202  0.12845995  0.11567711  1
  O  O176  1  0.61263808  0.12132726  0.62195129  1
  O  O177  1  0.61855460  0.62208911  0.11471412  1
  O  O178  1  0.63029039  0.62559491  0.60485657  1
  O  O179  1  0.37677478  0.39003511  0.37372402  1
  O  O180  1  0.37523128  0.38138148  0.88705245  1
  O  O181  1  0.37478317  0.88267694  0.38094937  1
  O  O182  1  0.38196222  0.88496479  0.88408528  1
  O  O183  1  0.88235473  0.37916630  0.37858242  1
  O  O184  1  0.88202316  0.36621183  0.89203078  1
  O  O185  1  0.88306975  0.86622899  0.38560489  1
  O  O186  1  0.87959950  0.87887373  0.88623438  1
  O  O187  1  0.25415560  -0.00008355  0.36272140  1
  O  O188  1  0.25990917  0.01372702  0.87587240  1
  O  O189  1  0.25758324  0.50747393  0.36730117  1
  O  O190  1  0.25132070  0.50737571  0.87191566  1
  O  O191  1  0.74750748  -0.00147085  0.36130668  1
  O  O192  1  0.75700840  0.01016192  0.87244522  1
  O  O193  1  0.76065314  0.50514197  0.37188345  1
  O  O194  1  0.75961218  0.49927417  0.86833758  1
  O  O195  1  0.24769793  0.50613045  0.13965285  1
  O  O196  1  0.24312819  0.49669884  0.63077074  1
  O  O197  1  0.24382612  1.00071419  0.13912505  1
  O  O198  1  0.24445725  1.00216861  0.62753300  1
  O  O199  1  0.73677906  0.50689734  0.12555195  1
  O  O200  1  0.76021863  0.48809878  0.62298380  1
  O  O201  1  0.75344873  0.98695185  0.13708388  1
  O  O202  1  0.73309247  1.00003460  0.62642749  1
  O  O203  1  0.00943295  0.36513612  0.25425544  1
  O  O204  1  0.00153467  0.36855712  0.75722393  1
  O  O205  1  0.00490556  0.86754363  0.25717525  1
  O  O206  1  -0.00806996  0.86774885  0.76495823  1
  O  O207  1  0.50766063  0.36392774  0.24821758  1
  O  O208  1  0.51102260  0.36759795  0.74762152  1
  O  O209  1  0.50946354  0.86367180  0.24172434  1
  O  O210  1  0.49083433  0.86778367  0.76057430  1
  O  O211  1  0.49731185  0.13749835  0.23912169  1
  O  O212  1  0.49471996  0.13245279  0.74210339  1
  O  O213  1  0.49391996  0.62903316  0.24295884  1
  O  O214  1  0.48012301  0.64836497  0.77274032  1
  O  O215  1  0.99327196  0.13207207  0.25255563  1
  O  O216  1  0.99384533  0.14100353  0.75934376  1
  O  O217  1  0.99994621  0.63235022  0.24414985  1
  O  O218  1  0.99233393  0.62775807  0.73967548  1
  O  O219  1  0.37235115  0.25854944  0.00669359  1
  O  O220  1  0.35945828  0.24183122  0.49375202  1
  O  O221  1  0.37262416  0.76624609  -0.00071963  1
  O  O222  1  0.37885033  0.75683901  0.50638237  1
  O  O223  1  0.87720809  0.25716172  0.01373943  1
  O  O224  1  0.87320356  0.25322135  0.50191160  1
  O  O225  1  0.87829378  0.76079751  0.01130240  1
  O  O226  1  0.86157187  0.75063243  0.50416559  1
  O  O227  1  0.12905189  0.24378071  0.49186762  1
  O  O228  1  0.13511987  0.24868753  1.00168156  1
  O  O229  1  0.11622387  0.75138596  0.48564735  1
  O  O230  1  0.12116658  0.74916761  0.99001968  1
  O  O231  1  0.63731877  0.24557944  0.49114056  1
  O  O232  1  0.61617021  0.23275329  0.99597397  1
  O  O233  1  0.63484853  0.75281233  0.49955941  1
  O  O234  1  0.62096000  0.74210998  0.98444343  1
  O  O235  1  0.48886688  0.24499084  0.12961331  1
  O  O236  1  0.49928417  0.24102444  0.63359757  1
  O  O237  1  0.49723007  0.73871180  0.13179691  1
  O  O238  1  0.49202824  0.74379460  0.63568994  1
  O  O239  1  0.99653602  0.24996624  0.13386433  1
  O  O240  1  0.99251128  0.25777747  0.63456086  1
  O  O241  1  0.99115510  0.74303443  0.13274598  1
  O  O242  1  0.99403950  0.74144707  0.62869762  1
  O  O243  1  0.00822326  0.25450926  0.36494561  1
  O  O244  1  0.00187097  0.26134542  0.86899972  1
  O  O245  1  0.00424435  0.75407316  0.36870925  1
  O  O246  1  0.00435856  0.75705002  0.87403658  1
  O  O247  1  0.50718422  0.25200309  0.36571238  1
  O  O248  1  0.50079193  0.25275445  0.86073168  1
  O  O249  1  0.50005812  0.74149106  0.36168747  1
  O  O250  1  0.50686751  0.76386253  0.87011403  1
  O  O251  1  0.23866351  0.13148547  0.49683767  1
  O  O252  1  0.25268804  0.13683267  0.99512894  1
  O  O253  1  0.25023097  0.61987981  0.48527594  1
  O  O254  1  0.24382792  0.62421109  0.98880888  1
  O  O255  1  0.75257391  0.13561566  0.49648104  1
  O  O256  1  0.73840429  0.12156700  0.99577462  1
  O  O257  1  0.74115083  0.62948410  0.49067485  1
  O  O258  1  0.73832576  0.62274723  0.99743218  1
  O  O259  1  0.25727455  0.36291635  -0.00257623  1
  O  O260  1  0.24515184  0.36481702  0.50992096  1
  O  O261  1  0.26314449  0.87589959  -0.00611300  1
  O  O262  1  0.26926740  0.88009984  0.50123798  1
  O  O263  1  0.76259070  0.37930512  -0.00161251  1
  O  O264  1  0.75648330  0.36478217  0.50563652  1
  O  O265  1  0.75954039  0.88283612  0.00797609  1
  O  O266  1  0.75587821  0.86718328  0.50208730  1
  O  O267  1  0.13418973  0.48842388  0.25126422  1
  O  O268  1  0.12817923  0.49529442  0.74144232  1
  O  O269  1  0.13061647  0.99124788  0.24635861  1
  O  O270  1  0.12602789  0.99914204  0.74985411  1
  O  O271  1  0.62393006  0.49167504  0.24096265  1
  O  O272  1  0.64714160  0.49107146  0.75830228  1
  O  O273  1  0.63248718  0.99011974  0.24777097  1
  O  O274  1  0.62443071  1.00506818  0.73267165  1
  O  O275  1  0.36918101  -0.00138261  0.25771811  1
  O  O276  1  0.37453665  0.01370137  0.75944219  1
  O  O277  1  0.37102846  0.50806743  0.25502981  1
  O  O278  1  0.36389521  0.51034163  0.75998011  1
  O  O279  1  0.86903342  0.00864263  0.24404394  1
  O  O280  1  0.88772695  0.01898255  0.75992314  1
  O  O281  1  0.87642238  0.49113350  0.26038948  1
  O  O282  1  0.86487076  0.50668059  0.74566011  1
  O  O283  1  0.12287381  0.36345410  0.36707559  1
  O  O284  1  0.11684015  0.37236201  0.86767110  1
  O  O285  1  0.11798938  0.86668734  0.36686128  1
  O  O286  1  0.11536285  0.86942121  0.87604519  1
  O  O287  1  0.62081167  0.36452448  0.36705853  1
  O  O288  1  0.62509916  0.37194755  0.86399073  1
  O  O289  1  0.62739810  0.87047793  0.36284626  1
  O  O290  1  0.61772771  0.86670220  0.88018340  1
  O  O291  1  0.38449118  0.13187323  0.12820068  1
  O  O292  1  0.38719660  0.11914623  0.63199130  1
  O  O293  1  0.38450464  0.62385552  0.13472481  1
  O  O294  1  0.37667157  0.63113572  0.63580443  1
  O  O295  1  0.87138956  0.13810489  0.13181322  1
  O  O296  1  0.87108628  0.13264627  0.63424479  1
  O  O297  1  0.88381595  0.63223998  0.12024230  1
  O  O298  1  0.88097535  0.63312604  0.62717137  1
  O  O299  1  0.26504802  0.24492533  0.11989201  1
  O  O300  1  0.24556648  0.25980520  0.61573453  1
  O  O301  1  0.25345061  0.74038528  0.12206587  1
  O  O302  1  0.26172020  0.74739923  0.62729631  1
  O  O303  1  0.76004550  0.25056060  0.12918088  1
  O  O304  1  0.75917030  0.25635489  0.61733927  1
  O  O305  1  0.76213294  0.75599073  0.13285589  1
  O  O306  1  0.75572151  0.75015596  0.61960519  1
  O  O307  1  0.24136933  0.24766055  0.38127089  1
  O  O308  1  0.25141269  0.24124523  0.88424589  1
  O  O309  1  0.24176785  0.73430121  0.37113421  1
  O  O310  1  0.24003224  0.74432445  0.87893204  1
  O  O311  1  0.74392263  0.25077177  0.38200877  1
  O  O312  1  0.74991748  0.23775111  0.87229494  1
  O  O313  1  0.74826532  0.74080440  0.38201188  1
  O  O314  1  0.73369664  0.75551908  0.86474308  1
  O  O315  1  0.00066925  0.11255450  -0.00549427  1
  O  O316  1  0.00555219  0.11275843  0.49245585  1
  O  O317  1  -0.00209732  0.61390685  0.00666619  1
  O  O318  1  -0.00451711  0.61909560  0.51168422  1
  O  O319  1  0.50264996  0.12562478  0.01175942  1
  O  O320  1  0.49962823  0.13249390  0.51308818  1
  O  O321  1  0.50333754  0.62189932  0.00601888  1
  O  O322  1  0.51764280  0.62295515  0.49919038  1
  O  O323  1  0.49765200  0.36549736  0.51062348  1
  O  O324  1  0.49272981  0.38430976  0.99756287  1
  O  O325  1  0.48067327  0.87741676  0.50136407  1
  O  O326  1  0.49130859  0.87482992  0.99006514  1
  O  O327  1  0.99855615  0.38029899  0.49229059  1
  O  O328  1  0.99403560  0.37911327  0.99382013  1
  O  O329  1  0.99220055  0.88105768  0.49090758  1
  O  O330  1  0.99056941  0.88147977  0.99279569  1
  O  O331  1  0.48525390  0.49807151  0.37165496  1
  O  O332  1  0.49129730  0.50003179  0.87861014  1
  O  O333  1  0.48930239  1.00173943  0.36604810  1
  O  O334  1  0.49085657  0.99448042  0.87041411  1
  O  O335  1  0.99677563  0.49618204  0.37772130  1
  O  O336  1  1.00120196  0.48732037  0.88101600  1
  O  O337  1  1.00313750  0.98642754  0.37966446  1
  O  O338  1  0.99423636  0.99263414  0.88439104  1
  O  O339  1  0.00867049  -0.00678686  0.11666318  1
  O  O340  1  -0.00443363  -0.00779792  0.61408535  1
  O  O341  1  -0.00045365  0.50528147  0.11959193  1
  O  O342  1  0.00748797  0.50533372  0.62010124  1
  O  O343  1  0.49601413  0.01711592  0.13131906  1
  O  O344  1  0.50722801  0.01298365  0.62840615  1
  O  O345  1  0.50953733  0.51164726  0.11960034  1
  O  O346  1  0.51120647  0.52932972  0.68252083  1
  O  O347  1  0.24325118  0.38267576  0.25503559  1
  O  O348  1  0.24360700  0.37933898  0.74637969  1
  O  O349  1  0.23984355  0.87812651  0.25463791  1
  O  O350  1  0.24908330  0.87970400  0.74585135  1
  O  O351  1  0.73716638  0.37674124  0.25327675  1
  O  O352  1  0.75218625  0.38494153  0.74538501  1
  O  O353  1  0.74243932  0.87877016  0.24386382  1
  O  O354  1  0.79097206  0.89376959  0.73276143  1
  O  O355  1  0.25978267  0.11557675  0.25293589  1
  O  O356  1  0.25871196  0.12937106  0.75890857  1
  O  O357  1  0.25802127  0.61699490  0.25882230  1
  O  O358  1  0.25694678  0.62389055  0.76217379  1
  O  O359  1  0.75595859  0.11453146  0.24820326  1
  O  O360  1  0.75885802  0.12320505  0.75760110  1
  O  O361  1  0.74321421  0.62217946  0.26238443  1
  O  O362  1  0.75755473  0.60977512  0.74546592  1
  O  O363  1  0.37488954  0.11116712  0.36683331  1
  O  O364  1  0.37191868  0.12009340  0.87083035  1
  O  O365  1  0.36623336  0.61728046  0.36952046  1
  O  O366  1  0.36431710  0.62363147  0.87458424  1
  O  O367  1  0.87006791  0.13397103  0.35479879  1
  O  O368  1  0.86791575  0.12382813  0.87189502  1
  O  O369  1  0.86566804  0.61441075  0.37971235  1
  O  O370  1  0.88150752  0.63002522  0.86092229  1
  O  O371  1  0.12354458  0.37485532  0.13745788  1
  O  O372  1  0.13397005  0.38357338  0.63176897  1
  O  O373  1  0.11884479  0.88082913  0.13869988  1
  O  O374  1  0.12686260  0.87662383  0.62898509  1
  O  O375  1  0.61834038  0.38526606  0.13105801  1
  O  O376  1  0.64189744  0.37044577  0.64060676  1
  O  O377  1  0.63627461  0.86420727  0.12825414  1
  O  O378  1  0.62070049  0.88664707  0.62298085  1
  O  O379  1  0.12186013  0.25172691  0.25359859  1
  O  O380  1  0.11725244  0.25614598  0.75047761  1
  O  O381  1  0.11348443  0.75438155  0.25649850  1
  O  O382  1  0.11546413  0.75121254  0.76305662  1
  O  O383  1  0.61973856  0.25500366  0.25349761  1
  O  O384  1  0.61914397  0.25636913  0.75243279  1
  O  O385  1  0.61651042  0.75581299  0.25262069  1
  O  O386  1  0.61419257  0.74493650  0.75883027  1
  O  O387  1  0.38087498  0.24749991  0.24478221  1
  O  O388  1  0.38261137  0.23849347  0.75326546  1
  O  O389  1  0.38072144  0.73975125  0.25051769  1
  O  O390  1  0.37762523  0.74797829  0.74384882  1
  O  O391  1  0.88267150  0.24704892  0.23693515  1
  O  O392  1  0.88116978  0.24334978  0.74436047  1
  O  O393  1  0.88640472  0.75536555  0.24330330  1
  O  O394  1  0.87903583  0.74094346  0.74097025  1
  O  O395  1  0.37277429  0.50422257  0.48725435  1
  O  O396  1  0.37739516  0.49533252  0.99872872  1
  O  O397  1  0.37528596  0.99610215  0.48271572  1
  O  O398  1  0.37216003  0.99102511  0.99246364  1
  O  O399  1  0.88326219  0.49297530  0.48920819  1
  O  O400  1  0.88483464  0.48431368  1.00687510  1
  O  O401  1  0.87873392  0.98919469  0.50213273  1
  O  O402  1  0.88125470  0.99416771  0.99874994  1
  O  O403  1  0.11797382  -0.00120538  0.01004317  1
  O  O404  1  0.11488231  0.00803288  0.49912095  1
  O  O405  1  0.11141182  0.49828549  0.00367428  1
  O  O406  1  0.12165298  0.49453115  0.51041951  1
  O  O407  1  0.62003907  0.01819288  -0.00333019  1
  O  O408  1  0.62511968  0.00397166  0.51363810  1
  O  O409  1  0.61939252  0.50694115  0.00318477  1
  O  O410  1  0.63046087  0.50393948  0.49784233  1
  O  O411  1  0.38029269  0.37024823  0.11423264  1
  O  O412  1  0.36148805  0.38162548  0.63494917  1
  O  O413  1  0.38138936  0.87612532  0.10903447  1
  O  O414  1  0.37425052  0.86745929  0.61562848  1
  O  O415  1  0.87721237  0.36172990  0.11367906  1
  O  O416  1  0.87208952  0.36686085  0.61750047  1
  O  O417  1  0.86712748  0.86679625  0.11961374  1
  O  O418  1  0.88248208  0.85661436  0.60746591  1
  O  O419  1  0.12493320  0.13593502  0.37960333  1
  O  O420  1  0.13613559  0.12820821  0.88134581  1
  O  O421  1  0.13763050  0.62972521  0.37072039  1
  O  O422  1  0.12925301  0.63274826  0.87583178  1
  O  O423  1  0.62794302  0.13670975  0.37354303  1
  O  O424  1  0.63203262  0.12586645  0.88315926  1
  O  O425  1  0.63256261  0.62370418  0.38581386  1
  O  O426  1  0.61808444  0.63930419  0.87824983  1
