# generated using pymatgen
data_V85Zn86O256
_symmetry_space_group_name_H-M   'P 1'
_cell_length_a   16.93198471
_cell_length_b   16.94312024
_cell_length_c   16.93968684
_cell_angle_alpha   89.89667104
_cell_angle_beta   89.91878211
_cell_angle_gamma   90.10529994
_symmetry_Int_Tables_number   1
_chemical_formula_structural   V85Zn86O256
_chemical_formula_sum   'V85 Zn86 O256'
_cell_volume   4859.64740349
_cell_formula_units_Z   1
loop_
 _symmetry_equiv_pos_site_id
 _symmetry_equiv_pos_as_xyz
  1  'x, y, z'
loop_
 _atom_site_type_symbol
 _atom_site_label
 _atom_site_symmetry_multiplicity
 _atom_site_fract_x
 _atom_site_fract_y
 _atom_site_fract_z
 _atom_site_occupancy
  V  V0  1  0.50079424  0.11817630  0.61805242  1
  V  V1  1  0.87672143  0.24843038  0.12572243  1
  V  V2  1  0.74950283  0.87853146  0.12472795  1
  V  V3  1  0.50091163  0.87905013  0.37814985  1
  V  V4  1  0.49729385  0.62123308  0.62358106  1
  V  V5  1  0.36965885  0.62161131  0.74589564  1
  V  V6  1  0.74975351  -0.00329538  0.74462565  1
  V  V7  1  0.74768342  0.61749346  0.88402513  1
  V  V8  1  0.75240800  -0.00107350  0.26453270  1
  V  V9  1  0.87962921  0.11871774  0.25643041  1
  V  V10  1  0.50457857  0.49966140  -0.00249461  1
  V  V11  1  0.74927398  0.62510454  0.37402525  1
  V  V12  1  0.37749160  0.38879277  0.48985257  1
  V  V13  1  0.12771781  0.26043358  0.37039210  1
  V  V14  1  0.37567862  0.37663291  0.00191339  1
  V  V15  1  0.86803018  0.24489670  0.62624407  1
  V  V16  1  0.74941141  0.75040324  0.50094232  1
  V  V17  1  0.12787537  0.25671498  0.86886444  1
  V  V18  1  0.38227770  -0.00340558  0.87528948  1
  V  V19  1  0.25238358  0.25166502  0.00122603  1
  V  V20  1  0.37729003  0.12545751  0.74847243  1
  V  V21  1  0.87463872  0.87956442  0.49103390  1
  V  V22  1  0.50113904  0.62721075  0.12481206  1
  V  V23  1  0.00479718  0.25696778  0.24957560  1
  V  V24  1  0.61840784  0.61948341  0.49841095  1
  V  V25  1  0.37780129  0.74802121  0.61933331  1
  V  V26  1  0.62546267  0.87672518  0.25110388  1
  V  V27  1  0.37893746  0.00283872  0.37829593  1
  V  V28  1  0.49855905  0.75068361  0.25059186  1
  V  V29  1  0.25097289  0.12681445  0.36811907  1
  V  V30  1  0.86764208  0.36887579  0.50185188  1
  V  V31  1  0.62492377  -0.00388416  0.61922058  1
  V  V32  1  -0.00444229  0.87632308  0.87412688  1
  V  V33  1  0.87181431  0.62437046  0.75117087  1
  V  V34  1  0.12373303  0.50964697  0.13467624  1
  V  V35  1  0.37396923  0.88087484  0.00806292  1
  V  V36  1  0.62492600  0.13575732  0.49343884  1
  V  V37  1  -0.00179170  0.62454401  0.62528371  1
  V  V38  1  0.50783362  0.00727071  0.00298091  1
  V  V39  1  0.87817021  0.01058461  0.86700297  1
  V  V40  1  0.88258118  0.62296315  0.24584236  1
  V  V41  1  0.25253073  0.61770132  0.37510210  1
  V  V42  1  0.51374879  0.38677236  0.37377470  1
  V  V43  1  0.50647162  0.37498306  0.86941624  1
  V  V44  1  0.36840657  0.87136663  0.49489999  1
  V  V45  1  0.24213615  0.62578060  0.87776029  1
  V  V46  1  0.87815307  0.36929545  0.00055600  1
  V  V47  1  0.13004825  0.87215290  0.75168740  1
  V  V48  1  -0.00101612  0.49902876  0.49997292  1
  V  V49  1  0.74589504  0.37312881  0.12754404  1
  V  V50  1  0.12592989  0.12651982  0.50069962  1
  V  V51  1  0.87227614  0.75593805  0.62876250  1
  V  V52  1  -0.00183160  0.75055320  0.75067330  1
  V  V53  1  0.00742201  0.51485018  0.00243621  1
  V  V54  1  0.87552569  0.49468796  0.87577397  1
  V  V55  1  0.87553929  0.49871376  0.37541823  1
  V  V56  1  0.57864477  0.68357466  -0.05742038  1
  V  V57  1  0.75394158  0.14388969  0.38062493  1
  V  V58  1  0.51572276  0.25286271  0.25872811  1
  V  V59  1  0.88076199  0.74665724  0.12467493  1
  V  V60  1  0.00260715  -0.00062604  -0.00035432  1
  V  V61  1  0.74042471  0.12337954  0.87628968  1
  V  V62  1  -0.00328322  0.12286349  0.63191857  1
  V  V63  1  0.24965043  -0.01393960  0.24737982  1
  V  V64  1  0.25178889  0.12303218  0.87489757  1
  V  V65  1  0.12346352  0.49121324  0.63254533  1
  V  V66  1  0.36714406  0.75566058  0.13048828  1
  V  V67  1  0.12856979  0.63180462  0.49961231  1
  V  V68  1  0.25363498  0.25161456  0.49855326  1
  V  V69  1  0.00696264  0.75536653  0.25401161  1
  V  V70  1  0.24436067  0.75252803  0.00029376  1
  V  V71  1  0.62110595  0.49023571  0.62864907  1
  V  V72  1  0.12744054  0.12424671  0.00119576  1
  V  V73  1  0.37170949  0.60803131  0.25327694  1
  V  V74  1  0.00368581  0.12420608  0.12630792  1
  V  V75  1  0.13004865  -0.01175752  0.12928697  1
  V  V76  1  0.00124829  0.25748840  0.74763739  1
  V  V77  1  0.51160885  0.25191158  0.74689980  1
  V  V78  1  0.74822804  0.74782782  0.00145570  1
  V  V79  1  0.74482866  0.49768875  0.25074693  1
  V  V80  1  0.24172137  0.37849963  0.13654657  1
  V  V81  1  0.12579145  -0.00120250  0.62110915  1
  V  V82  1  0.24891242  0.86630092  0.62022339  1
  V  V83  1  0.62665729  0.50516207  0.12325872  1
  V  V84  1  0.37682839  0.25171862  0.62336436  1
  Zn  Zn85  1  0.74280517  0.36537219  0.63072500  1
  Zn  Zn86  1  0.69951878  0.83732396  0.66349233  1
  Zn  Zn87  1  0.54927949  0.82002738  0.80384740  1
  Zn  Zn88  1  0.62375844  0.74967733  0.37495573  1
  Zn  Zn89  1  0.63278442  0.01566142  0.12278074  1
  Zn  Zn90  1  0.62754299  0.25127492  0.87615497  1
  Zn  Zn91  1  0.37894851  0.25165805  0.13085344  1
  Zn  Zn92  1  0.00661948  0.89219740  0.36611893  1
  Zn  Zn93  1  0.74191908  0.48844276  0.75548129  1
  Zn  Zn94  1  0.87409544  0.87595474  -0.00215695  1
  Zn  Zn95  1  0.38164618  0.12946981  0.24757602  1
  Zn  Zn96  1  0.12428330  0.74922307  0.88105943  1
  Zn  Zn97  1  0.73456462  0.22762177  0.01639907  1
  Zn  Zn98  1  0.24649508  0.37119813  0.63110424  1
  Zn  Zn99  1  0.50874635  0.13606690  0.12310581  1
  Zn  Zn100  1  -0.00882168  0.00612166  0.49299469  1
  Zn  Zn101  1  0.00582535  0.37639958  0.87385622  1
  Zn  Zn102  1  0.24326800  0.48985456  0.75775784  1
  Zn  Zn103  1  0.00384512  0.37886059  0.37107302  1
  Zn  Zn104  1  0.37173674  0.49873078  0.87287361  1
  Zn  Zn105  1  0.25400735  -0.00144457  0.74706987  1
  Zn  Zn106  1  0.13501699  0.75721748  0.37661997  1
  Zn  Zn107  1  0.18908170  0.18881855  0.18645479  1
  Zn  Zn108  1  0.18871859  0.18764921  0.68881447  1
  Zn  Zn109  1  0.19070574  0.68353936  0.18928169  1
  Zn  Zn110  1  0.18800435  0.68527406  0.68773738  1
  Zn  Zn111  1  0.68558318  0.18642208  0.19461513  1
  Zn  Zn112  1  0.68958725  0.17666402  0.69072988  1
  Zn  Zn113  1  0.68847358  0.68736540  0.18756549  1
  Zn  Zn114  1  0.68221427  0.67237446  0.69409306  1
  Zn  Zn115  1  0.32016907  0.31422191  0.31094456  1
  Zn  Zn116  1  0.31725562  0.31477487  0.81100634  1
  Zn  Zn117  1  0.31061380  0.80662808  0.31559001  1
  Zn  Zn118  1  0.34520297  0.82244355  0.79853594  1
  Zn  Zn119  1  0.81792900  0.31488277  0.30936618  1
  Zn  Zn120  1  0.81416926  0.30727712  0.80741999  1
  Zn  Zn121  1  0.81389326  0.80962175  0.31248738  1
  Zn  Zn122  1  0.71471934  0.81158594  0.82060621  1
  Zn  Zn123  1  0.18989775  0.44081526  0.44176996  1
  Zn  Zn124  1  0.18822293  0.43915600  0.94216219  1
  Zn  Zn125  1  0.18487530  0.93704772  0.43396375  1
  Zn  Zn126  1  0.19151532  0.93509450  0.93935740  1
  Zn  Zn127  1  0.68936390  0.43832692  0.44363575  1
  Zn  Zn128  1  0.68610034  0.42629676  0.94327582  1
  Zn  Zn129  1  0.68620857  0.93821040  0.44387473  1
  Zn  Zn130  1  0.68398022  0.93635845  0.93399467  1
  Zn  Zn131  1  0.31862834  0.06777051  0.06797169  1
  Zn  Zn132  1  0.31171297  0.05991272  0.55856114  1
  Zn  Zn133  1  0.31092786  0.56258469  0.06554584  1
  Zn  Zn134  1  0.30494114  0.56195729  0.56087851  1
  Zn  Zn135  1  0.81682696  0.05896473  0.06183527  1
  Zn  Zn136  1  0.80856133  0.06425300  0.56237725  1
  Zn  Zn137  1  0.81678516  0.56099829  0.06163024  1
  Zn  Zn138  1  0.80820088  0.56081618  0.56421848  1
  Zn  Zn139  1  0.44270771  0.42953963  0.18652991  1
  Zn  Zn140  1  0.43603481  0.43690576  0.68373959  1
  Zn  Zn141  1  0.43742973  0.94216779  0.18845553  1
  Zn  Zn142  1  0.44160326  0.93597167  0.68669199  1
  Zn  Zn143  1  0.93975697  0.43957824  0.18398135  1
  Zn  Zn144  1  0.93332284  0.43323506  0.68880091  1
  Zn  Zn145  1  0.93659025  0.93671122  0.18594211  1
  Zn  Zn146  1  0.93507643  0.93661157  0.68674994  1
  Zn  Zn147  1  0.06687755  0.06329641  0.31474989  1
  Zn  Zn148  1  0.06707744  0.06333576  0.80915101  1
  Zn  Zn149  1  0.06427864  0.56670801  0.31353325  1
  Zn  Zn150  1  0.06084290  0.56393538  0.81461901  1
  Zn  Zn151  1  0.56661497  0.06467304  0.31227259  1
  Zn  Zn152  1  0.56342114  0.05622938  0.80809700  1
  Zn  Zn153  1  0.56143001  0.56129746  0.31155530  1
  Zn  Zn154  1  0.55378281  0.55928106  0.80384828  1
  Zn  Zn155  1  0.44129223  0.19078672  0.43266697  1
  Zn  Zn156  1  0.43869781  0.18904383  0.93758318  1
  Zn  Zn157  1  0.43451378  0.68613227  0.43535901  1
  Zn  Zn158  1  0.41169923  0.68537659  0.93997893  1
  Zn  Zn159  1  0.94043450  0.18685876  0.43901139  1
  Zn  Zn160  1  0.93824068  0.18812144  0.93667306  1
  Zn  Zn161  1  0.93698766  0.68730509  0.43617376  1
  Zn  Zn162  1  0.93327159  0.68953047  0.93556995  1
  Zn  Zn163  1  0.06524229  0.31439767  0.06003266  1
  Zn  Zn164  1  0.05765929  0.31165938  0.55864937  1
  Zn  Zn165  1  0.06165904  0.81115934  0.06496326  1
  Zn  Zn166  1  0.05753501  0.81473778  0.55967792  1
  Zn  Zn167  1  0.56626200  0.31158607  0.06515490  1
  Zn  Zn168  1  0.55800292  0.31066668  0.55373386  1
  Zn  Zn169  1  0.55736778  0.82426560  0.06480064  1
  Zn  Zn170  1  0.55409787  0.80670667  0.55564790  1
  O  O171  1  0.12129506  0.11917586  0.11927031  1
  O  O172  1  0.12331521  0.11582489  0.62112904  1
  O  O173  1  0.13246808  0.60861081  0.12353444  1
  O  O174  1  0.11738372  0.61666509  0.61911590  1
  O  O175  1  0.62474793  0.12899082  0.12185588  1
  O  O176  1  0.61843467  0.11896658  0.61552068  1
  O  O177  1  0.61862598  0.61365939  0.12977385  1
  O  O178  1  0.61420908  0.61741882  0.61890907  1
  O  O179  1  0.37515918  0.37900432  0.38739337  1
  O  O180  1  0.38416076  0.37652172  0.88721322  1
  O  O181  1  0.37837150  0.88043708  0.37841338  1
  O  O182  1  0.36199099  0.89381306  0.88822345  1
  O  O183  1  0.87790817  0.38117677  0.38355109  1
  O  O184  1  0.87761399  0.37955759  0.88318062  1
  O  O185  1  0.87707495  0.86901428  0.38885734  1
  O  O186  1  0.89183458  0.88673067  0.87526780  1
  O  O187  1  0.25419488  0.00854276  0.36558206  1
  O  O188  1  0.25454380  0.01238204  0.87448664  1
  O  O189  1  0.24199361  0.51564464  0.37476392  1
  O  O190  1  0.25150733  0.50890242  0.87741079  1
  O  O191  1  0.75045810  0.00156376  0.36616328  1
  O  O192  1  0.75856354  0.00511514  0.87029225  1
  O  O193  1  0.75496976  0.50328828  0.36770507  1
  O  O194  1  0.75786920  0.50164275  0.88068508  1
  O  O195  1  0.23662461  0.48875428  0.11784368  1
  O  O196  1  0.23069437  0.49857469  0.62440939  1
  O  O197  1  0.24655931  1.00565613  0.14014103  1
  O  O198  1  0.24370206  0.98947105  0.62514314  1
  O  O199  1  0.74538635  0.49728114  0.13056617  1
  O  O200  1  0.73258721  0.50274094  0.62837112  1
  O  O201  1  0.75261034  0.99185778  0.13339374  1
  O  O202  1  0.74041195  1.00409063  0.63244469  1
  O  O203  1  -0.00800437  0.36065305  0.25130769  1
  O  O204  1  0.00056343  0.36193271  0.75284840  1
  O  O205  1  -0.00859988  0.85949167  0.25099246  1
  O  O206  1  0.00833090  0.87013531  0.75444876  1
  O  O207  1  0.49919455  0.36934067  0.26523120  1
  O  O208  1  0.49024714  0.36411625  0.75706721  1
  O  O209  1  0.50408263  0.87134375  0.25798995  1
  O  O210  1  0.45466467  0.85664316  0.76201486  1
  O  O211  1  0.50351172  0.14081324  0.25489033  1
  O  O212  1  0.49593932  0.13113291  0.74014612  1
  O  O213  1  0.49120554  0.63124637  0.24635947  1
  O  O214  1  0.48803523  0.62345120  0.73355078  1
  O  O215  1  0.99443377  0.13310032  0.24661469  1
  O  O216  1  1.00794534  0.13083954  0.73599587  1
  O  O217  1  0.98717695  0.63299792  0.25170473  1
  O  O218  1  0.99346001  0.63163528  0.74697601  1
  O  O219  1  0.37097429  0.25976807  0.00307041  1
  O  O220  1  0.36576207  0.25137473  0.50312882  1
  O  O221  1  0.36920343  0.76242321  0.01103955  1
  O  O222  1  0.37342204  0.75717880  0.50685786  1
  O  O223  1  0.87269508  0.25488504  0.00795250  1
  O  O224  1  0.88490011  0.25969552  0.51021951  1
  O  O225  1  0.86834516  0.75260266  0.00862183  1
  O  O226  1  0.86797713  0.75343701  0.50650615  1
  O  O227  1  0.13731945  0.24742126  0.49612974  1
  O  O228  1  0.13198313  0.24250214  0.99287591  1
  O  O229  1  0.11481152  0.73396267  0.50307704  1
  O  O230  1  0.13977320  0.75540713  1.00222571  1
  O  O231  1  0.63071604  0.23448843  0.50682370  1
  O  O232  1  0.63588509  0.27219137  0.98850646  1
  O  O233  1  0.63271454  0.73919768  0.49984959  1
  O  O234  1  0.63052348  0.74628501  1.01113232  1
  O  O235  1  0.50122826  0.26028427  0.14251708  1
  O  O236  1  0.49519134  0.24076909  0.62805231  1
  O  O237  1  0.49197233  0.74623379  0.13042544  1
  O  O238  1  0.48647113  0.74036239  0.62147258  1
  O  O239  1  0.99918925  0.24432248  0.13118536  1
  O  O240  1  0.99796894  0.24275738  0.63153449  1
  O  O241  1  0.98755300  0.75390208  0.13310357  1
  O  O242  1  0.99218884  0.74368036  0.63033830  1
  O  O243  1  0.01094631  0.25023815  0.36776498  1
  O  O244  1  0.01001863  0.24752260  0.86609260  1
  O  O245  1  -0.00112245  0.74741009  0.35895073  1
  O  O246  1  0.00190776  0.75865922  0.87056126  1
  O  O247  1  0.49870520  0.26292313  0.36559700  1
  O  O248  1  0.50096021  0.25626762  0.86460088  1
  O  O249  1  0.49989414  0.75819264  0.36636325  1
  O  O250  1  0.50709413  0.73261403  0.88649747  1
  O  O251  1  0.24716230  0.13178826  0.48928108  1
  O  O252  1  0.24851867  0.13113841  0.99400494  1
  O  O253  1  0.23917636  0.62357829  0.49186517  1
  O  O254  1  0.26615391  0.63770422  0.98916020  1
  O  O255  1  0.74618653  0.12572226  0.48585994  1
  O  O256  1  0.75668751  0.11861283  0.98330754  1
  O  O257  1  0.74497930  0.63365625  0.49391773  1
  O  O258  1  0.75047415  0.62799922  0.99255672  1
  O  O259  1  0.25907130  0.37026111  0.00407838  1
  O  O260  1  0.26057055  0.36790663  0.50463098  1
  O  O261  1  0.26115438  0.86787346  0.00177121  1
  O  O262  1  0.26070444  0.87920445  0.50471218  1
  O  O263  1  0.76677215  0.38137187  0.01279130  1
  O  O264  1  0.76399080  0.37921872  0.50851314  1
  O  O265  1  0.75141266  0.86656181  0.00815110  1
  O  O266  1  0.75773821  0.85973088  0.49651990  1
  O  O267  1  0.11170196  0.49905586  0.23386723  1
  O  O268  1  0.11864748  0.50137687  0.73534759  1
  O  O269  1  0.14128650  1.00708068  0.24377344  1
  O  O270  1  0.12707019  0.98876826  0.73838390  1
  O  O271  1  0.63871258  0.50432942  0.24309565  1
  O  O272  1  0.62273850  0.50080444  0.73315713  1
  O  O273  1  0.63593621  0.99403772  0.24802675  1
  O  O274  1  0.63241308  1.00026173  0.73461799  1
  O  O275  1  0.36459995  0.00398782  0.25888034  1
  O  O276  1  0.37507784  0.00818321  0.75896142  1
  O  O277  1  0.38080402  0.51086379  0.24250626  1
  O  O278  1  0.37081493  0.51034662  0.74539082  1
  O  O279  1  0.86979957  0.01297569  0.24540733  1
  O  O280  1  0.86954828  -0.00089492  0.75683051  1
  O  O281  1  0.86964434  0.50665708  0.25240214  1
  O  O282  1  0.88003532  0.50435634  0.76496325  1
  O  O283  1  0.12518545  0.36366657  0.38240299  1
  O  O284  1  0.12612287  0.35991190  0.88252879  1
  O  O285  1  0.11698011  0.86754117  0.38347028  1
  O  O286  1  0.11832639  0.87684719  0.86561171  1
  O  O287  1  0.61291143  0.37849342  0.38575672  1
  O  O288  1  0.60982104  0.37968674  0.87084791  1
  O  O289  1  0.61639962  0.87512172  0.37247830  1
  O  O290  1  0.62782879  0.86025671  0.87594190  1
  O  O291  1  0.38684719  0.13243029  0.12939974  1
  O  O292  1  0.38187920  0.13176804  0.62339706  1
  O  O293  1  0.38108054  0.63140789  0.13520533  1
  O  O294  1  0.37769834  0.62859844  0.62249553  1
  O  O295  1  0.88204164  0.12968174  0.13293751  1
  O  O296  1  0.88652649  0.13133157  0.61538236  1
  O  O297  1  0.86907688  0.63386965  0.13389482  1
  O  O298  1  0.87908590  0.63049867  0.62940233  1
  O  O299  1  0.24947110  0.26232237  0.11838845  1
  O  O300  1  0.25858912  0.24771181  0.61590616  1
  O  O301  1  0.26159119  0.74401861  0.11988924  1
  O  O302  1  0.25170046  0.76143676  0.62276436  1
  O  O303  1  0.75722136  0.25807432  0.12932608  1
  O  O304  1  0.76428537  0.24235576  0.63124119  1
  O  O305  1  0.75762023  0.75417103  0.11844644  1
  O  O306  1  0.75618480  0.74394164  0.61766108  1
  O  O307  1  0.24714060  0.24628897  0.37949462  1
  O  O308  1  0.24716959  0.23995387  0.87877087  1
  O  O309  1  0.24724288  0.73040510  0.36700274  1
  O  O310  1  0.25217117  0.74416321  0.88519185  1
  O  O311  1  0.75166461  0.24186095  0.37104267  1
  O  O312  1  0.75283682  0.22974644  0.87027459  1
  O  O313  1  0.74746632  0.74207805  0.38149519  1
  O  O314  1  0.75654941  0.73578456  0.89416144  1
  O  O315  1  0.00684234  0.11874765  0.00525145  1
  O  O316  1  0.01041433  0.12678899  0.51149173  1
  O  O317  1  -0.00332368  0.61325636  -0.00292591  1
  O  O318  1  0.00136831  0.61459627  0.50460253  1
  O  O319  1  0.49613163  0.11106548  -0.00003182  1
  O  O320  1  0.51333970  0.12924588  0.50344987  1
  O  O321  1  0.50295486  0.62184098  0.00154594  1
  O  O322  1  0.50715268  0.63009669  0.50835365  1
  O  O323  1  0.48570608  0.36866037  0.48642972  1
  O  O324  1  0.49342312  0.38291626  0.99514545  1
  O  O325  1  0.48702829  0.87098223  0.48474213  1
  O  O326  1  0.48411759  0.88818040  1.00247445  1
  O  O327  1  0.99202848  0.38721076  0.49779047  1
  O  O328  1  0.98897331  0.37846277  0.99873898  1
  O  O329  1  0.98256024  0.87622067  0.49988485  1
  O  O330  1  1.00239247  0.88127344  0.99093190  1
  O  O331  1  0.50108892  0.48666516  0.37252827  1
  O  O332  1  0.49513697  0.49483068  0.88099814  1
  O  O333  1  0.49033943  0.99212818  0.36621500  1
  O  O334  1  0.49205523  1.00541642  0.88570381  1
  O  O335  1  0.99460285  0.50004867  0.38282579  1
  O  O336  1  0.99593026  0.49734984  0.88593726  1
  O  O337  1  0.99830516  1.00570669  0.37929753  1
  O  O338  1  0.99749086  0.99744917  0.87676122  1
  O  O339  1  0.00828254  0.00506343  0.12206820  1
  O  O340  1  0.00719950  0.00582083  0.62135896  1
  O  O341  1  0.00980754  0.49680625  0.11195790  1
  O  O342  1  0.00477021  0.50355146  0.61983987  1
  O  O343  1  0.50281521  0.00172712  0.11314847  1
  O  O344  1  0.50416723  0.01180581  0.62711451  1
  O  O345  1  0.50864662  0.50400722  0.11868735  1
  O  O346  1  0.50998000  0.50579968  0.62295146  1
  O  O347  1  0.25344142  0.37292854  0.23451137  1
  O  O348  1  0.25558476  0.37723902  0.74398975  1
  O  O349  1  0.25274355  0.88796606  0.25424931  1
  O  O350  1  0.24552391  0.87599391  0.74103437  1
  O  O351  1  0.76061473  0.38650605  0.23933585  1
  O  O352  1  0.75750672  0.37749695  0.74303938  1
  O  O353  1  0.74824475  0.88111084  0.24597389  1
  O  O354  1  0.75923592  0.88986965  0.74802159  1
  O  O355  1  0.25315269  0.12542772  0.26136139  1
  O  O356  1  0.25780793  0.12297993  0.75796173  1
  O  O357  1  0.26599004  0.62226110  0.25312014  1
  O  O358  1  0.25187280  0.61704164  0.75635617  1
  O  O359  1  0.75727486  0.11960849  0.26356834  1
  O  O360  1  0.75072566  0.10952863  0.76357028  1
  O  O361  1  0.75821525  0.61852092  0.25532856  1
  O  O362  1  0.75500151  0.61565904  0.76598435  1
  O  O363  1  0.36866345  0.11793408  0.37585477  1
  O  O364  1  0.36867017  0.11852283  0.87168650  1
  O  O365  1  0.37089535  0.62370754  0.36159707  1
  O  O366  1  0.36400670  0.62153442  0.86050648  1
  O  O367  1  0.86419512  0.13041349  0.37025580  1
  O  O368  1  0.87293433  0.11347446  0.87604679  1
  O  O369  1  0.86863895  0.61794175  0.36823159  1
  O  O370  1  0.86674825  0.61463904  0.87365162  1
  O  O371  1  0.13699387  0.38157187  0.12077314  1
  O  O372  1  0.12229099  0.38880447  0.61709650  1
  O  O373  1  0.12245958  0.88930755  0.12418976  1
  O  O374  1  0.13031001  0.87934988  0.62761404  1
  O  O375  1  0.63919541  0.38865228  0.12365534  1
  O  O376  1  0.62245895  0.38743451  0.61235869  1
  O  O377  1  0.63771909  0.87699256  0.13201429  1
  O  O378  1  0.61494812  0.88850243  0.60874056  1
  O  O379  1  0.11742435  0.24561347  0.25885382  1
  O  O380  1  0.11804432  0.24403995  0.75892239  1
  O  O381  1  0.10827728  0.74291428  0.24483668  1
  O  O382  1  0.12039187  0.76125551  0.74927409  1
  O  O383  1  0.61537250  0.25534929  0.25528475  1
  O  O384  1  0.61440162  0.24408004  0.75053805  1
  O  O385  1  0.61752099  0.75717312  0.25062141  1
  O  O386  1  0.63931159  0.76605435  0.74064081  1
  O  O387  1  0.38743494  0.24915737  0.24950700  1
  O  O388  1  0.38307986  0.24335598  0.73907440  1
  O  O389  1  0.38205844  0.74700974  0.24364778  1
  O  O390  1  0.35901591  0.73071792  0.73038344  1
  O  O391  1  0.88296857  0.23850401  0.24528511  1
  O  O392  1  0.88959348  0.24621019  0.73966540  1
  O  O393  1  0.87958654  0.74168717  0.24327038  1
  O  O394  1  0.87975702  0.74078428  0.74098103  1
  O  O395  1  0.37299665  0.48590738  0.50775633  1
  O  O396  1  0.38788859  0.49547534  1.00197132  1
  O  O397  1  0.37127489  0.99180579  0.48525018  1
  O  O398  1  0.38044672  0.99711545  0.99688458  1
  O  O399  1  0.88108769  0.49551121  0.49718633  1
  O  O400  1  0.88639638  0.49405602  0.99323482  1
  O  O401  1  0.86915509  0.98141027  0.50770445  1
  O  O402  1  0.88665805  0.99625918  0.99178370  1
  O  O403  1  0.12297639  0.00517459  0.00698569  1
  O  O404  1  0.12697474  0.00621276  0.51140870  1
  O  O405  1  0.11059733  0.49693412  0.00504892  1
  O  O406  1  0.11498887  0.50767089  0.50825495  1
  O  O407  1  0.61021631  -0.00670476  0.00200774  1
  O  O408  1  0.63311783  0.01540519  0.51005695  1
  O  O409  1  0.61326859  0.49612440  0.00718687  1
  O  O410  1  0.63025505  0.51451436  0.50928754  1
  O  O411  1  0.36524719  0.37760781  0.11490980  1
  O  O412  1  0.37985068  0.36067684  0.61252556  1
  O  O413  1  0.37702893  0.86723181  0.12187601  1
  O  O414  1  0.36851886  0.86852852  0.61380520  1
  O  O415  1  0.87078991  0.36831435  0.11985182  1
  O  O416  1  0.87746773  0.36307172  0.61744676  1
  O  O417  1  0.86361426  0.86708166  0.12437813  1
  O  O418  1  0.87724495  0.86009893  0.61725482  1
  O  O419  1  0.13494713  0.13655637  0.38133403  1
  O  O420  1  0.13455125  0.13030660  0.87949968  1
  O  O421  1  0.13011526  0.62914452  0.38357040  1
  O  O422  1  0.13705207  0.62967089  0.87127670  1
  O  O423  1  0.63781207  0.12245949  0.38583616  1
  O  O424  1  0.63755619  0.12182785  0.87356865  1
  O  O425  1  0.62943841  0.62552810  0.38208634  1
  O  O426  1  0.62984932  0.61821003  0.87474402  1
