# generated using pymatgen
data_V85Zn86O256
_symmetry_space_group_name_H-M   'P 1'
_cell_length_a   16.93447526
_cell_length_b   16.93878075
_cell_length_c   16.92327732
_cell_angle_alpha   90.09013821
_cell_angle_beta   89.96948196
_cell_angle_gamma   89.93881810
_symmetry_Int_Tables_number   1
_chemical_formula_structural   V85Zn86O256
_chemical_formula_sum   'V85 Zn86 O256'
_cell_volume   4854.42185937
_cell_formula_units_Z   1
loop_
 _symmetry_equiv_pos_site_id
 _symmetry_equiv_pos_as_xyz
  1  'x, y, z'
loop_
 _atom_site_type_symbol
 _atom_site_label
 _atom_site_symmetry_multiplicity
 _atom_site_fract_x
 _atom_site_fract_y
 _atom_site_fract_z
 _atom_site_occupancy
  V  V0  1  0.37637150  0.37088189  -0.00719097  1
  V  V1  1  0.60649669  0.50684957  0.12168601  1
  V  V2  1  0.24993188  0.87997577  0.63459713  1
  V  V3  1  0.12335693  0.50026532  0.12786020  1
  V  V4  1  0.37456275  0.37318850  0.49976629  1
  V  V5  1  -0.00145620  0.38988227  0.33862733  1
  V  V6  1  0.24630385  0.75045756  0.00033489  1
  V  V7  1  0.63112404  0.24314930  0.37129891  1
  V  V8  1  0.62256288  0.01275842  0.62579425  1
  V  V9  1  0.87550772  0.12673497  0.74197101  1
  V  V10  1  0.00033803  0.62716126  0.62393190  1
  V  V11  1  0.75157355  -0.00506606  0.74749420  1
  V  V12  1  0.24805911  0.12548689  0.37487151  1
  V  V13  1  0.24987979  -0.00060840  0.25011273  1
  V  V14  1  0.37417001  0.49972794  0.37479616  1
  V  V15  1  0.11861562  0.00338975  0.61803400  1
  V  V16  1  -0.00385672  0.87917708  0.38187740  1
  V  V17  1  0.75137878  0.75096952  0.50732278  1
  V  V18  1  -0.01975650  0.75172109  0.24601700  1
  V  V19  1  0.37928358  0.74968357  0.63162013  1
  V  V20  1  0.74803179  0.38328813  0.62081491  1
  V  V21  1  0.63041580  0.61839866  0.50201980  1
  V  V22  1  0.24791390  0.62368502  0.37368061  1
  V  V23  1  0.37966037  0.62129099  0.74967691  1
  V  V24  1  0.24707527  0.24933849  0.49801468  1
  V  V25  1  0.62267214  0.74872193  0.87000681  1
  V  V26  1  0.00062581  0.25056284  0.75877667  1
  V  V27  1  0.20229533  0.05798534  0.80971971  1
  V  V28  1  0.25023931  0.37269703  0.62601457  1
  V  V29  1  0.12036250  0.37175909  0.76757007  1
  V  V30  1  0.00165591  0.49600774  0.49939114  1
  V  V31  1  0.50190762  0.00226686  0.00712808  1
  V  V32  1  0.62007229  0.13552494  0.00126265  1
  V  V33  1  0.12760561  0.49946550  0.62802916  1
  V  V34  1  -0.00607680  0.23588567  0.24650538  1
  V  V35  1  0.87060093  0.01301448  0.37811175  1
  V  V36  1  0.62718050  0.87587471  0.24776366  1
  V  V37  1  0.50122448  0.87527780  0.86913667  1
  V  V38  1  0.37615985  0.00511246  0.87362011  1
  V  V39  1  0.74775520  0.62029184  0.87668302  1
  V  V40  1  -0.01666246  0.63020754  0.12333247  1
  V  V41  1  0.75226773  0.24312702  0.49678840  1
  V  V42  1  0.87246175  0.86942586  0.00741170  1
  V  V43  1  0.24087234  0.24430293  -0.01089809  1
  V  V44  1  0.62530930  0.74888593  0.37636750  1
  V  V45  1  0.74506706  0.13445229  0.87212559  1
  V  V46  1  0.62596993  0.37521036  0.74676617  1
  V  V47  1  0.12432820  0.62473301  0.49807580  1
  V  V48  1  0.62895442  0.87010370  0.74055970  1
  V  V49  1  0.50011784  0.87415475  0.37643588  1
  V  V50  1  0.25791307  0.49639098  0.75677001  1
  V  V51  1  0.50614508  0.36168246  0.87565129  1
  V  V52  1  0.75739239  0.62103340  0.36176788  1
  V  V53  1  0.86789759  0.24124584  0.12352871  1
  V  V54  1  0.37476304  -0.00008746  0.37634256  1
  V  V55  1  0.01034096  0.74709817  0.75423376  1
  V  V56  1  0.74851499  0.74798167  0.00674997  1
  V  V57  1  0.75244853  0.01486161  0.25073443  1
  V  V58  1  0.12397679  0.00379097  0.12478552  1
  V  V59  1  0.87960412  0.37542809  0.49791630  1
  V  V60  1  0.38141414  0.62311452  0.24727072  1
  V  V61  1  0.12383608  0.87311027  0.25004323  1
  V  V62  1  0.12108813  0.62423557  0.00225448  1
  V  V63  1  0.24762065  0.37324509  0.13108240  1
  V  V64  1  0.43392193  0.54402058  0.93315938  1
  V  V65  1  0.24960225  0.74996478  0.50171404  1
  V  V66  1  -0.00537459  0.00095236  0.00058467  1
  V  V67  1  0.11027478  0.12601120  0.50107189  1
  V  V68  1  0.12260443  0.74914759  0.37326896  1
  V  V69  1  0.88909779  0.49766598  0.88288834  1
  V  V70  1  0.87080770  0.87821491  0.50395385  1
  V  V71  1  0.63371772  0.38101157  0.24838357  1
  V  V72  1  0.50488437  0.49654814  0.50566282  1
  V  V73  1  0.38464083  0.12293706  0.24637750  1
  V  V74  1  0.38239832  0.74914841  0.12470383  1
  V  V75  1  0.24472727  0.62476641  0.87681357  1
  V  V76  1  0.50281756  0.37325144  0.37113906  1
  V  V77  1  0.75295849  0.38706187  0.11823562  1
  V  V78  1  0.38598633  0.12140204  0.74239849  1
  V  V79  1  0.87529626  0.62444555  0.74908336  1
  V  V80  1  0.00187355  0.86722723  0.87769023  1
  V  V81  1  0.12204252  0.25702487  0.36454074  1
  V  V82  1  0.50450311  0.62618826  0.62707327  1
  V  V83  1  0.37960797  0.24469184  0.12148923  1
  V  V84  1  0.37544654  0.87442767  0.50244540  1
  Zn  Zn85  1  0.24431582  0.49415830  0.25406268  1
  Zn  Zn86  1  0.61385325  0.62252522  0.00117358  1
  Zn  Zn87  1  0.49508531  0.00762217  0.50843172  1
  Zn  Zn88  1  0.50364070  0.74589187  0.24343900  1
  Zn  Zn89  1  0.87348964  0.75687610  0.62928102  1
  Zn  Zn90  1  -0.00914458  0.11983938  0.12506145  1
  Zn  Zn91  1  0.38096997  0.24012780  0.62019240  1
  Zn  Zn92  1  0.25153719  0.87373908  0.12522039  1
  Zn  Zn93  1  0.50436083  0.24722230  0.24311639  1
  Zn  Zn94  1  0.12281485  0.12612006  -0.01006750  1
  Zn  Zn95  1  0.90273810  0.36983493  -0.01297430  1
  Zn  Zn96  1  0.86893797  -0.00178633  0.87634032  1
  Zn  Zn97  1  0.75393678  0.87146546  0.13096841  1
  Zn  Zn98  1  0.37353603  0.87913403  0.00133287  1
  Zn  Zn99  1  0.62039175  0.12902258  0.49976391  1
  Zn  Zn100  1  0.74900504  0.25664280  -0.00521697  1
  Zn  Zn101  1  0.88459067  0.24831818  0.62187107  1
  Zn  Zn102  1  0.86723247  0.49838879  0.35715348  1
  Zn  Zn103  1  0.62428885  0.00366664  0.12595279  1
  Zn  Zn104  1  0.75091619  0.50017235  0.74563345  1
  Zn  Zn105  1  0.51296169  0.24130035  0.74093418  1
  Zn  Zn106  1  0.12797536  0.87404112  0.75517505  1
  Zn  Zn107  1  0.19229810  0.18501280  0.18384573  1
  Zn  Zn108  1  0.18231703  0.19323963  0.68420307  1
  Zn  Zn109  1  0.19067085  0.68689505  0.18719256  1
  Zn  Zn110  1  0.19110868  0.68648744  0.68798640  1
  Zn  Zn111  1  0.68502789  0.19155681  0.18078413  1
  Zn  Zn112  1  0.69539787  0.19509236  0.68581438  1
  Zn  Zn113  1  0.68229356  0.68540440  0.18612770  1
  Zn  Zn114  1  0.68846762  0.68557455  0.68692041  1
  Zn  Zn115  1  0.31508069  0.30879613  0.31109224  1
  Zn  Zn116  1  0.31653555  0.30753795  0.81261371  1
  Zn  Zn117  1  0.31262538  0.81001589  0.31093402  1
  Zn  Zn118  1  0.31507457  0.81068009  0.81417661  1
  Zn  Zn119  1  0.81440617  0.31189832  0.30896967  1
  Zn  Zn120  1  0.81450436  0.31466657  0.81055257  1
  Zn  Zn121  1  0.80635447  0.81638848  0.32138638  1
  Zn  Zn122  1  0.81379978  0.80977017  0.81820379  1
  Zn  Zn123  1  0.18158355  0.43577417  0.43514261  1
  Zn  Zn124  1  0.19132850  0.44144674  0.94521395  1
  Zn  Zn125  1  0.18712135  0.93733354  0.44135972  1
  Zn  Zn126  1  0.18087092  0.93053015  0.94332663  1
  Zn  Zn127  1  0.69035047  0.43726395  0.43491217  1
  Zn  Zn128  1  0.68197564  0.44043261  0.93759152  1
  Zn  Zn129  1  0.69006695  0.93944677  0.43789352  1
  Zn  Zn130  1  0.68680254  0.93948596  0.93497456  1
  Zn  Zn131  1  0.31039752  0.06379123  0.06062470  1
  Zn  Zn132  1  0.30582954  0.06061085  0.56264054  1
  Zn  Zn133  1  0.30736108  0.56471811  0.07019496  1
  Zn  Zn134  1  0.31387235  0.56056306  0.56271634  1
  Zn  Zn135  1  0.80388761  0.06028632  0.06092691  1
  Zn  Zn136  1  0.80731228  0.06015006  0.56410959  1
  Zn  Zn137  1  0.80723317  0.55958707  0.05993164  1
  Zn  Zn138  1  0.81745884  0.56191719  0.55759229  1
  Zn  Zn139  1  0.43365026  0.43301381  0.18745956  1
  Zn  Zn140  1  0.44058072  0.43222421  0.68637648  1
  Zn  Zn141  1  0.43829085  0.93358601  0.18816017  1
  Zn  Zn142  1  0.43984894  0.94002127  0.69121787  1
  Zn  Zn143  1  0.95576393  0.42628501  0.16011784  1
  Zn  Zn144  1  0.93775527  0.43676585  0.68792126  1
  Zn  Zn145  1  0.93345108  0.93858368  0.19031109  1
  Zn  Zn146  1  0.93752861  0.93582864  0.68979959  1
  Zn  Zn147  1  0.06009909  0.06037896  0.31705282  1
  Zn  Zn148  1  0.04041683  0.05834479  0.81039647  1
  Zn  Zn149  1  0.04478532  0.55737501  0.29934901  1
  Zn  Zn150  1  0.06647712  0.56166778  0.81402658  1
  Zn  Zn151  1  0.56316184  0.05967696  0.31643810  1
  Zn  Zn152  1  0.56568198  0.06030716  0.81634645  1
  Zn  Zn153  1  0.56516049  0.55952710  0.31340434  1
  Zn  Zn154  1  0.57046219  0.55794095  0.80422364  1
  Zn  Zn155  1  0.44025328  0.18704148  0.43815013  1
  Zn  Zn156  1  0.43604293  0.18536231  0.93289953  1
  Zn  Zn157  1  0.43823591  0.68685044  0.43923123  1
  Zn  Zn158  1  0.43476022  0.70621553  0.93412580  1
  Zn  Zn159  1  0.93860448  0.19482929  0.43226128  1
  Zn  Zn160  1  0.93192643  0.18622778  0.93405258  1
  Zn  Zn161  1  0.93480065  0.68801349  0.43490544  1
  Zn  Zn162  1  0.93386995  0.68670744  0.93820405  1
  Zn  Zn163  1  0.06307035  0.30942947  0.06562025  1
  Zn  Zn164  1  0.06229429  0.30967963  0.56744953  1
  Zn  Zn165  1  0.06281313  0.81131177  0.06452979  1
  Zn  Zn166  1  0.06116626  0.81461153  0.56569542  1
  Zn  Zn167  1  0.56127580  0.31731576  0.06228541  1
  Zn  Zn168  1  0.56491154  0.30928410  0.56465866  1
  Zn  Zn169  1  0.56322424  0.81486319  0.05847649  1
  Zn  Zn170  1  0.56250607  0.81163495  0.56161419  1
  O  O171  1  0.12274336  0.11063437  0.12570362  1
  O  O172  1  0.13325136  0.11324426  0.61585160  1
  O  O173  1  0.12484861  0.62194328  0.11762165  1
  O  O174  1  0.12059567  0.61973453  0.62044501  1
  O  O175  1  0.62738026  0.12220465  0.10688847  1
  O  O176  1  0.62832133  0.11466497  0.62896242  1
  O  O177  1  0.61876529  0.61203544  0.12457677  1
  O  O178  1  0.61827193  0.62879775  0.61325716  1
  O  O179  1  0.38301344  0.37848598  0.37903159  1
  O  O180  1  0.38110072  0.37331658  0.88512253  1
  O  O181  1  0.38160039  0.87709834  0.37973884  1
  O  O182  1  0.38307991  0.88512090  0.87266564  1
  O  O183  1  0.88697623  0.37709271  0.38080547  1
  O  O184  1  0.87212579  0.39215399  0.87500194  1
  O  O185  1  0.87973017  0.88203005  0.38441230  1
  O  O186  1  0.88369856  0.87543554  0.88632727  1
  O  O187  1  0.25486765  0.00335468  0.37048687  1
  O  O188  1  0.25499946  -0.00579812  0.87347548  1
  O  O189  1  0.25366579  0.50498415  0.37480226  1
  O  O190  1  0.25055415  0.51099982  0.86884951  1
  O  O191  1  0.75949403  -0.00033751  0.36451472  1
  O  O192  1  0.74832516  0.00854771  0.86265855  1
  O  O193  1  0.75142796  0.51407591  0.37249158  1
  O  O194  1  0.75211475  0.51239684  0.87410661  1
  O  O195  1  0.24322927  0.49091544  0.12810116  1
  O  O196  1  0.24628626  0.49461713  0.63373773  1
  O  O197  1  0.24166258  0.99687006  0.13086357  1
  O  O198  1  0.23872683  0.98817591  0.62259629  1
  O  O199  1  0.74237250  0.49021328  0.12608441  1
  O  O200  1  0.75770093  0.48786331  0.62184136  1
  O  O201  1  0.74804628  0.99436719  0.13933258  1
  O  O202  1  0.73843972  0.99969775  0.63857342  1
  O  O203  1  0.01437468  0.35102391  0.24205628  1
  O  O204  1  0.01611913  0.37588142  0.75048668  1
  O  O205  1  0.00393212  0.86696876  0.25674161  1
  O  O206  1  -0.00066216  0.86430106  0.75893655  1
  O  O207  1  0.50679623  0.37311052  0.25737362  1
  O  O208  1  0.51177955  0.37688009  0.75586572  1
  O  O209  1  0.50750092  0.87207662  0.25953129  1
  O  O210  1  0.51097443  0.88084606  0.76178012  1
  O  O211  1  0.48829000  0.12446559  0.25436508  1
  O  O212  1  0.48974548  0.12262345  0.75249999  1
  O  O213  1  0.48555011  0.62797195  0.26303531  1
  O  O214  1  0.49692484  0.61544692  0.73452975  1
  O  O215  1  1.00054916  0.13150241  0.24999781  1
  O  O216  1  0.98802480  0.13464521  0.75017392  1
  O  O217  1  0.99842435  0.64470252  0.23928168  1
  O  O218  1  0.99592868  0.62954726  0.74644055  1
  O  O219  1  0.36726541  0.25288950  0.00357658  1
  O  O220  1  0.36492412  0.25660605  0.49690791  1
  O  O221  1  0.36436308  0.75287674  0.00809151  1
  O  O222  1  0.37029912  0.75438783  0.51053029  1
  O  O223  1  0.87273069  0.25658735  0.00690422  1
  O  O224  1  0.87060905  0.25908279  0.49896372  1
  O  O225  1  0.86116153  0.75686459  -0.00525704  1
  O  O226  1  0.86784334  0.75743279  0.49991068  1
  O  O227  1  0.12872823  0.24564723  0.49119152  1
  O  O228  1  0.13544815  0.24578165  1.00404268  1
  O  O229  1  0.12820519  0.74453994  0.49491355  1
  O  O230  1  0.13815391  0.74188163  1.00693069  1
  O  O231  1  0.63520766  0.25450762  0.48907355  1
  O  O232  1  0.62448727  0.23890758  1.00155257  1
  O  O233  1  0.63205277  0.74251132  0.49513465  1
  O  O234  1  0.62759499  0.74575548  0.98766836  1
  O  O235  1  0.48415220  0.25572799  0.12433381  1
  O  O236  1  0.49144076  0.25939874  0.63004488  1
  O  O237  1  0.48748068  0.75205068  0.12145680  1
  O  O238  1  0.49096764  0.73895870  0.61882378  1
  O  O239  1  0.99044475  0.23856456  0.13072306  1
  O  O240  1  0.99904697  0.25760337  0.64420836  1
  O  O241  1  1.00059595  0.74588505  0.13822461  1
  O  O242  1  0.99676413  0.74431189  0.63372597  1
  O  O243  1  0.00350759  0.26208727  0.36293185  1
  O  O244  1  -0.00547981  0.25174012  0.86148403  1
  O  O245  1  0.00271889  0.75534148  0.36259575  1
  O  O246  1  -0.00461432  0.75431523  0.86676483  1
  O  O247  1  0.50810074  0.26295984  0.37322660  1
  O  O248  1  0.49592513  0.25928271  0.86532643  1
  O  O249  1  0.50559513  0.76086350  0.37849151  1
  O  O250  1  0.50930314  0.76099475  0.87256503  1
  O  O251  1  0.24349358  0.13263104  0.49269144  1
  O  O252  1  0.24545628  0.13932691  1.00166214  1
  O  O253  1  0.24479362  0.62909967  0.49391396  1
  O  O254  1  0.24436605  0.62977807  0.99446045  1
  O  O255  1  0.74567376  0.14023759  0.50435781  1
  O  O256  1  0.73779474  0.12547334  0.98992076  1
  O  O257  1  0.74453116  0.62853333  0.49383080  1
  O  O258  1  0.74476477  0.63147204  0.99271824  1
  O  O259  1  0.25676771  0.36568337  0.00689347  1
  O  O260  1  0.25161790  0.37010715  0.50656203  1
  O  O261  1  0.25173676  0.86458705  0.00159268  1
  O  O262  1  0.25535110  0.86845161  0.50989780  1
  O  O263  1  0.74692980  0.37634376  0.01193434  1
  O  O264  1  0.76051163  0.37227912  0.50193918  1
  O  O265  1  0.75556546  0.86781976  -0.00079327  1
  O  O266  1  0.75801160  0.86288824  0.49239532  1
  O  O267  1  0.12782290  0.50755774  0.23434408  1
  O  O268  1  0.13531311  0.49127086  0.74704251  1
  O  O269  1  0.12633829  0.99008167  0.24671328  1
  O  O270  1  0.13429530  1.00414151  0.74820014  1
  O  O271  1  0.61931431  0.49257713  0.23712575  1
  O  O272  1  0.63356376  0.48379912  0.74733135  1
  O  O273  1  0.63481739  0.99437331  0.25135408  1
  O  O274  1  0.63057326  0.99280079  0.74203406  1
  O  O275  1  0.37092056  0.00440691  0.25517425  1
  O  O276  1  0.37386826  0.01030565  0.75629673  1
  O  O277  1  0.37225522  0.50610833  0.25662852  1
  O  O278  1  0.36417962  0.50352703  0.74418725  1
  O  O279  1  0.86096547  -0.00337262  0.26095142  1
  O  O280  1  0.86764418  0.00528016  0.75018223  1
  O  O281  1  0.94641590  0.47497701  0.27475560  1
  O  O282  1  0.87540094  0.51044619  0.75829026  1
  O  O283  1  0.11232116  0.36676907  0.37297608  1
  O  O284  1  0.13012850  0.38295696  0.86529120  1
  O  O285  1  0.11582951  0.87242117  0.37033635  1
  O  O286  1  0.10848373  0.87724563  0.87275530  1
  O  O287  1  0.61992123  0.37267190  0.36567086  1
  O  O288  1  0.61759421  0.37790072  0.86475816  1
  O  O289  1  0.61846724  0.87195750  0.36883159  1
  O  O290  1  0.62000193  0.86777735  0.86743356  1
  O  O291  1  0.36896676  0.13211443  0.13409158  1
  O  O292  1  0.36972080  0.11932031  0.63878474  1
  O  O293  1  0.37149053  0.63247580  0.13641860  1
  O  O294  1  0.38215367  0.63151719  0.62735210  1
  O  O295  1  0.86810438  0.13707404  0.11936811  1
  O  O296  1  0.86641162  0.12632303  0.63750309  1
  O  O297  1  0.88485596  0.62367001  0.11972582  1
  O  O298  1  0.88269595  0.62460571  0.63285094  1
  O  O299  1  0.25866607  0.25615361  0.11789039  1
  O  O300  1  0.25303832  0.25802945  0.61763293  1
  O  O301  1  0.26004568  0.75057116  0.11758682  1
  O  O302  1  0.25743042  0.75459778  0.61945644  1
  O  O303  1  0.75353639  0.26188552  0.12059641  1
  O  O304  1  0.75633024  0.26405292  0.61284943  1
  O  O305  1  0.73950106  0.75144785  0.11091449  1
  O  O306  1  0.75420716  0.74423118  0.61186708  1
  O  O307  1  0.24036708  0.24804995  0.37790418  1
  O  O308  1  0.25029733  0.25444667  0.89101257  1
  O  O309  1  0.24361267  0.74516076  0.38214086  1
  O  O310  1  0.26088757  0.73451786  0.88374476  1
  O  O311  1  0.74249457  0.25972549  0.38247940  1
  O  O312  1  0.75464768  0.23870979  0.87535887  1
  O  O313  1  0.74499490  0.73804203  0.38450075  1
  O  O314  1  0.74318111  0.73865947  0.88223343  1
  O  O315  1  0.00116638  0.11198773  -0.00266043  1
  O  O316  1  0.01103207  0.13378509  0.49837382  1
  O  O317  1  0.00793606  0.64086644  0.01498756  1
  O  O318  1  0.00475527  0.61909742  0.50280371  1
  O  O319  1  0.51222871  0.11853460  -0.00910063  1
  O  O320  1  0.50710412  0.11882994  0.49289886  1
  O  O321  1  0.48963419  0.61270458  -0.01570847  1
  O  O322  1  0.50795321  0.61714442  0.50595313  1
  O  O323  1  0.49732056  0.38158047  0.49285199  1
  O  O324  1  0.49146035  0.37150746  0.98876660  1
  O  O325  1  0.49335549  0.87853348  0.49423015  1
  O  O326  1  0.49922476  0.88371294  0.98720123  1
  O  O327  1  0.99352649  0.38151126  0.50259677  1
  O  O328  1  0.99085747  0.39182238  1.05202197  1
  O  O329  1  0.99396431  0.86821952  0.48676521  1
  O  O330  1  0.99394665  0.87834470  0.99671368  1
  O  O331  1  0.49654479  0.49023430  0.38366248  1
  O  O332  1  0.49679968  0.49169912  0.87186914  1
  O  O333  1  0.49391882  0.98701204  0.37628775  1
  O  O334  1  0.49283795  0.99490282  0.88239305  1
  O  O335  1  1.02484295  0.49205423  0.39479879  1
  O  O336  1  0.98798888  0.50632400  0.87617897  1
  O  O337  1  0.98328941  0.99029140  0.36852737  1
  O  O338  1  0.99239938  0.98850770  0.88530001  1
  O  O339  1  0.00364765  0.00023106  0.11910260  1
  O  O340  1  0.02060406  -0.00476484  0.63584245  1
  O  O341  1  0.00962713  0.52756121  0.13019110  1
  O  O342  1  0.00631472  0.50512897  0.61663898  1
  O  O343  1  0.49915334  -0.00485386  0.11073379  1
  O  O344  1  0.51851380  -0.00608352  0.62589932  1
  O  O345  1  0.50812455  0.49418309  0.12391863  1
  O  O346  1  0.49414393  0.50597610  0.61112080  1
  O  O347  1  0.25761597  0.37398906  0.23590573  1
  O  O348  1  0.24584983  0.37895052  0.74647135  1
  O  O349  1  0.24031011  0.88087135  0.25148375  1
  O  O350  1  0.24676426  0.86533818  0.73914287  1
  O  O351  1  0.73829646  0.37457996  0.24206758  1
  O  O352  1  0.74517465  0.37632073  0.73971668  1
  O  O353  1  0.74054371  0.87986008  0.25165831  1
  O  O354  1  0.74261798  0.88220011  0.75835925  1
  O  O355  1  0.25746868  0.11721339  0.25588249  1
  O  O356  1  0.25349683  0.12451605  0.75243563  1
  O  O357  1  0.26059480  0.62575532  0.26069098  1
  O  O358  1  0.25669159  0.61754972  0.75808885  1
  O  O359  1  0.74367322  0.11300697  0.24658706  1
  O  O360  1  0.75284172  0.11966114  0.75555392  1
  O  O361  1  0.74710942  0.63091666  0.26369639  1
  O  O362  1  0.75867026  0.62338024  0.75610371  1
  O  O363  1  0.36745008  0.12074430  0.36667968  1
  O  O364  1  0.37425324  0.11218078  0.86489672  1
  O  O365  1  0.36727389  0.61942444  0.37389230  1
  O  O366  1  0.37594869  0.61480466  0.87484187  1
  O  O367  1  0.87834415  0.11150893  0.38012166  1
  O  O368  1  0.86397601  0.11974130  0.86389473  1
  O  O369  1  0.86258218  0.62101389  0.37345689  1
  O  O370  1  0.86786161  0.61711710  0.86899330  1
  O  O371  1  0.13849160  0.38588177  0.11912749  1
  O  O372  1  0.13787949  0.38030709  0.63116444  1
  O  O373  1  0.12460869  0.88461589  0.13407711  1
  O  O374  1  0.13212417  0.88457313  0.62775473  1
  O  O375  1  0.63162865  0.38286273  0.12983150  1
  O  O376  1  0.63516774  0.37556364  0.63269708  1
  O  O377  1  0.62302287  0.87677465  0.13827894  1
  O  O378  1  0.62344644  0.87423193  0.63791116  1
  O  O379  1  0.12188503  0.23711156  0.26186181  1
  O  O380  1  0.12143619  0.26459855  0.75161501  1
  O  O381  1  0.12407919  0.76192669  0.25381493  1
  O  O382  1  0.11382184  0.74885225  0.74708272  1
  O  O383  1  0.62305314  0.25920392  0.25369006  1
  O  O384  1  0.62869029  0.26663093  0.74701072  1
  O  O385  1  0.62230961  0.75697717  0.25740237  1
  O  O386  1  0.63294446  0.75573585  0.76075487  1
  O  O387  1  0.37709497  0.23960996  0.24137913  1
  O  O388  1  0.37271686  0.22931646  0.74978752  1
  O  O389  1  0.37740848  0.74280491  0.24217960  1
  O  O390  1  0.37228180  0.73961332  0.73882156  1
  O  O391  1  0.88275148  0.25158482  0.23946528  1
  O  O392  1  0.88086977  0.24410339  0.74700860  1
  O  O393  1  0.88244677  0.75959089  0.25200232  1
  O  O394  1  0.88108523  0.73798850  0.75036482  1
  O  O395  1  0.38192271  0.49344173  0.49337965  1
  O  O396  1  0.37227868  0.49303844  0.99944466  1
  O  O397  1  0.37299469  0.99205657  0.49422206  1
  O  O398  1  0.38094871  1.00112631  0.99184805  1
  O  O399  1  0.88759463  0.49429507  0.49061902  1
  O  O400  1  0.87315197  0.50160624  0.98480202  1
  O  O401  1  0.86337118  0.99398564  0.48761715  1
  O  O402  1  0.87982543  0.99262986  1.00001640  1
  O  O403  1  0.11454837  0.00037782  0.00880743  1
  O  O404  1  0.12423004  0.00796982  0.50949484  1
  O  O405  1  0.13056004  0.51587093  0.01048092  1
  O  O406  1  0.12429388  0.50582659  0.51128746  1
  O  O407  1  0.61713099  0.00669586  0.00109458  1
  O  O408  1  0.63191787  0.00037560  0.51723288  1
  O  O409  1  0.62378864  0.50327240  0.01573379  1
  O  O410  1  0.61760778  0.50755377  0.49476305  1
  O  O411  1  0.36838608  0.36878060  0.11252790  1
  O  O412  1  0.36195323  0.37744603  0.61840269  1
  O  O413  1  0.37145173  0.86538618  0.12405439  1
  O  O414  1  0.37030720  0.86887793  0.62509035  1
  O  O415  1  0.85465624  0.37000690  0.13434791  1
  O  O416  1  0.87146946  0.37646286  0.61212335  1
  O  O417  1  0.87439467  0.87599209  0.11235939  1
  O  O418  1  0.88201745  0.87667681  0.60887887  1
  O  O419  1  0.12893301  0.12954662  0.38321625  1
  O  O420  1  0.13447347  0.10826076  0.86743948  1
  O  O421  1  0.12895474  0.63064141  0.37719068  1
  O  O422  1  0.13376946  0.62317128  0.88536847  1
  O  O423  1  0.62427795  0.14046155  0.37159444  1
  O  O424  1  0.63324670  0.12175749  0.88533636  1
  O  O425  1  0.63182508  0.62820497  0.38417357  1
  O  O426  1  0.62969344  0.63049819  0.87410866  1
