# generated using pymatgen
data_V85Zn86O256
_symmetry_space_group_name_H-M   'P 1'
_cell_length_a   16.96186677
_cell_length_b   16.95256571
_cell_length_c   16.95131338
_cell_angle_alpha   90.03322397
_cell_angle_beta   90.04195712
_cell_angle_gamma   89.98160209
_symmetry_Int_Tables_number   1
_chemical_formula_structural   V85Zn86O256
_chemical_formula_sum   'V85 Zn86 O256'
_cell_volume   4874.29965692
_cell_formula_units_Z   1
loop_
 _symmetry_equiv_pos_site_id
 _symmetry_equiv_pos_as_xyz
  1  'x, y, z'
loop_
 _atom_site_type_symbol
 _atom_site_label
 _atom_site_symmetry_multiplicity
 _atom_site_fract_x
 _atom_site_fract_y
 _atom_site_fract_z
 _atom_site_occupancy
  V  V0  1  0.75621022  0.37237915  0.12212459  1
  V  V1  1  0.49870097  0.62702236  0.12687585  1
  V  V2  1  0.36711135  0.87425996  0.00115302  1
  V  V3  1  0.87744273  0.87694057  0.00854193  1
  V  V4  1  0.62884460  0.49257367  0.62419067  1
  V  V5  1  0.49747020  0.13697745  0.62798995  1
  V  V6  1  0.37614152  0.13955630  0.74720762  1
  V  V7  1  0.74586087  0.87440087  0.13768511  1
  V  V8  1  0.25062395  0.00222908  0.24684757  1
  V  V9  1  0.25435066  0.24707523  0.50169626  1
  V  V10  1  0.62913750  0.87164857  0.74628632  1
  V  V11  1  0.62525473  0.36665131  0.74753954  1
  V  V12  1  0.75812781  -0.00327645  0.74710448  1
  V  V13  1  0.00151080  0.74866893  0.74903992  1
  V  V14  1  0.75353353  0.02150578  0.26181034  1
  V  V15  1  0.49877856  0.49813322  -0.00140044  1
  V  V16  1  0.49926963  0.49579409  0.49680771  1
  V  V17  1  0.83032295  0.68163017  0.69111265  1
  V  V18  1  0.00188906  0.50016327  0.00243337  1
  V  V19  1  0.12595414  0.74964365  0.88189236  1
  V  V20  1  0.12220152  0.24963497  0.87635729  1
  V  V21  1  0.87578966  0.50033751  0.37419635  1
  V  V22  1  0.24845089  0.00039563  0.74842671  1
  V  V23  1  -0.00206234  0.62663500  0.12414785  1
  V  V24  1  0.12371352  0.37667664  0.24440880  1
  V  V25  1  0.50298272  0.36381809  0.36711897  1
  V  V26  1  0.63198702  0.12643728  0.49695047  1
  V  V27  1  0.00139737  0.75110064  0.25627530  1
  V  V28  1  0.49872538  0.75499252  0.24896329  1
  V  V29  1  0.25083684  0.50059572  0.75031835  1
  V  V30  1  0.12924262  0.62378135  0.00719096  1
  V  V31  1  0.13451456  0.62788246  0.49434211  1
  V  V32  1  0.37093506  0.50167484  0.37474717  1
  V  V33  1  0.87028996  0.24845564  0.62730681  1
  V  V34  1  0.63143700  -0.00314103  0.62413133  1
  V  V35  1  0.00005791  0.87918546  0.87955585  1
  V  V36  1  0.12541374  0.24786075  0.37307574  1
  V  V37  1  0.50405964  0.87568235  0.37654425  1
  V  V38  1  0.25150932  0.62757957  0.88027913  1
  V  V39  1  0.62054298  0.75087255  0.87513689  1
  V  V40  1  0.44397883  0.79658703  0.69052699  1
  V  V41  1  0.87804970  0.00479591  0.87686414  1
  V  V42  1  0.49871332  0.36831051  0.87036859  1
  V  V43  1  0.37378545  -0.00462149  0.37835674  1
  V  V44  1  0.86645379  0.37297564  0.50300709  1
  V  V45  1  0.12506157  -0.00270238  0.61600215  1
  V  V46  1  0.75199730  0.62862022  0.37589594  1
  V  V47  1  -0.00458610  0.23993081  0.75390171  1
  V  V48  1  0.49789119  -0.00473981  0.50341903  1
  V  V49  1  0.61888798  0.12014369  0.00398153  1
  V  V50  1  0.24683145  0.50429020  0.25169075  1
  V  V51  1  -0.00158353  0.37212042  0.37442259  1
  V  V52  1  0.11476125  -0.00316168  0.12372838  1
  V  V53  1  0.74770213  0.12521499  0.86778105  1
  V  V54  1  0.75241947  0.24827850  -0.00113378  1
  V  V55  1  0.62463847  0.49976429  0.12697730  1
  V  V56  1  -0.00252291  0.37371624  0.87254735  1
  V  V57  1  0.75607348  0.49475519  0.74662494  1
  V  V58  1  0.12274183  0.87665147  0.26100184  1
  V  V59  1  0.38782870  0.24607411  0.12923584  1
  V  V60  1  0.62523421  0.62776481  -0.00115816  1
  V  V61  1  -0.01354877  0.24791335  0.23734138  1
  V  V62  1  0.37994149  0.62554430  0.75148669  1
  V  V63  1  0.12012745  0.11949789  0.00440598  1
  V  V64  1  0.39155354  0.12367230  0.24753198  1
  V  V65  1  0.26007994  0.36954028  0.62558547  1
  V  V66  1  0.25060441  0.12574515  0.87555809  1
  V  V67  1  0.12739915  0.49582390  0.62519407  1
  V  V68  1  0.00267967  0.62446058  0.63020843  1
  V  V69  1  0.36543839  0.74987126  0.12281543  1
  V  V70  1  0.26740701  0.75662824  0.50186742  1
  V  V71  1  0.88353425  0.86982287  0.50586204  1
  V  V72  1  0.74907331  0.50010200  0.24742420  1
  V  V73  1  0.75772075  0.62739735  0.87389708  1
  V  V74  1  0.62584347  0.62361408  0.49752292  1
  V  V75  1  0.24932247  0.25031089  0.00392867  1
  V  V76  1  0.87523645  0.63101213  0.24511951  1
  V  V77  1  0.62769630  0.75319021  0.36993436  1
  V  V78  1  0.49763115  0.87495102  0.87763670  1
  V  V79  1  0.75414708  0.75270033  0.00576182  1
  V  V80  1  0.00200361  0.49852492  0.50076034  1
  V  V81  1  -0.00394931  0.11974896  0.61735382  1
  V  V82  1  0.89279032  0.00231296  0.37799459  1
  V  V83  1  0.49282592  0.62360666  0.62360096  1
  V  V84  1  0.24840540  0.37721342  0.12488850  1
  Zn  Zn85  1  0.36828587  0.62841395  0.25443340  1
  Zn  Zn86  1  0.37786374  0.36764843  0.50035209  1
  Zn  Zn87  1  -0.02472086  0.11223897  0.12985968  1
  Zn  Zn88  1  0.75255858  0.24594738  0.49631606  1
  Zn  Zn89  1  0.24538150  0.87198377  0.12264384  1
  Zn  Zn90  1  0.62036856  0.24573074  0.86917000  1
  Zn  Zn91  1  0.37605028  0.37309965  0.00032089  1
  Zn  Zn92  1  0.62041590  0.36220804  0.24244352  1
  Zn  Zn93  1  0.37614342  0.00295647  0.87768742  1
  Zn  Zn94  1  0.13040410  0.75048886  0.37747360  1
  Zn  Zn95  1  0.12439953  0.12081499  0.49551248  1
  Zn  Zn96  1  0.37499698  0.49886806  0.87685429  1
  Zn  Zn97  1  0.61904462  -0.00192081  0.13787692  1
  Zn  Zn98  1  0.49487896  0.00307673  0.01154590  1
  Zn  Zn99  1  0.63387628  0.23521721  0.35777678  1
  Zn  Zn100  1  0.87977199  0.50555030  0.86818285  1
  Zn  Zn101  1  0.12512660  0.37210603  0.74919743  1
  Zn  Zn102  1  0.26057526  0.87046249  0.62727489  1
  Zn  Zn103  1  0.25262641  0.12524467  0.37456202  1
  Zn  Zn104  1  0.87378805  0.37952728  -0.00108990  1
  Zn  Zn105  1  0.12688251  0.87413753  0.74947348  1
  Zn  Zn106  1  0.75357970  0.75736959  0.51713779  1
  Zn  Zn107  1  0.18775724  0.18661723  0.18805884  1
  Zn  Zn108  1  0.18288466  0.18649634  0.68681665  1
  Zn  Zn109  1  0.18396143  0.68767451  0.18858282  1
  Zn  Zn110  1  0.18999707  0.68923301  0.68626255  1
  Zn  Zn111  1  0.68866476  0.18888981  0.18361269  1
  Zn  Zn112  1  0.68986391  0.18316869  0.68389411  1
  Zn  Zn113  1  0.68730004  0.69075446  0.18779199  1
  Zn  Zn114  1  0.66412872  0.68151418  0.69215219  1
  Zn  Zn115  1  0.31481223  0.31264834  0.31148729  1
  Zn  Zn116  1  0.31126024  0.31448064  0.81481985  1
  Zn  Zn117  1  0.31089054  0.81418448  0.31713403  1
  Zn  Zn118  1  0.30683741  0.81380282  0.81815464  1
  Zn  Zn119  1  0.80651319  0.31102000  0.31262217  1
  Zn  Zn120  1  0.81316619  0.31177398  0.81281116  1
  Zn  Zn121  1  0.82105029  0.81496934  0.32172814  1
  Zn  Zn122  1  0.81072631  0.81841022  0.81975197  1
  Zn  Zn123  1  0.18797358  0.43289298  0.43712419  1
  Zn  Zn124  1  0.18466766  0.43944409  0.93853580  1
  Zn  Zn125  1  0.19311752  0.93320760  0.44000601  1
  Zn  Zn126  1  0.18780158  0.93863051  0.93785617  1
  Zn  Zn127  1  0.68736459  0.43345283  0.43296818  1
  Zn  Zn128  1  0.68543874  0.43834899  0.93349595  1
  Zn  Zn129  1  0.69855897  0.93494724  0.43762020  1
  Zn  Zn130  1  0.68873580  0.93785999  0.93693576  1
  Zn  Zn131  1  0.31158832  0.06123970  0.06448921  1
  Zn  Zn132  1  0.31222095  0.06377824  0.56197423  1
  Zn  Zn133  1  0.31331956  0.56115936  0.06603295  1
  Zn  Zn134  1  0.31313634  0.56077457  0.56135458  1
  Zn  Zn135  1  0.80435981  0.05631104  0.06326527  1
  Zn  Zn136  1  0.81825984  0.05370158  0.55690249  1
  Zn  Zn137  1  0.81584728  0.56208097  0.06044225  1
  Zn  Zn138  1  0.81013875  0.55677744  0.55668785  1
  Zn  Zn139  1  0.43339887  0.43620296  0.18776966  1
  Zn  Zn140  1  0.43827991  0.43811169  0.68885095  1
  Zn  Zn141  1  0.43840820  0.93573241  0.18801862  1
  Zn  Zn142  1  0.43906351  0.96104687  0.69324927  1
  Zn  Zn143  1  0.93868372  0.44113186  0.18577868  1
  Zn  Zn144  1  0.93811921  0.43247884  0.68769508  1
  Zn  Zn145  1  0.93277677  0.93355444  0.19564442  1
  Zn  Zn146  1  0.93961553  0.93421636  0.68686848  1
  Zn  Zn147  1  0.05990649  0.06815677  0.30629522  1
  Zn  Zn148  1  0.06354760  0.06249971  0.81099261  1
  Zn  Zn149  1  0.06286330  0.56076019  0.31273672  1
  Zn  Zn150  1  0.06480061  0.56228018  0.81312746  1
  Zn  Zn151  1  0.56830653  0.05576074  0.31257849  1
  Zn  Zn152  1  0.56287023  0.05994116  0.81152136  1
  Zn  Zn153  1  0.55947386  0.56329047  0.31114578  1
  Zn  Zn154  1  0.56436053  0.55817220  0.81205042  1
  Zn  Zn155  1  0.43797520  0.18155654  0.43885090  1
  Zn  Zn156  1  0.43598965  0.18997744  0.93965536  1
  Zn  Zn157  1  0.43784002  0.68395336  0.43456799  1
  Zn  Zn158  1  0.43717064  0.69049819  0.93899982  1
  Zn  Zn159  1  0.93636964  0.18598600  0.43456664  1
  Zn  Zn160  1  0.91742733  0.16913497  0.97189571  1
  Zn  Zn161  1  0.94061563  0.69257476  0.44184992  1
  Zn  Zn162  1  0.93766441  0.69115305  0.93939249  1
  Zn  Zn163  1  0.06407829  0.31433277  0.06064972  1
  Zn  Zn164  1  0.06175972  0.30822868  0.56145004  1
  Zn  Zn165  1  0.06064611  0.81039148  0.06688234  1
  Zn  Zn166  1  0.06194471  0.81387006  0.56387249  1
  Zn  Zn167  1  0.56869295  0.31160744  0.05787408  1
  Zn  Zn168  1  0.56301244  0.31165585  0.55972702  1
  Zn  Zn169  1  0.56039059  0.81827182  0.06319759  1
  Zn  Zn170  1  0.57213573  0.81553560  0.55469956  1
  O  O171  1  0.12685677  0.11525684  0.11783105  1
  O  O172  1  0.11486313  0.11702987  0.62334587  1
  O  O173  1  0.12006847  0.62733474  0.11249429  1
  O  O174  1  0.12116607  0.61362764  0.61923909  1
  O  O175  1  0.63389430  0.11979981  0.10565108  1
  O  O176  1  0.61452729  0.11722325  0.62126522  1
  O  O177  1  0.61962546  0.61998951  0.11903791  1
  O  O178  1  0.61053228  0.61192100  0.62042184  1
  O  O179  1  0.38690858  0.38265771  0.37535090  1
  O  O180  1  0.38242916  0.37916190  0.87822357  1
  O  O181  1  0.38762447  0.88734673  0.37085359  1
  O  O182  1  0.38135745  0.87329963  0.88292597  1
  O  O183  1  0.88073413  0.38208371  0.38129803  1
  O  O184  1  0.88812102  0.38054303  0.87272211  1
  O  O185  1  0.87285380  0.88832560  0.38588464  1
  O  O186  1  0.88292016  0.88288484  0.88298467  1
  O  O187  1  0.25947066  -0.00041966  0.36979994  1
  O  O188  1  0.24942847  0.01021588  0.86787735  1
  O  O189  1  0.25942486  0.48913371  0.36581847  1
  O  O190  1  0.24956116  0.51088441  0.86919106  1
  O  O191  1  0.75216232  0.00424105  0.36374258  1
  O  O192  1  0.75668158  0.00429023  0.86655505  1
  O  O193  1  0.75279460  0.51006525  0.36810316  1
  O  O194  1  0.74918373  0.51150283  0.86525263  1
  O  O195  1  0.25784877  0.48480587  0.13381807  1
  O  O196  1  0.24414664  0.49265669  0.62891395  1
  O  O197  1  0.24226350  0.99623543  0.13390116  1
  O  O198  1  0.24486837  0.99686040  0.63167733  1
  O  O199  1  0.74101343  0.49871273  0.12638798  1
  O  O200  1  0.73884493  0.50693528  0.63219331  1
  O  O201  1  0.75086697  0.98743778  0.13900147  1
  O  O202  1  0.73956921  1.00779968  0.63378497  1
  O  O203  1  0.00659380  0.37141600  0.25346495  1
  O  O204  1  0.00456895  0.36584262  0.75673360  1
  O  O205  1  0.00871168  0.86140528  0.24369512  1
  O  O206  1  0.00204766  0.86537533  0.76131159  1
  O  O207  1  0.50036625  0.38068174  0.26414812  1
  O  O208  1  0.51063886  0.38469551  0.75888350  1
  O  O209  1  0.49860165  0.86206811  0.25985274  1
  O  O210  1  0.50180663  0.87006738  0.75272372  1
  O  O211  1  0.49008181  0.11622205  0.25279377  1
  O  O212  1  0.49235280  0.11883202  0.73773665  1
  O  O213  1  0.49706607  0.63631201  0.24429925  1
  O  O214  1  0.48982484  0.61935013  0.74318104  1
  O  O215  1  1.00092204  0.14263951  0.24083753  1
  O  O216  1  1.00266016  0.13565865  0.74299195  1
  O  O217  1  0.99478940  0.62493078  0.24231550  1
  O  O218  1  1.00259136  0.62893561  0.73944269  1
  O  O219  1  0.36712776  0.24991293  0.01211864  1
  O  O220  1  0.35946646  0.24866752  0.49325652  1
  O  O221  1  0.38073241  0.75850841  0.01243748  1
  O  O222  1  0.36581862  0.74244452  0.50122290  1
  O  O223  1  0.85458626  0.26401480  -0.01707582  1
  O  O224  1  0.87669385  0.25769886  0.50594952  1
  O  O225  1  0.86356165  0.76079611  -0.00622409  1
  O  O226  1  0.86815287  0.76001185  0.49406431  1
  O  O227  1  0.13365363  0.25050913  0.48898342  1
  O  O228  1  0.13149005  0.24266717  0.99569780  1
  O  O229  1  0.12608318  0.73566336  0.50021886  1
  O  O230  1  0.11861721  0.74113547  0.98900611  1
  O  O231  1  0.62714395  0.23289191  0.50663202  1
  O  O232  1  0.63270353  0.23895436  0.99369025  1
  O  O233  1  0.63116472  0.74179467  0.48826551  1
  O  O234  1  0.63131410  0.74636292  0.99490146  1
  O  O235  1  0.48543049  0.25574319  0.11833774  1
  O  O236  1  0.49978010  0.23548778  0.62183446  1
  O  O237  1  0.49458876  0.74896827  0.13365520  1
  O  O238  1  0.50663190  0.74156863  0.62333938  1
  O  O239  1  1.00005375  0.25707763  0.13636167  1
  O  O240  1  0.99657225  0.23850206  0.63267896  1
  O  O241  1  1.00514331  0.73438240  0.13669619  1
  O  O242  1  1.00728888  0.74121926  0.64088633  1
  O  O243  1  0.00604734  0.25465444  0.36538039  1
  O  O244  1  0.00290496  0.25606010  0.86892472  1
  O  O245  1  0.00934728  0.73543057  0.35985407  1
  O  O246  1  0.00586144  0.75361259  0.86667282  1
  O  O247  1  0.50061219  0.26292464  0.38182626  1
  O  O248  1  0.50046748  0.26415896  0.87748440  1
  O  O249  1  0.50590064  0.75546379  0.37145184  1
  O  O250  1  0.50843675  0.76132408  0.87972286  1
  O  O251  1  0.24518256  0.13211139  0.49703795  1
  O  O252  1  0.24438561  0.12952008  0.99241561  1
  O  O253  1  0.23876750  0.63122166  0.50707259  1
  O  O254  1  0.24195268  0.61677838  0.99289898  1
  O  O255  1  0.73390408  0.12031123  0.50807048  1
  O  O256  1  0.73907471  0.12988264  0.98575230  1
  O  O257  1  0.74438403  0.62618463  0.49005522  1
  O  O258  1  0.74586612  0.63231648  0.99373644  1
  O  O259  1  0.25037681  0.37138281  0.00747121  1
  O  O260  1  0.25237734  0.36745425  0.50884669  1
  O  O261  1  0.26288235  0.87491293  -0.00111135  1
  O  O262  1  0.25503768  0.86187923  0.50690189  1
  O  O263  1  0.74622355  0.37036476  0.00429096  1
  O  O264  1  0.76422039  0.38128420  0.50160326  1
  O  O265  1  0.75686690  0.86858625  0.00489011  1
  O  O266  1  0.76216023  0.87006052  0.50145760  1
  O  O267  1  0.13137206  0.48559486  0.25724529  1
  O  O268  1  0.13249622  0.49923350  0.74096232  1
  O  O269  1  0.13110391  0.99509692  0.24405836  1
  O  O270  1  0.13735408  1.00186977  0.74350343  1
  O  O271  1  0.62795745  0.50229214  0.23677590  1
  O  O272  1  0.63442153  0.49537106  0.74095532  1
  O  O273  1  0.64637026  1.00312036  0.25122335  1
  O  O274  1  0.63184302  0.98999687  0.74337181  1
  O  O275  1  0.36759257  0.00471705  0.25493905  1
  O  O276  1  0.36131208  0.01366289  0.75607479  1
  O  O277  1  0.36531829  0.50081634  0.25679060  1
  O  O278  1  0.36862585  0.50872713  0.75300400  1
  O  O279  1  0.86285117  -0.00752881  0.26350581  1
  O  O280  1  0.86388488  -0.00897973  0.75798735  1
  O  O281  1  0.87054310  0.51024580  0.25570605  1
  O  O282  1  0.86141183  0.49625882  0.74688395  1
  O  O283  1  0.11825322  0.36528373  0.36857390  1
  O  O284  1  0.11431847  0.36871630  0.87564313  1
  O  O285  1  0.12718835  0.87568806  0.36395288  1
  O  O286  1  0.11821628  0.86740175  0.87630379  1
  O  O287  1  0.60957690  0.37786716  0.37148611  1
  O  O288  1  0.61692936  0.37391722  0.86456183  1
  O  O289  1  0.61478652  0.86608098  0.38078207  1
  O  O290  1  0.61742285  0.87175707  0.86818931  1
  O  O291  1  0.37058136  0.13772636  0.13156366  1
  O  O292  1  0.38927570  0.11834308  0.63208618  1
  O  O293  1  0.38177163  0.63292393  0.12733305  1
  O  O294  1  0.38611147  0.62059139  0.63129331  1
  O  O295  1  0.88049903  0.13524970  0.07784987  1
  O  O296  1  0.88923230  0.12888653  0.61907437  1
  O  O297  1  0.88275044  0.62261859  0.13418857  1
  O  O298  1  0.88477195  0.62065522  0.62338719  1
  O  O299  1  0.25389654  0.25960647  0.12163554  1
  O  O300  1  0.23980106  0.25957647  0.61601409  1
  O  O301  1  0.26198924  0.75021567  0.13069044  1
  O  O302  1  0.24644879  0.75201256  0.61015917  1
  O  O303  1  0.74592276  0.26174238  0.11187722  1
  O  O304  1  0.76685943  0.24199003  0.62107880  1
  O  O305  1  0.74626069  0.75777737  0.11373756  1
  O  O306  1  0.75533275  0.72790835  0.63418375  1
  O  O307  1  0.24195495  0.25073572  0.37968245  1
  O  O308  1  0.24361040  0.24493072  0.88241119  1
  O  O309  1  0.24852247  0.75260648  0.39332597  1
  O  O310  1  0.24099971  0.73638605  0.87309201  1
  O  O311  1  0.74141043  0.26100779  0.38495468  1
  O  O312  1  0.74463861  0.23989861  0.87431401  1
  O  O313  1  0.74315884  0.73801939  0.36814067  1
  O  O314  1  0.74181230  0.74553741  0.88378254  1
  O  O315  1  0.01993595  0.12444563  -0.00426584  1
  O  O316  1  0.00638190  0.13109053  0.51474213  1
  O  O317  1  0.00497157  0.62173505  0.00558219  1
  O  O318  1  0.00961605  0.62051280  0.51219010  1
  O  O319  1  0.51470534  0.12272840  -0.01001635  1
  O  O320  1  0.50589897  0.11611369  0.51164642  1
  O  O321  1  0.50598534  0.61892427  0.00532785  1
  O  O322  1  0.50541286  0.61681679  0.50484563  1
  O  O323  1  0.49826756  0.38109982  0.49206879  1
  O  O324  1  0.50205222  0.38334933  0.99164451  1
  O  O325  1  0.50361673  0.88719639  0.49451497  1
  O  O326  1  0.49027088  0.87753818  0.99155681  1
  O  O327  1  0.99591038  0.37983810  0.49319896  1
  O  O328  1  0.99969196  0.38379636  0.99299804  1
  O  O329  1  0.98569148  0.86073769  0.49607743  1
  O  O330  1  0.99135909  0.86604154  0.98978938  1
  O  O331  1  0.49642935  0.49408427  0.38433707  1
  O  O332  1  0.50068968  0.49342956  0.88434838  1
  O  O333  1  0.49745785  0.99182348  0.38229141  1
  O  O334  1  0.49690289  0.98489088  0.87169398  1
  O  O335  1  0.99521235  0.49383553  0.38090267  1
  O  O336  1  0.99998882  0.49279134  0.87837858  1
  O  O337  1  0.99214559  0.99834573  0.36398891  1
  O  O338  1  0.99276831  0.99001678  0.86834857  1
  O  O339  1  0.01004569  -0.00070073  0.13396343  1
  O  O340  1  0.00872114  0.01396535  0.63548866  1
  O  O341  1  -0.00126609  0.51206560  0.11558359  1
  O  O342  1  0.00842986  0.50453052  0.62244880  1
  O  O343  1  0.50762001  -0.00774764  0.12408857  1
  O  O344  1  0.51215105  0.00561615  0.61838106  1
  O  O345  1  0.50603980  0.50331525  0.11962553  1
  O  O346  1  0.50337322  0.50384557  0.61308068  1
  O  O347  1  0.24265977  0.37953656  0.24373628  1
  O  O348  1  0.24658225  0.38076387  0.74330207  1
  O  O349  1  0.24289753  0.88572349  0.24982810  1
  O  O350  1  0.24853086  0.88504994  0.74908408  1
  O  O351  1  0.74636341  0.38485203  0.23980053  1
  O  O352  1  0.73976674  0.38504546  0.75599639  1
  O  O353  1  0.75465012  0.86151671  0.23602194  1
  O  O354  1  0.73974850  0.88291232  0.75522212  1
  O  O355  1  0.25416229  0.11246822  0.25207554  1
  O  O356  1  0.25414595  0.12189974  0.75603503  1
  O  O357  1  0.24613010  0.60828455  0.24508425  1
  O  O358  1  0.26046208  0.62164845  0.75536996  1
  O  O359  1  0.75926417  0.11904142  0.24450531  1
  O  O360  1  0.74481694  0.11368446  0.75990321  1
  O  O361  1  0.75777659  0.62135491  0.25338861  1
  O  O362  1  0.75514943  0.62418286  0.75404560  1
  O  O363  1  0.37599782  0.11318969  0.36624504  1
  O  O364  1  0.36450112  0.12768900  0.86989685  1
  O  O365  1  0.37999325  0.60727574  0.37202881  1
  O  O366  1  0.36882194  0.62447694  0.87031221  1
  O  O367  1  0.87881063  0.10429604  0.38383517  1
  O  O368  1  0.86741376  0.11074503  0.88107451  1
  O  O369  1  0.86836737  0.61982700  0.37097653  1
  O  O370  1  0.86184223  0.62683898  0.87747625  1
  O  O371  1  0.13378264  0.37245643  0.13379802  1
  O  O372  1  0.12964480  0.38585910  0.62308958  1
  O  O373  1  0.12680058  0.88055090  0.13217528  1
  O  O374  1  0.12406204  0.88470758  0.63075344  1
  O  O375  1  0.63264406  0.38562376  0.12296944  1
  O  O376  1  0.61793562  0.38597834  0.62985034  1
  O  O377  1  0.64276962  0.87703811  0.11900982  1
  O  O378  1  0.62179239  0.88315973  0.63429730  1
  O  O379  1  0.12030642  0.25974005  0.25512432  1
  O  O380  1  0.11682153  0.25043389  0.75939939  1
  O  O381  1  0.12135342  0.75806868  0.25380301  1
  O  O382  1  0.11853629  0.74807865  0.76274733  1
  O  O383  1  0.62131909  0.24928008  0.24684124  1
  O  O384  1  0.62999434  0.26355025  0.74430035  1
  O  O385  1  0.61614632  0.74445762  0.26272011  1
  O  O386  1  0.62512845  0.76263612  0.75911695  1
  O  O387  1  0.37197097  0.24019267  0.23821715  1
  O  O388  1  0.36819532  0.23879917  0.74985418  1
  O  O389  1  0.38081801  0.74862099  0.24577033  1
  O  O390  1  0.37724636  0.74267541  0.75346520  1
  O  O391  1  0.88892123  0.25966402  0.25052680  1
  O  O392  1  0.88426012  0.25506215  0.74067862  1
  O  O393  1  0.88349899  0.73734721  0.25690210  1
  O  O394  1  0.88100536  0.75058031  0.75360865  1
  O  O395  1  0.38265975  0.49594404  0.49357716  1
  O  O396  1  0.38898452  0.49877871  1.00128111  1
  O  O397  1  0.38562174  1.00594484  0.49129869  1
  O  O398  1  0.37602474  0.99229388  0.99728516  1
  O  O399  1  0.88366231  0.49312805  0.49510555  1
  O  O400  1  0.88815981  0.50162818  0.99258538  1
  O  O401  1  0.87777423  0.98813861  0.48784790  1
  O  O402  1  0.86746346  0.98585813  0.98860329  1
  O  O403  1  0.13237118  0.00586546  0.01259053  1
  O  O404  1  0.13113665  -0.00015606  0.51198195  1
  O  O405  1  0.11157793  0.51068742  -0.00589177  1
  O  O406  1  0.12338437  0.50757720  0.50632275  1
  O  O407  1  0.62495330  0.01299879  -0.00436213  1
  O  O408  1  0.62055038  0.00649777  0.50734586  1
  O  O409  1  0.61685557  0.50658068  0.00743199  1
  O  O410  1  0.61957331  0.50274113  0.50514719  1
  O  O411  1  0.36802375  0.36276618  0.12508056  1
  O  O412  1  0.36332584  0.37809069  0.62418320  1
  O  O413  1  0.37147931  0.86658859  0.11832884  1
  O  O414  1  0.38602874  0.86790912  0.64182603  1
  O  O415  1  0.85975704  0.38677209  0.12040045  1
  O  O416  1  0.88514302  0.36199978  0.61387031  1
  O  O417  1  0.86538627  0.87798816  0.11480961  1
  O  O418  1  0.87896060  0.88265851  0.60791182  1
  O  O419  1  0.12622710  0.13738902  0.37281950  1
  O  O420  1  0.13559192  0.12857749  0.87973482  1
  O  O421  1  0.12440177  0.61948756  0.39287002  1
  O  O422  1  0.13162643  0.63076645  0.88356923  1
  O  O423  1  0.61447814  0.12379555  0.39441929  1
  O  O424  1  0.63158521  0.12544809  0.87728988  1
  O  O425  1  0.63170668  0.62935356  0.37805727  1
  O  O426  1  0.63348773  0.63078287  0.87765826  1
