# generated using pymatgen
data_V85Zn86O256
_symmetry_space_group_name_H-M   'P 1'
_cell_length_a   16.90607508
_cell_length_b   16.90466295
_cell_length_c   16.90517680
_cell_angle_alpha   89.99266837
_cell_angle_beta   89.95402275
_cell_angle_gamma   89.98483466
_symmetry_Int_Tables_number   1
_chemical_formula_structural   V85Zn86O256
_chemical_formula_sum   'V85 Zn86 O256'
_cell_volume   4831.35408849
_cell_formula_units_Z   1
loop_
 _symmetry_equiv_pos_site_id
 _symmetry_equiv_pos_as_xyz
  1  'x, y, z'
loop_
 _atom_site_type_symbol
 _atom_site_label
 _atom_site_symmetry_multiplicity
 _atom_site_fract_x
 _atom_site_fract_y
 _atom_site_fract_z
 _atom_site_occupancy
  V  V0  1  -0.00178981  0.24705939  0.74906263  1
  V  V1  1  0.37799130  0.76006389  0.61161147  1
  V  V2  1  0.24511240  0.51428491  0.25418937  1
  V  V3  1  0.00603988  0.00010904  0.49492525  1
  V  V4  1  0.38429594  0.62674598  0.24002599  1
  V  V5  1  0.37349804  0.25087940  0.12617409  1
  V  V6  1  0.62239898  0.12068291  0.51474924  1
  V  V7  1  0.74796140  0.75309039  0.00707498  1
  V  V8  1  0.12402330  0.37588473  0.24953796  1
  V  V9  1  0.12582294  0.24967437  0.37693601  1
  V  V10  1  0.24327929  0.63158151  0.86985556  1
  V  V11  1  0.62925720  0.49030846  0.62453395  1
  V  V12  1  0.87624215  0.12119130  0.25507092  1
  V  V13  1  0.49994276  -0.00137047  0.51476531  1
  V  V14  1  0.25887195  0.12665877  0.87118233  1
  V  V15  1  0.37710591  -0.00163852  0.37987622  1
  V  V16  1  0.00397588  0.11901555  0.62496733  1
  V  V17  1  0.26688577  0.75428941  -0.00021989  1
  V  V18  1  0.62318896  0.37852683  0.24886760  1
  V  V19  1  0.12675641  0.50093423  0.61949764  1
  V  V20  1  0.87294284  0.37249389  -0.00249894  1
  V  V21  1  0.63403320  0.12803364  0.00185709  1
  V  V22  1  0.75094852  0.11864594  0.37853625  1
  V  V23  1  0.87392101  0.74853117  0.63335729  1
  V  V24  1  0.87072723  0.24728786  0.12041504  1
  V  V25  1  0.50118053  0.75401242  0.74785193  1
  V  V26  1  0.37776268  0.50084246  0.87225822  1
  V  V27  1  0.75346762  0.62578914  0.86735208  1
  V  V28  1  0.63112469  -0.00633046  0.12433965  1
  V  V29  1  0.24541015  0.00297130  0.74629632  1
  V  V30  1  0.25263919  0.12627975  0.37951460  1
  V  V31  1  0.49430885  -0.00484170  0.00166788  1
  V  V32  1  0.00181835  0.12527825  0.12624546  1
  V  V33  1  -0.00535154  0.37303752  0.38229464  1
  V  V34  1  0.25222756  0.26755557  0.50664237  1
  V  V35  1  0.86988025  0.49529405  0.37857937  1
  V  V36  1  0.12582792  0.24956689  0.87397499  1
  V  V37  1  0.87438963  0.88255401  0.49621748  1
  V  V38  1  0.75158275  0.26008203  0.50294765  1
  V  V39  1  0.75005069  0.89305560  0.62967854  1
  V  V40  1  0.49939183  0.25099879  0.25129971  1
  V  V41  1  -0.00724105  0.62265194  0.63278700  1
  V  V42  1  0.62352768  0.24762819  0.37631482  1
  V  V43  1  0.00657945  0.86765375  0.87443007  1
  V  V44  1  0.12882206  -0.00253468  0.12530404  1
  V  V45  1  0.74901968  0.62473369  0.37350335  1
  V  V46  1  0.37358873  0.37555345  -0.00136558  1
  V  V47  1  0.12637737  0.73454822  0.38016074  1
  V  V48  1  0.49381606  0.49056829  0.50186199  1
  V  V49  1  0.75315036  -0.00558524  0.24900686  1
  V  V50  1  0.12661284  0.12530926  -0.00117753  1
  V  V51  1  0.75245971  0.75138770  0.50416792  1
  V  V52  1  0.62226690  0.75197609  0.37532042  1
  V  V53  1  0.36798719  0.50231553  0.37967616  1
  V  V54  1  0.74527085  0.37198204  0.12188218  1
  V  V55  1  0.62814636  0.88878691  0.74758366  1
  V  V56  1  0.62570015  0.74875255  0.87248074  1
  V  V57  1  0.87232149  0.26123296  0.62109520  1
  V  V58  1  0.75276455  0.49231125  0.74653299  1
  V  V59  1  0.87269752  0.87598091  0.00559729  1
  V  V60  1  0.12982430  0.86052043  0.74851098  1
  V  V61  1  0.26612424  0.87131908  0.12390976  1
  V  V62  1  -0.00294938  0.74886177  0.24728443  1
  V  V63  1  0.49559442  0.87404433  0.37737432  1
  V  V64  1  0.12700037  0.87357839  0.25294107  1
  V  V65  1  0.12298366  0.63724401  -0.00221979  1
  V  V66  1  0.12198126  0.50225588  0.12009121  1
  V  V67  1  0.37175391  -0.00958949  0.87538073  1
  V  V68  1  0.25184501  0.49561764  0.74309089  1
  V  V69  1  -0.00226434  0.50576037  0.49927129  1
  V  V70  1  0.75039395  0.11984199  0.86792713  1
  V  V71  1  0.87468799  -0.00320968  0.86636380  1
  V  V72  1  0.25061072  0.88065260  0.61488989  1
  V  V73  1  0.62300026  0.62059865  0.00879722  1
  V  V74  1  0.37555073  0.62707798  0.74765101  1
  V  V75  1  0.49546387  0.23707964  0.75135204  1
  V  V76  1  0.38285252  0.25114866  0.62042053  1
  V  V77  1  0.50132970  0.12529981  0.12470678  1
  V  V78  1  0.74725306  0.50356874  0.24275273  1
  V  V79  1  0.12851019  0.37292644  0.74540949  1
  V  V80  1  0.62408957  0.62377145  0.50124439  1
  V  V81  1  0.63068992  0.25134856  0.87665005  1
  V  V82  1  0.87732396  0.50342812  0.87157269  1
  V  V83  1  0.50145968  0.62438113  0.62433648  1
  V  V84  1  0.50187517  0.50348702  0.01248616  1
  Zn  Zn85  1  0.00127245  -0.00217980  -0.00273836  1
  Zn  Zn86  1  0.00020835  0.37495186  0.87608036  1
  Zn  Zn87  1  -0.00353233  0.87751651  0.37241209  1
  Zn  Zn88  1  -0.00140595  0.25012524  0.25239832  1
  Zn  Zn89  1  0.49194454  0.37224492  0.37908521  1
  Zn  Zn90  1  0.87113158  0.62575112  0.24523226  1
  Zn  Zn91  1  0.24819541  0.37667529  0.12522652  1
  Zn  Zn92  1  0.62634155  0.87486198  0.24902799  1
  Zn  Zn93  1  0.13086653  0.12190318  0.50595804  1
  Zn  Zn94  1  0.00359083  0.74304960  0.75315684  1
  Zn  Zn95  1  0.37516546  0.12594053  0.25223115  1
  Zn  Zn96  1  0.00051559  0.50208822  -0.00301117  1
  Zn  Zn97  1  0.62500320  0.37061211  0.74767654  1
  Zn  Zn98  1  0.25315469  -0.00042120  0.25293662  1
  Zn  Zn99  1  -0.00703112  0.62627217  0.12129946  1
  Zn  Zn100  1  0.48633445  0.75721332  0.22995052  1
  Zn  Zn101  1  0.25218314  0.74227076  0.49029442  1
  Zn  Zn102  1  0.87080298  0.11968917  0.74469920  1
  Zn  Zn103  1  0.86623486  0.75114351  0.12869269  1
  Zn  Zn104  1  0.50242584  0.37496288  0.87109419  1
  Zn  Zn105  1  0.24952475  0.25323595  -0.00058025  1
  Zn  Zn106  1  0.49663113  0.87228452  0.87902264  1
  Zn  Zn107  1  0.19055722  0.18778149  0.19086553  1
  Zn  Zn108  1  0.19144596  0.18664665  0.68414193  1
  Zn  Zn109  1  0.18677073  0.69085260  0.18366883  1
  Zn  Zn110  1  0.19695340  0.67868790  0.65534990  1
  Zn  Zn111  1  0.68901534  0.18643139  0.18905889  1
  Zn  Zn112  1  0.68895475  0.18848129  0.69051272  1
  Zn  Zn113  1  0.65271970  0.69631659  0.17422425  1
  Zn  Zn114  1  0.68911740  0.68598300  0.68718481  1
  Zn  Zn115  1  0.31020283  0.31790113  0.31411321  1
  Zn  Zn116  1  0.31529575  0.31219776  0.80805763  1
  Zn  Zn117  1  0.31151006  0.81005079  0.31368967  1
  Zn  Zn118  1  0.31139276  0.81265025  0.80941171  1
  Zn  Zn119  1  0.81073979  0.30822809  0.31186940  1
  Zn  Zn120  1  0.81099111  0.31070660  0.81188859  1
  Zn  Zn121  1  0.81169732  0.81163714  0.31584511  1
  Zn  Zn122  1  0.81197290  0.81645194  0.81335388  1
  Zn  Zn123  1  0.18340618  0.44227324  0.43483566  1
  Zn  Zn124  1  0.18842677  0.44001707  0.93328195  1
  Zn  Zn125  1  0.18606601  0.93611103  0.43814484  1
  Zn  Zn126  1  0.18762550  0.93394829  0.93596255  1
  Zn  Zn127  1  0.68209377  0.43665721  0.43450346  1
  Zn  Zn128  1  0.68927153  0.43673456  0.93694137  1
  Zn  Zn129  1  0.68562675  0.93908564  0.44024050  1
  Zn  Zn130  1  0.68704652  0.93724727  0.93569088  1
  Zn  Zn131  1  0.31185390  0.06328789  0.06136027  1
  Zn  Zn132  1  0.31860915  0.06903744  0.56535899  1
  Zn  Zn133  1  0.30874446  0.56394951  0.06258134  1
  Zn  Zn134  1  0.31144349  0.56765526  0.55969765  1
  Zn  Zn135  1  0.81349964  0.06036962  0.05908892  1
  Zn  Zn136  1  0.81923196  0.06775909  0.56108273  1
  Zn  Zn137  1  0.81009369  0.56414060  0.05937901  1
  Zn  Zn138  1  0.81337829  0.56125709  0.56139329  1
  Zn  Zn139  1  0.43293635  0.43860377  0.19079539  1
  Zn  Zn140  1  0.43881447  0.42721366  0.68581727  1
  Zn  Zn141  1  0.44124416  0.94150785  0.19435540  1
  Zn  Zn142  1  0.43211455  0.94011341  0.69395555  1
  Zn  Zn143  1  0.93611422  0.43774804  0.18895853  1
  Zn  Zn144  1  0.93834613  0.43535951  0.69037940  1
  Zn  Zn145  1  0.94007290  0.93818939  0.18628593  1
  Zn  Zn146  1  0.94239141  0.93440805  0.68466929  1
  Zn  Zn147  1  0.06480931  0.06171309  0.31502828  1
  Zn  Zn148  1  0.06545696  0.05711720  0.81079537  1
  Zn  Zn149  1  0.05650262  0.56317905  0.31003286  1
  Zn  Zn150  1  0.06286574  0.56238328  0.81005945  1
  Zn  Zn151  1  0.56386383  0.06239807  0.31430077  1
  Zn  Zn152  1  0.55959618  0.06357741  0.81692208  1
  Zn  Zn153  1  0.55986329  0.56042922  0.31416966  1
  Zn  Zn154  1  0.56463276  0.56258916  0.81125668  1
  Zn  Zn155  1  0.43746147  0.18575876  0.44255186  1
  Zn  Zn156  1  0.44116761  0.18516111  0.93834489  1
  Zn  Zn157  1  0.43731505  0.68033403  0.43182601  1
  Zn  Zn158  1  0.43893498  0.68352586  0.93610681  1
  Zn  Zn159  1  0.93629474  0.18551248  0.43967871  1
  Zn  Zn160  1  0.93708888  0.18579402  0.93732776  1
  Zn  Zn161  1  0.93691747  0.68823107  0.43727592  1
  Zn  Zn162  1  0.93514887  0.68888425  0.93759781  1
  Zn  Zn163  1  0.05779952  0.31231650  0.06252280  1
  Zn  Zn164  1  0.06239174  0.31375520  0.56220445  1
  Zn  Zn165  1  0.06425338  0.81346276  0.06331351  1
  Zn  Zn166  1  0.06341287  0.81387573  0.56484664  1
  Zn  Zn167  1  0.56068795  0.31457353  0.05960919  1
  Zn  Zn168  1  0.56227693  0.30887038  0.56461322  1
  Zn  Zn169  1  0.55993174  0.81302939  0.06139435  1
  Zn  Zn170  1  0.56650678  0.81863943  0.56298391  1
  O  O171  1  0.12523802  0.11901110  0.11965459  1
  O  O172  1  0.10944693  0.13364438  0.62224251  1
  O  O173  1  0.12328549  0.61901337  0.11466034  1
  O  O174  1  0.10890060  0.60576693  0.63511040  1
  O  O175  1  0.62114995  0.12149012  0.11830655  1
  O  O176  1  0.63002150  0.12586977  0.61297417  1
  O  O177  1  0.64176211  0.60446315  0.10518419  1
  O  O178  1  0.61993019  0.61672734  0.61998790  1
  O  O179  1  0.37690838  0.39443361  0.36669536  1
  O  O180  1  0.37577583  0.38341208  0.88164979  1
  O  O181  1  0.38620105  0.88067507  0.37417324  1
  O  O182  1  0.37495105  0.88598326  0.87467890  1
  O  O183  1  0.88305772  0.38073992  0.36727476  1
  O  O184  1  0.87364340  0.37913049  0.88298115  1
  O  O185  1  0.87679974  0.87001268  0.39201574  1
  O  O186  1  0.88159510  0.88100814  0.88200302  1
  O  O187  1  0.25951438  0.00621400  0.37999834  1
  O  O188  1  0.25469211  0.00612193  0.87105081  1
  O  O189  1  0.25320937  0.50148667  0.36678995  1
  O  O190  1  0.25977631  0.50855328  0.86585736  1
  O  O191  1  0.74464530  0.01192620  0.36907285  1
  O  O192  1  0.76042158  0.00770082  0.87994694  1
  O  O193  1  0.75370386  0.50188021  0.36771469  1
  O  O194  1  0.75525641  0.50666508  0.86777091  1
  O  O195  1  0.23692694  0.49888027  0.13183222  1
  O  O196  1  0.24226255  0.50098732  0.63600784  1
  O  O197  1  0.24253015  0.99353428  0.12589923  1
  O  O198  1  0.25902705  0.98947593  0.63009149  1
  O  O199  1  0.75780753  0.48767001  0.13678023  1
  O  O200  1  0.74224661  0.50673740  0.63396292  1
  O  O201  1  0.74239402  1.00989083  0.13521331  1
  O  O202  1  0.75751507  0.99222326  0.62416811  1
  O  O203  1  0.00951568  0.37629625  0.25934035  1
  O  O204  1  0.00700115  0.36201538  0.75226674  1
  O  O205  1  0.00744073  0.86961004  0.25126471  1
  O  O206  1  0.01272971  0.87217760  0.75399931  1
  O  O207  1  0.50793659  0.36976328  0.24817825  1
  O  O208  1  0.50591152  0.36220894  0.75348317  1
  O  O209  1  0.50544764  0.87143535  0.26063227  1
  O  O210  1  0.50727395  0.86845034  0.75205556  1
  O  O211  1  0.50050996  0.13345940  0.24301808  1
  O  O212  1  0.50516698  0.13766344  0.74998383  1
  O  O213  1  0.48749520  0.62307499  0.25084237  1
  O  O214  1  0.49644028  0.63328979  0.74444859  1
  O  O215  1  0.99326787  0.12465696  0.24559359  1
  O  O216  1  1.00093352  0.13337075  0.74474277  1
  O  O217  1  0.99459459  0.63431851  0.24578931  1
  O  O218  1  0.99647324  0.62434863  0.73919337  1
  O  O219  1  0.37682028  0.25916135  0.00600586  1
  O  O220  1  0.36749010  0.25175273  0.50952482  1
  O  O221  1  0.36625996  0.74672636  -0.00005195  1
  O  O222  1  0.37614851  0.74561365  0.50889835  1
  O  O223  1  0.87813260  0.25702446  0.00878017  1
  O  O224  1  0.86704539  0.24594957  0.51197041  1
  O  O225  1  0.86429321  0.75757480  0.00010741  1
  O  O226  1  0.87083823  0.75757554  0.50902156  1
  O  O227  1  0.13632530  0.25172041  0.49461517  1
  O  O228  1  0.12621032  0.24387530  0.99476655  1
  O  O229  1  0.11787481  0.75580469  0.48092272  1
  O  O230  1  0.13324001  0.73991248  1.00155990  1
  O  O231  1  0.62924501  0.23886482  0.49770890  1
  O  O232  1  0.61670675  0.23959434  0.99083251  1
  O  O233  1  0.63067968  0.74577069  0.49402425  1
  O  O234  1  0.62974094  0.74192701  0.98866263  1
  O  O235  1  0.49009041  0.24721122  0.12837859  1
  O  O236  1  0.49175386  0.24866729  0.63347691  1
  O  O237  1  0.54713477  0.73649875  0.13838067  1
  O  O238  1  0.49651855  0.74919026  0.62967278  1
  O  O239  1  0.98981757  0.24379490  0.12946866  1
  O  O240  1  0.99068189  0.24587272  0.62861867  1
  O  O241  1  1.00107182  0.75079910  0.13774363  1
  O  O242  1  0.99345305  0.73964783  0.62404548  1
  O  O243  1  0.00427631  0.25711150  0.37593922  1
  O  O244  1  0.00622708  0.24841972  0.86524401  1
  O  O245  1  0.00751866  0.75193922  0.36418425  1
  O  O246  1  -0.00614407  0.76247900  0.87016178  1
  O  O247  1  0.50361985  0.25122160  0.37065646  1
  O  O248  1  0.50873347  0.24710668  0.86627863  1
  O  O249  1  0.50730488  0.75788312  0.37860478  1
  O  O250  1  0.50708158  0.75042932  0.86740213  1
  O  O251  1  0.24984351  0.13251538  0.49126587  1
  O  O252  1  0.23953898  0.12806278  0.99356015  1
  O  O253  1  0.23516035  0.64601567  0.54636543  1
  O  O254  1  0.24663003  0.63504739  0.99178068  1
  O  O255  1  0.74082765  0.12812241  0.49481640  1
  O  O256  1  0.73909923  0.12302422  0.99242820  1
  O  O257  1  0.74262658  0.62904717  0.49407129  1
  O  O258  1  0.74244781  0.63028026  0.98564456  1
  O  O259  1  0.26196724  0.37658376  0.00033896  1
  O  O260  1  0.24933278  0.36553364  0.49346429  1
  O  O261  1  0.24744848  0.86118773  0.00556690  1
  O  O262  1  0.24742383  0.86930256  0.51218263  1
  O  O263  1  0.76015035  0.38004558  0.01020980  1
  O  O264  1  0.74273051  0.35922357  0.49431143  1
  O  O265  1  0.75863862  0.86476743  -0.00852892  1
  O  O266  1  0.75555184  0.87287517  0.50848366  1
  O  O267  1  0.12808774  0.49670583  0.24406272  1
  O  O268  1  0.13254378  0.49125556  0.74594465  1
  O  O269  1  0.12880596  0.99312778  0.24293418  1
  O  O270  1  0.13976787  0.98938678  0.75239644  1
  O  O271  1  0.63118442  0.48686380  0.25554249  1
  O  O272  1  0.63179376  0.49842678  0.74135949  1
  O  O273  1  0.63401055  1.00217287  0.24173186  1
  O  O274  1  0.62139665  0.98753236  0.75854207  1
  O  O275  1  0.37489847  0.00434817  0.26595323  1
  O  O276  1  0.36141252  0.00018652  0.76209177  1
  O  O277  1  0.36437561  0.50821122  0.25433479  1
  O  O278  1  0.36940312  0.50286470  0.75335207  1
  O  O279  1  0.86936472  0.01228919  0.24295452  1
  O  O280  1  0.88117077  -0.00128394  0.76202435  1
  O  O281  1  0.86540548  0.50041469  0.25991256  1
  O  O282  1  0.86816156  0.49410468  0.76147913  1
  O  O283  1  0.11624271  0.37084261  0.36787189  1
  O  O284  1  0.12348891  0.36867410  0.86602084  1
  O  O285  1  0.12313898  0.87482906  0.36102559  1
  O  O286  1  0.11774962  0.87550901  0.86542673  1
  O  O287  1  0.62055655  0.36597413  0.36523965  1
  O  O288  1  0.62379146  0.36415857  0.87643981  1
  O  O289  1  0.61457050  0.86966551  0.37837870  1
  O  O290  1  0.62516514  0.86207864  0.86773083  1
  O  O291  1  0.38047064  0.13347888  0.12648715  1
  O  O292  1  0.35907084  0.15085431  0.63280497  1
  O  O293  1  0.37335935  0.61799472  0.14053645  1
  O  O294  1  0.38482214  0.63501699  0.63237902  1
  O  O295  1  0.87984676  0.13074782  0.12781867  1
  O  O296  1  0.88738913  0.13429895  0.62761820  1
  O  O297  1  0.87437564  0.63070283  0.12538240  1
  O  O298  1  0.88051137  0.63443463  0.62107576  1
  O  O299  1  0.26193591  0.25215294  0.12334580  1
  O  O300  1  0.24851732  0.25440605  0.60978339  1
  O  O301  1  0.24917381  0.75714063  0.11099262  1
  O  O302  1  0.26645194  0.77062738  0.63684923  1
  O  O303  1  0.76185213  0.25640525  0.12961923  1
  O  O304  1  0.76367749  0.24488863  0.61961398  1
  O  O305  1  0.74238765  0.74741292  0.10982936  1
  O  O306  1  0.75692759  0.75301566  0.62023592  1
  O  O307  1  0.24881955  0.24542770  0.38409436  1
  O  O308  1  0.24497991  0.24274370  0.87480010  1
  O  O309  1  0.23266623  0.75212380  0.37507983  1
  O  O310  1  0.25564630  0.74314528  0.88519290  1
  O  O311  1  0.74458533  0.23984327  0.38223627  1
  O  O312  1  0.73844471  0.24106425  0.87185782  1
  O  O313  1  0.74550831  0.74516748  0.38632544  1
  O  O314  1  0.74390061  0.74328180  0.87715957  1
  O  O315  1  0.01246254  0.12359551  0.00561055  1
  O  O316  1  0.00121205  0.11440282  0.50522602  1
  O  O317  1  0.00920734  0.62441703  -0.00095527  1
  O  O318  1  -0.00655341  0.61145091  0.50787269  1
  O  O319  1  0.50943925  0.11506844  0.00542889  1
  O  O320  1  0.51380380  0.11563287  0.49870088  1
  O  O321  1  0.50578614  0.61222133  -0.00314370  1
  O  O322  1  0.50589274  0.61552687  0.50544282  1
  O  O323  1  0.50276281  0.38660757  0.50127664  1
  O  O324  1  0.49022532  0.38608195  0.99528895  1
  O  O325  1  0.50575470  0.89137566  0.49515852  1
  O  O326  1  0.50687408  0.88960799  0.99784214  1
  O  O327  1  1.00188822  0.38419291  0.48847286  1
  O  O328  1  0.98644671  0.37839789  0.99864630  1
  O  O329  1  0.99411382  0.88635534  0.50255915  1
  O  O330  1  0.99517104  0.87432243  0.99161252  1
  O  O331  1  0.49242258  0.49810214  0.38651045  1
  O  O332  1  0.48638303  0.50188868  0.87515818  1
  O  O333  1  0.49549548  0.99364418  0.38147424  1
  O  O334  1  0.48927398  1.00017441  0.88351403  1
  O  O335  1  0.99130407  0.49500685  0.38043502  1
  O  O336  1  0.99124141  0.49726108  0.87445043  1
  O  O337  1  1.00032280  0.99902140  0.38937471  1
  O  O338  1  0.99425507  0.98908665  0.87614093  1
  O  O339  1  0.01411081  0.00551325  0.12250726  1
  O  O340  1  -0.00289936  0.00867568  0.61469922  1
  O  O341  1  0.01101317  0.50134022  0.12374698  1
  O  O342  1  -0.00007517  0.50321595  0.61796808  1
  O  O343  1  0.50689498  0.00676470  0.12084433  1
  O  O344  1  0.49386570  -0.00242368  0.61364127  1
  O  O345  1  0.49776109  0.49555529  0.11074671  1
  O  O346  1  0.50515389  0.50318354  0.62064623  1
  O  O347  1  0.23562812  0.38474388  0.24966159  1
  O  O348  1  0.24107895  0.38408163  0.75606560  1
  O  O349  1  0.24423606  0.87509896  0.24171113  1
  O  O350  1  0.24516533  0.88276951  0.74448055  1
  O  O351  1  0.74214519  0.37859742  0.24371564  1
  O  O352  1  0.74544734  0.38777420  0.75355812  1
  O  O353  1  0.75087310  0.89097028  0.25744046  1
  O  O354  1  0.74099378  0.87195415  0.74163720  1
  O  O355  1  0.25224087  0.12371040  0.26545069  1
  O  O356  1  0.24094745  0.11715736  0.76032443  1
  O  O357  1  0.25330361  0.61705709  0.24579307  1
  O  O358  1  0.25529795  0.61998268  0.75324023  1
  O  O359  1  0.75651948  0.11894688  0.25884610  1
  O  O360  1  0.75165520  0.12447784  0.76293681  1
  O  O361  1  0.74435358  0.61425311  0.25581338  1
  O  O362  1  0.74476874  0.61566659  0.76129901  1
  O  O363  1  0.36951160  0.11858614  0.37574102  1
  O  O364  1  0.36207415  0.11885218  0.88257130  1
  O  O365  1  0.37507271  0.61082862  0.36426210  1
  O  O366  1  0.36603496  0.61941929  0.86765848  1
  O  O367  1  0.86563313  0.12951143  0.36651554  1
  O  O368  1  0.86816968  0.11641270  0.87491417  1
  O  O369  1  0.86552129  0.61680098  0.37286650  1
  O  O370  1  0.86598881  0.61602882  0.87834331  1
  O  O371  1  0.12405307  0.38135456  0.13140785  1
  O  O372  1  0.11767830  0.38531992  0.63700074  1
  O  O373  1  0.13177863  0.88161648  0.13342936  1
  O  O374  1  0.14152119  0.87284529  0.63081883  1
  O  O375  1  0.63713472  0.36712559  0.13018861  1
  O  O376  1  0.62484596  0.38683119  0.62366154  1
  O  O377  1  0.62686290  0.89112569  0.12536920  1
  O  O378  1  0.63751463  0.87346196  0.63492413  1
  O  O379  1  0.12374452  0.25916016  0.25628866  1
  O  O380  1  0.11975830  0.25612752  0.75170014  1
  O  O381  1  0.11910658  0.75570082  0.25665886  1
  O  O382  1  0.12880188  0.75825424  0.74037256  1
  O  O383  1  0.62062526  0.25769080  0.25477076  1
  O  O384  1  0.61728854  0.24989463  0.75688275  1
  O  O385  1  0.63926607  0.75591278  0.27140466  1
  O  O386  1  0.61540080  0.75269269  0.75369325  1
  O  O387  1  0.37985196  0.25204126  0.24272607  1
  O  O388  1  0.39042730  0.24810409  0.74957230  1
  O  O389  1  0.37475649  0.73290070  0.25493102  1
  O  O390  1  0.38818094  0.74874905  0.74518981  1
  O  O391  1  0.87560667  0.23720655  0.24255289  1
  O  O392  1  0.88167648  0.24783094  0.74063463  1
  O  O393  1  0.88167611  0.75123045  0.24846013  1
  O  O394  1  0.87750860  0.75732967  0.73646420  1
  O  O395  1  0.38094350  0.50615760  0.49437676  1
  O  O396  1  0.38198498  0.49756722  0.99322208  1
  O  O397  1  0.39023815  1.00927160  0.49214557  1
  O  O398  1  0.38373824  1.00481400  0.99293312  1
  O  O399  1  0.87830461  0.49843737  0.48664444  1
  O  O400  1  0.87439041  0.49294333  0.98803241  1
  O  O401  1  0.88673282  0.99289961  0.50323060  1
  O  O402  1  0.87873682  0.99272353  0.99083569  1
  O  O403  1  0.12628675  0.00681765  0.00730825  1
  O  O404  1  0.11141802  0.00057896  0.50014303  1
  O  O405  1  0.12606828  0.50867322  0.00537252  1
  O  O406  1  0.11376889  0.49529851  0.50908835  1
  O  O407  1  0.62069112  0.00781853  0.00599226  1
  O  O408  1  0.61492215  0.01169224  0.49943047  1
  O  O409  1  0.60764037  0.50469757  -0.01318286  1
  O  O410  1  0.61839485  0.50451872  0.50589348  1
  O  O411  1  0.37227516  0.36919525  0.11758809  1
  O  O412  1  0.36725054  0.35243237  0.63699329  1
  O  O413  1  0.36563781  0.88068727  0.13123296  1
  O  O414  1  0.36734728  0.87091057  0.62575745  1
  O  O415  1  0.86850179  0.36695849  0.12073931  1
  O  O416  1  0.87875564  0.36042219  0.62524406  1
  O  O417  1  0.87911915  0.87470990  0.10988866  1
  O  O418  1  0.86871067  0.86880900  0.61756288  1
  O  O419  1  0.13323366  0.13257570  0.37859273  1
  O  O420  1  0.13130547  0.12841236  0.88271778  1
  O  O421  1  0.12120492  0.63542008  0.37355473  1
  O  O422  1  0.13723370  0.62001056  0.88000185  1
  O  O423  1  0.63228764  0.13087108  0.38178901  1
  O  O424  1  0.63251802  0.12813825  0.88272721  1
  O  O425  1  0.62781348  0.63127633  0.38169191  1
  O  O426  1  0.63013209  0.63450734  0.87781258  1
