# generated using pymatgen
data_V85Zn86O256
_symmetry_space_group_name_H-M   'P 1'
_cell_length_a   16.95967943
_cell_length_b   16.95767296
_cell_length_c   16.96026651
_cell_angle_alpha   89.96151755
_cell_angle_beta   90.00058539
_cell_angle_gamma   89.96132904
_symmetry_Int_Tables_number   1
_chemical_formula_structural   V85Zn86O256
_chemical_formula_sum   'V85 Zn86 O256'
_cell_volume   4877.71442315
_cell_formula_units_Z   1
loop_
 _symmetry_equiv_pos_site_id
 _symmetry_equiv_pos_as_xyz
  1  'x, y, z'
loop_
 _atom_site_type_symbol
 _atom_site_label
 _atom_site_symmetry_multiplicity
 _atom_site_fract_x
 _atom_site_fract_y
 _atom_site_fract_z
 _atom_site_occupancy
  V  V0  1  0.12088073  0.62732919  0.50599670  1
  V  V1  1  0.75144330  0.49894699  0.24099511  1
  V  V2  1  0.75150759  -0.00235154  0.24983670  1
  V  V3  1  0.11782076  0.87355781  0.75389682  1
  V  V4  1  0.62209707  0.74921337  0.37812147  1
  V  V5  1  0.37735473  0.87437527  0.49809576  1
  V  V6  1  0.37068921  0.62609462  0.75834950  1
  V  V7  1  0.12317401  0.24416251  0.88291639  1
  V  V8  1  0.87372581  -0.00066341  0.87725411  1
  V  V9  1  0.62040732  0.87503570  0.25712725  1
  V  V10  1  0.25184149  0.12317607  0.37807639  1
  V  V11  1  0.11993999  0.50777220  0.12268241  1
  V  V12  1  -0.00280625  0.24733237  0.74948387  1
  V  V13  1  0.87545880  0.50106298  0.37367124  1
  V  V14  1  0.62062617  0.12572862  0.50044157  1
  V  V15  1  0.50008032  0.12033008  0.62289939  1
  V  V16  1  0.37175398  0.24868190  0.12519133  1
  V  V17  1  0.24027635  0.62909280  0.37045709  1
  V  V18  1  0.00481795  0.74690553  0.24102206  1
  V  V19  1  -0.00114497  0.12451235  0.62542850  1
  V  V20  1  0.75248943  0.74851960  0.50320653  1
  V  V21  1  0.74644368  0.12422578  0.87558068  1
  V  V22  1  0.37952109  0.38062997  0.48501834  1
  V  V23  1  0.87621808  0.12781289  0.23843384  1
  V  V24  1  0.13826608  0.62556740  -0.00525882  1
  V  V25  1  0.75065292  0.62614514  0.37532930  1
  V  V26  1  0.49837821  -0.01247369  0.00123076  1
  V  V27  1  -0.00366684  0.25064556  0.24449266  1
  V  V28  1  0.50649286  0.36607146  0.87707106  1
  V  V29  1  0.62108685  0.37722978  0.24073504  1
  V  V30  1  0.48990299  0.75581056  0.25493579  1
  V  V31  1  -0.01465312  0.37786139  0.88093888  1
  V  V32  1  0.12889895  0.86916691  0.25223133  1
  V  V33  1  0.25213777  -0.00337627  0.25222862  1
  V  V34  1  0.50740720  0.62012996  0.62111157  1
  V  V35  1  0.12499266  0.00054026  0.62543556  1
  V  V36  1  0.12179388  0.37590382  0.75159372  1
  V  V37  1  0.82601838  0.07610017  0.71539756  1
  V  V38  1  0.00094580  -0.00190269  0.49874948  1
  V  V39  1  0.62234467  0.13676878  -0.00046263  1
  V  V40  1  0.87509549  0.37634179  0.49949637  1
  V  V41  1  0.38852193  -0.00310083  0.38043604  1
  V  V42  1  0.37462417  0.75134525  0.11265549  1
  V  V43  1  0.41881085  0.56938419  0.30728283  1
  V  V44  1  0.12756653  0.00860459  0.12198634  1
  V  V45  1  0.12551756  0.12470357  0.49950427  1
  V  V46  1  0.88153573  0.62613837  0.24179999  1
  V  V47  1  0.87557878  0.86758286  0.50640905  1
  V  V48  1  0.25398679  0.87121911  0.11248954  1
  V  V49  1  -0.01266333  0.50692062  -0.00103400  1
  V  V50  1  0.49878061  0.12585559  0.12637714  1
  V  V51  1  0.00468216  0.00423729  -0.00037797  1
  V  V52  1  0.62494186  0.62033030  0.00047209  1
  V  V53  1  0.76431224  0.62018823  0.87946310  1
  V  V54  1  0.24605528  0.50490464  0.75950478  1
  V  V55  1  0.61734340  0.25802069  0.37158034  1
  V  V56  1  -0.00092124  0.50493283  0.50863524  1
  V  V57  1  0.50134769  0.49875680  -0.00019844  1
  V  V58  1  0.87329769  0.25045723  0.62847148  1
  V  V59  1  0.24537163  0.50429337  0.25343446  1
  V  V60  1  0.37137050  0.74706080  0.62573695  1
  V  V61  1  0.24892628  0.87425386  0.62495476  1
  V  V62  1  -0.00368464  0.74375498  0.74530109  1
  V  V63  1  0.00415805  0.86550871  0.37393639  1
  V  V64  1  0.13764213  0.74586232  0.87737640  1
  V  V65  1  0.62431533  -0.00044520  0.12617707  1
  V  V66  1  0.77008589  0.25205485  0.00049207  1
  V  V67  1  0.12497236  0.25100066  0.37555810  1
  V  V68  1  0.37279649  0.12973637  0.75265815  1
  V  V69  1  0.37622855  0.12443484  0.25322979  1
  V  V70  1  0.25272413  0.00148085  0.75196248  1
  V  V71  1  0.49832603  0.62214079  0.12376535  1
  V  V72  1  0.00075788  0.37629542  0.37535221  1
  V  V73  1  0.75140897  0.12830035  0.37026331  1
  V  V74  1  0.25349421  0.37701049  0.62583079  1
  V  V75  1  0.76435390  0.37098693  0.12053481  1
  V  V76  1  0.75057219  0.25275944  0.49674299  1
  V  V77  1  0.24142844  0.74967793  0.49548396  1
  V  V78  1  0.87777443  0.62100171  0.73495718  1
  V  V79  1  0.62194152  0.75160253  0.87725368  1
  V  V80  1  0.37536254  -0.01053315  0.87886157  1
  V  V81  1  0.50263098  0.75532102  0.75249932  1
  V  V82  1  0.24696496  0.37742673  0.12568467  1
  V  V83  1  0.74368699  0.37830912  0.62609204  1
  V  V84  1  0.36877004  0.37380349  -0.00343491  1
  Zn  Zn85  1  0.12316276  0.37731007  0.24939970  1
  Zn  Zn86  1  0.12002670  0.50383892  0.63002400  1
  Zn  Zn87  1  0.75417591  0.75166011  0.00441997  1
  Zn  Zn88  1  0.00309141  0.13381153  0.11466923  1
  Zn  Zn89  1  0.24050565  0.24100970  0.00810604  1
  Zn  Zn90  1  0.24556454  0.12113307  0.88434661  1
  Zn  Zn91  1  0.53267388  -0.03489928  0.51708954  1
  Zn  Zn92  1  0.49961794  0.50069001  0.49235540  1
  Zn  Zn93  1  0.25087844  0.25273416  0.50221559  1
  Zn  Zn94  1  0.87709210  0.75064304  0.12140236  1
  Zn  Zn95  1  0.50634052  0.25088034  0.75029461  1
  Zn  Zn96  1  0.74743069  0.50257149  0.75131881  1
  Zn  Zn97  1  0.62674201  0.50411668  0.61763741  1
  Zn  Zn98  1  0.49539871  0.25642484  0.25254849  1
  Zn  Zn99  1  0.36996510  0.50536747  0.87955675  1
  Zn  Zn100  1  0.37686581  0.25303180  0.62462103  1
  Zn  Zn101  1  0.87810100  -0.00202702  0.37136411  1
  Zn  Zn102  1  0.87497161  0.87452484  0.00695482  1
  Zn  Zn103  1  0.54767610  0.91324752  0.82699355  1
  Zn  Zn104  1  0.62799106  0.37687121  0.75684144  1
  Zn  Zn105  1  -0.00108296  0.87041161  0.88032956  1
  Zn  Zn106  1  0.75259371  0.86805890  0.12720609  1
  Zn  Zn107  1  0.18836432  0.18809304  0.19236514  1
  Zn  Zn108  1  0.18693650  0.19046379  0.69008881  1
  Zn  Zn109  1  0.18764140  0.68830375  0.18275179  1
  Zn  Zn110  1  0.18517119  0.68639690  0.68805790  1
  Zn  Zn111  1  0.68809732  0.19175147  0.18330815  1
  Zn  Zn112  1  0.67675315  0.19811182  0.68599707  1
  Zn  Zn113  1  0.68447082  0.68762546  0.18754935  1
  Zn  Zn114  1  0.71409387  0.73258694  0.71102593  1
  Zn  Zn115  1  0.30838162  0.31313648  0.31108766  1
  Zn  Zn116  1  0.30844279  0.31345711  0.81450602  1
  Zn  Zn117  1  0.31243478  0.81125654  0.31335714  1
  Zn  Zn118  1  0.31235063  0.81441743  0.81028801  1
  Zn  Zn119  1  0.81256698  0.31395409  0.30933769  1
  Zn  Zn120  1  0.80566081  0.30655158  0.81052525  1
  Zn  Zn121  1  0.81670310  0.81262589  0.31247380  1
  Zn  Zn122  1  0.81504946  0.80768925  0.82704025  1
  Zn  Zn123  1  0.18878697  0.44045873  0.43899016  1
  Zn  Zn124  1  0.18128551  0.43437943  0.93757910  1
  Zn  Zn125  1  0.18911849  0.93660303  0.43494691  1
  Zn  Zn126  1  0.18536041  0.93825403  0.93689194  1
  Zn  Zn127  1  0.68139096  0.44088857  0.43667383  1
  Zn  Zn128  1  0.69025097  0.43981260  0.94174505  1
  Zn  Zn129  1  0.68894579  0.93325182  0.44254382  1
  Zn  Zn130  1  0.69029422  0.93957361  0.94288126  1
  Zn  Zn131  1  0.31176912  0.06062630  0.05961591  1
  Zn  Zn132  1  0.31559847  0.06180645  0.56463001  1
  Zn  Zn133  1  0.31572143  0.56313694  0.06725118  1
  Zn  Zn134  1  0.31168016  0.55955645  0.56415662  1
  Zn  Zn135  1  0.81220494  0.06070843  0.06126453  1
  Zn  Zn136  1  0.81266789  0.06060235  0.54699743  1
  Zn  Zn137  1  0.81119849  0.56514976  0.06493122  1
  Zn  Zn138  1  0.80994076  0.56420827  0.56149193  1
  Zn  Zn139  1  0.43853202  0.43447485  0.17978904  1
  Zn  Zn140  1  0.43416423  0.44022402  0.69164326  1
  Zn  Zn141  1  0.43627259  0.93621890  0.18786787  1
  Zn  Zn142  1  0.61246943  0.95446852  0.66808450  1
  Zn  Zn143  1  0.93992547  0.43826138  0.18496745  1
  Zn  Zn144  1  0.93205127  0.43732309  0.69082973  1
  Zn  Zn145  1  0.94028941  0.93821993  0.18501903  1
  Zn  Zn146  1  0.80495565  0.90952386  0.68159727  1
  Zn  Zn147  1  0.06309320  0.06033676  0.31001587  1
  Zn  Zn148  1  0.05673035  0.06143800  0.81031006  1
  Zn  Zn149  1  0.06308416  0.56459147  0.31666013  1
  Zn  Zn150  1  0.05841024  0.56288214  0.81854790  1
  Zn  Zn151  1  0.56409256  0.06474061  0.31557676  1
  Zn  Zn152  1  0.56173582  0.07618389  0.81358941  1
  Zn  Zn153  1  0.58021761  0.56111125  0.31103640  1
  Zn  Zn154  1  0.56479232  0.56100604  0.80934809  1
  Zn  Zn155  1  0.43572684  0.19432930  0.44083162  1
  Zn  Zn156  1  0.43006935  0.18361435  0.94056354  1
  Zn  Zn157  1  0.43721505  0.69367281  0.44330195  1
  Zn  Zn158  1  0.43847636  0.68999551  0.93612180  1
  Zn  Zn159  1  0.93664758  0.18751569  0.43408837  1
  Zn  Zn160  1  0.93731743  0.17938073  0.92926615  1
  Zn  Zn161  1  0.93893688  0.68750730  0.43206911  1
  Zn  Zn162  1  0.94542013  0.69119482  0.93884014  1
  Zn  Zn163  1  0.05818304  0.32053568  0.06207586  1
  Zn  Zn164  1  0.06315071  0.31551346  0.56320706  1
  Zn  Zn165  1  0.06608075  0.81568747  0.06032599  1
  Zn  Zn166  1  0.06045927  0.81221017  0.56653354  1
  Zn  Zn167  1  0.56221705  0.31396654  0.06583941  1
  Zn  Zn168  1  0.55677746  0.31010514  0.56183350  1
  Zn  Zn169  1  0.56816020  0.80805640  0.06890599  1
  Zn  Zn170  1  0.56552441  0.80008440  0.56515972  1
  O  O171  1  0.12578393  0.11148088  0.13422431  1
  O  O172  1  0.12080167  0.12105807  0.61811158  1
  O  O173  1  0.12707265  0.61503675  0.11371478  1
  O  O174  1  0.12842678  0.62139107  0.61067387  1
  O  O175  1  0.61602320  0.12051495  0.12279193  1
  O  O176  1  0.61931015  0.13063822  0.61097563  1
  O  O177  1  0.60722254  0.62873426  0.12096854  1
  O  O178  1  0.60538004  0.62790964  0.62581055  1
  O  O179  1  0.36910515  0.37499404  0.38608819  1
  O  O180  1  0.37789193  0.37509358  0.88810322  1
  O  O181  1  0.36554152  0.88566279  0.38497361  1
  O  O182  1  0.37549220  0.88988989  0.86671054  1
  O  O183  1  0.87952364  0.38114321  0.38001178  1
  O  O184  1  0.88795580  0.36910646  0.86867836  1
  O  O185  1  0.88911351  0.87794408  0.37883699  1
  O  O186  1  0.87670492  0.88825336  0.87921678  1
  O  O187  1  0.25618076  0.00792057  0.37034970  1
  O  O188  1  0.25388746  0.00059374  0.86824443  1
  O  O189  1  0.24432893  0.50830511  0.36110647  1
  O  O190  1  0.24948038  0.49146499  0.86296696  1
  O  O191  1  0.75017054  0.00971143  0.36312604  1
  O  O192  1  0.75746915  0.01513776  0.88386980  1
  O  O193  1  0.75584683  0.50614981  0.36388687  1
  O  O194  1  0.74381023  0.51646756  0.87223645  1
  O  O195  1  0.24388203  0.49835932  0.13591515  1
  O  O196  1  0.24495415  0.49003686  0.63574916  1
  O  O197  1  0.24741915  0.98937467  0.13202683  1
  O  O198  1  0.24438041  0.99560537  0.63302252  1
  O  O199  1  0.75440082  0.49221172  0.13494305  1
  O  O200  1  0.74944178  0.49164874  0.62493410  1
  O  O201  1  0.74262720  1.00508136  0.13857913  1
  O  O202  1  0.77051943  1.01496377  0.64329237  1
  O  O203  1  0.00139463  0.36839769  0.25708720  1
  O  O204  1  0.00404400  0.37121119  0.75779363  1
  O  O205  1  0.00944279  0.87065867  0.25646938  1
  O  O206  1  0.01403743  0.86338118  0.75346028  1
  O  O207  1  0.51611763  0.37670031  0.24233489  1
  O  O208  1  0.49194747  0.37567457  0.77005387  1
  O  O209  1  0.50735577  0.86717688  0.24927723  1
  O  O210  1  0.50128570  0.85531418  0.73893947  1
  O  O211  1  0.49561357  0.12571416  0.24026090  1
  O  O212  1  0.48896601  0.12913383  0.74350164  1
  O  O213  1  0.49137026  0.62386638  0.24804519  1
  O  O214  1  0.48738319  0.62953049  0.74019278  1
  O  O215  1  0.99162815  0.13271503  0.25193513  1
  O  O216  1  1.00258655  0.13285251  0.73772955  1
  O  O217  1  0.99488528  0.63529175  0.25731553  1
  O  O218  1  0.98934870  0.63127635  0.75485967  1
  O  O219  1  0.37036902  0.25773202  0.00882732  1
  O  O220  1  0.36933821  0.26486161  0.50257538  1
  O  O221  1  0.38222661  0.75226503  0.01320630  1
  O  O222  1  0.36001544  0.75347521  0.50586506  1
  O  O223  1  0.86816569  0.24349611  0.00028587  1
  O  O224  1  0.87240642  0.25405766  0.50834870  1
  O  O225  1  0.87692252  0.75291615  0.00265437  1
  O  O226  1  0.87119055  0.76017648  0.49178442  1
  O  O227  1  0.12381687  0.24571603  0.48929432  1
  O  O228  1  0.12017931  0.25677697  0.98598642  1
  O  O229  1  0.13348733  0.74496431  0.50429734  1
  O  O230  1  0.11984989  0.73376452  0.99457725  1
  O  O231  1  0.63055111  0.24611785  0.48870508  1
  O  O232  1  0.62668432  0.23829089  1.00677931  1
  O  O233  1  0.63310992  0.75122885  0.48315789  1
  O  O234  1  0.62106875  0.73433993  0.99664441  1
  O  O235  1  0.49157608  0.24242343  0.12785574  1
  O  O236  1  0.49547631  0.24001094  0.62919411  1
  O  O237  1  0.49325752  0.74380132  0.13553695  1
  O  O238  1  0.49022134  0.73913829  0.62917986  1
  O  O239  1  1.01105036  0.24996936  0.13979393  1
  O  O240  1  0.99148633  0.24538094  0.62575841  1
  O  O241  1  1.00330715  0.75467485  0.13834020  1
  O  O242  1  1.00836115  0.74912817  0.64604408  1
  O  O243  1  0.00635451  0.25544144  0.36843628  1
  O  O244  1  0.00497713  0.25832979  0.87163789  1
  O  O245  1  0.00223831  0.76119809  0.36588237  1
  O  O246  1  0.01389536  0.75108741  0.86497778  1
  O  O247  1  0.51356277  0.24677004  0.37047524  1
  O  O248  1  0.49278413  0.26419149  0.88065442  1
  O  O249  1  0.50838720  0.74059745  0.36661979  1
  O  O250  1  0.50668440  0.74765210  0.86562926  1
  O  O251  1  0.24367755  0.12696993  0.49538127  1
  O  O252  1  0.25050651  0.12874790  0.99769423  1
  O  O253  1  0.24358002  0.63017509  0.49307815  1
  O  O254  1  0.23729133  0.61804387  1.00143063  1
  O  O255  1  0.74498633  0.13301410  0.48860344  1
  O  O256  1  0.74417853  0.13514975  0.99753140  1
  O  O257  1  0.76209576  0.63151739  0.48162727  1
  O  O258  1  0.74216404  0.62217338  0.99320609  1
  O  O259  1  0.25444007  0.37337830  0.00690130  1
  O  O260  1  0.25683810  0.37754773  0.50894092  1
  O  O261  1  0.24773115  0.87714081  0.01443354  1
  O  O262  1  0.25106698  0.86653627  0.50475752  1
  O  O263  1  0.74843062  0.36061366  0.00360878  1
  O  O264  1  0.75790094  0.37060077  0.50284005  1
  O  O265  1  0.75299167  0.87274444  0.00822464  1
  O  O266  1  0.76833424  0.86664121  0.49024785  1
  O  O267  1  0.12839598  0.50175052  0.24110559  1
  O  O268  1  0.12674726  0.49440445  0.75091065  1
  O  O269  1  0.13069868  0.98991402  0.24302032  1
  O  O270  1  0.13114475  0.99261411  0.74781577  1
  O  O271  1  0.63698369  0.48638286  0.24950326  1
  O  O272  1  0.62771807  0.49385927  0.74074838  1
  O  O273  1  0.63033543  0.99391352  0.24912706  1
  O  O274  1  0.61603224  0.98743383  0.76977486  1
  O  O275  1  0.37228297  0.00426348  0.26050979  1
  O  O276  1  0.35965881  0.01137313  0.75690819  1
  O  O277  1  0.36763201  0.50174226  0.24748825  1
  O  O278  1  0.36390914  0.50972406  0.75411265  1
  O  O279  1  0.86857145  0.00885472  0.25196963  1
  O  O280  1  0.87392104  -0.00558125  0.75792343  1
  O  O281  1  0.87198584  0.50510117  0.25457410  1
  O  O282  1  0.87274957  0.51697216  0.74849405  1
  O  O283  1  0.12046051  0.36695536  0.37518101  1
  O  O284  1  0.11452727  0.36707054  0.86563172  1
  O  O285  1  0.11779540  0.88050448  0.36401868  1
  O  O286  1  0.12524841  0.86710163  0.86830905  1
  O  O287  1  0.63611465  0.36625387  0.35726921  1
  O  O288  1  0.60829664  0.37980572  0.88237550  1
  O  O289  1  0.62874706  0.86726743  0.36482381  1
  O  O290  1  0.62715714  0.85610859  0.88857916  1
  O  O291  1  0.38154332  0.12741841  0.13216694  1
  O  O292  1  0.38024696  0.12724022  0.63349577  1
  O  O293  1  0.38646051  0.63515472  0.12301708  1
  O  O294  1  0.37133128  0.63568167  0.63292966  1
  O  O295  1  0.87900116  0.12273920  0.13614860  1
  O  O296  1  0.87672689  0.13009599  0.62725834  1
  O  O297  1  0.87652622  0.62443363  0.13892176  1
  O  O298  1  0.87312292  0.62777993  0.63680063  1
  O  O299  1  0.25233336  0.25942449  0.12819880  1
  O  O300  1  0.24730767  0.26464929  0.62446158  1
  O  O301  1  0.25877063  0.76251427  0.12913514  1
  O  O302  1  0.25319756  0.75333626  0.61857951  1
  O  O303  1  0.75091035  0.25469314  0.10947707  1
  O  O304  1  0.75792178  0.25489604  0.61649646  1
  O  O305  1  0.75375687  0.74782549  0.12421199  1
  O  O306  1  0.74174992  0.73679504  0.60102247  1
  O  O307  1  0.24052171  0.24221732  0.37576290  1
  O  O308  1  0.23078648  0.25184474  0.87549282  1
  O  O309  1  0.25153192  0.74184062  0.38374320  1
  O  O310  1  0.23750970  0.75293617  0.86993803  1
  O  O311  1  0.74564765  0.24502828  0.37781705  1
  O  O312  1  0.75683377  0.23829908  0.88960773  1
  O  O313  1  0.74497194  0.74310222  0.37589075  1
  O  O314  1  0.74087155  0.73366256  0.88335008  1
  O  O315  1  -0.00200675  0.11211054  0.00023737  1
  O  O316  1  0.00378171  0.11718244  0.50181149  1
  O  O317  1  0.01035076  0.60911695  -0.00723861  1
  O  O318  1  0.00792727  0.61725136  0.49180148  1
  O  O319  1  0.50445367  0.12118918  0.01127088  1
  O  O320  1  0.50833639  0.13317154  0.50661469  1
  O  O321  1  0.50368448  0.61737311  0.00533417  1
  O  O322  1  0.48651897  0.62280574  0.51732314  1
  O  O323  1  0.48361693  0.37640689  0.50040744  1
  O  O324  1  0.49265324  0.37984602  0.99592893  1
  O  O325  1  0.47964045  0.86200216  0.49983994  1
  O  O326  1  0.50723053  0.88888662  1.01206167  1
  O  O327  1  0.99443440  0.38211762  0.49425595  1
  O  O328  1  0.99978961  0.38515606  0.98730665  1
  O  O329  1  0.99593010  0.87768645  0.49301986  1
  O  O330  1  1.00041505  0.88866114  0.99916305  1
  O  O331  1  0.48518237  0.51751338  0.36446932  1
  O  O332  1  0.49403397  0.49306934  0.88697398  1
  O  O333  1  0.48977617  1.00380447  0.38119656  1
  O  O334  1  0.49239545  1.00025367  0.88510467  1
  O  O335  1  0.99503278  0.49353598  0.38205718  1
  O  O336  1  1.00110602  0.48665740  0.88516332  1
  O  O337  1  1.00279486  0.99322727  0.38547398  1
  O  O338  1  0.99339161  0.99854406  0.88180908  1
  O  O339  1  0.01215385  0.00344531  0.11930465  1
  O  O340  1  0.00802139  0.00661159  0.60861914  1
  O  O341  1  0.00830781  0.49284910  0.10976684  1
  O  O342  1  -0.00185230  0.49366809  0.61153211  1
  O  O343  1  0.50290814  0.00828640  0.12206870  1
  O  O344  1  0.50429081  0.01708591  0.61979617  1
  O  O345  1  0.49347968  0.50746909  0.11086580  1
  O  O346  1  0.49594910  0.51325486  0.62788950  1
  O  O347  1  0.24581318  0.38516274  0.24393414  1
  O  O348  1  0.24020390  0.38073731  0.74567493  1
  O  O349  1  0.24384438  0.87961895  0.24737399  1
  O  O350  1  0.24085287  0.88252111  0.74349556  1
  O  O351  1  0.74605750  0.38009992  0.24059781  1
  O  O352  1  0.75251514  0.37889474  0.73987325  1
  O  O353  1  0.74398385  0.88463217  0.25250611  1
  O  O354  1  0.74845138  0.83888795  0.74182059  1
  O  O355  1  0.25742060  0.11769273  0.25746054  1
  O  O356  1  0.25247162  0.11762641  0.75319815  1
  O  O357  1  0.24466243  0.62004687  0.25801988  1
  O  O358  1  0.25599154  0.61567265  0.74536174  1
  O  O359  1  0.75643218  0.12326543  0.25339941  1
  O  O360  1  0.74826736  0.13350069  0.75937916  1
  O  O361  1  0.75701601  0.61633484  0.25459694  1
  O  O362  1  0.76679668  0.63324703  0.76126119  1
  O  O363  1  0.37092834  0.11965917  0.37379043  1
  O  O364  1  0.37274377  0.11603148  0.86661336  1
  O  O365  1  0.36488729  0.62848218  0.37198729  1
  O  O366  1  0.37599437  0.62660357  0.86250552  1
  O  O367  1  0.86297816  0.12376447  0.36873620  1
  O  O368  1  0.86749065  0.11164120  0.86486534  1
  O  O369  1  0.87051509  0.61934069  0.36298079  1
  O  O370  1  0.86485539  0.62592467  0.87820443  1
  O  O371  1  0.13124920  0.38865167  0.12470323  1
  O  O372  1  0.12756313  0.37696077  0.63809901  1
  O  O373  1  0.13778937  0.88067750  0.13200415  1
  O  O374  1  0.12939926  0.88187459  0.63220794  1
  O  O375  1  0.63695750  0.36923014  0.13673452  1
  O  O376  1  0.63917986  0.37032566  0.61859295  1
  O  O377  1  0.62752237  0.88132765  0.14039232  1
  O  O378  1  0.61829791  0.89878892  0.57506361  1
  O  O379  1  0.11842513  0.25092166  0.26301552  1
  O  O380  1  0.11615057  0.25870523  0.75697591  1
  O  O381  1  0.12172543  0.76109886  0.24649640  1
  O  O382  1  0.12061883  0.75294228  0.75737501  1
  O  O383  1  0.62515075  0.26125268  0.25371815  1
  O  O384  1  0.62002569  0.26314055  0.75393205  1
  O  O385  1  0.61478315  0.75681323  0.25678494  1
  O  O386  1  0.61302453  0.73619113  0.76529476  1
  O  O387  1  0.37538461  0.24387779  0.24520217  1
  O  O388  1  0.37063111  0.23812790  0.75170155  1
  O  O389  1  0.38630417  0.75535535  0.24407732  1
  O  O390  1  0.37824245  0.74489165  0.74254930  1
  O  O391  1  0.88563407  0.24118213  0.25646338  1
  O  O392  1  0.87945500  0.25258912  0.73561117  1
  O  O393  1  0.88665806  0.74160694  0.25097443  1
  O  O394  1  0.89115142  0.73977192  0.75956075  1
  O  O395  1  0.37576751  0.48592426  0.50202406  1
  O  O396  1  0.37906754  0.49143708  0.99940672  1
  O  O397  1  0.37074972  0.98803590  0.49439165  1
  O  O398  1  0.38610583  1.00283404  0.99138000  1
  O  O399  1  0.88134837  0.49760801  0.49311505  1
  O  O400  1  0.88871472  0.50528950  1.00390132  1
  O  O401  1  0.88423992  0.98861293  0.49293733  1
  O  O402  1  0.88321791  1.00078224  0.99315109  1
  O  O403  1  0.11918570  -0.00289157  0.01048418  1
  O  O404  1  0.12000663  0.00406177  0.50336899  1
  O  O405  1  0.11990991  0.50815489  0.00427361  1
  O  O406  1  0.11566426  0.50743565  0.50175857  1
  O  O407  1  0.61802139  0.01105276  0.00850644  1
  O  O408  1  0.62531654  0.02347931  0.47537282  1
  O  O409  1  0.61641661  0.51065488  -0.00005959  1
  O  O410  1  0.61351021  0.49744183  0.50204873  1
  O  O411  1  0.36730155  0.37018271  0.11567089  1
  O  O412  1  0.36504983  0.37385863  0.62547258  1
  O  O413  1  0.36099272  0.87007733  0.12997354  1
  O  O414  1  0.36288160  0.85928973  0.61605544  1
  O  O415  1  0.86385716  0.37329469  0.12949057  1
  O  O416  1  0.86658552  0.36820222  0.61895630  1
  O  O417  1  0.87174573  0.87193963  0.12780608  1
  O  O418  1  0.88379938  0.87461049  0.60485649  1
  O  O419  1  0.12981823  0.13075921  0.37956257  1
  O  O420  1  0.12057922  0.14213503  0.86781162  1
  O  O421  1  0.13490921  0.62370524  0.38685899  1
  O  O422  1  0.12673614  0.62900043  0.88635456  1
  O  O423  1  0.63654972  0.13903083  0.37181025  1
  O  O424  1  0.63374719  0.12504224  0.88814556  1
  O  O425  1  0.63943303  0.63606589  0.36714926  1
  O  O426  1  0.62737265  0.62999280  0.88506692  1
