# generated using pymatgen
data_V85Zn86O256
_symmetry_space_group_name_H-M   'P 1'
_cell_length_a   16.94315562
_cell_length_b   16.93309965
_cell_length_c   16.94793864
_cell_angle_alpha   89.97262856
_cell_angle_beta   90.07538838
_cell_angle_gamma   89.95776376
_symmetry_Int_Tables_number   1
_chemical_formula_structural   V85Zn86O256
_chemical_formula_sum   'V85 Zn86 O256'
_cell_volume   4862.35992454
_cell_formula_units_Z   1
loop_
 _symmetry_equiv_pos_site_id
 _symmetry_equiv_pos_as_xyz
  1  'x, y, z'
loop_
 _atom_site_type_symbol
 _atom_site_label
 _atom_site_symmetry_multiplicity
 _atom_site_fract_x
 _atom_site_fract_y
 _atom_site_fract_z
 _atom_site_occupancy
  V  V0  1  0.25077927  -0.00007227  0.24919685  1
  V  V1  1  0.13192168  0.12566272  -0.00570823  1
  V  V2  1  0.37870465  0.13029046  0.25145614  1
  V  V3  1  0.00138262  0.12622936  0.12255655  1
  V  V4  1  0.74982560  0.38292023  0.63121764  1
  V  V5  1  0.12842286  0.37299170  0.25485327  1
  V  V6  1  0.37637228  0.73973763  0.12830276  1
  V  V7  1  0.36860510  0.25199826  0.62775069  1
  V  V8  1  0.62605149  0.62418023  0.50325145  1
  V  V9  1  0.62302321  0.87288842  0.75123408  1
  V  V10  1  0.87611318  0.24972871  0.62445230  1
  V  V11  1  0.36045957  0.00315469  0.87812761  1
  V  V12  1  0.62688759  0.74690895  0.37497546  1
  V  V13  1  0.74595821  0.37908896  0.12100552  1
  V  V14  1  0.38217244  0.25134049  0.12363120  1
  V  V15  1  0.75105557  -0.00164546  0.24954147  1
  V  V16  1  0.87228616  0.88159563  0.50110390  1
  V  V17  1  0.62351029  0.12656088  0.50011620  1
  V  V18  1  0.74858443  0.25054059  0.49637838  1
  V  V19  1  0.13093759  0.24866677  0.86813803  1
  V  V20  1  0.87074100  -0.00473331  0.88046259  1
  V  V21  1  -0.00459638  0.49775018  -0.00562253  1
  V  V22  1  0.50132615  0.12775574  0.12974446  1
  V  V23  1  0.74581256  0.00256445  0.75405381  1
  V  V24  1  0.87493082  0.12554333  0.74869141  1
  V  V25  1  0.49533482  0.39424208  0.87604198  1
  V  V26  1  0.61866091  0.37237296  0.24414517  1
  V  V27  1  0.87713068  0.74773758  0.62865962  1
  V  V28  1  0.24563780  0.39144873  0.62729767  1
  V  V29  1  0.75169139  0.13802760  0.87980822  1
  V  V30  1  0.25125921  0.87243301  0.12608362  1
  V  V31  1  0.12445551  0.39293200  0.74823315  1
  V  V32  1  0.62603632  0.87231400  0.24718895  1
  V  V33  1  -0.00770049  0.62571362  0.12335871  1
  V  V34  1  0.87605164  0.61782634  0.25749985  1
  V  V35  1  0.76360733  0.86975384  0.12069152  1
  V  V36  1  0.00866310  0.50681659  0.49270265  1
  V  V37  1  0.12670215  0.50002970  0.12916160  1
  V  V38  1  0.23818100  -0.00827570  0.73321201  1
  V  V39  1  0.50055841  -0.00026145  -0.00229974  1
  V  V40  1  0.75411704  0.61306435  0.86948291  1
  V  V41  1  0.61876538  0.25053694  0.87529099  1
  V  V42  1  0.48864475  0.74635945  0.74840443  1
  V  V43  1  0.87034592  0.25208800  0.11687005  1
  V  V44  1  0.49648825  0.12804532  0.62709299  1
  V  V45  1  0.87429465  0.38438735  0.48917778  1
  V  V46  1  0.05392432  -0.05341958  0.55418683  1
  V  V47  1  0.62785644  0.13519432  0.00203602  1
  V  V48  1  0.00055240  0.87550027  0.87446574  1
  V  V49  1  0.12515843  0.87349823  0.24899945  1
  V  V50  1  0.62551697  -0.00220499  0.12268395  1
  V  V51  1  0.37578710  0.87328189  0.00164844  1
  V  V52  1  0.24988807  0.37487696  0.12643617  1
  V  V53  1  0.24390576  0.13027546  0.37251210  1
  V  V54  1  0.49769690  0.36673543  0.37287622  1
  V  V55  1  0.75057978  0.49543735  0.25595417  1
  V  V56  1  0.49831646  0.49845524  0.49977542  1
  V  V57  1  0.00441878  0.12404510  0.62173231  1
  V  V58  1  0.00444334  0.25058910  0.25429028  1
  V  V59  1  0.48424875  0.62796766  0.62816808  1
  V  V60  1  0.12645399  0.74779416  0.38181626  1
  V  V61  1  -0.00008393  0.88154903  0.37243922  1
  V  V62  1  -0.00231261  0.75066647  0.75126818  1
  V  V63  1  -0.00222056  -0.00326234  0.00048453  1
  V  V64  1  0.76053777  0.74955534  0.00218644  1
  V  V65  1  0.31218922  0.55705732  0.82184044  1
  V  V66  1  0.37763019  0.38726348  -0.00132122  1
  V  V67  1  0.37297005  0.87150382  0.51482300  1
  V  V68  1  0.62053190  0.61598544  0.00821929  1
  V  V69  1  0.24320256  0.25179802  0.49835924  1
  V  V70  1  0.13029681  0.74878250  0.86812518  1
  V  V71  1  0.37340549  0.50370048  0.36141317  1
  V  V72  1  0.87128611  0.37540800  -0.00907717  1
  V  V73  1  0.49714586  0.87375393  0.37308440  1
  V  V74  1  0.62351969  0.00130495  0.62770136  1
  V  V75  1  0.62499333  0.74685462  0.87769200  1
  V  V76  1  0.36622833  0.12660111  0.75761948  1
  V  V77  1  -0.00756281  0.74998939  0.24509651  1
  V  V78  1  0.50000350  -0.00038319  0.50063287  1
  V  V79  1  0.24805019  0.74216277  -0.00116790  1
  V  V80  1  0.87369673  0.12677226  0.24999492  1
  V  V81  1  0.49935186  0.73787257  0.24831603  1
  V  V82  1  0.25415790  0.62490992  0.36362179  1
  V  V83  1  0.11902046  0.12663951  0.49670384  1
  V  V84  1  0.75137485  0.74918058  0.50084667  1
  Zn  Zn85  1  0.49603499  0.25379293  0.75161823  1
  Zn  Zn86  1  0.25388049  0.24763447  -0.00441142  1
  Zn  Zn87  1  0.00406188  0.24936452  0.74851760  1
  Zn  Zn88  1  -0.00470567  0.37625401  0.86873717  1
  Zn  Zn89  1  0.12572490  0.00052896  0.12215199  1
  Zn  Zn90  1  0.49906903  0.60980541  0.12586120  1
  Zn  Zn91  1  0.37510258  -0.00027494  0.37584736  1
  Zn  Zn92  1  0.26712361  0.74488149  0.51627842  1
  Zn  Zn93  1  0.75588658  0.61738587  0.37938960  1
  Zn  Zn94  1  0.87427630  0.61163357  0.75180744  1
  Zn  Zn95  1  0.74820812  0.87398356  0.62676125  1
  Zn  Zn96  1  0.62570821  0.37807497  0.75234869  1
  Zn  Zn97  1  0.00080452  0.37554859  0.37174718  1
  Zn  Zn98  1  0.61813679  0.24654777  0.36918657  1
  Zn  Zn99  1  0.13578567  0.61731585  0.50701783  1
  Zn  Zn100  1  0.00804042  0.60751850  0.63814961  1
  Zn  Zn101  1  0.37201473  0.37615592  0.49873286  1
  Zn  Zn102  1  0.62619653  0.50376251  0.63285130  1
  Zn  Zn103  1  0.12453123  0.62274194  -0.00006308  1
  Zn  Zn104  1  0.49796056  0.87317961  0.87598910  1
  Zn  Zn105  1  0.87734519  0.00377520  0.37849781  1
  Zn  Zn106  1  0.74726580  0.12380305  0.37398321  1
  Zn  Zn107  1  0.18858193  0.19004031  0.18204982  1
  Zn  Zn108  1  0.18788281  0.18299661  0.68709319  1
  Zn  Zn109  1  0.18146005  0.68757777  0.18747363  1
  Zn  Zn110  1  0.20910590  0.66551449  0.68316499  1
  Zn  Zn111  1  0.68767989  0.19265996  0.18517288  1
  Zn  Zn112  1  0.68754519  0.19380223  0.68956766  1
  Zn  Zn113  1  0.69216991  0.68535295  0.18677935  1
  Zn  Zn114  1  0.68625516  0.68718693  0.68792832  1
  Zn  Zn115  1  0.31246792  0.31302175  0.31185744  1
  Zn  Zn116  1  0.30931131  0.32273249  0.81300129  1
  Zn  Zn117  1  0.31468633  0.80771575  0.31407723  1
  Zn  Zn118  1  0.30931523  0.81685641  0.81256051  1
  Zn  Zn119  1  0.80904722  0.30926591  0.30952377  1
  Zn  Zn120  1  0.81438018  0.43777765  0.80826910  1
  Zn  Zn121  1  0.81429858  0.80943267  0.31343464  1
  Zn  Zn122  1  0.81069933  0.81195122  0.81555933  1
  Zn  Zn123  1  0.19084326  0.43940513  0.43387575  1
  Zn  Zn124  1  0.18448896  0.43490236  0.94135760  1
  Zn  Zn125  1  0.19439760  0.93456982  0.43382682  1
  Zn  Zn126  1  0.18433091  0.93226234  0.93773193  1
  Zn  Zn127  1  0.68382472  0.43632231  0.43574192  1
  Zn  Zn128  1  0.68567703  0.43215237  0.93809684  1
  Zn  Zn129  1  0.68665586  0.93673971  0.43627443  1
  Zn  Zn130  1  0.68734304  0.93556428  0.93837331  1
  Zn  Zn131  1  0.31256704  0.06291962  0.06456095  1
  Zn  Zn132  1  0.31167211  0.06152612  0.56175280  1
  Zn  Zn133  1  0.30986500  0.56096125  0.06459519  1
  Zn  Zn134  1  0.31418470  0.56386592  0.55141947  1
  Zn  Zn135  1  0.81208266  0.06288082  0.06307186  1
  Zn  Zn136  1  0.80924850  0.06285374  0.56476991  1
  Zn  Zn137  1  0.81175590  0.56047201  0.06487922  1
  Zn  Zn138  1  0.81878223  0.56291651  0.56385218  1
  Zn  Zn139  1  0.43487988  0.43566078  0.19055847  1
  Zn  Zn140  1  0.43529609  0.44134157  0.69075592  1
  Zn  Zn141  1  0.43690688  0.93643451  0.18766099  1
  Zn  Zn142  1  0.43611257  0.94081245  0.69370578  1
  Zn  Zn143  1  0.93698121  0.43792736  0.18479523  1
  Zn  Zn144  1  0.94236294  0.43425053  0.67821598  1
  Zn  Zn145  1  0.93763889  0.93944509  0.18647550  1
  Zn  Zn146  1  0.93224696  0.93425917  0.69414832  1
  Zn  Zn147  1  0.06442685  0.06306331  0.30999998  1
  Zn  Zn148  1  0.06312383  0.06325762  0.81217045  1
  Zn  Zn149  1  0.06341244  0.55989380  0.31487716  1
  Zn  Zn150  1  0.06254629  0.56807489  0.81676311  1
  Zn  Zn151  1  0.56342796  0.06105732  0.31325557  1
  Zn  Zn152  1  0.55653301  0.06608139  0.81451885  1
  Zn  Zn153  1  0.56707908  0.55473380  0.31272241  1
  Zn  Zn154  1  0.56819503  0.56227350  0.80744327  1
  Zn  Zn155  1  0.43036337  0.18751497  0.44078207  1
  Zn  Zn156  1  0.43771367  0.18935565  0.94144687  1
  Zn  Zn157  1  0.43722073  0.68657043  0.43657736  1
  Zn  Zn158  1  0.43843800  0.68365498  0.93672011  1
  Zn  Zn159  1  0.93625198  0.19037029  0.43531969  1
  Zn  Zn160  1  0.94391374  0.18979284  0.93411437  1
  Zn  Zn161  1  0.93996193  0.69283982  0.43685080  1
  Zn  Zn162  1  0.93761910  0.68475161  0.93636371  1
  Zn  Zn163  1  0.06106501  0.31135052  0.06175781  1
  Zn  Zn164  1  0.06255823  0.31575417  0.56179320  1
  Zn  Zn165  1  0.06174391  0.81330583  0.06109122  1
  Zn  Zn166  1  0.11319134  0.76580012  0.60295915  1
  Zn  Zn167  1  0.56098106  0.43418591  0.06190087  1
  Zn  Zn168  1  0.56173922  0.31313189  0.56245291  1
  Zn  Zn169  1  0.56562959  0.80829297  0.06243754  1
  Zn  Zn170  1  0.55942353  0.81059603  0.56435643  1
  O  O171  1  0.11713047  0.12374529  0.11670987  1
  O  O172  1  0.11174021  0.12569231  0.61561556  1
  O  O173  1  0.11414298  0.61643050  0.12477061  1
  O  O174  1  0.11452875  0.64243284  0.61778092  1
  O  O175  1  0.62230477  0.11938943  0.11976913  1
  O  O176  1  0.61789559  0.12307802  0.62045302  1
  O  O177  1  0.62698304  0.62831169  0.11029903  1
  O  O178  1  0.62224888  0.62464020  0.61296010  1
  O  O179  1  0.37919483  0.38318887  0.37609104  1
  O  O180  1  0.38810467  0.36931577  0.88392915  1
  O  O181  1  0.38903047  0.87673636  0.37435184  1
  O  O182  1  0.37825884  0.88461607  0.88477442  1
  O  O183  1  0.87452943  0.36608872  0.38787996  1
  O  O184  1  0.87269563  0.37238936  0.88708287  1
  O  O185  1  0.88311407  0.87448455  0.38363195  1
  O  O186  1  0.87729722  0.88916216  0.87456380  1
  O  O187  1  0.25284847  0.00695645  0.36273629  1
  O  O188  1  0.25917873  -0.00112180  0.87866832  1
  O  O189  1  0.25884341  0.51446529  0.37860675  1
  O  O190  1  0.25730870  0.49442829  0.88141176  1
  O  O191  1  0.75060014  -0.00090553  0.36035822  1
  O  O192  1  0.75482272  0.00679943  0.87252111  1
  O  O193  1  0.74782317  0.49907658  0.36251945  1
  O  O194  1  0.74806847  0.50899888  0.87670745  1
  O  O195  1  0.23884282  0.49059587  0.12296843  1
  O  O196  1  0.25088547  0.48947039  0.61489058  1
  O  O197  1  0.25023953  0.99421597  0.13607597  1
  O  O198  1  0.24950134  0.99984916  0.63317536  1
  O  O199  1  0.75527890  0.48691032  0.13644339  1
  O  O200  1  0.75042294  0.48524955  0.61564941  1
  O  O201  1  0.74660419  0.99277124  0.13282127  1
  O  O202  1  0.74116890  0.99936147  0.63566800  1
  O  O203  1  0.00709837  0.36688441  0.24780407  1
  O  O204  1  0.01509718  0.37059024  0.74453639  1
  O  O205  1  0.00258289  0.86849467  0.25333621  1
  O  O206  1  -0.00631272  0.87022274  0.76674729  1
  O  O207  1  0.50717474  0.37528332  0.26022128  1
  O  O208  1  0.49686789  0.37300697  0.76483648  1
  O  O209  1  0.50725125  0.86939208  0.25595114  1
  O  O210  1  0.50990895  0.86947904  0.75244133  1
  O  O211  1  0.49022336  0.11716096  0.24371189  1
  O  O212  1  0.48651073  0.12705130  0.74285536  1
  O  O213  1  0.51032397  0.63553634  0.24914614  1
  O  O214  1  0.50505719  0.63148079  0.73547466  1
  O  O215  1  0.99360163  0.12961850  0.24336329  1
  O  O216  1  0.99278436  0.12332957  0.73822304  1
  O  O217  1  0.99459026  0.63003406  0.24571996  1
  O  O218  1  0.99314098  0.63531376  0.75339138  1
  O  O219  1  0.37347584  0.25688341  0.00845209  1
  O  O220  1  0.36056551  0.25184127  0.50896796  1
  O  O221  1  0.36953739  0.75518758  0.00574561  1
  O  O222  1  0.38257322  0.76686542  0.49811648  1
  O  O223  1  0.88234089  0.25606606  0.00983419  1
  O  O224  1  0.86797282  0.25494440  0.50595063  1
  O  O225  1  0.85922586  0.74702766  -0.00402188  1
  O  O226  1  0.87330077  0.76040676  0.50709993  1
  O  O227  1  0.13442775  0.24179796  0.50340222  1
  O  O228  1  0.12467530  0.24188801  0.99257669  1
  O  O229  1  0.11508723  0.75089781  0.48314049  1
  O  O230  1  0.13326399  0.75055882  0.99435212  1
  O  O231  1  0.63183093  0.24331966  0.49922914  1
  O  O232  1  0.62273653  0.23526650  0.99317250  1
  O  O233  1  0.62977669  0.74364145  0.49619572  1
  O  O234  1  0.63252729  0.74096880  0.99232405  1
  O  O235  1  0.48516547  0.23938669  0.12557981  1
  O  O236  1  0.48424352  0.24946005  0.62519831  1
  O  O237  1  0.49347775  0.74876119  0.13301641  1
  O  O238  1  0.50414662  0.73657400  0.63312301  1
  O  O239  1  0.99083552  0.24455489  0.13257070  1
  O  O240  1  0.99302772  0.24094120  0.62089141  1
  O  O241  1  1.00631357  0.74033438  0.13318984  1
  O  O242  1  0.99471559  0.75806391  0.64373435  1
  O  O243  1  -0.00297732  0.25137826  0.35829209  1
  O  O244  1  0.01192854  0.25652202  0.87028598  1
  O  O245  1  0.00471210  0.76179864  0.36621519  1
  O  O246  1  0.00086920  0.75843184  0.87175627  1
  O  O247  1  0.49538864  0.26306007  0.38318372  1
  O  O248  1  0.51093486  0.24685685  0.87352595  1
  O  O249  1  0.50580682  0.75484668  0.36714389  1
  O  O250  1  0.51216289  0.74803116  0.86933940  1
  O  O251  1  0.23971854  0.12864423  0.49273486  1
  O  O252  1  0.23567866  0.12485683  1.00580451  1
  O  O253  1  0.24999454  0.63180268  0.48712941  1
  O  O254  1  0.24631630  0.63910140  1.00731587  1
  O  O255  1  0.74289782  0.13286675  0.49951197  1
  O  O256  1  0.73995052  0.11782683  0.99193177  1
  O  O257  1  0.74460681  0.62946096  0.49959977  1
  O  O258  1  0.74361627  0.63177806  0.99465439  1
  O  O259  1  0.25638652  0.37124612  0.01171528  1
  O  O260  1  0.24664767  0.36791101  0.50949156  1
  O  O261  1  0.25539847  0.86706139  0.00820946  1
  O  O262  1  0.27106698  0.87452784  0.49306215  1
  O  O263  1  0.75764104  0.37860485  0.00926718  1
  O  O264  1  0.75830874  0.36946628  0.50268013  1
  O  O265  1  0.74472113  0.85994784  0.00624032  1
  O  O266  1  0.75571586  0.86735418  0.50107831  1
  O  O267  1  0.11629195  0.48979465  0.23674248  1
  O  O268  1  0.11835165  0.49160680  0.74975422  1
  O  O269  1  0.13399075  0.99336079  0.24658467  1
  O  O270  1  0.13994242  1.00694283  0.75185554  1
  O  O271  1  0.63530508  0.48448176  0.25255346  1
  O  O272  1  0.62674933  0.49181422  0.74505122  1
  O  O273  1  0.63273870  0.99428139  0.24304405  1
  O  O274  1  0.62506130  0.99383549  0.74913439  1
  O  O275  1  0.36738759  0.01018128  0.24963585  1
  O  O276  1  0.36917135  0.00734317  0.76093054  1
  O  O277  1  0.37339470  0.49993241  0.26235757  1
  O  O278  1  0.36793129  0.50207377  0.75596491  1
  O  O279  1  0.86763498  0.00921855  0.24928482  1
  O  O280  1  0.86665294  0.00658569  0.75900649  1
  O  O281  1  0.86791819  0.50674389  0.24849664  1
  O  O282  1  0.88098334  0.49856222  0.74460743  1
  O  O283  1  0.12804874  0.37793475  0.35822630  1
  O  O284  1  0.12444340  0.37101951  0.85918780  1
  O  O285  1  0.11949243  0.87007786  0.36867882  1
  O  O286  1  0.11190821  0.86245902  0.88185454  1
  O  O287  1  0.61357523  0.37167480  0.36914636  1
  O  O288  1  0.61215474  0.36671601  0.87778195  1
  O  O289  1  0.61539936  0.86859456  0.37009703  1
  O  O290  1  0.62222233  0.86612440  0.86956247  1
  O  O291  1  0.37899360  0.12993175  0.13234537  1
  O  O292  1  0.37741946  0.13341892  0.63059670  1
  O  O293  1  0.37845515  0.63664151  0.12085849  1
  O  O294  1  0.38565672  0.62713396  0.61908177  1
  O  O295  1  0.87851914  0.13174085  0.13224241  1
  O  O296  1  0.88485741  0.12938945  0.62325844  1
  O  O297  1  0.88642506  0.62131717  0.13561972  1
  O  O298  1  0.88130204  0.63862068  0.62509026  1
  O  O299  1  0.26108703  0.25595048  0.12092479  1
  O  O300  1  0.25667222  0.25189586  0.61851020  1
  O  O301  1  0.25635914  0.75373419  0.12125491  1
  O  O302  1  0.22770549  0.75546102  0.62088487  1
  O  O303  1  0.76196756  0.26145719  0.12918083  1
  O  O304  1  0.75615239  0.25599031  0.61369595  1
  O  O305  1  0.74751465  0.75530114  0.11134891  1
  O  O306  1  0.75893911  0.75116822  0.61975577  1
  O  O307  1  0.25397428  0.24161313  0.38460076  1
  O  O308  1  0.23642265  0.25726055  0.87759613  1
  O  O309  1  0.24350024  0.74208686  0.37679140  1
  O  O310  1  0.23685473  0.75944908  0.88312854  1
  O  O311  1  0.74769613  0.24719867  0.38701795  1
  O  O312  1  0.73539577  0.23792487  0.87510354  1
  O  O313  1  0.74329581  0.74710135  0.38208659  1
  O  O314  1  0.74142159  0.74470589  0.88473532  1
  O  O315  1  0.00756952  0.11579070  0.00309246  1
  O  O316  1  0.01128956  0.12725831  0.49971245  1
  O  O317  1  -0.00261001  0.61725880  0.00825609  1
  O  O318  1  -0.00125586  0.61169196  0.49339903  1
  O  O319  1  0.50671238  0.11702843  0.00865788  1
  O  O320  1  0.50228135  0.11999046  0.50624132  1
  O  O321  1  0.51803819  0.63068502  0.00288187  1
  O  O322  1  0.50582251  0.62089404  0.50866323  1
  O  O323  1  0.49797252  0.38365965  0.49460685  1
  O  O324  1  0.49349577  0.37551586  0.98554850  1
  O  O325  1  0.49566857  0.87981698  0.49250727  1
  O  O326  1  0.49554769  0.88248219  1.00133993  1
  O  O327  1  0.98855122  0.37815811  0.49550260  1
  O  O328  1  0.99025459  0.38157073  1.00077547  1
  O  O329  1  0.99266969  0.88496424  0.49190825  1
  O  O330  1  1.00101599  0.88862906  0.99371255  1
  O  O331  1  0.49346426  0.49296685  0.38104255  1
  O  O332  1  0.50284946  0.49218798  0.87563053  1
  O  O333  1  0.50032950  0.99029482  0.38138430  1
  O  O334  1  0.49318047  1.00019642  0.88854340  1
  O  O335  1  0.99884144  0.49331296  0.38575086  1
  O  O336  1  1.00587146  0.49689775  0.89048225  1
  O  O337  1  0.99726195  0.98630505  0.36458208  1
  O  O338  1  0.99224769  0.99502945  0.88013235  1
  O  O339  1  0.00073479  0.00645053  0.11671452  1
  O  O340  1  -0.00579096  0.00316115  0.61962400  1
  O  O341  1  0.00513821  0.50674625  0.11755192  1
  O  O342  1  -0.00533595  0.49802486  0.59976248  1
  O  O343  1  0.50349568  0.00498790  0.11563757  1
  O  O344  1  0.50510413  0.00704160  0.62149172  1
  O  O345  1  0.50223475  0.49834454  0.13033926  1
  O  O346  1  0.49914784  0.51047150  0.61751492  1
  O  O347  1  0.24275697  0.36769601  0.23655731  1
  O  O348  1  0.23822762  0.37565250  0.73627762  1
  O  O349  1  0.24790764  0.88145945  0.24732034  1
  O  O350  1  0.25247253  0.89369322  0.75315540  1
  O  O351  1  0.74591982  0.37966888  0.24344296  1
  O  O352  1  0.75334138  0.36960217  0.73297984  1
  O  O353  1  0.74688533  0.87879773  0.24318590  1
  O  O354  1  0.73695430  0.88059387  0.75222324  1
  O  O355  1  0.25291066  0.11945698  0.25495245  1
  O  O356  1  0.26203536  0.11465473  0.74563172  1
  O  O357  1  0.24773619  0.63167130  0.26394922  1
  O  O358  1  0.24494395  0.61596876  0.77116032  1
  O  O359  1  0.75645174  0.11712228  0.24792989  1
  O  O360  1  0.75464821  0.12194321  0.75784218  1
  O  O361  1  0.75815657  0.61536859  0.25003972  1
  O  O362  1  0.74978103  0.62982435  0.76671268  1
  O  O363  1  0.36457402  0.12270957  0.36852432  1
  O  O364  1  0.37926984  0.11746316  0.86853104  1
  O  O365  1  0.36482586  0.62042995  0.37559322  1
  O  O366  1  0.37126599  0.61812174  0.87890512  1
  O  O367  1  0.87233864  0.12366903  0.36258952  1
  O  O368  1  0.86786328  0.12089787  0.87127184  1
  O  O369  1  0.87454077  0.63226460  0.36139235  1
  O  O370  1  0.85684895  0.62688922  0.87600391  1
  O  O371  1  0.13164888  0.37929575  0.12966085  1
  O  O372  1  0.13607875  0.37151240  0.63513052  1
  O  O373  1  0.13306796  0.87620464  0.13140027  1
  O  O374  1  0.10441181  0.88484306  0.61054713  1
  O  O375  1  0.63520941  0.37243842  0.12973744  1
  O  O376  1  0.64112742  0.37277346  0.62202212  1
  O  O377  1  0.63279954  0.87999378  0.12935310  1
  O  O378  1  0.62479474  0.88101481  0.63402990  1
  O  O379  1  0.11561753  0.25882971  0.24048217  1
  O  O380  1  0.12471857  0.24933660  0.75585343  1
  O  O381  1  0.11446385  0.75551060  0.25882316  1
  O  O382  1  0.11489065  0.75083363  0.76614226  1
  O  O383  1  0.63087372  0.26522490  0.25304633  1
  O  O384  1  0.62015674  0.25562868  0.75936569  1
  O  O385  1  0.62156776  0.75410478  0.25404800  1
  O  O386  1  0.62086593  0.75685086  0.75771477  1
  O  O387  1  0.36905783  0.23602346  0.24377315  1
  O  O388  1  0.37027407  0.24423257  0.74459445  1
  O  O389  1  0.38742717  0.75533857  0.24038407  1
  O  O390  1  0.39020851  0.75728765  0.75911839  1
  O  O391  1  0.87952044  0.24264338  0.24116983  1
  O  O392  1  0.87836108  0.24192524  0.73048884  1
  O  O393  1  0.88726675  0.74424417  0.25027529  1
  O  O394  1  0.87869909  0.75010173  0.74434058  1
  O  O395  1  0.38759731  0.49811565  0.49083922  1
  O  O396  1  0.37528076  0.48627045  1.00913447  1
  O  O397  1  0.38304918  0.99158574  0.49735813  1
  O  O398  1  0.38115606  0.99653141  0.99691419  1
  O  O399  1  0.87738327  0.48719097  0.49549424  1
  O  O400  1  0.88340753  0.48885069  1.00763770  1
  O  O401  1  0.86423055  0.98658231  0.49744712  1
  O  O402  1  0.88405949  1.00857972  0.99096830  1
  O  O403  1  0.11702140  0.00733318  -0.00094199  1
  O  O404  1  0.12200180  0.00300066  0.49745354  1
  O  O405  1  0.11549791  0.49878594  0.01217632  1
  O  O406  1  0.11316202  0.49950414  0.49496513  1
  O  O407  1  0.61747565  0.00515005  0.00424020  1
  O  O408  1  0.62012829  0.00559657  0.50636398  1
  O  O409  1  0.62821358  0.51180900  0.00006594  1
  O  O410  1  0.61401715  0.50676488  0.50138450  1
  O  O411  1  0.36889878  0.36709556  0.12179764  1
  O  O412  1  0.36125842  0.36967393  0.62524992  1
  O  O413  1  0.36988122  0.86689858  0.12023198  1
  O  O414  1  0.38290865  0.87844896  0.61310928  1
  O  O415  1  0.86896480  0.36709571  0.11791326  1
  O  O416  1  0.86601151  0.36656213  0.61183100  1
  O  O417  1  0.86275594  0.87742966  0.12606095  1
  O  O418  1  0.87226204  0.86634246  0.61867330  1
  O  O419  1  0.13563832  0.12158934  0.37993147  1
  O  O420  1  0.11934939  0.13471047  0.88352228  1
  O  O421  1  0.13546881  0.63081337  0.37486938  1
  O  O422  1  0.11546325  0.64513961  0.88418616  1
  O  O423  1  0.62524877  0.12708761  0.38446675  1
  O  O424  1  0.62955211  0.12840011  0.88168091  1
  O  O425  1  0.62516843  0.62860777  0.38792893  1
  O  O426  1  0.63491543  0.62987066  0.88329331  1
