# generated using pymatgen
data_V85Zn86O256
_symmetry_space_group_name_H-M   'P 1'
_cell_length_a   16.95058861
_cell_length_b   16.95274370
_cell_length_c   16.93687959
_cell_angle_alpha   89.99089580
_cell_angle_beta   90.03213420
_cell_angle_gamma   90.03204423
_symmetry_Int_Tables_number   1
_chemical_formula_structural   V85Zn86O256
_chemical_formula_sum   'V85 Zn86 O256'
_cell_volume   4866.96292773
_cell_formula_units_Z   1
loop_
 _symmetry_equiv_pos_site_id
 _symmetry_equiv_pos_as_xyz
  1  'x, y, z'
loop_
 _atom_site_type_symbol
 _atom_site_label
 _atom_site_symmetry_multiplicity
 _atom_site_fract_x
 _atom_site_fract_y
 _atom_site_fract_z
 _atom_site_occupancy
  V  V0  1  0.37764737  0.73686288  0.12611622  1
  V  V1  1  0.62336383  0.12882332  -0.00051084  1
  V  V2  1  0.13556879  0.37895605  0.25037092  1
  V  V3  1  0.25318797  0.50029755  0.74038051  1
  V  V4  1  0.24900625  0.37460927  0.62399293  1
  V  V5  1  0.37931373  0.37344149  0.49363003  1
  V  V6  1  0.12880074  0.87759793  0.75292534  1
  V  V7  1  0.37264723  0.00194957  0.37437086  1
  V  V8  1  0.74476339  0.87704097  0.12678369  1
  V  V9  1  0.25301267  0.75322654  -0.00479839  1
  V  V10  1  0.51791738  0.75382550  0.75746198  1
  V  V11  1  -0.00757917  0.49953222  0.49838564  1
  V  V12  1  -0.00031562  0.87557014  0.87739914  1
  V  V13  1  -0.00111878  0.00238281  0.00462150  1
  V  V14  1  0.87243104  0.62565417  0.74879230  1
  V  V15  1  0.12632921  0.74827118  0.37723866  1
  V  V16  1  0.50263922  0.62014577  0.62401602  1
  V  V17  1  0.12182441  0.24963791  0.37898560  1
  V  V18  1  0.12827806  0.74886225  0.87728135  1
  V  V19  1  0.00218310  0.74861860  0.75114155  1
  V  V20  1  0.00671644  0.49970310  -0.00361290  1
  V  V21  1  0.63978001  0.49188415  0.63542474  1
  V  V22  1  0.74776369  0.25260679  -0.00157386  1
  V  V23  1  0.00505867  0.61752520  0.62960183  1
  V  V24  1  -0.01222219  0.37665785  0.37482991  1
  V  V25  1  0.75857814  0.75562451  0.49692176  1
  V  V26  1  0.24757871  0.00250404  0.25117357  1
  V  V27  1  0.75032841  0.11996553  0.37097232  1
  V  V28  1  0.11987333  0.12309220  0.50115573  1
  V  V29  1  0.50184557  0.49215112  0.49002461  1
  V  V30  1  0.61438470  0.61883591  -0.00228761  1
  V  V31  1  0.25632853  0.61865952  0.87292560  1
  V  V32  1  0.74802830  0.63100143  0.87421017  1
  V  V33  1  0.49214306  0.39400045  0.87318767  1
  V  V34  1  0.51031701  0.88553853  0.87350309  1
  V  V35  1  0.25215892  0.74774095  0.49867528  1
  V  V36  1  0.87070327  0.74833778  0.12363999  1
  V  V37  1  0.12681431  0.37896923  0.74956667  1
  V  V38  1  0.25674867  0.25279041  0.01435678  1
  V  V39  1  0.49281639  0.13437068  0.12926902  1
  V  V40  1  -0.00293635  0.74724525  0.25130138  1
  V  V41  1  0.62885854  0.62259833  0.49946282  1
  V  V42  1  0.62376178  0.87850717  0.24907931  1
  V  V43  1  0.49631224  0.73497863  0.24586909  1
  V  V44  1  0.12763956  0.25115149  0.87380566  1
  V  V45  1  0.38035167  0.62134479  0.75193067  1
  V  V46  1  0.87328341  0.12184555  0.24338734  1
  V  V47  1  0.12248320  0.00131454  0.62765755  1
  V  V48  1  0.14020631  0.61552061  0.00953607  1
  V  V49  1  0.50061969  -0.00120288  0.50006010  1
  V  V50  1  0.37918849  0.74684170  0.62546420  1
  V  V51  1  0.74550499  0.12629096  0.87487951  1
  V  V52  1  0.37556338  0.24335378  0.63477356  1
  V  V53  1  0.87761843  0.37408154  -0.00011404  1
  V  V54  1  0.26395846  0.00328200  0.75312577  1
  V  V55  1  0.26176331  0.12364675  0.87289850  1
  V  V56  1  0.75422572  0.61032123  0.37183819  1
  V  V57  1  0.62447889  0.00435387  0.12763858  1
  V  V58  1  0.37590002  0.87295748  0.49946457  1
  V  V59  1  0.75588011  0.87535610  0.62891625  1
  V  V60  1  0.74822669  0.25681480  0.50354169  1
  V  V61  1  0.62502473  0.74745441  0.37253006  1
  V  V62  1  0.87125085  0.60940609  0.25140153  1
  V  V63  1  0.62395935  0.12570498  0.50193847  1
  V  V64  1  -0.00194880  0.24864343  0.24187257  1
  V  V65  1  0.61778414  0.25476187  0.37295761  1
  V  V66  1  0.25766896  0.88065119  0.12234283  1
  V  V67  1  0.50633492  0.24298403  0.75978404  1
  V  V68  1  0.11312442  0.00270981  0.12779573  1
  V  V69  1  0.87066169  0.49771664  0.86749872  1
  V  V70  1  0.87024247  0.25640680  0.62911398  1
  V  V71  1  0.61310208  0.50245614  0.11727439  1
  V  V72  1  0.38021880  0.37683054  0.01022545  1
  V  V73  1  0.62453641  0.38071017  0.25084676  1
  V  V74  1  0.50019776  0.87382194  0.37150501  1
  V  V75  1  0.11979525  0.12777617  0.00338920  1
  V  V76  1  0.75174354  0.38508269  0.12654996  1
  V  V77  1  0.00382000  0.37392933  0.87424333  1
  V  V78  1  0.62529744  -0.00625438  0.63099132  1
  V  V79  1  0.87241764  -0.00013400  0.87438603  1
  V  V80  1  0.12456558  0.87460641  0.25137817  1
  V  V81  1  0.12693535  0.61559172  0.50450699  1
  V  V82  1  0.73807045  0.75113149  -0.00183415  1
  V  V83  1  0.87294289  0.87498928  0.00371575  1
  V  V84  1  -0.00187754  0.62480611  0.12099556  1
  Zn  Zn85  1  -0.01681656  0.86810680  0.39073025  1
  Zn  Zn86  1  -0.00536422  0.12534533  0.62806120  1
  Zn  Zn87  1  0.88539976  0.75718974  0.61507644  1
  Zn  Zn88  1  0.36897077  0.13238901  0.24581027  1
  Zn  Zn89  1  0.87720136  0.24837179  0.12241768  1
  Zn  Zn90  1  0.25367718  0.87569251  0.62805604  1
  Zn  Zn91  1  0.87170062  -0.00566962  0.37880837  1
  Zn  Zn92  1  0.37670171  0.88122804  -0.01351435  1
  Zn  Zn93  1  0.87381482  0.12512967  0.75014083  1
  Zn  Zn94  1  0.86749003  0.38103666  0.50262736  1
  Zn  Zn95  1  0.49548209  0.12067101  0.62904813  1
  Zn  Zn96  1  -0.00041136  0.24751213  0.74908894  1
  Zn  Zn97  1  0.24704045  0.12597080  0.37707952  1
  Zn  Zn98  1  -0.01233133  -0.01104115  0.50252805  1
  Zn  Zn99  1  0.49124531  0.26031231  0.25151989  1
  Zn  Zn100  1  0.25567036  0.61672633  0.34564227  1
  Zn  Zn101  1  0.74371311  -0.00507719  0.75490556  1
  Zn  Zn102  1  0.48822347  0.00572004  -0.00324048  1
  Zn  Zn103  1  0.63338884  0.36937207  0.75919228  1
  Zn  Zn104  1  0.37054612  0.49910052  0.34409676  1
  Zn  Zn105  1  0.12744217  0.50053696  0.14240404  1
  Zn  Zn106  1  0.25032098  0.24747253  0.50239135  1
  Zn  Zn107  1  0.18125751  0.18580223  0.19092878  1
  Zn  Zn108  1  0.18801727  0.18683009  0.68943754  1
  Zn  Zn109  1  0.18639369  0.69582036  0.18346481  1
  Zn  Zn110  1  0.19027795  0.68801595  0.68468285  1
  Zn  Zn111  1  0.68807067  0.19414298  0.18650212  1
  Zn  Zn112  1  0.68746635  0.18459262  0.68765225  1
  Zn  Zn113  1  0.68519420  0.68252841  0.18694031  1
  Zn  Zn114  1  0.69364927  0.68563311  0.68246551  1
  Zn  Zn115  1  0.31270089  0.31066725  0.31542843  1
  Zn  Zn116  1  0.31467077  0.31265915  0.81706785  1
  Zn  Zn117  1  0.31257765  0.81051830  0.31016299  1
  Zn  Zn118  1  0.32043534  0.81375479  0.80985726  1
  Zn  Zn119  1  0.80722925  0.30811677  0.31127307  1
  Zn  Zn120  1  0.80809559  0.31348478  0.81181060  1
  Zn  Zn121  1  0.80710731  0.80394267  0.30986929  1
  Zn  Zn122  1  0.81105939  0.81145451  0.81035361  1
  Zn  Zn123  1  0.18509531  0.43354753  0.43589607  1
  Zn  Zn124  1  0.24017000  0.47101703  0.98465670  1
  Zn  Zn125  1  0.18214030  0.93464783  0.43994652  1
  Zn  Zn126  1  0.18958174  0.94253054  0.93794108  1
  Zn  Zn127  1  0.68374522  0.43593371  0.43905728  1
  Zn  Zn128  1  0.69298969  0.42912941  0.91535391  1
  Zn  Zn129  1  0.69002096  0.93823192  0.43974680  1
  Zn  Zn130  1  0.67980438  0.93935479  0.93884126  1
  Zn  Zn131  1  0.31077499  0.06397221  0.05868460  1
  Zn  Zn132  1  0.30685414  0.06206056  0.56226302  1
  Zn  Zn133  1  0.30051571  0.55204728  0.16411081  1
  Zn  Zn134  1  0.31461906  0.55906247  0.48945221  1
  Zn  Zn135  1  0.80898721  0.06188486  0.06584014  1
  Zn  Zn136  1  0.81306161  0.06653330  0.56200865  1
  Zn  Zn137  1  0.81255830  0.56131966  0.05482236  1
  Zn  Zn138  1  0.81460142  0.56690017  0.56395903  1
  Zn  Zn139  1  0.44118849  0.43172238  0.17868607  1
  Zn  Zn140  1  0.43925919  0.43520048  0.68540536  1
  Zn  Zn141  1  0.43925763  0.94147854  0.18563233  1
  Zn  Zn142  1  0.44295195  0.93190259  0.68872309  1
  Zn  Zn143  1  0.94356014  0.43361950  0.18402051  1
  Zn  Zn144  1  0.93693155  0.43657453  0.68673094  1
  Zn  Zn145  1  0.91744437  0.91988169  0.21986186  1
  Zn  Zn146  1  0.93752904  0.93735787  0.68829259  1
  Zn  Zn147  1  0.05242402  0.06140603  0.31807641  1
  Zn  Zn148  1  0.06197322  0.06554700  0.81319516  1
  Zn  Zn149  1  0.06140829  0.56264467  0.31781784  1
  Zn  Zn150  1  0.06774071  0.56053238  0.81674340  1
  Zn  Zn151  1  0.56317398  0.06412681  0.31180765  1
  Zn  Zn152  1  0.56255709  0.06654169  0.81123336  1
  Zn  Zn153  1  0.56648682  0.55538253  0.30905428  1
  Zn  Zn154  1  0.56437209  0.56390898  0.81421754  1
  Zn  Zn155  1  0.43647605  0.18793904  0.43914165  1
  Zn  Zn156  1  0.43711351  0.18896046  0.94110462  1
  Zn  Zn157  1  0.44104496  0.68300174  0.43291890  1
  Zn  Zn158  1  0.43687560  0.69433505  0.93613190  1
  Zn  Zn159  1  0.93528112  0.18458195  0.43954222  1
  Zn  Zn160  1  0.93701572  0.18740792  0.93658473  1
  Zn  Zn161  1  0.93781247  0.68174190  0.43510882  1
  Zn  Zn162  1  0.93699536  0.68815485  0.93785615  1
  Zn  Zn163  1  0.06979356  0.31552172  0.06460751  1
  Zn  Zn164  1  0.05881842  0.31287662  0.56495413  1
  Zn  Zn165  1  0.06474128  0.81283723  0.06481750  1
  Zn  Zn166  1  0.06453979  0.81115961  0.56582931  1
  Zn  Zn167  1  0.56325919  0.31634903  0.05619343  1
  Zn  Zn168  1  0.56242462  0.31275872  0.56981208  1
  Zn  Zn169  1  0.55758403  0.81274926  0.05987947  1
  Zn  Zn170  1  0.56685379  0.81092533  0.56259460  1
  O  O171  1  0.12662086  0.11480173  0.11634911  1
  O  O172  1  0.12337337  0.11742878  0.62061427  1
  O  O173  1  0.10595648  0.63550006  0.12144169  1
  O  O174  1  0.11625364  0.62992066  0.61759537  1
  O  O175  1  0.62069581  0.11988856  0.12121637  1
  O  O176  1  0.62425036  0.11602351  0.61558308  1
  O  O177  1  0.63208643  0.61019347  0.11481317  1
  O  O178  1  0.62353381  0.61926119  0.61449362  1
  O  O179  1  0.37013152  0.38070312  0.39129474  1
  O  O180  1  0.38635406  0.36663577  0.88510295  1
  O  O181  1  0.37844927  0.88347872  0.37817011  1
  O  O182  1  0.40018480  0.86248664  0.87233405  1
  O  O183  1  0.88472696  0.36753868  0.37829759  1
  O  O184  1  0.88528332  0.38298586  0.87975151  1
  O  O185  1  0.88126165  0.88345626  0.33337200  1
  O  O186  1  0.87763841  0.88089640  0.88357182  1
  O  O187  1  0.25446642  -0.00334557  0.36765312  1
  O  O188  1  0.24424997  0.01497533  0.86829922  1
  O  O189  1  0.25763580  0.50910774  0.39772424  1
  O  O190  1  0.25106777  0.51618970  0.87062508  1
  O  O191  1  0.74578535  0.01625567  0.37563103  1
  O  O192  1  0.75652147  0.00453452  0.87769847  1
  O  O193  1  0.74828152  0.51150373  0.38159199  1
  O  O194  1  0.76945311  0.51858202  0.89149078  1
  O  O195  1  0.21683298  0.53235575  0.08113179  1
  O  O196  1  0.24991801  0.49029380  0.63893267  1
  O  O197  1  0.24102496  0.99606711  0.13248293  1
  O  O198  1  0.23941452  0.99788111  0.63427310  1
  O  O199  1  0.75092018  0.48746240  0.11756464  1
  O  O200  1  0.73782746  0.50303180  0.62044738  1
  O  O201  1  0.73438301  0.99216070  0.12111924  1
  O  O202  1  0.74431258  0.98894713  0.62539406  1
  O  O203  1  0.00307169  0.36641308  0.25901197  1
  O  O204  1  0.01101163  0.37452980  0.75468608  1
  O  O205  1  0.01104720  0.85525451  0.23867348  1
  O  O206  1  0.00839812  0.87052246  0.75778794  1
  O  O207  1  0.51919027  0.37406493  0.24192762  1
  O  O208  1  0.49699261  0.36596288  0.76153020  1
  O  O209  1  0.50743938  0.86836903  0.25355205  1
  O  O210  1  0.50441155  0.86118326  0.75526239  1
  O  O211  1  0.50046122  0.12494446  0.23605346  1
  O  O212  1  0.50044370  0.13812746  0.74661887  1
  O  O213  1  0.50384145  0.63618638  0.25497226  1
  O  O214  1  0.49673712  0.63250159  0.74408422  1
  O  O215  1  0.98495018  0.13593399  0.25625973  1
  O  O216  1  0.99371131  0.12895041  0.74942234  1
  O  O217  1  0.99583555  0.63163784  0.24325901  1
  O  O218  1  0.99827941  0.62709581  0.74604619  1
  O  O219  1  0.36010430  0.24931718  -0.00002869  1
  O  O220  1  0.37536748  0.25815643  0.51040157  1
  O  O221  1  0.37040980  0.75887635  0.00993029  1
  O  O222  1  0.37067814  0.75270361  0.50478410  1
  O  O223  1  0.87047768  0.25695899  0.00199498  1
  O  O224  1  0.86515030  0.25031432  0.51007258  1
  O  O225  1  0.86763841  0.75644381  0.00593826  1
  O  O226  1  0.86262271  0.74318265  0.49781984  1
  O  O227  1  0.12260128  0.24252626  0.49540949  1
  O  O228  1  0.13195639  0.24500379  0.99452293  1
  O  O229  1  0.13326735  0.74386491  0.49454694  1
  O  O230  1  0.13574977  0.74395122  0.99808452  1
  O  O231  1  0.62861676  0.24410414  0.49882436  1
  O  O232  1  0.63344856  0.23828465  1.00346728  1
  O  O233  1  0.63204544  0.73939496  0.49338142  1
  O  O234  1  0.63493988  0.74166360  1.00805758  1
  O  O235  1  0.50938429  0.23551358  0.12632008  1
  O  O236  1  0.48835318  0.24988909  0.63538941  1
  O  O237  1  0.48524424  0.75469985  0.13067445  1
  O  O238  1  0.49915471  0.74049374  0.62960818  1
  O  O239  1  1.00201714  0.25404631  0.13851557  1
  O  O240  1  0.98469837  0.24931062  0.62678624  1
  O  O241  1  0.99122853  0.74298361  0.12750940  1
  O  O242  1  1.00143110  0.73839987  0.63412670  1
  O  O243  1  0.00665088  0.25643055  0.37110697  1
  O  O244  1  0.00843322  0.25641389  0.87445455  1
  O  O245  1  0.00600065  0.74889346  0.36631121  1
  O  O246  1  0.00836877  0.75577253  0.87287289  1
  O  O247  1  0.51517114  0.24528297  0.37762521  1
  O  O248  1  0.49543835  0.24623732  0.86043923  1
  O  O249  1  0.50462862  0.75484403  0.36733674  1
  O  O250  1  0.50661545  0.74955283  0.85946617  1
  O  O251  1  0.23496321  0.12651992  0.49829018  1
  O  O252  1  0.23992768  0.13231168  0.99150224  1
  O  O253  1  0.23927832  0.63969183  0.51542477  1
  O  O254  1  0.25449320  0.64455490  0.98599490  1
  O  O255  1  0.73768190  0.13415150  0.49348233  1
  O  O256  1  0.74340284  0.13161867  0.99728074  1
  O  O257  1  0.74436998  0.63162109  0.49438532  1
  O  O258  1  0.74762219  0.63625225  0.99329003  1
  O  O259  1  0.25718815  0.35641651  -0.00368775  1
  O  O260  1  0.25575940  0.37137409  0.51101065  1
  O  O261  1  0.24881037  0.86829832  0.00490407  1
  O  O262  1  0.25445157  0.86224653  0.50246942  1
  O  O263  1  0.75668456  0.36795098  0.00048951  1
  O  O264  1  0.74919226  0.36089303  0.49597769  1
  O  O265  1  0.75087606  0.86828853  0.00609041  1
  O  O266  1  0.74672008  0.86421839  0.50744290  1
  O  O267  1  0.11856102  0.48397773  0.25722466  1
  O  O268  1  0.13581533  0.48633282  0.75802846  1
  O  O269  1  0.12839847  0.99655316  0.24539430  1
  O  O270  1  0.13124193  0.99334597  0.74741716  1
  O  O271  1  0.62668771  0.49453478  0.23245560  1
  O  O272  1  0.62597047  0.50585541  0.73581735  1
  O  O273  1  0.61991495  0.98961093  0.24289735  1
  O  O274  1  0.62470325  1.00445315  0.73468330  1
  O  O275  1  0.36575256  0.00271262  0.25777320  1
  O  O276  1  0.36268582  -0.00458212  0.74069740  1
  O  O277  1  0.36882625  0.49438069  0.23260831  1
  O  O278  1  0.37047549  0.51407189  0.74189224  1
  O  O279  1  0.87371052  0.02039295  0.24927173  1
  O  O280  1  0.87229269  -0.00277464  0.76566146  1
  O  O281  1  0.88289227  0.51104281  0.24344170  1
  O  O282  1  0.88033930  0.51068099  0.75752463  1
  O  O283  1  0.11427938  0.36712309  0.37000737  1
  O  O284  1  0.12245447  0.36081664  0.86741236  1
  O  O285  1  0.12690881  0.86001612  0.36906961  1
  O  O286  1  0.12178629  0.87221828  0.86821708  1
  O  O287  1  0.63123532  0.36835995  0.36345112  1
  O  O288  1  0.59538510  0.37697016  0.88144860  1
  O  O289  1  0.62137100  0.86990109  0.36714809  1
  O  O290  1  0.61200330  0.87284341  0.87477510  1
  O  O291  1  0.38969768  0.12179993  0.12555572  1
  O  O292  1  0.37484822  0.14006774  0.61676962  1
  O  O293  1  0.37124809  0.64017229  0.11741557  1
  O  O294  1  0.38830513  0.63541175  0.62909518  1
  O  O295  1  0.86841590  0.12978502  0.13792181  1
  O  O296  1  0.87307612  0.13888821  0.62983491  1
  O  O297  1  0.88282132  0.62728487  0.12647128  1
  O  O298  1  0.88325540  0.63024173  0.63440971  1
  O  O299  1  0.24350613  0.24262367  0.11229145  1
  O  O300  1  0.26103628  0.25458560  0.62736672  1
  O  O301  1  0.25881126  0.76025111  0.11578236  1
  O  O302  1  0.26268000  0.75375781  0.62054934  1
  O  O303  1  0.75103840  0.26055726  0.11176572  1
  O  O304  1  0.75836744  0.24706884  0.61824303  1
  O  O305  1  0.75289528  0.75416384  0.11754296  1
  O  O306  1  0.75285234  0.76033251  0.61547294  1
  O  O307  1  0.23295028  0.24876642  0.37997744  1
  O  O308  1  0.24373404  0.23887354  0.87904525  1
  O  O309  1  0.24480697  0.74462027  0.38185778  1
  O  O310  1  0.24676170  0.74982917  0.87842905  1
  O  O311  1  0.73918850  0.24133147  0.38375487  1
  O  O312  1  0.75743042  0.23740071  0.88938062  1
  O  O313  1  0.74177427  0.74229445  0.38123801  1
  O  O314  1  0.75609526  0.74132501  0.88436658  1
  O  O315  1  0.01173762  0.11946199  -0.00367485  1
  O  O316  1  0.01081237  0.12205974  0.50436620  1
  O  O317  1  0.00588038  0.61887077  0.00569627  1
  O  O318  1  0.00601673  0.61996308  0.50773836  1
  O  O319  1  0.50709253  0.12641309  0.00931826  1
  O  O320  1  0.51035417  0.11861939  0.50201139  1
  O  O321  1  0.51584171  0.63138533  -0.01039435  1
  O  O322  1  0.51137391  0.61900262  0.50695472  1
  O  O323  1  0.49415526  0.38124320  0.50611041  1
  O  O324  1  0.48750668  0.36834807  0.98808402  1
  O  O325  1  0.49608454  0.87745247  0.49137635  1
  O  O326  1  0.50241275  0.87841239  0.98526164  1
  O  O327  1  0.99935076  0.38416400  0.49395796  1
  O  O328  1  0.99921230  0.38128398  0.99569136  1
  O  O329  1  0.99946405  0.87274315  0.50269716  1
  O  O330  1  0.99515727  0.88018179  0.99639237  1
  O  O331  1  0.49844805  0.50233334  0.38769183  1
  O  O332  1  0.48973557  0.49326061  0.86622427  1
  O  O333  1  0.49204208  0.99472888  0.37916129  1
  O  O334  1  0.50377243  0.98966940  0.87247977  1
  O  O335  1  1.00140252  0.49051783  0.38605460  1
  O  O336  1  0.99070819  0.49610078  0.87800765  1
  O  O337  1  0.99599156  0.98750215  0.37858410  1
  O  O338  1  0.99251493  0.99452105  0.88349721  1
  O  O339  1  0.01117313  -0.00972841  0.12292925  1
  O  O340  1  0.01256486  0.00089272  0.62819195  1
  O  O341  1  0.00685032  0.50763225  0.11470048  1
  O  O342  1  -0.00095165  0.51127614  0.62052320  1
  O  O343  1  0.51051039  0.00975101  0.12316286  1
  O  O344  1  0.50674920  -0.00167794  0.61761102  1
  O  O345  1  0.51535617  0.49809719  0.11459669  1
  O  O346  1  0.50988795  0.51160615  0.62334236  1
  O  O347  1  0.23360133  0.37309248  0.25901824  1
  O  O348  1  0.24794614  0.38172379  0.74824862  1
  O  O349  1  0.24477241  0.88384934  0.24345034  1
  O  O350  1  0.24430996  0.88304122  0.75302026  1
  O  O351  1  0.74017496  0.36747702  0.23660175  1
  O  O352  1  0.73311106  0.39247946  0.80689853  1
  O  O353  1  0.73126607  0.86383943  0.24030730  1
  O  O354  1  0.74903378  0.87366976  0.73466475  1
  O  O355  1  0.24749898  0.11281634  0.25413081  1
  O  O356  1  0.24632299  0.11851751  0.76419624  1
  O  O357  1  0.23845485  0.61572744  0.23661557  1
  O  O358  1  0.25763735  0.61912371  0.75227249  1
  O  O359  1  0.76166472  0.13713280  0.25788366  1
  O  O360  1  0.75113034  0.12059871  0.76203245  1
  O  O361  1  0.75909942  0.62895105  0.25905472  1
  O  O362  1  0.76325496  0.63285539  0.75803485  1
  O  O363  1  0.37081822  0.10996582  0.38091146  1
  O  O364  1  0.35991461  0.12636469  0.87909078  1
  O  O365  1  0.36602449  0.61186025  0.39296549  1
  O  O366  1  0.36827927  0.63713294  0.86203610  1
  O  O367  1  0.86431685  0.12981508  0.36511258  1
  O  O368  1  0.86487504  0.11476527  0.87847191  1
  O  O369  1  0.86679568  0.62641799  0.36353671  1
  O  O370  1  0.87308048  0.62084379  0.86671762  1
  O  O371  1  0.12341344  0.37805524  0.14475224  1
  O  O372  1  0.13935577  0.36594036  0.63449292  1
  O  O373  1  0.13761600  0.88038380  0.12990736  1
  O  O374  1  0.12878015  0.87972445  0.64027046  1
  O  O375  1  0.63296670  0.38524140  0.12399635  1
  O  O376  1  0.62386914  0.38831453  0.63405668  1
  O  O377  1  0.62376971  0.88270020  0.12987449  1
  O  O378  1  0.63734926  0.88349762  0.61757014  1
  O  O379  1  0.11679109  0.25606324  0.25883984  1
  O  O380  1  0.12631301  0.25888518  0.75746178  1
  O  O381  1  0.11781319  0.75237743  0.25871413  1
  O  O382  1  0.12341279  0.75767374  0.75603065  1
  O  O383  1  0.62280057  0.25811606  0.25876705  1
  O  O384  1  0.61006893  0.25277718  0.74302079  1
  O  O385  1  0.61528363  0.75365057  0.25271095  1
  O  O386  1  0.61492967  0.74341954  0.74301169  1
  O  O387  1  0.38070135  0.24243045  0.26416482  1
  O  O388  1  0.38170081  0.25207057  0.73890540  1
  O  O389  1  0.38029817  0.75254291  0.23624961  1
  O  O390  1  0.38447508  0.74134899  0.73954819  1
  O  O391  1  0.88278919  0.24512853  0.24704877  1
  O  O392  1  0.87212784  0.25198412  0.74082158  1
  O  O393  1  0.88228844  0.73882176  0.24079785  1
  O  O394  1  0.88654557  0.74170923  0.75166235  1
  O  O395  1  0.39233404  0.48452999  0.51996129  1
  O  O396  1  0.35960466  0.47423527  1.00489092  1
  O  O397  1  0.37754794  0.99188185  0.49561375  1
  O  O398  1  0.37471905  0.99274191  1.00388396  1
  O  O399  1  0.88726620  0.50000586  0.50542663  1
  O  O400  1  0.88915783  0.49504352  0.99262015  1
  O  O401  1  0.87377461  1.00707526  0.49236334  1
  O  O402  1  0.87835695  0.99489279  0.99524025  1
  O  O403  1  0.12075939  0.00796199  0.00767885  1
  O  O404  1  0.12543288  0.00512994  0.51193406  1
  O  O405  1  0.11048360  0.50325515  -0.02017620  1
  O  O406  1  0.11540552  0.51249229  0.49857225  1
  O  O407  1  0.62086880  0.01370156  0.00875799  1
  O  O408  1  0.62007556  0.00726398  0.50585028  1
  O  O409  1  0.63485518  0.50678910  0.00867146  1
  O  O410  1  0.61881389  0.50403756  0.50923774  1
  O  O411  1  0.38524977  0.35964634  0.10920818  1
  O  O412  1  0.36556008  0.36400094  0.62306425  1
  O  O413  1  0.36275390  0.87353820  0.12772309  1
  O  O414  1  0.37892987  0.86208012  0.61830341  1
  O  O415  1  0.87009806  0.37349742  0.11700373  1
  O  O416  1  0.87463218  0.36251975  0.62323135  1
  O  O417  1  0.86438176  0.87019464  0.12437282  1
  O  O418  1  0.86167496  0.87377844  0.62755248  1
  O  O419  1  0.12190987  0.13173483  0.38289633  1
  O  O420  1  0.12907550  0.13543275  0.88272085  1
  O  O421  1  0.12511928  0.63559497  0.38495736  1
  O  O422  1  0.13632452  0.63203220  0.88180998  1
  O  O423  1  0.62980852  0.13122920  0.38080295  1
  O  O424  1  0.63614512  0.11908642  0.88475389  1
  O  O425  1  0.63066503  0.62587539  0.38332157  1
  O  O426  1  0.63972333  0.61762927  0.88189378  1
