# generated using pymatgen
data_V85Zn86O256
_symmetry_space_group_name_H-M   'P 1'
_cell_length_a   16.94408339
_cell_length_b   16.93847312
_cell_length_c   16.93617739
_cell_angle_alpha   89.96693624
_cell_angle_beta   90.01367571
_cell_angle_gamma   89.94957177
_symmetry_Int_Tables_number   1
_chemical_formula_structural   V85Zn86O256
_chemical_formula_sum   'V85 Zn86 O256'
_cell_volume   4860.79695628
_cell_formula_units_Z   1
loop_
 _symmetry_equiv_pos_site_id
 _symmetry_equiv_pos_as_xyz
  1  'x, y, z'
loop_
 _atom_site_type_symbol
 _atom_site_label
 _atom_site_symmetry_multiplicity
 _atom_site_fract_x
 _atom_site_fract_y
 _atom_site_fract_z
 _atom_site_occupancy
  V  V0  1  0.37060830  0.25491184  0.12669936  1
  V  V1  1  0.00652442  0.88160227  0.87425320  1
  V  V2  1  0.49643953  0.24849886  0.25116953  1
  V  V3  1  -0.00041637  0.75468453  0.75213782  1
  V  V4  1  -0.01018465  0.37974535  0.36793971  1
  V  V5  1  0.00107327  -0.00399896  0.49966690  1
  V  V6  1  -0.00158174  0.23975101  0.24655199  1
  V  V7  1  0.25195584  0.49271040  0.24551098  1
  V  V8  1  0.50878264  0.00204920  -0.00243678  1
  V  V9  1  0.37392089  0.37575019  0.00269187  1
  V  V10  1  0.37469145  0.12749818  0.75539924  1
  V  V11  1  0.62580950  0.37810111  0.75207892  1
  V  V12  1  -0.00694353  0.50505073  0.49203971  1
  V  V13  1  0.50061317  0.62865080  0.62659419  1
  V  V14  1  -0.00885223  0.49580391  0.00067309  1
  V  V15  1  0.87949702  0.87279379  0.00297374  1
  V  V16  1  0.62278022  0.12870566  0.51170154  1
  V  V17  1  0.87511971  0.24333967  0.11286256  1
  V  V18  1  0.62783554  0.62342065  -0.00110761  1
  V  V19  1  0.75564472  0.36868248  0.11312209  1
  V  V20  1  -0.00121051  0.86869376  0.36993720  1
  V  V21  1  0.01853383  0.36031540  0.88481370  1
  V  V22  1  0.50248443  0.49287494  -0.00694748  1
  V  V23  1  0.76128028  0.62573115  0.87442122  1
  V  V24  1  0.37486503  0.75540803  0.62754915  1
  V  V25  1  0.62626911  0.49579067  0.12534437  1
  V  V26  1  0.63275170  0.13195497  -0.00094537  1
  V  V27  1  0.12693546  0.12549776  0.49951569  1
  V  V28  1  0.76054192  0.49453244  0.25181791  1
  V  V29  1  0.12315306  0.62253088  -0.00172517  1
  V  V30  1  0.49752264  0.37402834  0.38460390  1
  V  V31  1  0.75885922  0.51163468  0.74786465  1
  V  V32  1  0.87575383  0.48320916  0.87340993  1
  V  V33  1  0.25035390  0.62241213  0.37237710  1
  V  V34  1  0.62442949  0.62502874  0.50033852  1
  V  V35  1  0.23593062  0.48289841  0.73744151  1
  V  V36  1  0.12558042  0.61996068  0.50155938  1
  V  V37  1  0.24711982  0.25844755  0.50248968  1
  V  V38  1  0.36985394  0.25835127  0.62794514  1
  V  V39  1  0.24354220  0.25715328  -0.00174882  1
  V  V40  1  0.75326226  0.87283978  0.12418495  1
  V  V41  1  0.50530571  -0.00604880  0.50160221  1
  V  V42  1  0.62667234  0.37309130  0.25115658  1
  V  V43  1  -0.00047469  0.12203373  0.62663046  1
  V  V44  1  0.75517454  0.74923522  0.50170238  1
  V  V45  1  0.37837584  0.49316106  0.86828097  1
  V  V46  1  0.49976740  0.62297992  0.12448395  1
  V  V47  1  0.25507912  0.74796015  0.49820543  1
  V  V48  1  -0.00593462  0.63002872  0.12274992  1
  V  V49  1  0.00337169  0.61999344  0.63472342  1
  V  V50  1  0.50051993  0.25525608  0.75403935  1
  V  V51  1  0.62701837  0.00246554  0.12658006  1
  V  V52  1  0.87386142  0.63527617  0.24782938  1
  V  V53  1  0.76101488  0.25214379  0.50191534  1
  V  V54  1  0.75761913  0.74840023  0.00543665  1
  V  V55  1  0.00832666  0.28139049  0.71667893  1
  V  V56  1  0.36954393  0.11139762  0.25464740  1
  V  V57  1  0.87782738  0.12467120  0.74520639  1
  V  V58  1  0.12070853  0.12519680  0.01841618  1
  V  V59  1  0.49483159  0.87084028  0.88477294  1
  V  V60  1  0.24312517  -0.00219525  0.75682327  1
  V  V61  1  0.13901526  0.88213069  0.23370386  1
  V  V62  1  0.62781974  0.50450514  0.62605139  1
  V  V63  1  0.74740865  0.00047988  0.25517049  1
  V  V64  1  0.12893013  0.75376953  0.87154769  1
  V  V65  1  0.37464540  0.62516344  0.24385165  1
  V  V66  1  0.23632111  0.13044992  0.87564888  1
  V  V67  1  0.32556298  0.93483856  0.44271804  1
  V  V68  1  0.62443324  0.87448788  0.25114665  1
  V  V69  1  0.12745160  0.49585089  0.12278097  1
  V  V70  1  0.00036362  0.00503757  0.01414309  1
  V  V71  1  0.62402834  0.75218419  0.37470621  1
  V  V72  1  0.33913656  0.90896233  0.02072275  1
  V  V73  1  0.76235484  0.37459812  0.62729687  1
  V  V74  1  0.62574343  0.24732039  0.37819353  1
  V  V75  1  0.87627864  0.00041016  0.37337876  1
  V  V76  1  0.75480724  0.61833991  0.37400076  1
  V  V77  1  0.24763445  0.87575480  0.63493687  1
  V  V78  1  0.24902538  0.62018600  0.86695322  1
  V  V79  1  0.87683331  0.75218999  0.62998977  1
  V  V80  1  0.26187432  0.73972361  0.00906345  1
  V  V81  1  0.12533257  0.37353163  0.24851300  1
  V  V82  1  0.63187669  0.25366730  0.87506227  1
  V  V83  1  0.75183078  0.12196136  0.87031890  1
  V  V84  1  0.49756836  0.74943976  0.24430346  1
  Zn  Zn85  1  0.87240335  -0.00209173  0.87134046  1
  Zn  Zn86  1  0.25346259  0.11965444  0.37617859  1
  Zn  Zn87  1  0.49389676  0.75170790  0.75596716  1
  Zn  Zn88  1  0.87389494  0.38138872  0.49507452  1
  Zn  Zn89  1  0.12385171  0.74819077  0.36851663  1
  Zn  Zn90  1  0.00031295  0.75463670  0.23980355  1
  Zn  Zn91  1  0.62996556  0.75141877  0.87828518  1
  Zn  Zn92  1  0.75219738  0.12577308  0.37644195  1
  Zn  Zn93  1  0.87895014  0.12109910  0.24366978  1
  Zn  Zn94  1  0.50064008  0.12698392  0.12370758  1
  Zn  Zn95  1  0.86996590  0.88064220  0.51060847  1
  Zn  Zn96  1  0.12578349  0.24778881  0.37200377  1
  Zn  Zn97  1  0.62001757  0.87625610  0.75738621  1
  Zn  Zn98  1  0.37657844  0.49806763  0.37697151  1
  Zn  Zn99  1  0.12229450  -0.00689553  0.63205893  1
  Zn  Zn100  1  0.71292744  0.94694066  0.67395728  1
  Zn  Zn101  1  0.49684472  0.50085452  0.50117433  1
  Zn  Zn102  1  0.37227059  0.62122326  0.74642021  1
  Zn  Zn103  1  0.50182882  0.11852205  0.63200659  1
  Zn  Zn104  1  0.49487027  0.87842067  0.37470349  1
  Zn  Zn105  1  0.36394779  0.38156093  0.50521434  1
  Zn  Zn106  1  0.37734285  0.00456523  0.87496127  1
  Zn  Zn107  1  0.19405014  0.18961002  0.18903071  1
  Zn  Zn108  1  0.18348331  0.19022938  0.68656421  1
  Zn  Zn109  1  0.18046904  0.68613580  0.18874406  1
  Zn  Zn110  1  0.18520729  0.68733335  0.68846656  1
  Zn  Zn111  1  0.68988689  0.18709893  0.18819926  1
  Zn  Zn112  1  0.69280031  0.19167493  0.68797635  1
  Zn  Zn113  1  0.68763243  0.68580506  0.18590944  1
  Zn  Zn114  1  0.67233650  0.73507922  0.67531449  1
  Zn  Zn115  1  0.31088592  0.31015579  0.31824381  1
  Zn  Zn116  1  0.30930728  0.31486897  0.81637082  1
  Zn  Zn117  1  0.30953899  0.80600144  0.30195296  1
  Zn  Zn118  1  0.31826134  0.81532158  0.82120587  1
  Zn  Zn119  1  0.81418046  0.30798036  0.30917673  1
  Zn  Zn120  1  0.82135164  0.30558174  0.80620171  1
  Zn  Zn121  1  0.81161779  0.81346497  0.31725985  1
  Zn  Zn122  1  0.81566371  0.81515526  0.81154967  1
  Zn  Zn123  1  0.18103961  0.43924452  0.43421487  1
  Zn  Zn124  1  0.18998410  0.43830861  0.93546212  1
  Zn  Zn125  1  0.16622806  0.93371519  0.43484901  1
  Zn  Zn126  1  0.18639066  0.94209520  0.94954854  1
  Zn  Zn127  1  0.68603621  0.43678791  0.43891407  1
  Zn  Zn128  1  0.69017978  0.43741726  0.93369709  1
  Zn  Zn129  1  0.70664117  0.95372901  0.47499342  1
  Zn  Zn130  1  0.68905795  0.93596134  0.92913567  1
  Zn  Zn131  1  0.31403937  0.07590143  0.06279410  1
  Zn  Zn132  1  0.30955638  0.07062257  0.57329198  1
  Zn  Zn133  1  0.31240721  0.56100102  0.06145153  1
  Zn  Zn134  1  0.31438851  0.56141028  0.56462989  1
  Zn  Zn135  1  0.81176497  0.06118813  0.05884747  1
  Zn  Zn136  1  0.81546813  0.06971152  0.56204346  1
  Zn  Zn137  1  0.81357434  0.55869346  0.06440398  1
  Zn  Zn138  1  0.81803738  0.56949662  0.56642213  1
  Zn  Zn139  1  0.43875745  0.43570177  0.18806661  1
  Zn  Zn140  1  0.44020382  0.43893251  0.68788004  1
  Zn  Zn141  1  0.44038770  0.93540160  0.18146712  1
  Zn  Zn142  1  0.43595296  0.93979765  0.68968784  1
  Zn  Zn143  1  0.93645525  0.43558229  0.18413383  1
  Zn  Zn144  1  0.94838135  0.43974893  0.68735651  1
  Zn  Zn145  1  0.93650982  0.93546929  0.18748493  1
  Zn  Zn146  1  0.93473699  0.93825896  0.69188195  1
  Zn  Zn147  1  0.06811894  0.05732467  0.31022268  1
  Zn  Zn148  1  0.06171399  0.06421745  0.81635280  1
  Zn  Zn149  1  0.06191379  0.56393189  0.31040547  1
  Zn  Zn150  1  0.06261104  0.55697925  0.81367206  1
  Zn  Zn151  1  0.55667304  0.06264865  0.32065975  1
  Zn  Zn152  1  0.56993294  0.05709319  0.80574099  1
  Zn  Zn153  1  0.56541245  0.56040813  0.31273879  1
  Zn  Zn154  1  0.56700873  0.56713407  0.81102418  1
  Zn  Zn155  1  0.43465295  0.18499648  0.44068460  1
  Zn  Zn156  1  0.44210064  0.19018305  0.93463370  1
  Zn  Zn157  1  0.43610529  0.68715582  0.43555118  1
  Zn  Zn158  1  0.43630030  0.67724149  0.93676533  1
  Zn  Zn159  1  0.94167746  0.18619808  0.43246482  1
  Zn  Zn160  1  0.93700504  0.18373610  0.93862689  1
  Zn  Zn161  1  0.93495469  0.68558708  0.43663119  1
  Zn  Zn162  1  0.93680024  0.68704958  0.93533054  1
  Zn  Zn163  1  0.06000495  0.31097777  0.06474360  1
  Zn  Zn164  1  0.05426974  0.31194673  0.55168723  1
  Zn  Zn165  1  0.06775310  0.81083892  0.05822404  1
  Zn  Zn166  1  0.06637804  0.80857813  0.56074579  1
  Zn  Zn167  1  0.56227502  0.31188510  0.06212920  1
  Zn  Zn168  1  0.56482616  0.31150410  0.57057354  1
  Zn  Zn169  1  0.56548052  0.81175731  0.06197144  1
  Zn  Zn170  1  0.56346704  0.81823259  0.56394310  1
  O  O171  1  0.13237526  0.12330140  0.11675236  1
  O  O172  1  0.11803160  0.11968461  0.61494981  1
  O  O173  1  0.11534454  0.61194050  0.12096673  1
  O  O174  1  0.11310799  0.63416647  0.61456156  1
  O  O175  1  0.62586785  0.12225300  0.11629638  1
  O  O176  1  0.62431195  0.13332626  0.61501820  1
  O  O177  1  0.62221623  0.61485822  0.11859310  1
  O  O178  1  0.61783964  0.62863586  0.61861815  1
  O  O179  1  0.38454401  0.37495629  0.38014397  1
  O  O180  1  0.37425143  0.38539721  0.88638852  1
  O  O181  1  0.37426109  0.87304215  0.37660690  1
  O  O182  1  0.37819154  0.88367042  0.90278888  1
  O  O183  1  0.88583008  0.37545095  0.37083050  1
  O  O184  1  0.86628977  0.38267367  0.88259914  1
  O  O185  1  0.88125460  0.88530999  0.37718296  1
  O  O186  1  0.88929842  0.87461362  0.88628350  1
  O  O187  1  0.25951525  -0.00743828  0.39080678  1
  O  O188  1  0.25251072  0.00990465  0.87311806  1
  O  O189  1  0.24897909  0.50932815  0.36623746  1
  O  O190  1  0.25735560  0.50401155  0.86639768  1
  O  O191  1  0.75862741  -0.00104661  0.37349398  1
  O  O192  1  0.75137339  0.01762038  0.87859688  1
  O  O193  1  0.74197875  0.50908283  0.36587159  1
  O  O194  1  0.75864348  0.50436437  0.86864520  1
  O  O195  1  0.23981304  0.50450249  0.13309551  1
  O  O196  1  0.25134836  0.50235366  0.63918102  1
  O  O197  1  0.26485701  0.97295950  0.05598107  1
  O  O198  1  0.25054049  0.99184481  0.63608008  1
  O  O199  1  0.74677108  0.48695703  0.13140500  1
  O  O200  1  0.74810447  0.49974285  0.63181898  1
  O  O201  1  0.74592441  0.99410346  0.13436894  1
  O  O202  1  0.75714614  0.97793747  0.57841366  1
  O  O203  1  0.00567759  0.36961824  0.25189277  1
  O  O204  1  -0.01801056  0.36893534  0.78167661  1
  O  O205  1  -0.00053403  0.87146998  0.25656603  1
  O  O206  1  0.00047352  0.86855621  0.76148908  1
  O  O207  1  0.50511137  0.36465003  0.25840542  1
  O  O208  1  0.51367912  0.36920903  0.74578235  1
  O  O209  1  0.50458127  0.86612312  0.25080255  1
  O  O210  1  0.48509928  0.87634274  0.77422193  1
  O  O211  1  0.49277437  0.13667989  0.25086868  1
  O  O212  1  0.49060673  0.13211754  0.75241706  1
  O  O213  1  0.49381539  0.62794106  0.24603065  1
  O  O214  1  0.49742121  0.62439610  0.73696394  1
  O  O215  1  1.00384991  0.13673102  0.25432548  1
  O  O216  1  0.99421211  0.11835090  0.73964767  1
  O  O217  1  0.99059849  0.62591279  0.24140263  1
  O  O218  1  1.00814422  0.63041949  0.73924827  1
  O  O219  1  0.37281595  0.25745810  0.00536540  1
  O  O220  1  0.36485931  0.25032460  0.51018916  1
  O  O221  1  0.36142610  0.73359300  0.00284250  1
  O  O222  1  0.36195667  0.74423919  0.50659801  1
  O  O223  1  0.87515618  0.24758143  0.01416450  1
  O  O224  1  0.86368394  0.25211573  0.49068683  1
  O  O225  1  0.86923888  0.75814731  -0.00187708  1
  O  O226  1  0.87063009  0.74923601  0.50865232  1
  O  O227  1  0.12879479  0.24288839  0.49955532  1
  O  O228  1  0.13357690  0.24107676  1.01047469  1
  O  O229  1  0.13830234  0.74103344  0.49487806  1
  O  O230  1  0.13084395  0.73972816  0.98816401  1
  O  O231  1  0.63094158  0.24677327  0.49469347  1
  O  O232  1  0.61944166  0.24465779  0.98823797  1
  O  O233  1  0.63149853  0.74200205  0.49150052  1
  O  O234  1  0.63501081  0.74075590  0.99799334  1
  O  O235  1  0.49083887  0.25033090  0.13360363  1
  O  O236  1  0.49477429  0.24609718  0.63868557  1
  O  O237  1  0.51004833  0.74060208  0.13678088  1
  O  O238  1  0.48957021  0.74565872  0.62470847  1
  O  O239  1  0.98327023  0.25683230  0.13220289  1
  O  O240  1  0.99452069  0.22867066  0.61635526  1
  O  O241  1  1.00379941  0.73336271  0.11891985  1
  O  O242  1  0.99996663  0.74480072  0.63398527  1
  O  O243  1  0.00379139  0.25930028  0.36499101  1
  O  O244  1  0.00482051  0.26165988  0.89119735  1
  O  O245  1  -0.00318490  0.76067739  0.37404856  1
  O  O246  1  0.00800619  0.75482029  0.87011474  1
  O  O247  1  0.50475754  0.25566988  0.37077561  1
  O  O248  1  0.51342054  0.24814381  0.86174353  1
  O  O249  1  0.50719703  0.74876953  0.36415149  1
  O  O250  1  0.49225947  0.76243616  0.88496934  1
  O  O251  1  0.24180181  0.13291429  0.50096149  1
  O  O252  1  0.24011304  0.13560113  0.99517470  1
  O  O253  1  0.24514875  0.62883638  0.49312744  1
  O  O254  1  0.24459958  0.62516992  0.98743924  1
  O  O255  1  0.74211647  0.13633197  0.49715921  1
  O  O256  1  0.73900980  0.12625777  0.99178373  1
  O  O257  1  0.74694422  0.62844755  0.49045823  1
  O  O258  1  0.74922507  0.62954590  0.99724469  1
  O  O259  1  0.25885965  0.36829861  -0.00223039  1
  O  O260  1  0.24353724  0.36359824  0.49599322  1
  O  O261  1  0.25336310  0.84767559  -0.01233765  1
  O  O262  1  0.25691930  0.87321062  0.49944326  1
  O  O263  1  0.74466719  0.37641795  0.01528294  1
  O  O264  1  0.75266867  0.37058325  0.50629669  1
  O  O265  1  0.75827871  0.86753466  0.00026522  1
  O  O266  1  0.75511620  0.85051845  0.48372167  1
  O  O267  1  0.13144951  0.49519850  0.24219936  1
  O  O268  1  0.13683012  0.49788008  0.75162331  1
  O  O269  1  0.12553517  0.98180139  0.25083961  1
  O  O270  1  0.13876232  1.00591360  0.75049918  1
  O  O271  1  0.63476048  0.49346554  0.24367782  1
  O  O272  1  0.63536516  0.49507462  0.74603427  1
  O  O273  1  0.62840580  0.99556607  0.25028623  1
  O  O274  1  0.62195435  0.99142370  0.73459843  1
  O  O275  1  0.38264364  0.01341589  0.24329207  1
  O  O276  1  0.36458736  0.01218404  0.75323937  1
  O  O277  1  0.36665705  0.50269246  0.25140572  1
  O  O278  1  0.36841582  0.49868311  0.75646834  1
  O  O279  1  0.86603028  0.00055267  0.25602037  1
  O  O280  1  0.87778968  0.01666705  0.75419135  1
  O  O281  1  0.86325919  0.50618054  0.24553826  1
  O  O282  1  0.86961686  0.49551438  0.75815143  1
  O  O283  1  0.11470943  0.37530197  0.36034557  1
  O  O284  1  0.11681756  0.37271142  0.87701617  1
  O  O285  1  0.11379438  0.86743837  0.36378501  1
  O  O286  1  0.11580419  0.86715001  0.88592834  1
  O  O287  1  0.61970204  0.36402189  0.37117577  1
  O  O288  1  0.63340181  0.36920315  0.86123005  1
  O  O289  1  0.62402400  0.85909040  0.36880750  1
  O  O290  1  0.60757082  0.87211215  0.88108665  1
  O  O291  1  0.37850636  0.13551065  0.13593216  1
  O  O292  1  0.37451871  0.13829362  0.64132616  1
  O  O293  1  0.38229990  0.61512144  0.13677642  1
  O  O294  1  0.38230463  0.63582598  0.62525652  1
  O  O295  1  0.86515102  0.13890630  0.12629984  1
  O  O296  1  0.88177173  0.12280829  0.63624163  1
  O  O297  1  0.88234693  0.61888018  0.13394926  1
  O  O298  1  0.89598678  0.63631330  0.62238082  1
  O  O299  1  0.26394047  0.24930802  0.11579088  1
  O  O300  1  0.25672886  0.24751901  0.61830200  1
  O  O301  1  0.24511846  0.73378523  0.10703264  1
  O  O302  1  0.25455072  0.75473202  0.61890476  1
  O  O303  1  0.75997647  0.26094933  0.13181138  1
  O  O304  1  0.74793527  0.26290798  0.61463452  1
  O  O305  1  0.74629928  0.75540441  0.11322869  1
  O  O306  1  0.76699313  0.73127673  0.61383379  1
  O  O307  1  0.24502350  0.24427007  0.38568419  1
  O  O308  1  0.25345781  0.24415505  0.88876532  1
  O  O309  1  0.25262687  0.73684071  0.37991077  1
  O  O310  1  0.24524792  0.73851446  0.87734073  1
  O  O311  1  0.74123802  0.25013768  0.38091793  1
  O  O312  1  0.73913419  0.24168327  0.86687002  1
  O  O313  1  0.74325110  0.73601456  0.37599289  1
  O  O314  1  0.75495244  0.73997217  0.88677129  1
  O  O315  1  0.01325208  0.12153190  0.00049405  1
  O  O316  1  0.00592368  0.11618758  0.50314745  1
  O  O317  1  0.00342381  0.61569349  0.00353363  1
  O  O318  1  0.00818985  0.62272989  0.50297869  1
  O  O319  1  0.51361691  0.12049184  -0.00131520  1
  O  O320  1  0.50651270  0.11982527  0.50453634  1
  O  O321  1  0.50618317  0.61300178  0.00520435  1
  O  O322  1  0.50586320  0.62637972  0.50893056  1
  O  O323  1  0.50442695  0.37292149  0.49089782  1
  O  O324  1  0.49519894  0.38682811  1.00202910  1
  O  O325  1  0.50358219  0.88765223  0.49629033  1
  O  O326  1  0.50496520  0.88591311  0.99579766  1
  O  O327  1  0.99777031  0.38638459  0.48522055  1
  O  O328  1  1.00400084  0.38373652  0.99370622  1
  O  O329  1  1.00214679  0.88126618  0.49213355  1
  O  O330  1  0.99582339  0.88208723  0.99718376  1
  O  O331  1  0.50232030  0.48738569  0.37569700  1
  O  O332  1  0.49225263  0.50688635  0.88192151  1
  O  O333  1  0.49390807  0.99900668  0.39317797  1
  O  O334  1  0.50010566  0.99407205  0.88380110  1
  O  O335  1  1.00295820  0.49417381  0.37967327  1
  O  O336  1  0.99403590  0.49099749  0.88290106  1
  O  O337  1  0.99597977  0.98989992  0.37932258  1
  O  O338  1  0.99962528  0.99302689  0.88405599  1
  O  O339  1  -0.00858715  0.00271224  0.11349414  1
  O  O340  1  0.00054918  0.00313235  0.61661435  1
  O  O341  1  0.00414034  0.50550710  0.11771210  1
  O  O342  1  0.00000190  0.51732494  0.61629654  1
  O  O343  1  0.51071290  0.00431171  0.11724185  1
  O  O344  1  0.48808400  0.00248131  0.60808802  1
  O  O345  1  0.50813475  0.50251779  0.11902895  1
  O  O346  1  0.50894134  0.50985516  0.62363572  1
  O  O347  1  0.24262420  0.38502695  0.25548929  1
  O  O348  1  0.24881831  0.38318763  0.74919769  1
  O  O349  1  0.23928135  0.87090902  0.24444854  1
  O  O350  1  0.25702865  0.88450116  0.74716380  1
  O  O351  1  0.74524451  0.38013916  0.24656433  1
  O  O352  1  0.74789916  0.38023074  0.74251223  1
  O  O353  1  0.74562574  0.88345785  0.24771738  1
  O  O354  1  0.74147735  0.87986257  0.76394104  1
  O  O355  1  0.26427678  0.12402388  0.25297245  1
  O  O356  1  0.25301778  0.12420371  0.75885731  1
  O  O357  1  0.25555640  0.61784604  0.25423252  1
  O  O358  1  0.24888882  0.61904482  0.75868630  1
  O  O359  1  0.74730229  0.11049197  0.25517474  1
  O  O360  1  0.76752682  0.13475873  0.75370152  1
  O  O361  1  0.75567757  0.61702459  0.25347776  1
  O  O362  1  0.74857038  0.61373889  0.75949606  1
  O  O363  1  0.37442023  0.12878994  0.35890996  1
  O  O364  1  0.36679684  0.12897701  0.86698338  1
  O  O365  1  0.36882425  0.62094601  0.36264943  1
  O  O366  1  0.36635119  0.61063387  0.87185701  1
  O  O367  1  0.87591058  0.11156820  0.37073234  1
  O  O368  1  0.86935061  0.12727910  0.86559806  1
  O  O369  1  0.86404162  0.62534663  0.36515430  1
  O  O370  1  0.86541805  0.61248524  0.88057035  1
  O  O371  1  0.11853632  0.38679725  0.13511654  1
  O  O372  1  0.03762495  0.36163221  0.65262000  1
  O  O373  1  0.12186176  0.87337916  0.13431606  1
  O  O374  1  0.14321181  0.87378801  0.61904533  1
  O  O375  1  0.63505214  0.37418638  0.13204890  1
  O  O376  1  0.63544202  0.38327938  0.63452283  1
  O  O377  1  0.63259559  0.88192365  0.13169802  1
  O  O378  1  0.63942987  0.84601504  0.63858269  1
  O  O379  1  0.11955236  0.25824685  0.24583019  1
  O  O380  1  0.09666401  0.24424135  0.74460158  1
  O  O381  1  0.11968016  0.75835487  0.25028867  1
  O  O382  1  0.11756730  0.74732691  0.76387918  1
  O  O383  1  0.61765111  0.25147982  0.25801148  1
  O  O384  1  0.62021897  0.25837052  0.75337090  1
  O  O385  1  0.62013653  0.75172212  0.25597809  1
  O  O386  1  0.60915655  0.75024836  0.76633398  1
  O  O387  1  0.38031362  0.25071312  0.24291649  1
  O  O388  1  0.38165296  0.24917096  0.74918634  1
  O  O389  1  0.38552094  0.73847079  0.24915651  1
  O  O390  1  0.37459730  0.74522258  0.74344774  1
  O  O391  1  0.88293720  0.24376713  0.24304991  1
  O  O392  1  0.90184995  0.23979529  0.74935529  1
  O  O393  1  0.87352261  0.73871794  0.25022113  1
  O  O394  1  0.89074326  0.74930915  0.74739979  1
  O  O395  1  0.37832195  0.49703901  0.49633532  1
  O  O396  1  0.38176046  0.49367492  0.99414867  1
  O  O397  1  0.37796665  1.00086322  0.50156036  1
  O  O398  1  0.39496922  1.00772176  0.99986258  1
  O  O399  1  0.88862945  0.50452474  0.50017387  1
  O  O400  1  0.88598232  0.50051367  0.99495064  1
  O  O401  1  0.88925529  1.00045247  0.49088062  1
  O  O402  1  0.88136205  0.99354556  0.99452401  1
  O  O403  1  0.11516175  0.01683135  -0.00054851  1
  O  O404  1  0.11484693  0.00621526  0.50496726  1
  O  O405  1  0.11868838  0.50335705  0.00586707  1
  O  O406  1  0.11625875  0.51355629  0.49608392  1
  O  O407  1  0.62243368  0.00823942  0.00376531  1
  O  O408  1  0.61156921  0.01295821  0.49685995  1
  O  O409  1  0.61936837  0.50161421  0.00312468  1
  O  O410  1  0.62469363  0.50921854  0.50746032  1
  O  O411  1  0.37954299  0.37027754  0.11249177  1
  O  O412  1  0.38256230  0.36226555  0.62292854  1
  O  O413  1  0.38061065  0.87306337  0.10357432  1
  O  O414  1  0.36477749  0.86333523  0.62785244  1
  O  O415  1  0.86161590  0.36600549  0.12844287  1
  O  O416  1  0.86471993  0.38285401  0.62131961  1
  O  O417  1  0.86865799  0.87763425  0.11159494  1
  O  O418  1  0.88362957  0.85858011  0.62567132  1
  O  O419  1  0.12812687  0.12235666  0.38762203  1
  O  O420  1  0.13430652  0.12695528  0.88308751  1
  O  O421  1  0.13352651  0.62758635  0.37919198  1
  O  O422  1  0.13132694  0.62869010  0.87913925  1
  O  O423  1  0.62350029  0.13747364  0.38401288  1
  O  O424  1  0.63221544  0.13276439  0.87732085  1
  O  O425  1  0.63111834  0.63250703  0.37881027  1
  O  O426  1  0.64066995  0.62075425  0.88440981  1
