# generated using pymatgen
data_V85Zn86O256
_symmetry_space_group_name_H-M   'P 1'
_cell_length_a   16.92431863
_cell_length_b   16.91464069
_cell_length_c   16.92575929
_cell_angle_alpha   90.05490548
_cell_angle_beta   89.99339502
_cell_angle_gamma   90.04044760
_symmetry_Int_Tables_number   1
_chemical_formula_structural   V85Zn86O256
_chemical_formula_sum   'V85 Zn86 O256'
_cell_volume   4845.31280212
_cell_formula_units_Z   1
loop_
 _symmetry_equiv_pos_site_id
 _symmetry_equiv_pos_as_xyz
  1  'x, y, z'
loop_
 _atom_site_type_symbol
 _atom_site_label
 _atom_site_symmetry_multiplicity
 _atom_site_fract_x
 _atom_site_fract_y
 _atom_site_fract_z
 _atom_site_occupancy
  V  V0  1  0.75083721  0.49958217  0.74741987  1
  V  V1  1  0.74439314  0.12636034  0.38927056  1
  V  V2  1  0.48791940  0.75469440  0.74568691  1
  V  V3  1  0.25142567  0.87539490  0.12184317  1
  V  V4  1  0.63060146  0.12953343  0.00364335  1
  V  V5  1  0.62605686  0.36804871  0.75063886  1
  V  V6  1  0.87875949  0.12629564  0.75167154  1
  V  V7  1  0.75079798  0.49642143  0.24602955  1
  V  V8  1  0.11168499  0.35821492  0.74234691  1
  V  V9  1  -0.00555985  0.50072062  0.49960892  1
  V  V10  1  0.61834966  -0.00326307  0.60390496  1
  V  V11  1  0.73764508  -0.00772924  0.75233306  1
  V  V12  1  0.75188035  0.12876704  0.87851448  1
  V  V13  1  0.49948740  0.62504776  0.12172225  1
  V  V14  1  0.12796790  0.75078715  0.87790934  1
  V  V15  1  0.12584452  0.75028085  0.37602804  1
  V  V16  1  0.00129931  0.49817221  0.00319112  1
  V  V17  1  0.00088984  0.12945854  0.13029440  1
  V  V18  1  0.12732975  0.14564379  -0.00389763  1
  V  V19  1  0.49790582  0.25421543  0.25681136  1
  V  V20  1  0.75180394  0.75133488  0.50128764  1
  V  V21  1  0.88054659  0.87513459  0.00114419  1
  V  V22  1  0.12148284  0.61960033  0.00412142  1
  V  V23  1  0.49386706  0.62414446  0.62428129  1
  V  V24  1  0.62631944  0.75146778  0.36925533  1
  V  V25  1  0.62414732  -0.00792513  0.12880374  1
  V  V26  1  0.12920578  0.00263733  0.62603811  1
  V  V27  1  0.75327306  0.62489761  0.87174048  1
  V  V28  1  0.88068326  -0.00556977  0.87275198  1
  V  V29  1  0.25192909  0.38033679  0.12024211  1
  V  V30  1  0.49972895  0.12648040  0.12690947  1
  V  V31  1  0.48818695  0.49761729  -0.00353931  1
  V  V32  1  0.12589398  0.13035998  0.49638215  1
  V  V33  1  0.00383133  0.73747128  0.74729757  1
  V  V34  1  -0.00047094  0.74898069  0.24798589  1
  V  V35  1  0.75068487  0.75110689  -0.00167638  1
  V  V36  1  0.75092853  0.62232809  0.37370265  1
  V  V37  1  0.74558057  -0.00450709  0.25236599  1
  V  V38  1  0.11688396  0.50082837  0.63155153  1
  V  V39  1  0.12480934  0.35743303  0.25661895  1
  V  V40  1  0.37013713  0.00418643  0.87603684  1
  V  V41  1  0.62308005  0.37263542  0.25559700  1
  V  V42  1  0.11721441  0.87733378  0.75706473  1
  V  V43  1  0.37471266  0.12728796  0.24999244  1
  V  V44  1  0.86739949  0.37021736  -0.00126775  1
  V  V45  1  0.24956472  0.01148121  0.75374165  1
  V  V46  1  0.74774841  0.36666970  0.62186766  1
  V  V47  1  0.00262657  0.88015313  0.37688262  1
  V  V48  1  0.37316955  0.24895647  0.63217080  1
  V  V49  1  0.24602767  0.00099233  0.25040375  1
  V  V50  1  0.00470619  0.13021591  0.63084770  1
  V  V51  1  0.37945311  0.49823867  0.36501133  1
  V  V52  1  0.87039019  0.37007182  0.49655479  1
  V  V53  1  0.88033740  0.62107408  0.24379711  1
  V  V54  1  0.25121742  0.59441351  0.87256910  1
  V  V55  1  0.24968988  0.62118854  0.36787085  1
  V  V56  1  0.25259551  0.75007199  0.50484912  1
  V  V57  1  0.37208118  0.25564307  0.11269365  1
  V  V58  1  0.12404675  0.50200691  0.13659425  1
  V  V59  1  0.88088268  0.74666348  0.12261624  1
  V  V60  1  0.62473578  0.62441126  -0.00264362  1
  V  V61  1  0.87318212  0.24742661  0.62422735  1
  V  V62  1  0.25380830  0.87373204  0.62967828  1
  V  V63  1  0.12591724  0.87534828  0.24942246  1
  V  V64  1  0.50339992  0.75411805  0.24638750  1
  V  V65  1  0.49591637  0.37842271  0.87789401  1
  V  V66  1  0.24717762  0.26173115  0.50095780  1
  V  V67  1  0.87711223  0.13042186  0.25456969  1
  V  V68  1  0.62447936  0.75688399  0.86358269  1
  V  V69  1  0.50370132  0.87639584  0.37427046  1
  V  V70  1  0.87594311  -0.00236007  0.37764253  1
  V  V71  1  0.62480172  0.49767393  0.12358558  1
  V  V72  1  0.37525253  0.74903195  0.12121860  1
  V  V73  1  0.00478765  -0.00062568  -0.00155531  1
  V  V74  1  -0.00147337  0.36027771  0.87201988  1
  V  V75  1  0.37829825  -0.00028781  0.37756012  1
  V  V76  1  0.38087189  0.87194333  0.50332418  1
  V  V77  1  0.62299541  0.24826035  0.87386385  1
  V  V78  1  0.11978708  0.62399529  0.50587073  1
  V  V79  1  0.62424510  0.24768491  0.38750909  1
  V  V80  1  0.37934786  0.37843747  0.49176787  1
  V  V81  1  0.29223911  0.43203209  0.67563984  1
  V  V82  1  0.49945715  -0.00007566  -0.00246132  1
  V  V83  1  0.86642212  0.24665276  0.12247287  1
  V  V84  1  0.24879759  0.13484164  0.37462617  1
  Zn  Zn85  1  0.87725595  0.49822886  0.87506120  1
  Zn  Zn86  1  0.87844078  0.87305501  0.50499299  1
  Zn  Zn87  1  0.37012276  0.62259494  0.24482542  1
  Zn  Zn88  1  0.75112307  0.86972087  0.63275213  1
  Zn  Zn89  1  -0.00103218  0.36034451  0.37086962  1
  Zn  Zn90  1  0.62331351  0.62392878  0.50057666  1
  Zn  Zn91  1  0.87591775  0.49373642  0.37123068  1
  Zn  Zn92  1  0.50242488  0.87959125  0.86803609  1
  Zn  Zn93  1  0.12589287  0.00265411  0.12284556  1
  Zn  Zn94  1  0.25251597  0.74388435  -0.00385444  1
  Zn  Zn95  1  0.74873635  0.87198212  0.13063379  1
  Zn  Zn96  1  0.74517240  0.36509293  0.12077117  1
  Zn  Zn97  1  0.88315095  0.74589214  0.62095145  1
  Zn  Zn98  1  0.62663628  0.50037199  0.61857460  1
  Zn  Zn99  1  0.50412051  0.49991236  0.49359610  1
  Zn  Zn100  1  0.51193326  0.12849238  0.62165026  1
  Zn  Zn101  1  0.36727393  0.61687192  0.75072997  1
  Zn  Zn102  1  0.88069367  0.61985555  0.74265490  1
  Zn  Zn103  1  0.38709934  0.13435448  0.75671840  1
  Zn  Zn104  1  0.24922222  0.15967804  0.88402084  1
  Zn  Zn105  1  0.37546144  0.87372872  -0.00417315  1
  Zn  Zn106  1  0.00187212  -0.00103162  0.50316291  1
  Zn  Zn107  1  0.19268624  0.18810069  0.17751566  1
  Zn  Zn108  1  0.19847568  0.19073511  0.68130362  1
  Zn  Zn109  1  0.18627737  0.68839022  0.18501499  1
  Zn  Zn110  1  0.19028242  0.68430491  0.69149056  1
  Zn  Zn111  1  0.68759982  0.18205811  0.19482627  1
  Zn  Zn112  1  0.68644986  0.18001882  0.68800574  1
  Zn  Zn113  1  0.68983598  0.68703409  0.18627950  1
  Zn  Zn114  1  0.68441568  0.68527633  0.68517394  1
  Zn  Zn115  1  0.30906986  0.31810834  0.30610525  1
  Zn  Zn116  1  0.31564947  0.31692560  0.81601800  1
  Zn  Zn117  1  0.31464185  0.80953277  0.31137470  1
  Zn  Zn118  1  0.31106489  0.81586989  0.81490848  1
  Zn  Zn119  1  0.80858816  0.30842513  0.31295104  1
  Zn  Zn120  1  0.81195909  0.30880098  0.81267523  1
  Zn  Zn121  1  0.81416175  0.81242669  0.31243494  1
  Zn  Zn122  1  0.81941408  0.81242923  0.81422658  1
  Zn  Zn123  1  0.18700035  0.44231807  0.43335131  1
  Zn  Zn124  1  0.20068640  0.37384537  0.91940048  1
  Zn  Zn125  1  0.19111163  0.94150199  0.43931262  1
  Zn  Zn126  1  0.18782708  0.93742306  0.93774267  1
  Zn  Zn127  1  0.68762081  0.43691253  0.43658560  1
  Zn  Zn128  1  0.68684007  0.43922201  0.93698169  1
  Zn  Zn129  1  0.68779006  0.93397100  0.43714684  1
  Zn  Zn130  1  0.68985451  0.93791399  0.93824637  1
  Zn  Zn131  1  0.31085070  0.06710879  0.06102404  1
  Zn  Zn132  1  0.34544577  0.08042565  0.54629562  1
  Zn  Zn133  1  0.30549944  0.55803317  0.06169572  1
  Zn  Zn134  1  0.31699789  0.56881711  0.55349598  1
  Zn  Zn135  1  0.81271568  0.05992747  0.06429396  1
  Zn  Zn136  1  0.81082515  0.05681983  0.56726482  1
  Zn  Zn137  1  0.81355820  0.56050874  0.06102457  1
  Zn  Zn138  1  0.81473026  0.56464930  0.56458662  1
  Zn  Zn139  1  0.43872673  0.43637642  0.18719189  1
  Zn  Zn140  1  0.45516998  0.43513771  0.68677576  1
  Zn  Zn141  1  0.43649067  0.93664866  0.18897866  1
  Zn  Zn142  1  0.43730482  0.94150555  0.68881081  1
  Zn  Zn143  1  0.94134389  0.43137233  0.18616190  1
  Zn  Zn144  1  0.93645798  0.43826920  0.68486493  1
  Zn  Zn145  1  0.93764602  0.94057545  0.18845344  1
  Zn  Zn146  1  0.93735383  0.93520198  0.68622263  1
  Zn  Zn147  1  0.05958746  0.18182498  0.31525711  1
  Zn  Zn148  1  0.06442801  0.06915818  0.81624686  1
  Zn  Zn149  1  0.05884295  0.56032217  0.31913234  1
  Zn  Zn150  1  0.06592707  0.55572113  0.82149051  1
  Zn  Zn151  1  0.56280061  0.06295419  0.31531365  1
  Zn  Zn152  1  0.55823907  0.06913188  0.80750667  1
  Zn  Zn153  1  0.56138298  0.56532229  0.30901932  1
  Zn  Zn154  1  0.56506290  0.56373795  0.80795200  1
  Zn  Zn155  1  0.44196221  0.18837770  0.44362656  1
  Zn  Zn156  1  0.44173845  0.18716089  0.93414291  1
  Zn  Zn157  1  0.43573370  0.68717664  0.43697570  1
  Zn  Zn158  1  0.43320550  0.68186130  0.93044366  1
  Zn  Zn159  1  0.93351545  0.18466680  0.44562911  1
  Zn  Zn160  1  0.93792075  0.18581074  0.94194871  1
  Zn  Zn161  1  0.93644450  0.68633878  0.43467537  1
  Zn  Zn162  1  0.94287978  0.68737229  0.93185271  1
  Zn  Zn163  1  0.05428525  0.31763772  0.07079399  1
  Zn  Zn164  1  0.05782347  0.31207994  0.55988947  1
  Zn  Zn165  1  0.06335117  0.81157452  0.06124768  1
  Zn  Zn166  1  0.06591321  0.81371317  0.56548886  1
  Zn  Zn167  1  0.56116170  0.31102866  0.06309913  1
  Zn  Zn168  1  0.55708131  0.31465362  0.56329718  1
  Zn  Zn169  1  0.56334507  0.81358767  0.05584033  1
  Zn  Zn170  1  0.56750676  0.81224209  0.56552179  1
  O  O171  1  0.11740107  0.12370529  0.11663532  1
  O  O172  1  0.12204881  0.12145122  0.62159490  1
  O  O173  1  0.13114424  0.61697520  0.11544588  1
  O  O174  1  0.13217738  0.61788736  0.61232922  1
  O  O175  1  0.62131660  0.11722946  0.11966063  1
  O  O176  1  0.62895613  0.10472370  0.62575268  1
  O  O177  1  0.61878732  0.62014043  0.11913331  1
  O  O178  1  0.61083792  0.62204029  0.62336942  1
  O  O179  1  0.37100385  0.38960031  0.37613930  1
  O  O180  1  0.39779603  0.37792937  0.86919239  1
  O  O181  1  0.38342311  0.87823331  0.37946101  1
  O  O182  1  0.37902834  0.88716010  0.87771184  1
  O  O183  1  0.87301632  0.37256909  0.38302465  1
  O  O184  1  0.87916378  0.37345810  0.88137382  1
  O  O185  1  0.88393384  0.88187729  0.37489793  1
  O  O186  1  0.87529769  0.88608994  0.88502400  1
  O  O187  1  0.25553194  0.00887487  0.36725601  1
  O  O188  1  0.26023438  -0.00121729  0.87088380  1
  O  O189  1  0.26177953  0.51176759  0.37801953  1
  O  O190  1  0.24232746  0.49721846  0.87945286  1
  O  O191  1  0.75447406  0.00652011  0.37136334  1
  O  O192  1  0.75884086  0.00641292  0.86897198  1
  O  O193  1  0.75217557  0.50719075  0.36491406  1
  O  O194  1  0.75153073  0.50864497  0.86776036  1
  O  O195  1  0.24089950  0.49062542  0.13068430  1
  O  O196  1  0.24076867  0.49626584  0.61396500  1
  O  O197  1  0.25233120  0.99275824  0.13203323  1
  O  O198  1  0.24015826  0.99781113  0.63603849  1
  O  O199  1  0.74086417  0.49922852  0.13052375  1
  O  O200  1  0.74908707  0.48652360  0.63138983  1
  O  O201  1  0.74182063  0.99964457  0.13414631  1
  O  O202  1  0.74272570  0.99757614  0.63961777  1
  O  O203  1  0.01830263  0.37443618  0.24969477  1
  O  O204  1  0.00401366  0.37278174  0.75391944  1
  O  O205  1  0.00559078  0.87135903  0.25617069  1
  O  O206  1  0.01461673  0.87063403  0.74827813  1
  O  O207  1  0.50876353  0.36497693  0.24830750  1
  O  O208  1  0.51757951  0.37837479  0.76177829  1
  O  O209  1  0.49538745  0.86248969  0.25758800  1
  O  O210  1  0.49480586  0.85906621  0.74921903  1
  O  O211  1  0.49432964  0.13075580  0.24477841  1
  O  O212  1  0.49811913  0.12758120  0.73700774  1
  O  O213  1  0.49843545  0.63793522  0.24037728  1
  O  O214  1  0.49291915  0.62867524  0.74246794  1
  O  O215  1  0.99098175  0.12055572  0.24272832  1
  O  O216  1  0.99195199  0.12085251  0.74323169  1
  O  O217  1  0.98664083  0.63080140  0.25824341  1
  O  O218  1  1.00464767  0.63469774  0.75632640  1
  O  O219  1  0.38631319  0.24854415  0.01432828  1
  O  O220  1  0.36540778  0.26215750  0.50514471  1
  O  O221  1  0.37640618  0.75071937  0.00912938  1
  O  O222  1  0.36104455  0.75762375  0.49504997  1
  O  O223  1  0.87548732  0.25629336  0.00925262  1
  O  O224  1  0.87178068  0.25433849  0.51558450  1
  O  O225  1  0.87520970  0.75573248  0.00368937  1
  O  O226  1  0.86654542  0.75091504  0.49754404  1
  O  O227  1  0.13353062  0.24007341  0.50780816  1
  O  O228  1  0.11838742  0.24412505  1.00665318  1
  O  O229  1  0.13146015  0.74340412  0.49590121  1
  O  O230  1  0.12552319  0.74065760  0.99474132  1
  O  O231  1  0.61666547  0.25402729  0.48711804  1
  O  O232  1  0.62331012  0.23594478  0.99663179  1
  O  O233  1  0.63084190  0.74684338  0.48508769  1
  O  O234  1  0.63046620  0.74253535  0.99246482  1
  O  O235  1  0.49508743  0.24529193  0.13592404  1
  O  O236  1  0.47680175  0.25323283  0.61830504  1
  O  O237  1  0.49606957  0.74869484  0.12834475  1
  O  O238  1  0.50437019  0.74125452  0.63873123  1
  O  O239  1  0.98679360  0.23645923  0.12325706  1
  O  O240  1  0.99082434  0.23688076  0.62216500  1
  O  O241  1  0.98870159  0.75323727  0.13078705  1
  O  O242  1  1.00774577  0.75164975  0.64298326  1
  O  O243  1  -0.00050336  0.24693545  0.38219599  1
  O  O244  1  -0.00407056  0.26038623  0.87738546  1
  O  O245  1  0.00520796  0.76078566  0.36924907  1
  O  O246  1  0.01725189  0.74686350  0.86486122  1
  O  O247  1  0.50681797  0.24072236  0.36486600  1
  O  O248  1  0.51458951  0.26135054  0.88068837  1
  O  O249  1  0.50598344  0.75306181  0.36613056  1
  O  O250  1  0.50575937  0.74762543  0.86265781  1
  O  O251  1  0.24808556  0.13680807  0.49223653  1
  O  O252  1  0.23116286  0.12554335  1.00286722  1
  O  O253  1  0.24386631  0.63434526  0.49134696  1
  O  O254  1  0.24032021  0.62155691  0.98905030  1
  O  O255  1  0.75488706  0.12074000  0.48740203  1
  O  O256  1  0.74242644  0.11528506  0.99080601  1
  O  O257  1  0.74924828  0.63300189  0.48852268  1
  O  O258  1  0.74674927  0.63084196  0.99124072  1
  O  O259  1  0.24600050  0.38436225  0.02118369  1
  O  O260  1  0.25677748  0.36701494  0.48773820  1
  O  O261  1  0.25185294  0.87374525  0.01264805  1
  O  O262  1  0.25405094  0.86774833  0.50769506  1
  O  O263  1  0.76272784  0.37954891  0.00170707  1
  O  O264  1  0.76075663  0.37775072  0.50849011  1
  O  O265  1  0.76286370  0.86965793  0.00201305  1
  O  O266  1  0.75445640  0.85973950  0.49304092  1
  O  O267  1  0.11696894  0.50265711  0.23862570  1
  O  O268  1  0.11620858  0.49917484  0.73377052  1
  O  O269  1  0.14077127  0.99340813  0.24623797  1
  O  O270  1  0.13005556  0.99522562  0.74902500  1
  O  O271  1  0.62763336  0.49119478  0.24528641  1
  O  O272  1  0.63781272  0.49079975  0.74827182  1
  O  O273  1  0.63239107  1.00563049  0.24086966  1
  O  O274  1  0.63830247  0.99668450  0.76141350  1
  O  O275  1  0.36560220  0.00298564  0.25813284  1
  O  O276  1  0.36603137  0.00517437  0.75764713  1
  O  O277  1  0.37755635  0.50327004  0.26049442  1
  O  O278  1  0.35765730  0.48653433  0.73158792  1
  O  O279  1  0.87014071  0.00801000  0.26144640  1
  O  O280  1  0.87194134  0.00712843  0.75731543  1
  O  O281  1  0.87136291  0.50499103  0.24645933  1
  O  O282  1  0.86337327  0.49817644  0.75282476  1
  O  O283  1  0.12565615  0.37747792  0.35902823  1
  O  O284  1  0.11107133  0.38161582  0.85110199  1
  O  O285  1  0.12095230  0.87285050  0.37023115  1
  O  O286  1  0.12987845  0.86644631  0.86767834  1
  O  O287  1  0.63280368  0.36413929  0.36294573  1
  O  O288  1  0.62745152  0.36499746  0.86942866  1
  O  O289  1  0.61130464  0.86872063  0.37722595  1
  O  O290  1  0.62160030  0.86170707  0.88359946  1
  O  O291  1  0.37801255  0.13354466  0.13173534  1
  O  O292  1  0.34943205  0.14573469  0.64100714  1
  O  O293  1  0.37896296  0.63200433  0.12416135  1
  O  O294  1  0.38703900  0.62156412  0.62874995  1
  O  O295  1  0.87996807  0.12672701  0.13318603  1
  O  O296  1  0.88152573  0.12662749  0.63187931  1
  O  O297  1  0.87156761  0.63345206  0.13195533  1
  O  O298  1  0.87202292  0.63258195  0.63097613  1
  O  O299  1  0.26043758  0.26386941  0.12735622  1
  O  O300  1  0.25825079  0.26300490  0.61304884  1
  O  O301  1  0.25884991  0.75679509  0.12245338  1
  O  O302  1  0.24366120  0.76054097  0.61817205  1
  O  O303  1  0.76110077  0.24422084  0.12937498  1
  O  O304  1  0.75455777  0.25933419  0.63071486  1
  O  O305  1  0.76021082  0.75133407  0.11758647  1
  O  O306  1  0.74499400  0.75073764  0.61290663  1
  O  O307  1  0.25728469  0.23971155  0.37842558  1
  O  O308  1  0.24434436  0.27272388  0.88465834  1
  O  O309  1  0.24331522  0.74746461  0.38299945  1
  O  O310  1  0.23891408  0.74923148  0.87687563  1
  O  O311  1  0.74100479  0.23355352  0.37155945  1
  O  O312  1  0.74238967  0.23584668  0.87377458  1
  O  O313  1  0.74350752  0.74343704  0.37493866  1
  O  O314  1  0.74374864  0.74502995  0.87651449  1
  O  O315  1  0.00910452  0.11880519  0.00732707  1
  O  O316  1  0.01080627  0.11969945  0.51022719  1
  O  O317  1  0.01159116  0.61541748  -0.00744193  1
  O  O318  1  0.00957135  0.61681881  0.49130468  1
  O  O319  1  0.50795109  0.11613349  0.00576269  1
  O  O320  1  0.45565337  0.11302834  0.52264846  1
  O  O321  1  0.50552323  0.61856499  0.00164043  1
  O  O322  1  0.49907294  0.62889641  0.51218555  1
  O  O323  1  0.48340354  0.37846486  0.50036853  1
  O  O324  1  0.50966951  0.38318124  0.98743378  1
  O  O325  1  0.48689580  0.86357656  0.49316083  1
  O  O326  1  0.49835864  0.89053104  0.99864158  1
  O  O327  1  0.98521719  0.37997085  0.49987198  1
  O  O328  1  0.99112515  0.37881496  0.99285822  1
  O  O329  1  1.00265617  0.87769572  0.49216655  1
  O  O330  1  0.98940195  0.88344490  1.00655718  1
  O  O331  1  0.48418260  0.50991270  0.37492789  1
  O  O332  1  0.51250334  0.48820103  0.88243012  1
  O  O333  1  0.49028562  0.98985400  0.36797988  1
  O  O334  1  0.49041528  1.00335486  0.88163354  1
  O  O335  1  0.99607410  0.49173994  0.38723848  1
  O  O336  1  0.99701394  0.48986402  0.88687732  1
  O  O337  1  0.99192895  0.98733601  0.37630384  1
  O  O338  1  0.98991562  1.00768202  0.88445583  1
  O  O339  1  -0.00080152  0.01140474  0.11763031  1
  O  O340  1  0.01358152  0.00735537  0.62681649  1
  O  O341  1  0.00751422  0.49205935  0.11218232  1
  O  O342  1  0.00408770  0.49834240  0.61088469  1
  O  O343  1  0.50497006  0.00556370  0.12056364  1
  O  O344  1  0.51749283  -0.00686464  0.62647972  1
  O  O345  1  0.50672483  0.50390385  0.11862042  1
  O  O346  1  0.50419433  0.51099106  0.61984366  1
  O  O347  1  0.23233720  0.37412986  0.24164053  1
  O  O348  1  0.23502852  0.37937849  0.74247561  1
  O  O349  1  0.24912410  0.87981105  0.24130274  1
  O  O350  1  0.24311833  0.88426615  0.74429125  1
  O  O351  1  0.74307784  0.37997626  0.24545859  1
  O  O352  1  0.74407092  0.37907304  0.74467800  1
  O  O353  1  0.75510808  0.89002914  0.25081812  1
  O  O354  1  0.75642433  0.88896224  0.75478500  1
  O  O355  1  0.25359701  0.11928235  0.25460943  1
  O  O356  1  0.24150348  0.11688957  0.76126006  1
  O  O357  1  0.25060700  0.63503245  0.26408125  1
  O  O358  1  0.24758606  0.61850372  0.76635431  1
  O  O359  1  0.75793952  0.11315340  0.25976088  1
  O  O360  1  0.75757400  0.11211399  0.75878751  1
  O  O361  1  0.75908665  0.61827335  0.25342525  1
  O  O362  1  0.74836590  0.61613769  0.75593610  1
  O  O363  1  0.36886676  0.11658733  0.36912676  1
  O  O364  1  0.36677990  0.12325140  0.87400726  1
  O  O365  1  0.36686336  0.61775137  0.37242247  1
  O  O366  1  0.35656849  0.61660577  0.87367578  1
  O  O367  1  0.86610523  0.11802123  0.37173224  1
  O  O368  1  0.86935142  0.11926679  0.87086573  1
  O  O369  1  0.86378942  0.62349521  0.36446503  1
  O  O370  1  0.86322080  0.62523787  0.87089512  1
  O  O371  1  0.13050173  0.37991483  0.13541365  1
  O  O372  1  0.11553551  0.38255601  0.63416384  1
  O  O373  1  0.13401711  0.87559919  0.13107577  1
  O  O374  1  0.13506465  0.88477900  0.63125052  1
  O  O375  1  0.62607205  0.37783600  0.13461656  1
  O  O376  1  0.63035028  0.37271376  0.63230692  1
  O  O377  1  0.62742659  0.88812697  0.11890667  1
  O  O378  1  0.63475403  0.88872451  0.61829191  1
  O  O379  1  0.12628036  0.25309217  0.24865294  1
  O  O380  1  0.12288224  0.26033491  0.73816157  1
  O  O381  1  0.11911625  0.75495015  0.25512937  1
  O  O382  1  0.12053066  0.75605406  0.75622106  1
  O  O383  1  0.61742487  0.25444163  0.25621162  1
  O  O384  1  0.63265374  0.25580733  0.76056431  1
  O  O385  1  0.61997364  0.74871885  0.25910337  1
  O  O386  1  0.61436034  0.74417817  0.75922865  1
  O  O387  1  0.38275239  0.24664968  0.24687131  1
  O  O388  1  0.37193956  0.26102370  0.73528375  1
  O  O389  1  0.38293770  0.74835997  0.23714168  1
  O  O390  1  0.38572777  0.74492119  0.75564703  1
  O  O391  1  0.87037468  0.23596300  0.24500902  1
  O  O392  1  0.86788849  0.23433082  0.74127557  1
  O  O393  1  0.87795573  0.74283257  0.24122160  1
  O  O394  1  0.89663093  0.75082214  0.75616689  1
  O  O395  1  0.37586558  0.49437716  0.48698098  1
  O  O396  1  0.38934930  0.50199339  1.00552254  1
  O  O397  1  0.36003496  0.98396243  0.48312684  1
  O  O398  1  0.38222647  1.00369923  0.99365794  1
  O  O399  1  0.87921458  0.49154678  0.49793002  1
  O  O400  1  0.88276332  0.49114625  1.00029112  1
  O  O401  1  0.87656227  0.99800480  0.48890500  1
  O  O402  1  0.88318401  0.99451282  0.99498033  1
  O  O403  1  0.11285458  -0.00091126  0.00147977  1
  O  O404  1  0.13005917  0.01200114  0.51047295  1
  O  O405  1  0.11597667  0.50619499  0.01201137  1
  O  O406  1  0.11679981  0.50549678  0.50531174  1
  O  O407  1  0.61911068  0.00860550  0.00514687  1
  O  O408  1  0.62424696  0.00087766  0.50428627  1
  O  O409  1  0.62144124  0.50676622  0.00689476  1
  O  O410  1  0.62177754  0.50409408  0.49863962  1
  O  O411  1  0.36128688  0.37068252  0.13367193  1
  O  O412  1  0.36691318  0.37728980  0.61878555  1
  O  O413  1  0.36861296  0.86781060  0.12251774  1
  O  O414  1  0.36264330  0.88366274  0.61714148  1
  O  O415  1  0.87347489  0.36292366  0.11848564  1
  O  O416  1  0.86793293  0.36476276  0.62161578  1
  O  O417  1  0.87283624  0.86809204  0.11934270  1
  O  O418  1  0.87105435  0.86720830  0.62292382  1
  O  O419  1  0.13511246  0.12319344  0.38584788  1
  O  O420  1  0.12517594  0.12856163  0.89271113  1
  O  O421  1  0.13178714  0.62828865  0.38423184  1
  O  O422  1  0.13584960  0.62689180  0.88330127  1
  O  O423  1  0.63659093  0.12976776  0.37391826  1
  O  O424  1  0.63090927  0.12979347  0.88231252  1
  O  O425  1  0.63658170  0.63203650  0.37040941  1
  O  O426  1  0.63577504  0.63194304  0.87780834  1
