# generated using pymatgen
data_V85Zn86O256
_symmetry_space_group_name_H-M   'P 1'
_cell_length_a   16.92131735
_cell_length_b   16.92386432
_cell_length_c   16.92982764
_cell_angle_alpha   90.01768611
_cell_angle_beta   89.94542867
_cell_angle_gamma   89.96208164
_symmetry_Int_Tables_number   1
_chemical_formula_structural   V85Zn86O256
_chemical_formula_sum   'V85 Zn86 O256'
_cell_volume   4848.26030293
_cell_formula_units_Z   1
loop_
 _symmetry_equiv_pos_site_id
 _symmetry_equiv_pos_as_xyz
  1  'x, y, z'
loop_
 _atom_site_type_symbol
 _atom_site_label
 _atom_site_symmetry_multiplicity
 _atom_site_fract_x
 _atom_site_fract_y
 _atom_site_fract_z
 _atom_site_occupancy
  V  V0  1  0.87170620  0.36817953  -0.00069825  1
  V  V1  1  0.50199659  0.50085424  0.50005681  1
  V  V2  1  0.87602663  0.24625628  0.62589302  1
  V  V3  1  0.12083956  0.63380450  0.50570166  1
  V  V4  1  0.37578667  0.87567578  0.49845755  1
  V  V5  1  0.12305794  -0.01836888  0.12553137  1
  V  V6  1  0.62268999  0.75231304  0.87261976  1
  V  V7  1  0.13559973  0.00102991  0.62343568  1
  V  V8  1  0.00146887  0.00205186  -0.00439775  1
  V  V9  1  0.62620235  0.00899380  0.62125694  1
  V  V10  1  0.72847087  0.24499750  -0.00144677  1
  V  V11  1  0.36942875  -0.00013018  0.87270926  1
  V  V12  1  0.12426364  0.49495804  0.12977694  1
  V  V13  1  0.74820560  0.49988322  0.75086916  1
  V  V14  1  0.88275751  0.62637337  0.74514367  1
  V  V15  1  0.36731739  0.12410483  0.24924542  1
  V  V16  1  0.12825675  0.12421921  0.48606109  1
  V  V17  1  0.49993194  0.75456417  0.74855549  1
  V  V18  1  0.37146338  0.88033413  0.00964390  1
  V  V19  1  0.62292020  0.24592586  0.37999807  1
  V  V20  1  0.62402078  0.37034462  0.75778743  1
  V  V21  1  0.76125205  0.50084232  0.25433240  1
  V  V22  1  0.36562337  0.24824716  0.12097118  1
  V  V23  1  0.87624733  0.37693250  0.49546595  1
  V  V24  1  0.74503394  0.12964892  0.87107254  1
  V  V25  1  0.12564840  0.37395004  0.74702546  1
  V  V26  1  0.74696174  0.37453479  0.12708300  1
  V  V27  1  0.87610688  -0.00194717  0.37105164  1
  V  V28  1  0.37450651  0.62673074  0.75141211  1
  V  V29  1  0.13058218  0.24961757  0.87975886  1
  V  V30  1  0.36542271  0.00223412  0.37216665  1
  V  V31  1  0.24571908  0.49438845  0.25189725  1
  V  V32  1  0.50563394  0.62740999  0.62021703  1
  V  V33  1  -0.00773243  0.62814231  0.12646621  1
  V  V34  1  0.00247399  0.24942510  0.24769595  1
  V  V35  1  -0.00185766  0.12236315  0.62592323  1
  V  V36  1  0.75120633  0.87635839  0.62438895  1
  V  V37  1  0.74286211  0.74782111  0.49942907  1
  V  V38  1  0.24853439  0.63245789  0.37732828  1
  V  V39  1  0.49972566  0.24917836  0.24985264  1
  V  V40  1  0.00338305  -0.00226343  0.49377828  1
  V  V41  1  0.88470136  0.12354996  0.24303502  1
  V  V42  1  0.62566639  0.88013026  0.74862304  1
  V  V43  1  0.61805423  0.51032825  0.12957830  1
  V  V44  1  0.12663330  0.88520449  0.75689987  1
  V  V45  1  -0.00143481  0.49820769  -0.00048576  1
  V  V46  1  0.74646668  0.76071329  0.00223774  1
  V  V47  1  0.51087061  0.00467915  0.00028483  1
  V  V48  1  0.87989372  0.87420202  0.50135510  1
  V  V49  1  0.24943977  0.12551923  0.87875091  1
  V  V50  1  0.87864457  0.87777876  -0.00889763  1
  V  V51  1  -0.00492359  0.24404034  0.75137633  1
  V  V52  1  0.24900107  0.75636055  0.00527328  1
  V  V53  1  0.50437993  0.74563638  0.24141313  1
  V  V54  1  0.25362661  0.24983117  0.50686064  1
  V  V55  1  0.11698462  0.75401239  0.87509241  1
  V  V56  1  0.00224884  0.49963532  0.50648647  1
  V  V57  1  0.50519706  0.00774465  0.49634359  1
  V  V58  1  0.24880547  -0.01537136  0.24070004  1
  V  V59  1  0.00221409  0.38464915  0.36902743  1
  V  V60  1  0.36778789  0.37402257  -0.00264344  1
  V  V61  1  0.62703284  0.50322189  0.62204085  1
  V  V62  1  0.74704704  0.12329415  0.37679122  1
  V  V63  1  0.25147845  0.50062883  0.74989271  1
  V  V64  1  0.87102336  0.75228363  0.12376630  1
  V  V65  1  0.49776927  0.13473502  0.62260350  1
  V  V66  1  0.36836253  0.12641047  0.74538640  1
  V  V67  1  0.37995128  0.62184962  0.24149017  1
  V  V68  1  -0.00071133  0.37223639  0.87479546  1
  V  V69  1  0.37329110  0.75229237  0.62301936  1
  V  V70  1  0.74592717  0.00009577  0.23655352  1
  V  V71  1  0.76327437  0.00574892  0.74858746  1
  V  V72  1  0.12322737  0.12986290  0.01149037  1
  V  V73  1  0.74907679  0.61452896  0.38607490  1
  V  V74  1  0.87247926  0.49914518  0.87576089  1
  V  V75  1  0.12991712  0.25221136  0.37063406  1
  V  V76  1  0.75009046  0.37192055  0.62565667  1
  V  V77  1  0.51145320  0.12423243  0.12114982  1
  V  V78  1  0.37520890  0.49944607  0.37811607  1
  V  V79  1  0.74589152  0.62705152  0.87691484  1
  V  V80  1  0.49983318  0.24854721  0.76071748  1
  V  V81  1  0.12612245  0.62393346  -0.00030791  1
  V  V82  1  0.63381314  0.87865401  0.23541976  1
  V  V83  1  0.50658664  0.87549777  0.37133158  1
  V  V84  1  0.74751546  0.24587941  0.50036547  1
  Zn  Zn85  1  0.50477962  0.37532046  0.88237208  1
  Zn  Zn86  1  0.49666241  0.87822110  0.87419736  1
  Zn  Zn87  1  0.25411956  0.88038345  0.62997732  1
  Zn  Zn88  1  0.49533978  0.50741025  0.00078345  1
  Zn  Zn89  1  0.62537035  0.37528321  0.25309768  1
  Zn  Zn90  1  0.37642222  0.74796435  0.12239053  1
  Zn  Zn91  1  0.24347058  0.36892921  0.12650111  1
  Zn  Zn92  1  0.89089021  0.64294486  0.28141042  1
  Zn  Zn93  1  0.37868735  0.49940067  0.87487582  1
  Zn  Zn94  1  0.50004916  0.37407794  0.37644203  1
  Zn  Zn95  1  0.04844462  0.79320082  0.31028684  1
  Zn  Zn96  1  0.24486921  0.75462534  0.49682647  1
  Zn  Zn97  1  0.87902531  0.74528123  0.62322219  1
  Zn  Zn98  1  0.25864342  0.37214497  0.62810135  1
  Zn  Zn99  1  0.61530372  0.63333338  0.00976755  1
  Zn  Zn100  1  0.00320072  0.75337708  0.74516635  1
  Zn  Zn101  1  0.37764187  0.37094103  0.50688364  1
  Zn  Zn102  1  0.62922051  0.74761775  0.37381181  1
  Zn  Zn103  1  0.88187623  0.00558966  0.87011603  1
  Zn  Zn104  1  0.87711739  0.24556191  0.12197982  1
  Zn  Zn105  1  0.12289283  0.50488753  0.62855973  1
  Zn  Zn106  1  0.25073760  0.62708010  0.87550415  1
  Zn  Zn107  1  0.18716908  0.18088892  0.19468815  1
  Zn  Zn108  1  0.18428306  0.18410691  0.68794997  1
  Zn  Zn109  1  0.18936018  0.69111424  0.18601029  1
  Zn  Zn110  1  0.18779206  0.69208011  0.68628753  1
  Zn  Zn111  1  0.69004373  0.18797742  0.19027963  1
  Zn  Zn112  1  0.68543982  0.18645874  0.69034076  1
  Zn  Zn113  1  0.69893120  0.68899500  0.19705843  1
  Zn  Zn114  1  0.69112547  0.68848363  0.68732260  1
  Zn  Zn115  1  0.31282373  0.31431956  0.31589995  1
  Zn  Zn116  1  0.31400486  0.30908406  0.81077497  1
  Zn  Zn117  1  0.31820181  0.81061997  0.31082491  1
  Zn  Zn118  1  0.30544636  0.81509374  0.81685704  1
  Zn  Zn119  1  0.81485632  0.31143324  0.31291429  1
  Zn  Zn120  1  0.81025000  0.30782766  0.81436720  1
  Zn  Zn121  1  0.85268972  0.79735965  0.32659483  1
  Zn  Zn122  1  0.81347660  0.81463315  0.81359460  1
  Zn  Zn123  1  0.18465953  0.43815698  0.43843956  1
  Zn  Zn124  1  0.19178603  0.43784739  0.93606672  1
  Zn  Zn125  1  0.18568244  0.92605603  0.43070027  1
  Zn  Zn126  1  0.18885440  0.94023662  0.93818787  1
  Zn  Zn127  1  0.68427252  0.43250477  0.43876506  1
  Zn  Zn128  1  0.68443653  0.43972267  0.94248966  1
  Zn  Zn129  1  0.69003990  0.93708735  0.43480781  1
  Zn  Zn130  1  0.69045596  0.93973288  0.93227790  1
  Zn  Zn131  1  0.30995479  0.06389008  0.06184086  1
  Zn  Zn132  1  0.31428657  0.06814919  0.55676179  1
  Zn  Zn133  1  0.30988706  0.56029754  0.06216767  1
  Zn  Zn134  1  0.31078229  0.56218931  0.56491738  1
  Zn  Zn135  1  0.81169128  0.06541976  0.05761925  1
  Zn  Zn136  1  0.81484211  0.06316931  0.56045759  1
  Zn  Zn137  1  0.80577771  0.56215283  0.06087412  1
  Zn  Zn138  1  0.81315295  0.55990066  0.55958028  1
  Zn  Zn139  1  0.43459390  0.43308762  0.18770466  1
  Zn  Zn140  1  0.43680355  0.43487505  0.68618254  1
  Zn  Zn141  1  0.44320419  0.93885650  0.18538292  1
  Zn  Zn142  1  0.43797376  0.94411091  0.68693311  1
  Zn  Zn143  1  0.93756013  0.43678813  0.18638454  1
  Zn  Zn144  1  0.93618441  0.43581624  0.68694266  1
  Zn  Zn145  1  0.93665030  0.93144681  0.17658122  1
  Zn  Zn146  1  0.94548112  0.93315557  0.68434413  1
  Zn  Zn147  1  0.06009042  -0.04501191  0.30834582  1
  Zn  Zn148  1  0.06457751  0.06312924  0.81329711  1
  Zn  Zn149  1  0.08207245  0.60844869  0.29440552  1
  Zn  Zn150  1  0.06368713  0.56111128  0.81619066  1
  Zn  Zn151  1  0.56184679  0.06393664  0.30890031  1
  Zn  Zn152  1  0.56304869  0.06452734  0.81366660  1
  Zn  Zn153  1  0.56874572  0.56434429  0.31389349  1
  Zn  Zn154  1  0.55938538  0.56185937  0.81340698  1
  Zn  Zn155  1  0.43434210  0.18430535  0.43449768  1
  Zn  Zn156  1  0.43650362  0.18754828  0.93931134  1
  Zn  Zn157  1  0.44040959  0.68700880  0.43329840  1
  Zn  Zn158  1  0.43963420  0.68816920  0.93955287  1
  Zn  Zn159  1  0.94000937  0.18720678  0.43338911  1
  Zn  Zn160  1  0.93636545  0.18140325  0.93629388  1
  Zn  Zn161  1  0.93506221  0.68295768  0.44619453  1
  Zn  Zn162  1  0.93583167  0.68731656  0.93746081  1
  Zn  Zn163  1  0.06143617  0.31189757  0.06392276  1
  Zn  Zn164  1  0.06496912  0.31135710  0.56161577  1
  Zn  Zn165  1  0.05510231  0.81184243  0.06088481  1
  Zn  Zn166  1  0.05975940  0.81224069  0.56866248  1
  Zn  Zn167  1  0.55448219  0.31940523  0.06770122  1
  Zn  Zn168  1  0.56350478  0.31531851  0.56394507  1
  Zn  Zn169  1  0.55972303  0.81772678  0.06012480  1
  Zn  Zn170  1  0.56256408  0.81871149  0.56165720  1
  O  O171  1  0.13018493  0.12408450  0.11264949  1
  O  O172  1  0.11597098  0.11859832  0.61669209  1
  O  O173  1  0.11482182  0.61709150  0.11251343  1
  O  O174  1  0.13087130  0.62404545  0.61032736  1
  O  O175  1  0.61057477  0.13074347  0.13034806  1
  O  O176  1  0.61758363  0.11463547  0.62727920  1
  O  O177  1  0.63356589  0.61268567  0.13107397  1
  O  O178  1  0.61695722  0.61720216  0.63171511  1
  O  O179  1  0.37802873  0.38806844  0.38092175  1
  O  O180  1  0.37431238  0.37177859  0.88788617  1
  O  O181  1  0.38798385  0.88102311  0.37917513  1
  O  O182  1  0.37498525  0.88561986  0.87949684  1
  O  O183  1  0.88807311  0.36662168  0.38522368  1
  O  O184  1  0.87724234  0.37877232  0.88065920  1
  O  O185  1  0.86663607  0.89218272  0.38659130  1
  O  O186  1  0.87224402  0.88229691  0.88500401  1
  O  O187  1  0.26191971  -0.00602940  0.36746668  1
  O  O188  1  0.26095472  0.00910819  0.87642277  1
  O  O189  1  0.25752035  0.50552111  0.37183724  1
  O  O190  1  0.25385714  0.50455169  0.86247942  1
  O  O191  1  0.75576997  0.00802721  0.36810258  1
  O  O192  1  0.75348730  0.00906690  0.86372974  1
  O  O193  1  0.74051621  0.50536813  0.36997538  1
  O  O194  1  0.75142500  0.50772094  0.87124837  1
  O  O195  1  0.24027139  0.50079225  0.13434736  1
  O  O196  1  0.24696561  0.49789835  0.63859143  1
  O  O197  1  0.23668977  1.00125257  0.12772083  1
  O  O198  1  0.23884700  1.00357864  0.61805907  1
  O  O199  1  0.74406023  0.49305414  0.13327712  1
  O  O200  1  0.74351093  0.49433531  0.63007387  1
  O  O201  1  0.75060175  1.00805113  0.13729194  1
  O  O202  1  0.74375796  1.00029235  0.62927037  1
  O  O203  1  -0.00700578  0.36929184  0.26343540  1
  O  O204  1  0.00623206  0.36878285  0.75628318  1
  O  O205  1  -0.01173519  0.88110890  0.25959082  1
  O  O206  1  0.01944853  0.87433939  0.74815988  1
  O  O207  1  0.49861158  0.35994580  0.25275270  1
  O  O208  1  0.50746792  0.36566978  0.75119246  1
  O  O209  1  0.50999809  0.87149323  0.25535445  1
  O  O210  1  0.50716754  0.87246176  0.74845082  1
  O  O211  1  0.49124441  0.13225051  0.24270906  1
  O  O212  1  0.49538235  0.13151244  0.74293511  1
  O  O213  1  0.49372066  0.63422849  0.25826594  1
  O  O214  1  0.49354441  0.63227058  0.73873712  1
  O  O215  1  0.98476561  0.13216539  0.25407022  1
  O  O216  1  1.00655588  0.13279958  0.74024919  1
  O  O217  1  0.98584410  0.60441320  0.22904217  1
  O  O218  1  0.98477880  0.62137151  0.75705260  1
  O  O219  1  0.37812570  0.26018954  0.00939777  1
  O  O220  1  0.35694716  0.24914937  0.48931835  1
  O  O221  1  0.36707302  0.76086415  -0.00171327  1
  O  O222  1  0.38092545  0.75945216  0.50657019  1
  O  O223  1  0.87360805  0.25993294  0.00093099  1
  O  O224  1  0.87011724  0.25659390  0.50454518  1
  O  O225  1  0.86590366  0.75807339  -0.00119133  1
  O  O226  1  0.86539869  0.76009556  0.50267688  1
  O  O227  1  0.13161873  0.24331047  0.49375705  1
  O  O228  1  0.11801571  0.24366119  0.99111421  1
  O  O229  1  0.12437739  0.73829151  0.50131891  1
  O  O230  1  0.12849772  0.74463924  0.99626136  1
  O  O231  1  0.63450652  0.25372026  0.49313760  1
  O  O232  1  0.63086363  0.25631406  1.00209747  1
  O  O233  1  0.63885256  0.75993272  0.49871551  1
  O  O234  1  0.62963101  0.75419771  0.99143234  1
  O  O235  1  0.49000682  0.24444224  0.13277189  1
  O  O236  1  0.50576660  0.23746867  0.62856999  1
  O  O237  1  0.49931764  0.75487336  0.13761455  1
  O  O238  1  0.49363209  0.74610484  0.62661456  1
  O  O239  1  0.99657027  0.26013700  0.14291115  1
  O  O240  1  0.99816060  0.24248228  0.63157356  1
  O  O241  1  0.98668365  0.73925379  0.11872597  1
  O  O242  1  0.99138596  0.75093657  0.63127689  1
  O  O243  1  0.00796054  0.25712289  0.36725836  1
  O  O244  1  0.00665473  0.25192790  0.86806174  1
  O  O245  1  -0.04809335  0.73329145  0.34681171  1
  O  O246  1  0.01330112  0.74653516  0.87389496  1
  O  O247  1  0.50632918  0.24779593  0.36952638  1
  O  O248  1  0.50017527  0.25027226  0.86428683  1
  O  O249  1  0.50352394  0.75930669  0.36568252  1
  O  O250  1  0.50587951  0.75496384  0.86570436  1
  O  O251  1  0.24172077  0.13709394  0.49927894  1
  O  O252  1  0.24157079  0.12366258  0.98701423  1
  O  O253  1  0.24278449  0.62750549  0.49512347  1
  O  O254  1  0.24109836  0.63049388  0.99791099  1
  O  O255  1  0.75569475  0.12924541  0.48528265  1
  O  O256  1  0.74685814  0.13978255  0.99576960  1
  O  O257  1  0.74793478  0.63132083  0.49677503  1
  O  O258  1  0.74302025  0.63096413  0.98657847  1
  O  O259  1  0.26187383  0.37632849  0.00471910  1
  O  O260  1  0.24594053  0.36149830  0.50278949  1
  O  O261  1  0.25833918  0.86872693  -0.00414623  1
  O  O262  1  0.26510000  0.87415274  0.49937114  1
  O  O263  1  0.75318004  0.36440410  0.00414302  1
  O  O264  1  0.75822690  0.36841453  0.50496425  1
  O  O265  1  0.75639762  0.86839335  -0.00615273  1
  O  O266  1  0.75827840  0.87128588  0.50499338  1
  O  O267  1  0.13342296  0.51229563  0.24086617  1
  O  O268  1  0.13087724  0.49250547  0.75069014  1
  O  O269  1  0.13372726  1.00354750  0.23274817  1
  O  O270  1  0.12371499  0.99299623  0.74117825  1
  O  O271  1  0.63441334  0.49619481  0.24242915  1
  O  O272  1  0.62969251  0.49460627  0.74026864  1
  O  O273  1  0.63104836  0.98909749  0.25362561  1
  O  O274  1  0.63165609  0.99657223  0.74129152  1
  O  O275  1  0.37196780  0.00400522  0.25273469  1
  O  O276  1  0.38098538  0.01410333  0.75943447  1
  O  O277  1  0.37223609  0.50468123  0.25797624  1
  O  O278  1  0.36945057  0.51030263  0.74988275  1
  O  O279  1  0.86903250  0.00913798  0.25404651  1
  O  O280  1  0.86596140  -0.00375839  0.74564347  1
  O  O281  1  0.86195094  0.49717651  0.24828354  1
  O  O282  1  0.86828089  0.50642166  0.75548502  1
  O  O283  1  0.11006942  0.36756451  0.37944012  1
  O  O284  1  0.12131660  0.36815303  0.86773932  1
  O  O285  1  0.10993860  0.87434756  0.37176631  1
  O  O286  1  0.12921403  0.87161813  0.86476368  1
  O  O287  1  0.62203011  0.36056243  0.37286101  1
  O  O288  1  0.62720131  0.38055169  0.86164934  1
  O  O289  1  0.61508645  0.87473492  0.37035661  1
  O  O290  1  0.62354039  0.87006191  0.86453354  1
  O  O291  1  0.38113124  0.13140607  0.12972138  1
  O  O292  1  0.38463804  0.11839062  0.63344166  1
  O  O293  1  0.37247235  0.62288350  0.13861865  1
  O  O294  1  0.38186274  0.63337641  0.63261071  1
  O  O295  1  0.87057419  0.12703511  0.13919022  1
  O  O296  1  0.88983185  0.12962642  0.61910856  1
  O  O297  1  0.88150032  0.63451110  0.10749130  1
  O  O298  1  0.86626521  0.62210026  0.64273026  1
  O  O299  1  0.26180139  0.24960271  0.13525674  1
  O  O300  1  0.24260952  0.24879539  0.61026896  1
  O  O301  1  0.25321200  0.74535679  0.11064628  1
  O  O302  1  0.26442021  0.75314090  0.61988028  1
  O  O303  1  0.75010752  0.25550522  0.11346316  1
  O  O304  1  0.75529080  0.25049900  0.62033525  1
  O  O305  1  0.75141122  0.74039558  0.10559534  1
  O  O306  1  0.75467556  0.75718546  0.61869284  1
  O  O307  1  0.23548311  0.25721784  0.38091718  1
  O  O308  1  0.23656973  0.24470696  0.87143522  1
  O  O309  1  0.26126029  0.73631112  0.37823976  1
  O  O310  1  0.23795424  0.74769962  0.88659492  1
  O  O311  1  0.74358674  0.24286881  0.37881331  1
  O  O312  1  0.74887343  0.24324222  0.88767886  1
  O  O313  1  0.75483825  0.73897845  0.38498916  1
  O  O314  1  0.74338221  0.74473730  0.88042366  1
  O  O315  1  0.01053959  0.11793437  -0.00049842  1
  O  O316  1  0.00732635  0.11928008  0.50553825  1
  O  O317  1  0.00548235  0.61693947  0.00353278  1
  O  O318  1  0.01228549  0.61526219  0.49647766  1
  O  O319  1  0.49628923  0.11391304  0.00571334  1
  O  O320  1  0.49409103  0.11514071  0.50620975  1
  O  O321  1  0.50306068  0.62211994  0.00129093  1
  O  O322  1  0.49726786  0.61736153  0.51167612  1
  O  O323  1  0.50014578  0.38859671  0.49960739  1
  O  O324  1  0.48569959  0.38129973  1.00109429  1
  O  O325  1  0.49293700  0.88568695  0.49328577  1
  O  O326  1  0.49143708  0.88797367  0.99629695  1
  O  O327  1  0.99451152  0.37706502  0.49374414  1
  O  O328  1  0.99072804  0.37812193  0.99451429  1
  O  O329  1  0.98864958  0.88384437  0.50477975  1
  O  O330  1  0.99157150  0.88592312  0.99946255  1
  O  O331  1  0.49652079  0.50167026  0.38445921  1
  O  O332  1  0.49644437  0.49442099  0.87716198  1
  O  O333  1  0.49546427  0.99554394  0.38010984  1
  O  O334  1  0.48925296  1.00410178  0.88448720  1
  O  O335  1  1.00253714  0.48450424  0.38599927  1
  O  O336  1  0.99337181  0.49144642  0.88034377  1
  O  O337  1  0.99069258  1.00977017  0.38772661  1
  O  O338  1  1.00068177  1.00590815  0.88868859  1
  O  O339  1  0.01593910  -0.00178476  0.11504988  1
  O  O340  1  0.00820000  0.00629837  0.61365816  1
  O  O341  1  0.00449136  0.50175304  0.11569464  1
  O  O342  1  0.00180194  0.49275265  0.61206393  1
  O  O343  1  0.49665432  0.00913124  0.10987979  1
  O  O344  1  0.50760010  0.00880490  0.61590577  1
  O  O345  1  0.51626849  0.49506584  0.13181780  1
  O  O346  1  0.50739124  0.50884490  0.62118415  1
  O  O347  1  0.25460192  0.39032000  0.24942729  1
  O  O348  1  0.24276915  0.38097587  0.75155865  1
  O  O349  1  0.25870581  0.88494006  0.24851545  1
  O  O350  1  0.23414625  0.87265390  0.74613262  1
  O  O351  1  0.75002548  0.37819872  0.24273452  1
  O  O352  1  0.74484993  0.37811554  0.74509713  1
  O  O353  1  0.73682080  0.88491198  0.25376589  1
  O  O354  1  0.74576217  0.88428924  0.74393620  1
  O  O355  1  0.26338920  0.11146243  0.24697315  1
  O  O356  1  0.25699404  0.13049883  0.76036614  1
  O  O357  1  0.26092629  0.61545282  0.25980552  1
  O  O358  1  0.25746379  0.62004119  0.74924087  1
  O  O359  1  0.75728650  0.12088605  0.25985947  1
  O  O360  1  0.75081000  0.12006400  0.75845226  1
  O  O361  1  0.75740300  0.61606278  0.26604237  1
  O  O362  1  0.75670697  0.62068889  0.76054418  1
  O  O363  1  0.38092675  0.11264801  0.36238277  1
  O  O364  1  0.36636242  0.12170887  0.87055030  1
  O  O365  1  0.37058236  0.61438389  0.37057811  1
  O  O366  1  0.37402694  0.62960557  0.85959503  1
  O  O367  1  0.86871020  0.11672676  0.36707168  1
  O  O368  1  0.85672864  0.12103125  0.88176714  1
  O  O369  1  0.85564951  0.61245321  0.38863185  1
  O  O370  1  0.86618532  0.61849084  0.86953572  1
  O  O371  1  0.12520919  0.39000710  0.11995260  1
  O  O372  1  0.12605417  0.37329346  0.64022488  1
  O  O373  1  0.12504717  0.88270167  0.12129406  1
  O  O374  1  0.12992108  0.88564431  0.63043510  1
  O  O375  1  0.63593124  0.38135588  0.12804264  1
  O  O376  1  0.63131663  0.38252198  0.63448081  1
  O  O377  1  0.62423098  0.87632812  0.13701011  1
  O  O378  1  0.63057268  0.88722938  0.62952197  1
  O  O379  1  0.11652799  0.24348523  0.25902184  1
  O  O380  1  0.11574655  0.25535566  0.75691874  1
  O  O381  1  0.11396147  0.71415695  0.26097856  1
  O  O382  1  0.12576850  0.75771994  0.75900376  1
  O  O383  1  0.61599485  0.25064068  0.25726517  1
  O  O384  1  0.61509752  0.25937761  0.74478210  1
  O  O385  1  0.62353887  0.76193236  0.25126365  1
  O  O386  1  0.62127826  0.75944878  0.75154701  1
  O  O387  1  0.37964157  0.24231112  0.24827940  1
  O  O388  1  0.38385004  0.23680638  0.75222478  1
  O  O389  1  0.38539954  0.74050918  0.24754163  1
  O  O390  1  0.37829945  0.74789196  0.74211215  1
  O  O391  1  0.87964514  0.23800769  0.25021066  1
  O  O392  1  0.88829106  0.25463332  0.74539151  1
  O  O393  1  0.84788393  0.74453057  0.22462013  1
  O  O394  1  0.87465263  0.73557806  0.75430530  1
  O  O395  1  0.38361675  0.50257719  0.49414799  1
  O  O396  1  0.37286012  0.48832521  0.99889336  1
  O  O397  1  0.38156946  0.99532354  0.49071773  1
  O  O398  1  0.37857539  0.99573095  0.99282346  1
  O  O399  1  0.88224977  0.48433383  0.50654653  1
  O  O400  1  0.87409296  0.48750082  0.99441001  1
  O  O401  1  0.88230524  0.99546857  0.49304534  1
  O  O402  1  0.88456031  0.99505992  1.00285718  1
  O  O403  1  0.12142538  0.00576988  0.00851987  1
  O  O404  1  0.12032672  0.00555483  0.50286789  1
  O  O405  1  0.12155846  0.50709011  0.00292616  1
  O  O406  1  0.11783031  0.50534406  0.50646520  1
  O  O407  1  0.60915587  -0.00467725  -0.00674990  1
  O  O408  1  0.61632209  -0.00455271  0.50702794  1
  O  O409  1  0.62705134  0.50245797  0.01924546  1
  O  O410  1  0.61911938  0.49542099  0.51398866  1
  O  O411  1  0.37113558  0.36667873  0.11652474  1
  O  O412  1  0.37236712  0.37422866  0.62048249  1
  O  O413  1  0.37902914  0.87454932  0.11246063  1
  O  O414  1  0.37673129  0.87157644  0.61693219  1
  O  O415  1  0.86250518  0.37365636  0.11647093  1
  O  O416  1  0.86902616  0.36583166  0.61949588  1
  O  O417  1  0.87408504  0.86367209  0.10718664  1
  O  O418  1  0.86698623  0.87970905  0.61629220  1
  O  O419  1  0.12035352  0.13515188  0.38601739  1
  O  O420  1  0.13163915  0.13164107  0.88149503  1
  O  O421  1  0.13881633  0.61476061  0.39455650  1
  O  O422  1  0.12519437  0.63124417  0.88600036  1
  O  O423  1  0.63211138  0.13564208  0.37015802  1
  O  O424  1  0.64341568  0.11977530  0.87374716  1
  O  O425  1  0.64114522  0.63017656  0.37450746  1
  O  O426  1  0.63180506  0.63591909  0.86920373  1
