# generated using pymatgen
data_V85Zn86O256
_symmetry_space_group_name_H-M   'P 1'
_cell_length_a   16.94873087
_cell_length_b   16.94504838
_cell_length_c   16.92835678
_cell_angle_alpha   90.00233304
_cell_angle_beta   89.93917164
_cell_angle_gamma   89.99738898
_symmetry_Int_Tables_number   1
_chemical_formula_structural   V85Zn86O256
_chemical_formula_sum   'V85 Zn86 O256'
_cell_volume   4861.77162587
_cell_formula_units_Z   1
loop_
 _symmetry_equiv_pos_site_id
 _symmetry_equiv_pos_as_xyz
  1  'x, y, z'
loop_
 _atom_site_type_symbol
 _atom_site_label
 _atom_site_symmetry_multiplicity
 _atom_site_fract_x
 _atom_site_fract_y
 _atom_site_fract_z
 _atom_site_occupancy
  V  V0  1  0.24855182  0.50803744  0.75361488  1
  V  V1  1  0.62318645  0.13138898  0.49433914  1
  V  V2  1  0.50561414  0.86867556  0.37342367  1
  V  V3  1  0.62804274  0.25460999  0.86538487  1
  V  V4  1  0.86950701  0.49997070  0.87067964  1
  V  V5  1  0.24949626  0.36227745  0.12524721  1
  V  V6  1  0.37461988  0.25546318  0.61893748  1
  V  V7  1  -0.00089694  0.75015566  0.75191246  1
  V  V8  1  0.37388353  0.50398820  0.87576288  1
  V  V9  1  0.25643070  0.14049247  0.88294804  1
  V  V10  1  0.49966939  0.87568378  0.87406984  1
  V  V11  1  0.37179777  0.00168060  0.87328223  1
  V  V12  1  0.63282564  0.12308255  -0.00575907  1
  V  V13  1  0.25237243  -0.00407721  0.24982522  1
  V  V14  1  0.74453253  0.49079636  0.73660754  1
  V  V15  1  0.00166300  0.74753937  0.24794986  1
  V  V16  1  0.25230260  0.38003476  0.61936514  1
  V  V17  1  0.12518193  0.87093444  0.24705130  1
  V  V18  1  0.50768839  0.11946073  0.12641827  1
  V  V19  1  0.37243751  0.87229910  0.00303193  1
  V  V20  1  0.37372129  0.37264147  -0.00267016  1
  V  V21  1  0.87532060  0.62264792  0.24823761  1
  V  V22  1  0.87334314  0.87798584  0.49848784  1
  V  V23  1  0.50241641  0.74346159  0.74273491  1
  V  V24  1  -0.00076891  0.87488013  0.87929200  1
  V  V25  1  0.25079222  0.62230362  0.37875125  1
  V  V26  1  0.62604454  0.87535309  0.74622584  1
  V  V27  1  0.61134754  0.62380471  0.50240029  1
  V  V28  1  0.11947802  0.25258529  0.87513692  1
  V  V29  1  0.75403760  0.49116920  0.24371544  1
  V  V30  1  0.50020197  0.12678633  0.62477998  1
  V  V31  1  0.88966100  0.24725024  0.63027363  1
  V  V32  1  0.87116510  0.37699025  0.50827249  1
  V  V33  1  0.87580143  0.49781461  0.37576108  1
  V  V34  1  0.74271474  0.87918764  0.12545410  1
  V  V35  1  0.49870751  0.37308571  0.38595061  1
  V  V36  1  0.37890315  0.74642191  0.61718185  1
  V  V37  1  0.12183910  0.00080310  0.12308419  1
  V  V38  1  0.37643323  0.12586292  0.74966626  1
  V  V39  1  0.12587099  0.51207718  0.62150567  1
  V  V40  1  0.37470696  0.62690850  0.75046912  1
  V  V41  1  0.87374244  0.75178845  0.62468774  1
  V  V42  1  0.74728066  0.26144237  0.00355453  1
  V  V43  1  0.74748514  0.13409038  0.37324088  1
  V  V44  1  -0.00102942  0.24453940  0.24247725  1
  V  V45  1  0.74486524  0.75031115  0.49555846  1
  V  V46  1  0.24810216  0.87776759  0.63124567  1
  V  V47  1  0.00324270  0.36559196  0.37920869  1
  V  V48  1  0.50511300  -0.00199540  0.00500016  1
  V  V49  1  0.26346325  0.50094002  0.25001065  1
  V  V50  1  0.37488933  0.87737544  0.49943463  1
  V  V51  1  0.62864222  0.36660656  0.25289821  1
  V  V52  1  0.37446182  0.24693984  0.11979248  1
  V  V53  1  0.12890632  0.50003133  0.12491753  1
  V  V54  1  0.74908221  0.25324664  0.50898675  1
  V  V55  1  0.13011604  0.13406485  0.00742449  1
  V  V56  1  0.37879517  0.49615804  0.39313429  1
  V  V57  1  0.61754101  0.62290240  0.00200004  1
  V  V58  1  0.62388616  0.74769577  0.87358334  1
  V  V59  1  0.00195289  0.62374570  0.12408001  1
  V  V60  1  0.87288595  0.87521808  0.00224473  1
  V  V61  1  -0.00452703  0.01230592  0.00327543  1
  V  V62  1  0.62696456  0.00348168  0.62396221  1
  V  V63  1  0.11907612  0.37803396  0.75247756  1
  V  V64  1  0.87465157  0.00408514  0.37576067  1
  V  V65  1  0.74872320  0.74589527  0.00211612  1
  V  V66  1  0.12587260  0.37452366  0.25676399  1
  V  V67  1  0.86807301  0.00693381  0.87603477  1
  V  V68  1  0.00366847  0.50871051  0.49860532  1
  V  V69  1  0.50202077  0.24991359  0.25458306  1
  V  V70  1  -0.00113182  0.49775122  -0.00383464  1
  V  V71  1  0.60860021  0.49299920  0.62146864  1
  V  V72  1  0.00028572  0.87566867  0.37373501  1
  V  V73  1  0.13112998  0.62365230  -0.00891331  1
  V  V74  1  0.38259795  0.74078937  0.13862359  1
  V  V75  1  0.87648432  0.12923994  0.75100118  1
  V  V76  1  0.01435144  0.01006933  0.50998598  1
  V  V77  1  0.62393836  0.49146134  0.12351927  1
  V  V78  1  0.23572350  0.24678433  0.49657147  1
  V  V79  1  0.74555193  0.62612792  0.37456245  1
  V  V80  1  0.12392819  0.74268983  0.38356810  1
  V  V81  1  0.62452082  0.86046462  0.25331260  1
  V  V82  1  0.25553802  0.74360122  -0.00478801  1
  V  V83  1  0.37430904  0.12289022  0.25149374  1
  V  V84  1  0.74123446  0.00190639  0.24855507  1
  Zn  Zn85  1  0.24467413  0.74535407  0.50343720  1
  Zn  Zn86  1  0.74606346  0.00850884  0.75618518  1
  Zn  Zn87  1  0.74877287  0.87715039  0.62389889  1
  Zn  Zn88  1  0.37689161  -0.00002871  0.37456538  1
  Zn  Zn89  1  0.50025581  0.00207069  0.49682975  1
  Zn  Zn90  1  0.50219613  0.25812327  0.74803540  1
  Zn  Zn91  1  0.00433042  0.63300909  0.61925413  1
  Zn  Zn92  1  0.50195473  0.37781175  0.86861637  1
  Zn  Zn93  1  0.24110290  0.12014694  0.38752949  1
  Zn  Zn94  1  0.20959997  0.03156273  0.71620700  1
  Zn  Zn95  1  0.49691469  0.50066878  0.00322602  1
  Zn  Zn96  1  0.87504817  0.74928112  0.12497326  1
  Zn  Zn97  1  0.74629111  0.62345765  0.86923802  1
  Zn  Zn98  1  0.87024907  0.25059621  0.12421316  1
  Zn  Zn99  1  0.87920395  0.12183224  0.24310682  1
  Zn  Zn100  1  0.11939499  0.87973200  0.74334974  1
  Zn  Zn101  1  0.49819714  0.62234876  0.15628562  1
  Zn  Zn102  1  0.13202188  0.74834984  0.87216789  1
  Zn  Zn103  1  -0.00728081  0.37109890  0.87067558  1
  Zn  Zn104  1  0.25193490  0.86957690  0.12483156  1
  Zn  Zn105  1  0.86925707  0.37841461  0.00424761  1
  Zn  Zn106  1  0.87097599  0.62538524  0.74691764  1
  Zn  Zn107  1  0.17027253  0.17105669  0.21956432  1
  Zn  Zn108  1  0.18172360  0.19821510  0.68329683  1
  Zn  Zn109  1  0.19325216  0.68455532  0.18673564  1
  Zn  Zn110  1  0.18880796  0.69277862  0.68969760  1
  Zn  Zn111  1  0.68779722  0.18592179  0.18422061  1
  Zn  Zn112  1  0.69504324  0.18615411  0.68744960  1
  Zn  Zn113  1  0.68552672  0.68160556  0.18589356  1
  Zn  Zn114  1  0.68836342  0.68087758  0.68135931  1
  Zn  Zn115  1  0.31479642  0.31222184  0.31444616  1
  Zn  Zn116  1  0.31256166  0.31654717  0.80667486  1
  Zn  Zn117  1  0.31239017  0.81176039  0.31662618  1
  Zn  Zn118  1  0.31456978  0.81189188  0.81264473  1
  Zn  Zn119  1  0.81630514  0.31298065  0.31709265  1
  Zn  Zn120  1  0.80661578  0.31361382  0.81334074  1
  Zn  Zn121  1  0.81268930  0.81162531  0.31130317  1
  Zn  Zn122  1  0.81114464  0.81476326  0.81384807  1
  Zn  Zn123  1  0.18822420  0.43701432  0.43986245  1
  Zn  Zn124  1  0.19270683  0.43610562  0.93846953  1
  Zn  Zn125  1  0.18899301  0.93222478  0.43674593  1
  Zn  Zn126  1  0.16770801  0.96171384  0.90629690  1
  Zn  Zn127  1  0.68496584  0.43835737  0.43885700  1
  Zn  Zn128  1  0.68592270  0.43803380  0.93127280  1
  Zn  Zn129  1  0.68631684  0.94153420  0.43648510  1
  Zn  Zn130  1  0.68543079  0.93507738  0.93799538  1
  Zn  Zn131  1  0.31210751  0.05997009  0.06435958  1
  Zn  Zn132  1  0.31184702  0.06487075  0.56048643  1
  Zn  Zn133  1  0.31400899  0.56197363  0.06530486  1
  Zn  Zn134  1  0.31442169  0.56715992  0.56284830  1
  Zn  Zn135  1  0.81291487  0.06734244  0.06797172  1
  Zn  Zn136  1  0.81370361  0.06688160  0.56442232  1
  Zn  Zn137  1  0.81120799  0.56156536  0.06201992  1
  Zn  Zn138  1  0.81253688  0.56617236  0.56309104  1
  Zn  Zn139  1  0.44152781  0.43427982  0.18689657  1
  Zn  Zn140  1  0.43793015  0.43652174  0.68723364  1
  Zn  Zn141  1  0.44090560  0.93223927  0.18796805  1
  Zn  Zn142  1  0.43853096  0.93806961  0.68603808  1
  Zn  Zn143  1  0.93738003  0.43035560  0.18320346  1
  Zn  Zn144  1  0.93701288  0.43992988  0.68530492  1
  Zn  Zn145  1  0.93379714  0.93794518  0.18660303  1
  Zn  Zn146  1  0.93607814  0.93945233  0.68901708  1
  Zn  Zn147  1  0.06581059  0.06142043  0.32123469  1
  Zn  Zn148  1  0.07510534  0.08167936  0.78141179  1
  Zn  Zn149  1  0.06567793  0.55917249  0.31294463  1
  Zn  Zn150  1  0.05804495  0.56526276  0.81089505  1
  Zn  Zn151  1  0.56275005  0.05673618  0.31516602  1
  Zn  Zn152  1  0.56044941  0.06593805  0.81407125  1
  Zn  Zn153  1  0.57030215  0.54698005  0.31675372  1
  Zn  Zn154  1  0.56182350  0.55924952  0.80920771  1
  Zn  Zn155  1  0.43163297  0.18913492  0.43749380  1
  Zn  Zn156  1  0.44571493  0.18922707  0.93904395  1
  Zn  Zn157  1  0.46411393  0.66472120  0.36339283  1
  Zn  Zn158  1  0.43831167  0.68654199  0.93444066  1
  Zn  Zn159  1  0.93713704  0.18657832  0.43917227  1
  Zn  Zn160  1  0.93472550  0.18669521  0.93500976  1
  Zn  Zn161  1  0.93310907  0.68843428  0.43519167  1
  Zn  Zn162  1  0.93491879  0.68361030  0.93641360  1
  Zn  Zn163  1  0.06135064  0.31525348  0.06358962  1
  Zn  Zn164  1  0.06362133  0.32150752  0.56528240  1
  Zn  Zn165  1  0.06436526  0.81223725  0.05903893  1
  Zn  Zn166  1  0.06055406  0.82181082  0.56192623  1
  Zn  Zn167  1  0.56071704  0.31145362  0.06079541  1
  Zn  Zn168  1  0.56458964  0.31093669  0.56664969  1
  Zn  Zn169  1  0.56055751  0.80976665  0.06713355  1
  Zn  Zn170  1  0.56191435  0.81092639  0.55752159  1
  O  O171  1  0.13067422  0.10983617  0.12142015  1
  O  O172  1  0.12903386  0.10355766  0.67947751  1
  O  O173  1  0.12126229  0.61825374  0.11704217  1
  O  O174  1  0.12506759  0.61620905  0.62778446  1
  O  O175  1  0.61232928  0.12729929  0.11741452  1
  O  O176  1  0.62064404  0.12075093  0.61970602  1
  O  O177  1  0.62163107  0.61245323  0.11944624  1
  O  O178  1  0.62125968  0.61953787  0.60859818  1
  O  O179  1  0.38644066  0.38435686  0.37104477  1
  O  O180  1  0.37196464  0.38163473  0.88358191  1
  O  O181  1  0.38249282  0.87545760  0.38328894  1
  O  O182  1  0.38086818  0.88288474  0.88054692  1
  O  O183  1  0.88421414  0.38038966  0.38646865  1
  O  O184  1  0.87458348  0.38637668  0.87868792  1
  O  O185  1  0.87965341  0.88276131  0.37819691  1
  O  O186  1  0.88147243  0.87854030  0.88292670  1
  O  O187  1  0.25214914  -0.00228304  0.36086996  1
  O  O188  1  0.26882599  0.01364909  0.88721270  1
  O  O189  1  0.25972476  0.50006152  0.37107121  1
  O  O190  1  0.26230604  0.49769713  0.86627095  1
  O  O191  1  0.75649739  0.00975770  0.36995431  1
  O  O192  1  0.76387268  -0.01170625  0.87512469  1
  O  O193  1  0.75735995  0.50367374  0.36511350  1
  O  O194  1  0.75324350  0.50210880  0.86380670  1
  O  O195  1  0.24821389  0.49141507  0.13374605  1
  O  O196  1  0.24460151  0.49751196  0.62924480  1
  O  O197  1  0.24423296  0.99223294  0.13285088  1
  O  O198  1  0.26105877  0.98286458  0.62597331  1
  O  O199  1  0.74356507  0.50269584  0.13747801  1
  O  O200  1  0.74702520  0.50332103  0.63336797  1
  O  O201  1  0.75227095  0.99020683  0.13482674  1
  O  O202  1  0.73752963  0.99969370  0.62583926  1
  O  O203  1  0.00730735  0.37260322  0.26040029  1
  O  O204  1  0.01459605  0.38548774  0.75266653  1
  O  O205  1  0.00423330  0.86835641  0.25372765  1
  O  O206  1  -0.00116804  0.86765285  0.75999366  1
  O  O207  1  0.50730070  0.36544714  0.25569243  1
  O  O208  1  0.49418195  0.37050413  0.75480803  1
  O  O209  1  0.51046338  0.87819612  0.26185759  1
  O  O210  1  0.50952838  0.86772425  0.75267484  1
  O  O211  1  0.49426361  0.12785719  0.24591788  1
  O  O212  1  0.49099297  0.13153441  0.74499693  1
  O  O213  1  0.50978516  0.62584177  0.26850747  1
  O  O214  1  0.49388373  0.63745634  0.75269355  1
  O  O215  1  1.00055293  0.14277951  0.25801824  1
  O  O216  1  0.97722650  0.13121418  0.76371643  1
  O  O217  1  0.99637012  0.62662089  0.24414870  1
  O  O218  1  0.99498389  0.63915214  0.74658599  1
  O  O219  1  0.37977317  0.25474831  0.01251698  1
  O  O220  1  0.36467603  0.24446284  0.51531693  1
  O  O221  1  0.37303815  0.75393560  0.00386278  1
  O  O222  1  0.37486242  0.76068280  0.51278921  1
  O  O223  1  0.85502806  0.24948424  -0.00779863  1
  O  O224  1  0.87136919  0.25592399  0.50978130  1
  O  O225  1  0.86440278  0.75308443  0.00116461  1
  O  O226  1  0.86851799  0.75782524  0.50465288  1
  O  O227  1  0.13649644  0.25411610  0.50658549  1
  O  O228  1  0.12231582  0.23882181  0.99921371  1
  O  O229  1  0.12257938  0.75537200  0.48659167  1
  O  O230  1  0.13654175  0.73965849  1.00249087  1
  O  O231  1  0.63359130  0.23931361  0.50467846  1
  O  O232  1  0.63083799  0.24296544  0.99436366  1
  O  O233  1  0.63681365  0.73951294  0.50354248  1
  O  O234  1  0.62919819  0.74293796  0.99704297  1
  O  O235  1  0.49372741  0.24335835  0.13543296  1
  O  O236  1  0.49171316  0.24400865  0.62542608  1
  O  O237  1  0.48705561  0.74394954  0.12542546  1
  O  O238  1  0.49228429  0.75596412  0.63269247  1
  O  O239  1  1.00274250  0.25261517  0.14026202  1
  O  O240  1  0.98826599  0.25431037  0.62271256  1
  O  O241  1  1.00028532  0.74056864  0.12892247  1
  O  O242  1  0.99332917  0.75480443  0.63148232  1
  O  O243  1  -0.00304437  0.26251854  0.37165033  1
  O  O244  1  0.01461764  0.25415295  0.88304874  1
  O  O245  1  0.00595383  0.75284976  0.36811975  1
  O  O246  1  -0.00508721  0.75569210  0.86737577  1
  O  O247  1  0.49060534  0.25782263  0.36219616  1
  O  O248  1  0.51405715  0.25263443  0.87469738  1
  O  O249  1  0.49921499  0.77008115  0.38160376  1
  O  O250  1  0.50495581  0.75726928  0.86601064  1
  O  O251  1  0.24633621  0.13905521  0.50298693  1
  O  O252  1  0.24245076  0.12341818  0.99608708  1
  O  O253  1  0.25197824  0.62629405  0.48538145  1
  O  O254  1  0.24247590  0.63013936  1.00355373  1
  O  O255  1  0.74389252  0.13253095  0.49336876  1
  O  O256  1  0.73480873  0.12690833  1.00297968  1
  O  O257  1  0.74861927  0.63322236  0.49190977  1
  O  O258  1  0.73830596  0.63147772  0.99955081  1
  O  O259  1  0.26266469  0.37819368  0.01246331  1
  O  O260  1  0.24548484  0.36840805  0.51358225  1
  O  O261  1  0.26699474  0.86839660  0.00134241  1
  O  O262  1  0.25859443  0.87014928  0.50782952  1
  O  O263  1  0.74541294  0.36405939  -0.00063508  1
  O  O264  1  0.76030607  0.36581151  0.48897264  1
  O  O265  1  0.75076802  0.86772378  0.00837606  1
  O  O266  1  0.75405554  0.86763457  0.49766542  1
  O  O267  1  0.13255028  0.48969021  0.24427683  1
  O  O268  1  0.13212813  0.50040851  0.74607183  1
  O  O269  1  0.13021648  0.98951439  0.24011533  1
  O  O270  1  0.13579748  0.98337465  0.79277509  1
  O  O271  1  0.63493250  0.48602318  0.24311385  1
  O  O272  1  0.63290798  0.50818436  0.73253360  1
  O  O273  1  0.63799580  0.99013572  0.25493346  1
  O  O274  1  0.62400737  0.99359852  0.74442259  1
  O  O275  1  0.36869875  0.00304461  0.24818057  1
  O  O276  1  0.38344508  0.00900436  0.76119519  1
  O  O277  1  0.36497471  0.49103468  0.25344045  1
  O  O278  1  0.36834337  0.50933011  0.75381638  1
  O  O279  1  0.86560181  -0.00084402  0.26102699  1
  O  O280  1  0.87250876  0.00642182  0.75872037  1
  O  O281  1  0.87006058  0.50133474  0.25306970  1
  O  O282  1  0.86471223  0.50135057  0.75278698  1
  O  O283  1  0.11644981  0.38249225  0.36781642  1
  O  O284  1  0.12775946  0.36976974  0.87028193  1
  O  O285  1  0.12012878  0.86523833  0.36599178  1
  O  O286  1  0.10477934  0.86487001  0.89154896  1
  O  O287  1  0.60968117  0.38215461  0.36604842  1
  O  O288  1  0.62064737  0.35951567  0.87992194  1
  O  O289  1  0.61432771  0.87881329  0.37046141  1
  O  O290  1  0.61845841  0.86852135  0.86689952  1
  O  O291  1  0.38698950  0.13062379  0.12704518  1
  O  O292  1  0.37942487  0.12900054  0.63333060  1
  O  O293  1  0.37974935  0.63592228  0.12410612  1
  O  O294  1  0.37219520  0.63458292  0.63618282  1
  O  O295  1  0.87157652  0.13580519  0.13153999  1
  O  O296  1  0.87554171  0.13952126  0.63088994  1
  O  O297  1  0.88270950  0.62451845  0.13066603  1
  O  O298  1  0.87951851  0.64136715  0.62278384  1
  O  O299  1  0.25827985  0.25946247  0.13496529  1
  O  O300  1  0.25319835  0.26054345  0.61972186  1
  O  O301  1  0.26248938  0.74883070  0.11457777  1
  O  O302  1  0.25930929  0.75839382  0.62285391  1
  O  O303  1  0.74372854  0.24920902  0.10701280  1
  O  O304  1  0.75904279  0.24934511  0.61211853  1
  O  O305  1  0.74904790  0.75364953  0.11414526  1
  O  O306  1  0.75706096  0.75224862  0.61463474  1
  O  O307  1  0.25576650  0.25627554  0.39565811  1
  O  O308  1  0.24723674  0.24438946  0.87634428  1
  O  O309  1  0.24227046  0.73952761  0.37516002  1
  O  O310  1  0.25152280  0.75402874  0.88960446  1
  O  O311  1  0.75799349  0.23788417  0.38464251  1
  O  O312  1  0.73573239  0.25216577  0.88510864  1
  O  O313  1  0.75757756  0.73908327  0.38365643  1
  O  O314  1  0.74241132  0.75055960  0.88672766  1
  O  O315  1  0.00717071  0.11625757  -0.00356517  1
  O  O316  1  -0.00166899  0.10889480  0.49410830  1
  O  O317  1  0.00629990  0.61529819  0.00460686  1
  O  O318  1  -0.00499203  0.61271063  0.49730436  1
  O  O319  1  0.50662550  0.11619372  0.00838839  1
  O  O320  1  0.50703538  0.12649849  0.50377198  1
  O  O321  1  0.51221462  0.62394785  -0.00144294  1
  O  O322  1  0.51666426  0.63312522  0.47915280  1
  O  O323  1  0.50199691  0.36191666  0.48390076  1
  O  O324  1  0.48524236  0.37776054  1.00026065  1
  O  O325  1  0.49447313  0.87903713  0.49193482  1
  O  O326  1  0.49432506  0.87973622  0.99657371  1
  O  O327  1  0.99368617  0.38513915  0.49492051  1
  O  O328  1  1.00407964  0.39011391  0.99584847  1
  O  O329  1  0.99187503  0.88358127  0.49031645  1
  O  O330  1  0.98874885  0.87895109  0.99862177  1
  O  O331  1  0.48812126  0.48610802  0.37685599  1
  O  O332  1  0.48689864  0.49970831  0.87675599  1
  O  O333  1  0.49547152  0.98934629  0.37819002  1
  O  O334  1  0.49102207  0.99605677  0.88330239  1
  O  O335  1  0.99489996  0.49301527  0.38084540  1
  O  O336  1  0.99029973  0.50073418  0.88062878  1
  O  O337  1  0.99183636  0.99473177  0.37659323  1
  O  O338  1  0.98611234  0.98957604  0.88894697  1
  O  O339  1  0.00789404  -0.00684828  0.11460129  1
  O  O340  1  -0.00229451  -0.00733886  0.60844016  1
  O  O341  1  0.00755290  0.50566516  0.11756500  1
  O  O342  1  0.00785652  0.50479557  0.61703551  1
  O  O343  1  0.49667506  0.00628869  0.11688297  1
  O  O344  1  0.51099528  0.00759834  0.62286962  1
  O  O345  1  0.50849423  0.50447944  0.12496402  1
  O  O346  1  0.50942268  0.50214230  0.62406604  1
  O  O347  1  0.24365708  0.37906511  0.24651523  1
  O  O348  1  0.24327755  0.38981741  0.74142704  1
  O  O349  1  0.24447783  0.87948805  0.24785037  1
  O  O350  1  0.25215639  0.87006282  0.73549356  1
  O  O351  1  0.74213561  0.37977397  0.25895287  1
  O  O352  1  0.74812115  0.39226490  0.75035048  1
  O  O353  1  0.74479432  0.88078707  0.24518728  1
  O  O354  1  0.73479629  0.87468127  0.74804493  1
  O  O355  1  0.27007565  0.11264790  0.23228055  1
  O  O356  1  0.26788959  0.12445122  0.76546556  1
  O  O357  1  0.24487619  0.61073693  0.26120985  1
  O  O358  1  0.25634109  0.61582761  0.74737325  1
  O  O359  1  0.74663156  0.11877061  0.25724600  1
  O  O360  1  0.76497197  0.12260760  0.74908877  1
  O  O361  1  0.75471196  0.61585987  0.25597956  1
  O  O362  1  0.75218470  0.61615523  0.75037693  1
  O  O363  1  0.36674713  0.12253048  0.36495109  1
  O  O364  1  0.37482075  0.12297465  0.87339885  1
  O  O365  1  0.36761131  0.60330448  0.37448084  1
  O  O366  1  0.37705735  0.61959372  0.86139630  1
  O  O367  1  0.86702451  0.11834017  0.37005577  1
  O  O368  1  0.87099086  0.11460512  0.87224615  1
  O  O369  1  0.86689475  0.61708885  0.36856658  1
  O  O370  1  0.87017878  0.61189629  0.87262219  1
  O  O371  1  0.13402672  0.38115157  0.12976377  1
  O  O372  1  0.13158025  0.38826150  0.63456531  1
  O  O373  1  0.12794182  0.88259364  0.12755629  1
  O  O374  1  0.14249728  0.87246989  0.62556600  1
  O  O375  1  0.61868644  0.38451124  0.13294087  1
  O  O376  1  0.62430939  0.39370249  0.61542062  1
  O  O377  1  0.63512285  0.87048174  0.13335887  1
  O  O378  1  0.62385227  0.88429021  0.62964135  1
  O  O379  1  0.11282653  0.26800316  0.24534981  1
  O  O380  1  0.13332824  0.26734614  0.76306179  1
  O  O381  1  0.12108325  0.75397855  0.25306969  1
  O  O382  1  0.11566209  0.75599215  0.75455085  1
  O  O383  1  0.61834734  0.25859117  0.24615093  1
  O  O384  1  0.62773368  0.24381705  0.76259022  1
  O  O385  1  0.63627233  0.76128062  0.25211772  1
  O  O386  1  0.61909163  0.75453944  0.74969256  1
  O  O387  1  0.38094132  0.24197240  0.24115671  1
  O  O388  1  0.37201236  0.24228263  0.73819188  1
  O  O389  1  0.37014231  0.75070427  0.23738867  1
  O  O390  1  0.38260458  0.74527975  0.74332707  1
  O  O391  1  0.89097149  0.25401011  0.25267505  1
  O  O392  1  0.86789619  0.24995859  0.73647940  1
  O  O393  1  0.88257882  0.74130647  0.24814958  1
  O  O394  1  0.87905741  0.75258495  0.74128793  1
  O  O395  1  0.37167242  0.49507602  0.49149520  1
  O  O396  1  0.37426429  0.49441173  0.99195459  1
  O  O397  1  0.37592672  0.98882721  0.49944523  1
  O  O398  1  0.38561697  0.99148651  0.99781934  1
  O  O399  1  0.87997041  0.49325233  0.49835719  1
  O  O400  1  0.88167090  0.50101047  0.99163866  1
  O  O401  1  0.87400507  0.99671073  0.48888457  1
  O  O402  1  0.87847909  0.99734049  0.99696888  1
  O  O403  1  0.11666252  0.01082815  0.00315363  1
  O  O404  1  0.11327225  -0.00310998  0.49264994  1
  O  O405  1  0.12134091  0.50612942  0.00317714  1
  O  O406  1  0.11593329  0.49568959  0.50975847  1
  O  O407  1  0.61267008  0.00590435  -0.00777978  1
  O  O408  1  0.62521703  0.01292578  0.50765110  1
  O  O409  1  0.62457011  0.50458424  0.00716683  1
  O  O410  1  0.62971574  0.51299045  0.50986580  1
  O  O411  1  0.37031933  0.36601898  0.12106472  1
  O  O412  1  0.36351218  0.36805199  0.62905681  1
  O  O413  1  0.37799993  0.86187908  0.11797577  1
  O  O414  1  0.37004249  0.86864381  0.61999793  1
  O  O415  1  0.87950365  0.36510125  0.11620337  1
  O  O416  1  0.87870310  0.36679320  0.61480472  1
  O  O417  1  0.86120938  0.87127536  0.12087175  1
  O  O418  1  0.87086865  0.86755577  0.61872669  1
  O  O419  1  0.14766142  0.13319181  0.32847941  1
  O  O420  1  0.13751485  0.13646017  0.88155437  1
  O  O421  1  0.13285852  0.63284076  0.37069112  1
  O  O422  1  0.11980037  0.62764152  0.88773757  1
  O  O423  1  0.63292493  0.12122111  0.38366873  1
  O  O424  1  0.61859971  0.13628836  0.88491573  1
  O  O425  1  0.64179407  0.61215973  0.38595213  1
  O  O426  1  0.62470719  0.63069823  0.88200471  1
