# generated using pymatgen
data_V85Zn86O256
_symmetry_space_group_name_H-M   'P 1'
_cell_length_a   16.94462968
_cell_length_b   16.93881612
_cell_length_c   16.93934580
_cell_angle_alpha   90.04021690
_cell_angle_beta   89.98183020
_cell_angle_gamma   89.95966185
_symmetry_Int_Tables_number   1
_chemical_formula_structural   V85Zn86O256
_chemical_formula_sum   'V85 Zn86 O256'
_cell_volume   4861.96169294
_cell_formula_units_Z   1
loop_
 _symmetry_equiv_pos_site_id
 _symmetry_equiv_pos_as_xyz
  1  'x, y, z'
loop_
 _atom_site_type_symbol
 _atom_site_label
 _atom_site_symmetry_multiplicity
 _atom_site_fract_x
 _atom_site_fract_y
 _atom_site_fract_z
 _atom_site_occupancy
  V  V0  1  0.63014322  -0.00064030  0.11905286  1
  V  V1  1  -0.00329789  0.50158194  0.49974559  1
  V  V2  1  0.87837799  -0.00151168  0.37630736  1
  V  V3  1  0.74664605  0.24003153  -0.00005056  1
  V  V4  1  0.74902425  0.12404853  0.86858958  1
  V  V5  1  0.12838948  0.86804658  0.76290564  1
  V  V6  1  0.75229079  0.12637405  0.37552058  1
  V  V7  1  0.12061250  0.62857015  0.49892333  1
  V  V8  1  0.74782831  0.37370244  0.12583962  1
  V  V9  1  0.87356673  0.87836811  0.51428515  1
  V  V10  1  0.48751868  0.38112746  0.38173142  1
  V  V11  1  0.49837226  -0.00629849  0.49745739  1
  V  V12  1  0.24772641  0.12696985  0.37887628  1
  V  V13  1  0.25195983  0.24545327  -0.00686311  1
  V  V14  1  0.12320679  -0.00258823  0.11609116  1
  V  V15  1  0.61798336  0.74936730  0.88605493  1
  V  V16  1  0.74942290  0.37820772  0.62968059  1
  V  V17  1  0.87428250  0.87527693  -0.01774768  1
  V  V18  1  0.62427031  0.62250992  0.51087073  1
  V  V19  1  -0.00365165  0.38060987  0.87341931  1
  V  V20  1  0.12430916  0.50180986  0.62458598  1
  V  V21  1  0.39022925  0.62899346  0.75074805  1
  V  V22  1  0.24356414  0.37975797  0.12085050  1
  V  V23  1  0.01388130  0.49875727  0.00090598  1
  V  V24  1  0.37794522  0.49800150  0.87505293  1
  V  V25  1  0.38598248  0.37207623  -0.00426772  1
  V  V26  1  0.25509426  0.00210390  0.75203251  1
  V  V27  1  0.50412698  -0.00192283  -0.00415889  1
  V  V28  1  0.12678352  0.25034214  0.37877229  1
  V  V29  1  0.24622467  0.63786540  0.87449294  1
  V  V30  1  0.12779664  0.00482245  0.62539019  1
  V  V31  1  -0.00153762  0.37576261  0.37254782  1
  V  V32  1  0.37416388  0.24571280  0.12217022  1
  V  V33  1  0.24795133  0.75227215  0.50216262  1
  V  V34  1  -0.00078337  0.11985183  0.11693253  1
  V  V35  1  0.38521357  0.74582584  0.62885378  1
  V  V36  1  0.62631596  -0.00712950  0.62850954  1
  V  V37  1  0.00558512  0.74935068  0.76420850  1
  V  V38  1  0.60675505  0.86621796  0.75387973  1
  V  V39  1  0.50079257  0.12923600  0.62948516  1
  V  V40  1  0.61523880  0.37674716  0.75724927  1
  V  V41  1  0.00117828  0.25030833  0.24831467  1
  V  V42  1  0.75214296  -0.00893615  0.75086735  1
  V  V43  1  0.24786351  0.86078315  0.11923661  1
  V  V44  1  0.87604714  0.61973808  0.75852004  1
  V  V45  1  0.49977474  0.51301422  0.00372751  1
  V  V46  1  0.12741555  0.12124767  -0.00619537  1
  V  V47  1  0.74740670  0.75647546  0.50365541  1
  V  V48  1  0.75039312  0.25135448  0.50353304  1
  V  V49  1  0.74804920  0.50035551  0.25298147  1
  V  V50  1  0.37504923  0.12846160  0.75613466  1
  V  V51  1  0.62579115  0.12321102  0.50333320  1
  V  V52  1  0.87399279  0.62956467  0.24932559  1
  V  V53  1  0.38065233  -0.00569650  0.87314955  1
  V  V54  1  0.50680560  0.12199568  0.12322595  1
  V  V55  1  0.37400193  -0.00946563  0.37526607  1
  V  V56  1  0.87590824  0.23944558  0.62820790  1
  V  V57  1  0.87654399  0.12443315  0.24779234  1
  V  V58  1  0.00013718  0.00528842  0.51090843  1
  V  V59  1  -0.00282629  0.24726563  0.74346506  1
  V  V60  1  0.62114945  0.37421442  0.25319010  1
  V  V61  1  0.12095843  0.87678740  0.24693181  1
  V  V62  1  0.37825813  0.12049838  0.24832585  1
  V  V63  1  0.37487898  0.86967106  -0.00245208  1
  V  V64  1  0.12792335  0.24841307  0.87184769  1
  V  V65  1  0.25190967  0.87579555  0.62523160  1
  V  V66  1  0.61747993  0.25143379  0.88028504  1
  V  V67  1  0.39124185  0.74274088  0.12274982  1
  V  V68  1  0.62254946  0.24788276  0.37650234  1
  V  V69  1  0.87211456  0.38488902  -0.00255323  1
  V  V70  1  0.87411780  0.25045158  0.12360492  1
  V  V71  1  0.13005440  0.64208146  0.00077512  1
  V  V72  1  0.87658651  0.75193425  0.63010487  1
  V  V73  1  0.25315981  0.37082954  0.60649169  1
  V  V74  1  0.75284213  0.49922677  0.76307471  1
  V  V75  1  0.24939775  -0.00129219  0.24494363  1
  V  V76  1  0.25187145  0.62038517  0.36773688  1
  V  V77  1  0.75134511  -0.00565380  0.24526605  1
  V  V78  1  0.61700462  0.50724593  0.12848758  1
  V  V79  1  0.87404507  0.50138378  0.37768170  1
  V  V80  1  0.50004872  0.74886078  0.27975647  1
  V  V81  1  0.12996174  0.37655524  0.74924795  1
  V  V82  1  0.74424066  0.63176018  0.37881283  1
  V  V83  1  0.12125227  0.75305626  0.37390645  1
  V  V84  1  0.00295874  0.62212834  0.12597700  1
  Zn  Zn85  1  0.74862622  0.86229549  0.11334707  1
  Zn  Zn86  1  0.25207454  0.50238843  0.75068344  1
  Zn  Zn87  1  0.38448422  0.86259696  0.49204383  1
  Zn  Zn88  1  0.75254921  0.63256287  0.88536623  1
  Zn  Zn89  1  0.61829330  0.86729155  0.26039017  1
  Zn  Zn90  1  0.87349757  0.37535771  0.50318692  1
  Zn  Zn91  1  0.49836046  0.24761940  0.25047782  1
  Zn  Zn92  1  0.47568175  0.49154481  0.51111014  1
  Zn  Zn93  1  0.90950863  0.08548175  0.79264948  1
  Zn  Zn94  1  0.12081627  0.13127704  0.50741741  1
  Zn  Zn95  1  -0.00103148  0.87623427  0.37632575  1
  Zn  Zn96  1  0.63362362  0.63982927  0.01504893  1
  Zn  Zn97  1  0.61867661  0.50806112  0.63400206  1
  Zn  Zn98  1  0.24838730  0.49992307  0.24605011  1
  Zn  Zn99  1  0.12208676  0.37953945  0.24227861  1
  Zn  Zn100  1  0.49591520  0.25462337  0.75473338  1
  Zn  Zn101  1  -0.00194717  0.75223650  0.24541232  1
  Zn  Zn102  1  0.38628144  0.61330430  0.24343612  1
  Zn  Zn103  1  -0.00025159  0.62684380  0.62726022  1
  Zn  Zn104  1  0.86385940  0.74783420  0.11283815  1
  Zn  Zn105  1  -0.00461234  -0.01613103  -0.05529877  1
  Zn  Zn106  1  0.37885499  0.26198004  0.61134871  1
  Zn  Zn107  1  0.18715441  0.18878389  0.18608194  1
  Zn  Zn108  1  0.19360941  0.18874464  0.68689361  1
  Zn  Zn109  1  0.18185292  0.68783067  0.18471033  1
  Zn  Zn110  1  0.18979212  0.68636056  0.68872486  1
  Zn  Zn111  1  0.68628614  0.18352117  0.18856361  1
  Zn  Zn112  1  0.68652508  0.18884788  0.69261210  1
  Zn  Zn113  1  0.67956886  0.69317679  0.19710377  1
  Zn  Zn114  1  0.69401988  0.69199278  0.69212875  1
  Zn  Zn115  1  0.31145370  0.30918841  0.30776838  1
  Zn  Zn116  1  0.31349050  0.31371721  0.81068840  1
  Zn  Zn117  1  0.31186957  0.80604713  0.30676492  1
  Zn  Zn118  1  0.31860947  0.81226488  0.81238604  1
  Zn  Zn119  1  0.81233851  0.31299224  0.31349023  1
  Zn  Zn120  1  0.81113652  0.31128952  0.81445068  1
  Zn  Zn121  1  0.81342135  0.81306111  0.31532215  1
  Zn  Zn122  1  0.80719785  0.81002022  0.81443760  1
  Zn  Zn123  1  0.18246882  0.43961889  0.43251531  1
  Zn  Zn124  1  0.19421420  0.43736265  0.93552042  1
  Zn  Zn125  1  0.18845863  0.93910044  0.43690261  1
  Zn  Zn126  1  0.19454834  0.93841032  0.93635958  1
  Zn  Zn127  1  0.68471319  0.43882477  0.44017454  1
  Zn  Zn128  1  0.68483740  0.43928269  0.94094957  1
  Zn  Zn129  1  0.68952299  0.93482172  0.43677669  1
  Zn  Zn130  1  0.68938294  0.93282785  0.93117143  1
  Zn  Zn131  1  0.31176324  0.05893500  0.05977330  1
  Zn  Zn132  1  0.33070380  0.09523749  0.54639847  1
  Zn  Zn133  1  0.31094716  0.56311605  0.05949503  1
  Zn  Zn134  1  0.30911241  0.56353133  0.56391298  1
  Zn  Zn135  1  0.81837098  0.05238281  0.05266379  1
  Zn  Zn136  1  0.81059562  0.06167709  0.56931544  1
  Zn  Zn137  1  0.81147279  0.56206242  0.06436288  1
  Zn  Zn138  1  0.81009860  0.56480443  0.57057363  1
  Zn  Zn139  1  0.43179509  0.43602727  0.18887743  1
  Zn  Zn140  1  0.43695661  0.44196441  0.68823534  1
  Zn  Zn141  1  0.44046450  0.92978744  0.18776458  1
  Zn  Zn142  1  0.43642918  0.93778412  0.68071706  1
  Zn  Zn143  1  0.93753844  0.44179282  0.18569618  1
  Zn  Zn144  1  0.93604682  0.43538096  0.68763534  1
  Zn  Zn145  1  0.93443491  0.93418613  0.17688924  1
  Zn  Zn146  1  0.95323947  0.94584463  0.71644358  1
  Zn  Zn147  1  0.06128600  0.06227172  0.31014630  1
  Zn  Zn148  1  0.07862456  0.06759539  0.80380210  1
  Zn  Zn149  1  0.06752902  0.55952794  0.30778290  1
  Zn  Zn150  1  0.06386381  0.56411226  0.81537235  1
  Zn  Zn151  1  0.57482874  0.03514329  0.32283178  1
  Zn  Zn152  1  0.56712727  0.06495103  0.81482223  1
  Zn  Zn153  1  0.55970706  0.56501311  0.31841492  1
  Zn  Zn154  1  0.56456745  0.56362674  0.82042496  1
  Zn  Zn155  1  0.43953489  0.18635704  0.43665404  1
  Zn  Zn156  1  0.43891061  0.17970629  0.93743329  1
  Zn  Zn157  1  0.42376277  0.65920479  0.45005688  1
  Zn  Zn158  1  0.44264547  0.69086684  0.93386813  1
  Zn  Zn159  1  0.93874762  0.18765775  0.44090798  1
  Zn  Zn160  1  0.93762188  0.19499187  0.93852505  1
  Zn  Zn161  1  0.93514652  0.68989597  0.43794752  1
  Zn  Zn162  1  0.93676829  0.68847460  0.94003775  1
  Zn  Zn163  1  0.06188328  0.30875645  0.05826869  1
  Zn  Zn164  1  0.06214504  0.31576720  0.56056893  1
  Zn  Zn165  1  0.04837611  0.81256144  0.05758749  1
  Zn  Zn166  1  0.05958104  0.81913757  0.56844905  1
  Zn  Zn167  1  0.56248221  0.31212647  0.06494415  1
  Zn  Zn168  1  0.56263405  0.31785718  0.56583387  1
  Zn  Zn169  1  0.56339115  0.82156036  0.06697629  1
  Zn  Zn170  1  0.56551523  0.81234603  0.56380168  1
  O  O171  1  0.11887631  0.12001760  0.11436209  1
  O  O172  1  0.13455299  0.11041529  0.62487457  1
  O  O173  1  0.11978292  0.62597201  0.10971626  1
  O  O174  1  0.12456128  0.61699431  0.61846091  1
  O  O175  1  0.61172280  0.12373715  0.12248915  1
  O  O176  1  0.61532723  0.11987312  0.62563620  1
  O  O177  1  0.62515806  0.61005492  0.13211673  1
  O  O178  1  0.63551310  0.62633170  0.61525482  1
  O  O179  1  0.38953666  0.36577029  0.36929910  1
  O  O180  1  0.36895347  0.38444613  0.88354240  1
  O  O181  1  0.36328862  0.88650748  0.37586320  1
  O  O182  1  0.37408952  0.88399602  0.88279411  1
  O  O183  1  0.88021588  0.38301341  0.37670691  1
  O  O184  1  0.88514396  0.36827650  0.88518899  1
  O  O185  1  0.87808123  0.88487861  0.38428501  1
  O  O186  1  0.87355152  0.87387420  0.88082680  1
  O  O187  1  0.25400475  0.00575643  0.36416902  1
  O  O188  1  0.26159303  -0.00321627  0.86010016  1
  O  O189  1  0.24576081  0.51866103  0.37952470  1
  O  O190  1  0.26343109  0.50996652  0.87748992  1
  O  O191  1  0.76504451  0.00910212  0.36971019  1
  O  O192  1  0.74428465  0.00903880  0.86007944  1
  O  O193  1  0.75692102  0.50457753  0.37189568  1
  O  O194  1  0.75030588  0.49740533  0.86504767  1
  O  O195  1  0.25010363  0.48120758  0.11396070  1
  O  O196  1  0.23869745  0.49251551  0.62456763  1
  O  O197  1  0.24175934  0.99078046  0.12676730  1
  O  O198  1  0.24960647  0.98974007  0.63405217  1
  O  O199  1  0.74191896  0.49076136  0.13572281  1
  O  O200  1  0.74585404  0.49119378  0.63642081  1
  O  O201  1  0.74609452  1.00259228  0.13002878  1
  O  O202  1  0.73394417  1.00787291  0.63647074  1
  O  O203  1  -0.00234605  0.36790004  0.25342290  1
  O  O204  1  0.01104782  0.37184032  0.75601521  1
  O  O205  1  0.01054606  0.87634726  0.24868056  1
  O  O206  1  0.01393584  0.85710115  0.74633158  1
  O  O207  1  0.50920127  0.37051852  0.25883307  1
  O  O208  1  0.51175595  0.37420582  0.75103749  1
  O  O209  1  0.49707812  0.85413832  0.25015689  1
  O  O210  1  0.50877472  0.88012691  0.74962212  1
  O  O211  1  0.48801214  0.12038755  0.24228508  1
  O  O212  1  0.49688011  0.12895169  0.74578583  1
  O  O213  1  0.49776710  0.64010570  0.26017752  1
  O  O214  1  0.48817806  0.62037778  0.75151624  1
  O  O215  1  0.99506442  0.13133036  0.24038676  1
  O  O216  1  1.00443864  0.14436771  0.74926484  1
  O  O217  1  0.99314920  0.62316998  0.24213450  1
  O  O218  1  0.99688547  0.63307215  0.74915569  1
  O  O219  1  0.36886153  0.25247465  -0.00109534  1
  O  O220  1  0.36459127  0.20405752  0.51523801  1
  O  O221  1  0.38180684  0.75795118  0.00871107  1
  O  O222  1  0.36273781  0.74657456  0.50898831  1
  O  O223  1  0.86830817  0.26127708  0.00748801  1
  O  O224  1  0.86829813  0.25281307  0.50744542  1
  O  O225  1  0.87888441  0.76499667  -0.00257821  1
  O  O226  1  0.87105415  0.75891862  0.50810613  1
  O  O227  1  0.11527237  0.24692009  0.48435664  1
  O  O228  1  0.13180395  0.24343921  0.99015245  1
  O  O229  1  0.12709912  0.75102895  0.49472507  1
  O  O230  1  0.12249028  0.74000762  0.99997716  1
  O  O231  1  0.62976496  0.24397616  0.49475012  1
  O  O232  1  0.63650345  0.25920717  0.99412660  1
  O  O233  1  0.64270443  0.74717423  0.50838085  1
  O  O234  1  0.62030333  0.75606183  0.99162041  1
  O  O235  1  0.49314065  0.23965113  0.12529457  1
  O  O236  1  0.49796813  0.24282941  0.62835790  1
  O  O237  1  0.49121219  0.74817419  0.12321389  1
  O  O238  1  0.48365857  0.75382845  0.61807702  1
  O  O239  1  0.99618425  0.24012488  0.12785236  1
  O  O240  1  0.98984548  0.26203579  0.63241118  1
  O  O241  1  0.99534974  0.73403716  0.12576263  1
  O  O242  1  0.98991695  0.74822658  0.62920240  1
  O  O243  1  0.00253995  0.25487807  0.36711554  1
  O  O244  1  0.00859963  0.26188946  0.86878260  1
  O  O245  1  0.01091729  0.75352052  0.37464399  1
  O  O246  1  0.00443371  0.74458618  0.86225844  1
  O  O247  1  0.51082969  0.25247826  0.37401066  1
  O  O248  1  0.51346559  0.24427357  0.87884130  1
  O  O249  1  0.48179601  0.74886176  0.37639904  1
  O  O250  1  0.51708946  0.74857449  0.86933499  1
  O  O251  1  0.23643633  0.11044668  0.48016460  1
  O  O252  1  0.23710375  0.12983047  1.00227959  1
  O  O253  1  0.23859125  0.63875976  0.49082243  1
  O  O254  1  0.23705500  0.62357465  0.99202396  1
  O  O255  1  0.74480954  0.13028025  0.49636274  1
  O  O256  1  0.75506356  0.13648731  0.99674129  1
  O  O257  1  0.74874186  0.63473261  0.49636832  1
  O  O258  1  0.74171343  0.61014311  0.99593918  1
  O  O259  1  0.25759702  0.36477301  0.00543263  1
  O  O260  1  0.24652336  0.37863181  0.50780977  1
  O  O261  1  0.26326707  0.87996579  0.00762110  1
  O  O262  1  0.24969990  0.86495230  0.50576137  1
  O  O263  1  0.75765013  0.37030685  0.00585651  1
  O  O264  1  0.74786447  0.36867331  0.51030018  1
  O  O265  1  0.76568668  0.88532170  -0.00090335  1
  O  O266  1  0.75971958  0.86956609  0.49710463  1
  O  O267  1  0.13461010  0.49145924  0.25243926  1
  O  O268  1  0.12504928  0.49422470  0.74161049  1
  O  O269  1  0.12870190  0.99352728  0.24086409  1
  O  O270  1  0.13851157  0.99085595  0.74276029  1
  O  O271  1  0.62655275  0.49188812  0.24826470  1
  O  O272  1  0.63239004  0.49327619  0.75438089  1
  O  O273  1  0.64059698  1.01876042  0.22959800  1
  O  O274  1  0.62958604  0.99141597  0.74595760  1
  O  O275  1  0.37100803  0.00181549  0.25406163  1
  O  O276  1  0.37329138  0.00149715  0.75701019  1
  O  O277  1  0.36208768  0.50362568  0.24171377  1
  O  O278  1  0.37287580  0.51043529  0.75831170  1
  O  O279  1  0.87225056  0.00499323  0.25637333  1
  O  O280  1  0.85573569  0.00228290  0.73184571  1
  O  O281  1  0.86918699  0.51003850  0.25605732  1
  O  O282  1  0.86807435  0.50812491  0.74584744  1
  O  O283  1  0.11659019  0.36641672  0.37158402  1
  O  O284  1  0.12147383  0.36767090  0.86854230  1
  O  O285  1  0.12328724  0.87173727  0.36459813  1
  O  O286  1  0.13288613  0.87722876  0.86200548  1
  O  O287  1  0.62077130  0.36574600  0.37045623  1
  O  O288  1  0.63097708  0.36568997  0.86750788  1
  O  O289  1  0.61714625  0.92932634  0.35527378  1
  O  O290  1  0.62376549  0.86606846  0.86203591  1
  O  O291  1  0.38063183  0.12537277  0.12954263  1
  O  O292  1  0.39216330  0.11189995  0.64365094  1
  O  O293  1  0.36720147  0.64082557  0.12313919  1
  O  O294  1  0.36281592  0.63191118  0.64591053  1
  O  O295  1  0.88306005  0.12921339  0.12506487  1
  O  O296  1  0.87341683  0.13927228  0.62518592  1
  O  O297  1  0.88179605  0.62398635  0.13463506  1
  O  O298  1  0.87801652  0.63361908  0.63806421  1
  O  O299  1  0.25457871  0.25135750  0.11038441  1
  O  O300  1  0.24627876  0.26861443  0.62413516  1
  O  O301  1  0.25509293  0.75930344  0.12785458  1
  O  O302  1  0.25273251  0.75602707  0.61829446  1
  O  O303  1  0.75268382  0.25345979  0.11902485  1
  O  O304  1  0.75622423  0.25544282  0.62366174  1
  O  O305  1  0.75161608  0.75049623  0.13744092  1
  O  O306  1  0.76769274  0.74985448  0.61987299  1
  O  O307  1  0.23836911  0.24014057  0.36562912  1
  O  O308  1  0.24334292  0.25468623  0.88505245  1
  O  O309  1  0.23647060  0.74917842  0.38083990  1
  O  O310  1  0.25536639  0.73648837  0.87543189  1
  O  O311  1  0.74098680  0.24628373  0.38052451  1
  O  O312  1  0.74170949  0.24611376  0.88284978  1
  O  O313  1  0.75807597  0.74191565  0.38813395  1
  O  O314  1  0.72632115  0.74679416  0.86067304  1
  O  O315  1  0.01101393  0.12929939  0.00342126  1
  O  O316  1  0.00169002  0.11012027  0.49896674  1
  O  O317  1  0.01128061  0.61777528  0.00152786  1
  O  O318  1  0.00296328  0.61826038  0.50214614  1
  O  O319  1  0.49244003  0.10891240  0.01141943  1
  O  O320  1  0.50919953  0.11475715  0.50959726  1
  O  O321  1  0.50513053  0.61510401  0.00193256  1
  O  O322  1  0.52772272  0.63894005  0.49624921  1
  O  O323  1  0.49862905  0.37174615  0.48647748  1
  O  O324  1  0.48779437  0.37734977  1.00323290  1
  O  O325  1  0.49985374  0.88892379  0.50401919  1
  O  O326  1  0.48713370  0.88920667  1.00832039  1
  O  O327  1  0.99719638  0.38515512  0.49151215  1
  O  O328  1  0.99530902  0.37959037  0.99373989  1
  O  O329  1  0.99195104  0.88805388  0.49889795  1
  O  O330  1  0.98800411  0.88079155  0.99493752  1
  O  O331  1  0.50406672  0.48297024  0.37961979  1
  O  O332  1  0.48709582  0.50424647  0.88619119  1
  O  O333  1  0.48238139  1.01381108  0.38666729  1
  O  O334  1  0.49423984  1.00503308  0.88440947  1
  O  O335  1  0.99291487  0.49700496  0.37988550  1
  O  O336  1  1.00418259  0.48740164  0.88117526  1
  O  O337  1  0.98954602  1.00141959  0.38119015  1
  O  O338  1  0.98810769  1.00707718  0.83269947  1
  O  O339  1  0.00685932  0.01377520  0.12912968  1
  O  O340  1  0.01397706  -0.00572206  0.62311299  1
  O  O341  1  -0.00177370  0.51175040  0.11557387  1
  O  O342  1  0.01026424  0.49833132  0.61953786  1
  O  O343  1  0.50901640  0.00377299  0.12167992  1
  O  O344  1  0.50868703  0.00669734  0.61924567  1
  O  O345  1  0.50719154  0.49092577  0.11818999  1
  O  O346  1  0.50934981  0.48503440  0.61707712  1
  O  O347  1  0.24991726  0.36680032  0.22876083  1
  O  O348  1  0.23792331  0.37980813  0.74867591  1
  O  O349  1  0.23854532  0.87794340  0.24037665  1
  O  O350  1  0.24798238  0.87716057  0.74281812  1
  O  O351  1  0.73890727  0.37862454  0.24896528  1
  O  O352  1  0.74506404  0.38134458  0.74686205  1
  O  O353  1  0.75177476  0.89011608  0.25433438  1
  O  O354  1  0.74189130  0.88926445  0.75209065  1
  O  O355  1  0.25873769  0.11798325  0.25004511  1
  O  O356  1  0.26161447  0.11458599  0.74440476  1
  O  O357  1  0.23823270  0.62667207  0.26243756  1
  O  O358  1  0.24904239  0.62198694  0.76521162  1
  O  O359  1  0.75957975  0.11899959  0.25439235  1
  O  O360  1  0.74605577  0.11538282  0.75823361  1
  O  O361  1  0.75575559  0.61979527  0.26101378  1
  O  O362  1  0.75870596  0.61525158  0.75279111  1
  O  O363  1  0.36487080  0.11757990  0.36324615  1
  O  O364  1  0.37852309  0.11364611  0.86344292  1
  O  O365  1  0.35088553  0.64383657  0.35967881  1
  O  O366  1  0.36784902  0.62274237  0.86752937  1
  O  O367  1  0.87192264  0.12036967  0.36971011  1
  O  O368  1  0.85821786  0.13902806  0.87699485  1
  O  O369  1  0.86825548  0.61870797  0.37091919  1
  O  O370  1  0.87403097  0.62972761  0.86265201  1
  O  O371  1  0.13983588  0.36468643  0.12031897  1
  O  O372  1  0.13254765  0.38199487  0.62991710  1
  O  O373  1  0.12876863  0.87744586  0.12582649  1
  O  O374  1  0.13744320  0.88183498  0.63181434  1
  O  O375  1  0.62859104  0.37783323  0.13737364  1
  O  O376  1  0.63789759  0.36953543  0.63833394  1
  O  O377  1  0.63006008  0.88668565  0.13614584  1
  O  O378  1  0.62095102  0.88452366  0.63693053  1
  O  O379  1  0.11483198  0.25184499  0.25570649  1
  O  O380  1  0.12210010  0.25726878  0.75429239  1
  O  O381  1  0.12105138  0.75921825  0.25652764  1
  O  O382  1  0.11446396  0.75319918  0.74538028  1
  O  O383  1  0.62407634  0.25527892  0.25913186  1
  O  O384  1  0.62395894  0.25934105  0.76198249  1
  O  O385  1  0.60751759  0.75031325  0.26625877  1
  O  O386  1  0.62149693  0.76490215  0.74304091  1
  O  O387  1  0.37696173  0.23701117  0.24157733  1
  O  O388  1  0.37573124  0.24136664  0.74672724  1
  O  O389  1  0.38360705  0.74811768  0.23633752  1
  O  O390  1  0.37472820  0.73765129  0.74559302  1
  O  O391  1  0.88025673  0.24483794  0.24318939  1
  O  O392  1  0.88499660  0.25781709  0.74211885  1
  O  O393  1  0.87914203  0.73649885  0.25687611  1
  O  O394  1  0.88622189  0.74698245  0.74661490  1
  O  O395  1  0.38683090  0.55356912  0.48740838  1
  O  O396  1  0.38210508  0.49274624  0.99653655  1
  O  O397  1  0.38162658  1.00033811  0.49270755  1
  O  O398  1  0.37946755  0.99433104  0.99048730  1
  O  O399  1  0.87981538  0.50075378  0.49746051  1
  O  O400  1  0.88682439  0.48738109  1.00650403  1
  O  O401  1  0.87828688  0.99601996  0.49788377  1
  O  O402  1  0.88750539  0.98782402  0.99451386  1
  O  O403  1  0.11741113  0.00704856  -0.00642767  1
  O  O404  1  0.11643630  -0.00347187  0.50907291  1
  O  O405  1  0.11569948  0.49932036  -0.00355035  1
  O  O406  1  0.11650622  0.50617817  0.50549021  1
  O  O407  1  0.61877031  -0.00700909  0.00879949  1
  O  O408  1  0.62137909  0.00508002  0.51123962  1
  O  O409  1  0.61266652  0.49226353  0.01299615  1
  O  O410  1  0.63119048  0.51650859  0.50509971  1
  O  O411  1  0.36663152  0.36315137  0.11456553  1
  O  O412  1  0.35726486  0.37783423  0.62750228  1
  O  O413  1  0.36746352  0.86453826  0.11837255  1
  O  O414  1  0.36437403  0.86645747  0.62249777  1
  O  O415  1  0.86831621  0.36986876  0.12045512  1
  O  O416  1  0.86167019  0.36945758  0.62501470  1
  O  O417  1  0.87015228  0.86944163  0.11523350  1
  O  O418  1  0.88149688  0.87130946  0.61668523  1
  O  O419  1  0.13067056  0.13294374  0.36950093  1
  O  O420  1  0.12543580  0.13944197  0.87893160  1
  O  O421  1  0.12738085  0.63625403  0.38018754  1
  O  O422  1  0.13735211  0.62143248  0.88608485  1
  O  O423  1  0.63153975  0.13042147  0.37997791  1
  O  O424  1  0.63774096  0.13650122  0.87548198  1
  O  O425  1  0.64131475  0.61915077  0.38526275  1
  O  O426  1  0.62583716  0.63854586  0.88038404  1
