# generated using pymatgen
data_V85Zn86O256
_symmetry_space_group_name_H-M   'P 1'
_cell_length_a   16.93870647
_cell_length_b   16.95347688
_cell_length_c   16.94602796
_cell_angle_alpha   89.97923136
_cell_angle_beta   89.97927233
_cell_angle_gamma   89.97809432
_symmetry_Int_Tables_number   1
_chemical_formula_structural   V85Zn86O256
_chemical_formula_sum   'V85 Zn86 O256'
_cell_volume   4866.38932324
_cell_formula_units_Z   1
loop_
 _symmetry_equiv_pos_site_id
 _symmetry_equiv_pos_as_xyz
  1  'x, y, z'
loop_
 _atom_site_type_symbol
 _atom_site_label
 _atom_site_symmetry_multiplicity
 _atom_site_fract_x
 _atom_site_fract_y
 _atom_site_fract_z
 _atom_site_occupancy
  V  V0  1  0.37964870  0.49309899  0.87307920  1
  V  V1  1  0.12873505  0.12411923  -0.00307230  1
  V  V2  1  0.88166743  0.62260715  0.24680319  1
  V  V3  1  0.74993180  0.25457941  -0.00839427  1
  V  V4  1  0.37540439  0.37393586  0.49807538  1
  V  V5  1  0.38436539  0.87022809  -0.00245784  1
  V  V6  1  0.12682574  0.25097182  0.37223960  1
  V  V7  1  0.12501746  0.61782044  0.50060574  1
  V  V8  1  0.75541211  0.87265645  0.62760788  1
  V  V9  1  0.87387515  0.00402315  0.87504967  1
  V  V10  1  0.62718458  0.37277286  0.25213250  1
  V  V11  1  0.37640602  0.12443338  0.24939720  1
  V  V12  1  0.10936579  0.62718840  0.00466507  1
  V  V13  1  0.63247516  0.62689254  -0.00169274  1
  V  V14  1  0.37647535  -0.00613470  0.37816502  1
  V  V15  1  -0.00212045  0.75037611  0.24759494  1
  V  V16  1  0.74732898  0.37613032  0.62479717  1
  V  V17  1  0.75104168  0.49898268  0.24730444  1
  V  V18  1  0.74782551  0.87538056  0.14294460  1
  V  V19  1  0.51306402  0.75639301  0.25253329  1
  V  V20  1  0.74918136  0.50704459  0.74812447  1
  V  V21  1  0.62871341  0.00011392  0.13912578  1
  V  V22  1  -0.00273347  0.87463202  0.87728702  1
  V  V23  1  0.25246028  0.74778314  0.00265044  1
  V  V24  1  0.12415913  -0.00335438  0.12528385  1
  V  V25  1  0.25318460  0.86136178  0.62412839  1
  V  V26  1  0.11891055  0.87548954  0.26001575  1
  V  V27  1  0.87408765  0.25521708  0.61557007  1
  V  V28  1  0.87508688  0.48875425  0.37602102  1
  V  V29  1  0.25231522  0.12490078  0.87868135  1
  V  V30  1  0.50375875  0.24858600  0.24768880  1
  V  V31  1  0.50250187  0.36980932  0.37495782  1
  V  V32  1  0.62679478  0.62338944  0.51176387  1
  V  V33  1  0.62124245  0.01069833  0.62793579  1
  V  V34  1  0.60593730  0.25629647  0.87042608  1
  V  V35  1  0.74859548  0.00402287  0.74938249  1
  V  V36  1  0.88091515  0.87490716  0.49622536  1
  V  V37  1  0.25677711  0.50222953  0.23983019  1
  V  V38  1  0.36557684  0.25220163  0.12245559  1
  V  V39  1  -0.00184156  0.25141074  0.24881247  1
  V  V40  1  0.37502886  0.74585067  0.13792078  1
  V  V41  1  -0.00300492  0.49206237  0.50155222  1
  V  V42  1  0.25057640  -0.00193584  0.25150676  1
  V  V43  1  -0.00716516  0.47887047  0.00118135  1
  V  V44  1  0.62339250  0.13409372  0.49650330  1
  V  V45  1  0.61231445  0.38094526  0.75038629  1
  V  V46  1  0.24311039  0.37659405  0.62527640  1
  V  V47  1  0.86264576  0.87566001  0.00051619  1
  V  V48  1  0.13186107  0.37499613  0.24107335  1
  V  V49  1  0.25016789  0.87270223  0.12574284  1
  V  V50  1  0.62300298  0.75893042  0.88163541  1
  V  V51  1  0.01523199  0.26398705  0.75866403  1
  V  V52  1  0.50086726  0.00161861  0.50627280  1
  V  V53  1  0.61746608  0.87528574  0.75233373  1
  V  V54  1  0.25076896  0.12438788  0.37494818  1
  V  V55  1  0.25473101  0.62731453  0.87495987  1
  V  V56  1  0.38238820  0.24846719  0.63503098  1
  V  V57  1  0.38615834  0.12863903  0.74900724  1
  V  V58  1  0.38609394  -0.00552207  0.87522868  1
  V  V59  1  0.74712258  0.62423913  0.37356212  1
  V  V60  1  0.87276778  0.74576517  0.11749438  1
  V  V61  1  0.49930013  0.75195311  0.74693443  1
  V  V62  1  0.25218872  0.25002764  0.50030003  1
  V  V63  1  0.12595158  0.00026343  0.62398574  1
  V  V64  1  0.88049253  0.49496879  0.86779754  1
  V  V65  1  -0.00107525  0.12270574  0.12195229  1
  V  V66  1  0.12125726  0.74609874  0.37644906  1
  V  V67  1  0.86542458  0.11961106  0.24824936  1
  V  V68  1  0.12048896  0.87600289  0.75123037  1
  V  V69  1  0.87497212  0.13116447  0.74897064  1
  V  V70  1  0.75754810  0.74724078  0.50734605  1
  V  V71  1  0.50359001  0.50095862  0.50668105  1
  V  V72  1  0.37304055  0.63029737  0.74001637  1
  V  V73  1  0.62249464  0.12398059  -0.00170331  1
  V  V74  1  0.75078356  0.37659427  0.11807591  1
  V  V75  1  0.12470546  0.12516267  0.49912274  1
  V  V76  1  0.87362619  0.25324843  0.11671248  1
  V  V77  1  0.37562255  0.50681943  0.37140666  1
  V  V78  1  0.36867462  0.37696122  0.00631709  1
  V  V79  1  0.50256038  0.49734911  -0.00374327  1
  V  V80  1  0.24294282  0.50169227  0.74820356  1
  V  V81  1  0.00010660  0.12658173  0.62570071  1
  V  V82  1  0.25243874  0.00149832  0.75054498  1
  V  V83  1  0.49959599  0.62305581  0.13130363  1
  V  V84  1  0.12388661  0.75240058  0.87882886  1
  Zn  Zn85  1  0.75436901  0.63196463  0.87314488  1
  Zn  Zn86  1  0.74853061  0.13007559  0.87230983  1
  Zn  Zn87  1  0.49987586  0.62976373  0.62338821  1
  Zn  Zn88  1  0.87523007  -0.00328874  0.36942380  1
  Zn  Zn89  1  0.50639488  -0.00705610  -0.00024179  1
  Zn  Zn90  1  0.11539050  0.49570106  0.63283034  1
  Zn  Zn91  1  0.49946386  0.12246858  0.12293257  1
  Zn  Zn92  1  -0.02671656  0.74372642  0.74465228  1
  Zn  Zn93  1  0.21364660  0.28674930  -0.02921814  1
  Zn  Zn94  1  0.74888385  0.25803157  0.49205253  1
  Zn  Zn95  1  0.25496986  0.74181625  0.50092340  1
  Zn  Zn96  1  0.63337171  0.75942268  0.37521111  1
  Zn  Zn97  1  0.12176656  0.50057325  0.12398647  1
  Zn  Zn98  1  0.62586972  0.50059701  0.12247311  1
  Zn  Zn99  1  -0.00129579  0.37193385  0.37762817  1
  Zn  Zn100  1  0.74437249  0.12772229  0.37217592  1
  Zn  Zn101  1  0.38387870  0.86399959  0.50851315  1
  Zn  Zn102  1  -0.00288942  -0.00062220  0.00006837  1
  Zn  Zn103  1  0.51256581  0.87995996  0.37473908  1
  Zn  Zn104  1  0.00135359  -0.00483722  0.49120446  1
  Zn  Zn105  1  0.25332699  0.62560197  0.36998123  1
  Zn  Zn106  1  -0.02174703  0.62451788  0.62955681  1
  Zn  Zn107  1  0.18787465  0.18509625  0.18477574  1
  Zn  Zn108  1  0.19289326  0.18751573  0.68915116  1
  Zn  Zn109  1  0.18587025  0.68339898  0.18826906  1
  Zn  Zn110  1  0.12231074  0.68813931  0.68741339  1
  Zn  Zn111  1  0.68535015  0.19014596  0.18313840  1
  Zn  Zn112  1  0.68532887  0.19324699  0.68773990  1
  Zn  Zn113  1  0.69135300  0.68626622  0.18305767  1
  Zn  Zn114  1  0.80451981  0.68646876  0.68940833  1
  Zn  Zn115  1  0.31457550  0.31600221  0.30925278  1
  Zn  Zn116  1  0.27769282  0.32540458  0.82488263  1
  Zn  Zn117  1  0.31179480  0.81120072  0.31614460  1
  Zn  Zn118  1  0.31179514  0.81243753  0.81073836  1
  Zn  Zn119  1  0.80875109  0.30477748  0.31088634  1
  Zn  Zn120  1  0.81501693  0.31858968  0.80761879  1
  Zn  Zn121  1  0.81494183  0.80886191  0.31649643  1
  Zn  Zn122  1  0.80158835  0.81810609  0.81970357  1
  Zn  Zn123  1  0.18775461  0.43679896  0.43148055  1
  Zn  Zn124  1  0.18278817  0.44836758  0.93456095  1
  Zn  Zn125  1  0.18750331  0.93541079  0.43990594  1
  Zn  Zn126  1  0.19264979  0.93980769  0.93922887  1
  Zn  Zn127  1  0.68562488  0.43663732  0.43628193  1
  Zn  Zn128  1  0.68839347  0.43878699  0.93124864  1
  Zn  Zn129  1  0.69389632  0.94312942  0.43013827  1
  Zn  Zn130  1  0.68786209  0.93981312  0.93766175  1
  Zn  Zn131  1  0.31581268  0.05966699  0.06289454  1
  Zn  Zn132  1  0.31417903  0.06251672  0.56376162  1
  Zn  Zn133  1  0.31442034  0.56477684  0.06176016  1
  Zn  Zn134  1  0.31031164  0.56290626  0.55867693  1
  Zn  Zn135  1  0.80710330  0.06320577  0.06232481  1
  Zn  Zn136  1  0.80840774  0.06084564  0.55870014  1
  Zn  Zn137  1  0.81764530  0.56082251  0.05763288  1
  Zn  Zn138  1  0.81079358  0.55361542  0.55900537  1
  Zn  Zn139  1  0.43908705  0.43707329  0.18556579  1
  Zn  Zn140  1  0.42922160  0.43786487  0.68666089  1
  Zn  Zn141  1  0.44058869  0.93589358  0.18571903  1
  Zn  Zn142  1  0.43700463  0.93750738  0.68724994  1
  Zn  Zn143  1  0.93803512  0.43534989  0.18326279  1
  Zn  Zn144  1  0.93372783  0.43689186  0.68746834  1
  Zn  Zn145  1  0.93799774  0.93521174  0.18752281  1
  Zn  Zn146  1  0.93693060  0.93848209  0.68645869  1
  Zn  Zn147  1  0.05534994  0.06280506  0.31361901  1
  Zn  Zn148  1  0.06162876  0.06528914  0.81294249  1
  Zn  Zn149  1  0.06250055  0.55981910  0.31280295  1
  Zn  Zn150  1  0.06038619  0.56204162  0.81862887  1
  Zn  Zn151  1  0.56096641  0.06333053  0.31713846  1
  Zn  Zn152  1  0.56211174  0.06618499  0.81458658  1
  Zn  Zn153  1  0.56347857  0.56170043  0.31282038  1
  Zn  Zn154  1  0.56368218  0.56785213  0.81143412  1
  Zn  Zn155  1  0.43988147  0.18518005  0.44003084  1
  Zn  Zn156  1  0.43266919  0.18713041  0.93914048  1
  Zn  Zn157  1  0.43784841  0.68872385  0.43734496  1
  Zn  Zn158  1  0.44319000  0.68580116  0.93686655  1
  Zn  Zn159  1  0.93804341  0.18527167  0.43539894  1
  Zn  Zn160  1  0.94100799  0.19085050  0.93532139  1
  Zn  Zn161  1  0.93719616  0.68183176  0.43912648  1
  Zn  Zn162  1  0.92947681  0.68897894  0.92822199  1
  Zn  Zn163  1  0.06179627  0.31098365  0.06515030  1
  Zn  Zn164  1  0.06147720  0.31160066  0.56457519  1
  Zn  Zn165  1  0.05632692  0.81240393  0.06414306  1
  Zn  Zn166  1  0.06355501  0.80878043  0.56161752  1
  Zn  Zn167  1  0.55935246  0.31373676  0.06300568  1
  Zn  Zn168  1  0.56038976  0.31601099  0.56914201  1
  Zn  Zn169  1  0.56616629  0.81245797  0.06857868  1
  Zn  Zn170  1  0.57018941  0.81453437  0.56268975  1
  O  O171  1  0.12143151  0.11051640  0.12294202  1
  O  O172  1  0.12012109  0.11905072  0.62164886  1
  O  O173  1  0.12875364  0.62263766  0.10784477  1
  O  O174  1  0.13751865  0.61103222  0.60590704  1
  O  O175  1  0.62569543  0.11507568  0.11677261  1
  O  O176  1  0.62491276  0.11515358  0.62424766  1
  O  O177  1  0.61875239  0.62483458  0.11661828  1
  O  O178  1  0.62297111  0.62089810  0.61008300  1
  O  O179  1  0.38331778  0.38105189  0.38003546  1
  O  O180  1  0.36872895  0.38940272  0.88295108  1
  O  O181  1  0.37582931  0.88754927  0.37580078  1
  O  O182  1  0.36777561  0.88196768  0.88542133  1
  O  O183  1  0.87574528  0.38604151  0.36220006  1
  O  O184  1  0.86857381  0.39439068  0.87542506  1
  O  O185  1  0.87119899  0.87468945  0.39290050  1
  O  O186  1  0.87884292  0.88181382  0.88311130  1
  O  O187  1  0.25540791  0.00333223  0.37108134  1
  O  O188  1  0.26153826  0.00459272  0.86956320  1
  O  O189  1  0.26086081  0.49824304  0.36416990  1
  O  O190  1  0.25886977  0.51161542  0.86892750  1
  O  O191  1  0.76396442  0.01603093  0.38454755  1
  O  O192  1  0.75601032  0.00478886  0.86704103  1
  O  O193  1  0.75664817  0.50320738  0.36771558  1
  O  O194  1  0.75674206  0.50162917  0.86371098  1
  O  O195  1  0.24923757  0.50341337  0.13686367  1
  O  O196  1  0.25286219  0.49296956  0.63230890  1
  O  O197  1  0.24371113  0.99368252  0.13228859  1
  O  O198  1  0.23851222  0.99918926  0.63067135  1
  O  O199  1  0.75104098  0.49134791  0.12854438  1
  O  O200  1  0.75418302  0.49035542  0.63898571  1
  O  O201  1  0.73964325  0.98890023  0.12294798  1
  O  O202  1  0.74140812  0.99474377  0.63180355  1
  O  O203  1  0.00579438  0.36232263  0.24773523  1
  O  O204  1  0.00089239  0.36283731  0.74465106  1
  O  O205  1  0.00830924  0.86546643  0.24711677  1
  O  O206  1  0.00631599  0.87422198  0.75732876  1
  O  O207  1  0.50709587  0.36907664  0.25505034  1
  O  O208  1  0.51299107  0.38534906  0.74679895  1
  O  O209  1  0.49875019  0.85944724  0.25080398  1
  O  O210  1  0.51048115  0.87215852  0.74786848  1
  O  O211  1  0.49427605  0.13371460  0.25129955  1
  O  O212  1  0.48567351  0.12540295  0.75304663  1
  O  O213  1  0.50598881  0.63240451  0.23749368  1
  O  O214  1  0.49166973  0.63209488  0.74594034  1
  O  O215  1  0.99673363  0.13708614  0.23947055  1
  O  O216  1  0.99497193  0.12893880  0.73922572  1
  O  O217  1  0.98781340  0.62871473  0.25102157  1
  O  O218  1  1.02611332  0.63451546  0.74197054  1
  O  O219  1  0.38155761  0.26220076  0.00917172  1
  O  O220  1  0.36977253  0.25239350  0.50775694  1
  O  O221  1  0.37175026  0.75397006  0.00689676  1
  O  O222  1  0.36751940  0.75380245  0.49158297  1
  O  O223  1  0.86669084  0.24322188  0.00878458  1
  O  O224  1  0.87555689  0.24458286  0.51244647  1
  O  O225  1  0.87995086  0.75873027  0.01080238  1
  O  O226  1  0.86564739  0.75782698  0.49617475  1
  O  O227  1  0.13074233  0.24438208  0.49355039  1
  O  O228  1  0.12746881  0.22916744  1.01709705  1
  O  O229  1  0.12718739  0.74052137  0.48996360  1
  O  O230  1  0.12842716  0.74382729  0.99851560  1
  O  O231  1  0.61676609  0.23531836  0.50954393  1
  O  O232  1  0.62884220  0.24823576  0.98907784  1
  O  O233  1  0.63801849  0.74094647  0.49827041  1
  O  O234  1  0.61359180  0.74363613  0.98969945  1
  O  O235  1  0.49348756  0.24584293  0.13357108  1
  O  O236  1  0.48092203  0.25480622  0.62621339  1
  O  O237  1  0.49547615  0.74534969  0.13595773  1
  O  O238  1  0.50901360  0.75072898  0.64122096  1
  O  O239  1  0.99058105  0.24447503  0.12810487  1
  O  O240  1  0.99310619  0.24343808  0.63141193  1
  O  O241  1  0.98808344  0.75348802  0.13743379  1
  O  O242  1  1.02272622  0.73913508  0.63768285  1
  O  O243  1  0.00635945  0.25053068  0.36502047  1
  O  O244  1  -0.00057863  0.24707465  0.85732949  1
  O  O245  1  0.00988923  0.74365839  0.36239540  1
  O  O246  1  0.00424342  0.76291106  0.87425268  1
  O  O247  1  0.49210947  0.26293616  0.36730792  1
  O  O248  1  0.50808193  0.25201739  0.87670795  1
  O  O249  1  0.50347842  0.74610835  0.35850338  1
  O  O250  1  0.51173073  0.74523803  0.86390647  1
  O  O251  1  0.24425671  0.12916692  0.49426461  1
  O  O252  1  0.24185392  0.11235414  0.99257295  1
  O  O253  1  0.24185574  0.62225313  0.48884359  1
  O  O254  1  0.24568907  0.62924640  0.99084988  1
  O  O255  1  0.73146899  0.12996725  0.50831690  1
  O  O256  1  0.73791359  0.13565892  0.99782741  1
  O  O257  1  0.74473410  0.62815724  0.49175294  1
  O  O258  1  0.73521170  0.62040417  1.00185075  1
  O  O259  1  0.26648153  0.38588094  0.01227324  1
  O  O260  1  0.25666529  0.37062422  0.50352455  1
  O  O261  1  0.25693797  0.86720188  0.00816253  1
  O  O262  1  0.24647514  0.87383729  0.51701178  1
  O  O263  1  0.74109193  0.36935093  0.01016774  1
  O  O264  1  0.73536617  0.37507695  0.51834520  1
  O  O265  1  0.76035495  0.87702148  0.00514429  1
  O  O266  1  0.75866375  0.86627849  0.50986291  1
  O  O267  1  0.13298415  0.49180725  0.24749961  1
  O  O268  1  0.13976584  0.50197611  0.75313226  1
  O  O269  1  0.12762691  0.99231523  0.24503309  1
  O  O270  1  0.12947780  0.99207590  0.74591745  1
  O  O271  1  0.63326749  0.49154800  0.24679534  1
  O  O272  1  0.63337566  0.48749811  0.75975239  1
  O  O273  1  0.62422599  1.00863541  0.23792291  1
  O  O274  1  0.62754251  0.99757971  0.74714564  1
  O  O275  1  0.37217485  0.00345379  0.25672784  1
  O  O276  1  0.37161973  0.00626965  0.75632798  1
  O  O277  1  0.36381844  0.49266647  0.25409690  1
  O  O278  1  0.36997905  0.50989124  0.75775786  1
  O  O279  1  0.87938635  0.01722540  0.24323896  1
  O  O280  1  0.87095826  0.01236751  0.75275401  1
  O  O281  1  0.87144602  0.50645701  0.25138840  1
  O  O282  1  0.86662676  0.50061396  0.75943052  1
  O  O283  1  0.12352929  0.36568151  0.36174377  1
  O  O284  1  0.17947063  0.35212178  0.88279895  1
  O  O285  1  0.12743153  0.86846414  0.36503563  1
  O  O286  1  0.11657221  0.87639777  0.87234697  1
  O  O287  1  0.61818710  0.37737094  0.36069077  1
  O  O288  1  0.62543497  0.36360875  0.86583242  1
  O  O289  1  0.62576047  0.87241259  0.38028411  1
  O  O290  1  0.62536130  0.86776044  0.87129035  1
  O  O291  1  0.37854545  0.12900062  0.13159612  1
  O  O292  1  0.36672846  0.13844225  0.63421244  1
  O  O293  1  0.38542689  0.63580382  0.11965583  1
  O  O294  1  0.37381959  0.62288397  0.63723938  1
  O  O295  1  0.87834375  0.13081089  0.13010582  1
  O  O296  1  0.88263605  0.12862788  0.63025685  1
  O  O297  1  0.86590569  0.63584913  0.13253437  1
  O  O298  1  0.86693719  0.63010536  0.61605083  1
  O  O299  1  0.26471849  0.24529092  0.12568510  1
  O  O300  1  0.25490231  0.25809215  0.61819105  1
  O  O301  1  0.25785013  0.75153692  0.12373934  1
  O  O302  1  0.23878014  0.76312815  0.62794779  1
  O  O303  1  0.75384231  0.25616065  0.11268990  1
  O  O304  1  0.75817673  0.25753537  0.62382073  1
  O  O305  1  0.75779706  0.76539559  0.12901047  1
  O  O306  1  0.74491593  0.76017781  0.61756436  1
  O  O307  1  0.24765758  0.24503391  0.37906605  1
  O  O308  1  0.27191611  0.22610394  0.88465319  1
  O  O309  1  0.23370658  0.74633070  0.36868010  1
  O  O310  1  0.24560894  0.74548314  0.88348192  1
  O  O311  1  0.75117434  0.24220277  0.38031590  1
  O  O312  1  0.75119709  0.25359245  0.88487752  1
  O  O313  1  0.75254429  0.73870426  0.38285436  1
  O  O314  1  0.72832417  0.74888293  0.87747608  1
  O  O315  1  0.00770183  0.12109078  0.00477806  1
  O  O316  1  0.00566140  0.12529432  0.51251594  1
  O  O317  1  0.00946504  0.62946521  -0.00467648  1
  O  O318  1  0.00761561  0.61241344  0.50017770  1
  O  O319  1  0.51237967  0.12460969  0.00046821  1
  O  O320  1  0.50841889  0.11300034  0.49968037  1
  O  O321  1  0.50783797  0.61679231  0.01014292  1
  O  O322  1  0.50864212  0.61848847  0.49847208  1
  O  O323  1  0.49883364  0.38085406  0.49217777  1
  O  O324  1  0.49459441  0.39187562  1.00555954  1
  O  O325  1  0.50040127  0.88698471  0.50079621  1
  O  O326  1  0.48776899  0.87193953  1.00599333  1
  O  O327  1  1.00464367  0.38650411  0.49725317  1
  O  O328  1  1.00520201  0.38074636  0.99440026  1
  O  O329  1  0.98418851  0.87240106  0.50975156  1
  O  O330  1  0.98961961  0.87800777  0.99300354  1
  O  O331  1  0.49340118  0.48874378  0.37587736  1
  O  O332  1  0.49069369  0.50959863  0.88379334  1
  O  O333  1  0.49136030  0.99888035  0.38322465  1
  O  O334  1  0.48995935  0.99988274  0.87776993  1
  O  O335  1  0.99070419  0.49617618  0.37907045  1
  O  O336  1  0.98975685  0.50118136  0.88463668  1
  O  O337  1  0.98965028  1.00347542  0.37868152  1
  O  O338  1  0.99281489  0.99010893  0.87409032  1
  O  O339  1  0.00856262  0.00358730  0.12373846  1
  O  O340  1  0.01255955  0.00723594  0.62616808  1
  O  O341  1  0.00075409  0.49528988  0.10667791  1
  O  O342  1  -0.00140767  0.50216531  0.61692519  1
  O  O343  1  0.51456380  -0.00080810  0.12224804  1
  O  O344  1  0.50846992  -0.00298237  0.61913365  1
  O  O345  1  0.50247223  0.50886655  0.11988663  1
  O  O346  1  0.49130589  0.50082846  0.60896400  1
  O  O347  1  0.24289211  0.38710098  0.25233019  1
  O  O348  1  0.26301497  0.39048104  0.73461757  1
  O  O349  1  0.24110419  0.87927947  0.24462164  1
  O  O350  1  0.24418006  0.88297200  0.74160976  1
  O  O351  1  0.74297110  0.37568271  0.23935740  1
  O  O352  1  0.74073338  0.38252125  0.74289282  1
  O  O353  1  0.75806570  0.87695298  0.24102683  1
  O  O354  1  0.73850497  0.88443828  0.74584859  1
  O  O355  1  0.25547365  0.11740059  0.25563817  1
  O  O356  1  0.25633589  0.11779216  0.75873918  1
  O  O357  1  0.24449917  0.60697767  0.25269319  1
  O  O358  1  0.25691887  0.62152505  0.76248885  1
  O  O359  1  0.76329645  0.13106072  0.24405332  1
  O  O360  1  0.75838325  0.12294039  0.74960330  1
  O  O361  1  0.75886845  0.62037630  0.25502797  1
  O  O362  1  0.73861773  0.60902245  0.75080301  1
  O  O363  1  0.37017093  0.11467230  0.37066979  1
  O  O364  1  0.37261017  0.11318005  0.87065516  1
  O  O365  1  0.37855772  0.60936097  0.37278481  1
  O  O366  1  0.36870047  0.61859651  0.87209207  1
  O  O367  1  0.87946257  0.13120549  0.35270463  1
  O  O368  1  0.87440593  0.12147108  0.86572631  1
  O  O369  1  0.86584149  0.61574385  0.36643351  1
  O  O370  1  0.86687356  0.60641475  0.88561310  1
  O  O371  1  0.12417168  0.37616768  0.13656911  1
  O  O372  1  0.13891845  0.37845829  0.61880198  1
  O  O373  1  0.12762335  0.88248684  0.13135701  1
  O  O374  1  0.13040379  0.88334951  0.63315243  1
  O  O375  1  0.63100693  0.37572606  0.13479768  1
  O  O376  1  0.62989255  0.36759472  0.64379384  1
  O  O377  1  0.63911023  0.88378672  0.12430627  1
  O  O378  1  0.63483736  0.88518234  0.63414910  1
  O  O379  1  0.11948329  0.25378114  0.25117214  1
  O  O380  1  0.11382013  0.24744002  0.74404258  1
  O  O381  1  0.11657682  0.75557970  0.25102152  1
  O  O382  1  0.13821700  0.76998549  0.76549445  1
  O  O383  1  0.61234866  0.25585660  0.24495117  1
  O  O384  1  0.62629146  0.25971057  0.76437164  1
  O  O385  1  0.61531498  0.74793281  0.24848123  1
  O  O386  1  0.61732501  0.76329596  0.76383407  1
  O  O387  1  0.38355465  0.24624156  0.24347064  1
  O  O388  1  0.36476297  0.24437153  0.73892965  1
  O  O389  1  0.38166326  0.75226463  0.24122499  1
  O  O390  1  0.38401840  0.74136099  0.75771231  1
  O  O391  1  0.88185684  0.24370153  0.23652167  1
  O  O392  1  0.87913220  0.24052048  0.74223204  1
  O  O393  1  0.88076375  0.74308490  0.24468382  1
  O  O394  1  0.86396001  0.74516055  0.76479984  1
  O  O395  1  0.38171875  0.49372791  0.48996977  1
  O  O396  1  0.38251165  0.49711473  0.99443833  1
  O  O397  1  0.38226836  0.99872783  0.49481533  1
  O  O398  1  0.37853914  0.98918907  0.99335695  1
  O  O399  1  0.88207617  0.49913192  0.48596499  1
  O  O400  1  0.88840977  0.49589162  0.99429940  1
  O  O401  1  0.87796938  0.98345370  0.50855324  1
  O  O402  1  0.87402806  0.99502589  0.99396392  1
  O  O403  1  0.12355410  0.00424162  0.01022831  1
  O  O404  1  0.12301754  0.00558405  0.50819533  1
  O  O405  1  0.11042103  0.51033902  -0.00246377  1
  O  O406  1  0.11594507  0.50381496  0.49342083  1
  O  O407  1  0.62513389  0.00968459  0.00393643  1
  O  O408  1  0.61848224  0.00901309  0.51110932  1
  O  O409  1  0.61856975  0.50697330  -0.00176473  1
  O  O410  1  0.61372502  0.50992403  0.48908236  1
  O  O411  1  0.38250096  0.36417053  0.11869765  1
  O  O412  1  0.36724666  0.36543044  0.61756159  1
  O  O413  1  0.36947474  0.86651041  0.11919848  1
  O  O414  1  0.35699899  0.87832724  0.62765212  1
  O  O415  1  0.86383325  0.36411327  0.12792440  1
  O  O416  1  0.86299052  0.36489079  0.62996124  1
  O  O417  1  0.86473804  0.87185098  0.11998854  1
  O  O418  1  0.86157444  0.87753408  0.62300542  1
  O  O419  1  0.13096114  0.13168888  0.37749750  1
  O  O420  1  0.13571058  0.11565556  0.88576154  1
  O  O421  1  0.12437207  0.63017880  0.38184789  1
  O  O422  1  0.13395919  0.63152970  0.88725842  1
  O  O423  1  0.62246610  0.12376853  0.39281060  1
  O  O424  1  0.62664531  0.13962758  0.87920372  1
  O  O425  1  0.63918372  0.62584702  0.37544151  1
  O  O426  1  0.62608531  0.63617285  0.88298604  1
