# generated using pymatgen
data_V85Zn86O256
_symmetry_space_group_name_H-M   'P 1'
_cell_length_a   16.92392696
_cell_length_b   16.92844997
_cell_length_c   16.92442946
_cell_angle_alpha   89.95118253
_cell_angle_beta   90.01500131
_cell_angle_gamma   90.01969736
_symmetry_Int_Tables_number   1
_chemical_formula_structural   V85Zn86O256
_chemical_formula_sum   'V85 Zn86 O256'
_cell_volume   4848.77660565
_cell_formula_units_Z   1
loop_
 _symmetry_equiv_pos_site_id
 _symmetry_equiv_pos_as_xyz
  1  'x, y, z'
loop_
 _atom_site_type_symbol
 _atom_site_label
 _atom_site_symmetry_multiplicity
 _atom_site_fract_x
 _atom_site_fract_y
 _atom_site_fract_z
 _atom_site_occupancy
  V  V0  1  0.25383500  0.62421988  0.37065440  1
  V  V1  1  -0.00066272  0.50104490  -0.00235180  1
  V  V2  1  0.12288105  0.25022725  0.37567721  1
  V  V3  1  0.37208855  0.37788115  0.50558598  1
  V  V4  1  0.37625571  0.38207960  -0.00325638  1
  V  V5  1  0.37535742  0.87885121  0.49305177  1
  V  V6  1  0.12520404  0.37573355  0.25165083  1
  V  V7  1  0.63069032  0.50391262  0.64479291  1
  V  V8  1  0.11780973  0.11259090  0.49586134  1
  V  V9  1  -0.00559666  0.50328670  0.49981693  1
  V  V10  1  0.87631829  0.87236259  0.49835264  1
  V  V11  1  0.25261919  0.50234263  0.74927819  1
  V  V12  1  0.12483462  0.50022692  0.12552069  1
  V  V13  1  0.24360783  0.87320680  0.12925515  1
  V  V14  1  0.37326737  0.11996022  0.25554477  1
  V  V15  1  0.62351031  0.00038257  0.12473958  1
  V  V16  1  0.68494375  0.69498597  0.43990790  1
  V  V17  1  0.00791177  0.37395040  0.86171132  1
  V  V18  1  0.74685133  0.39002773  0.12882132  1
  V  V19  1  0.49916566  0.12430401  0.12635197  1
  V  V20  1  0.74884434  0.61845513  0.87369314  1
  V  V21  1  0.19376895  0.33116452  0.67993307  1
  V  V22  1  0.24860638  0.87630289  0.62315714  1
  V  V23  1  0.25239378  0.74777938  0.49737043  1
  V  V24  1  0.00097936  0.12281071  0.11369114  1
  V  V25  1  0.74886890  0.87834976  0.62085136  1
  V  V26  1  0.49528444  0.74284987  0.25426642  1
  V  V27  1  0.74525060  0.25167137  0.00250976  1
  V  V28  1  0.86947496  0.62006863  0.74556561  1
  V  V29  1  0.37528945  0.87464962  0.00197215  1
  V  V30  1  0.63117067  0.62760563  0.00819242  1
  V  V31  1  0.50043632  0.87651090  0.87553999  1
  V  V32  1  0.49859593  0.25023325  0.25234652  1
  V  V33  1  0.38097144  0.24866159  0.62590257  1
  V  V34  1  0.50335187  0.50284204  0.00129987  1
  V  V35  1  0.87414729  0.25074085  0.12816483  1
  V  V36  1  0.49661272  0.62236529  0.13090986  1
  V  V37  1  0.75170840  0.12079755  0.87733412  1
  V  V38  1  0.87950798  -0.00071774  0.38018381  1
  V  V39  1  0.25104093  0.12141533  0.37517549  1
  V  V40  1  0.50967479  0.25086065  0.75102790  1
  V  V41  1  0.62704919  0.38624035  0.24917450  1
  V  V42  1  0.11918241  0.62599943  0.50163937  1
  V  V43  1  0.87780924  0.88717403  -0.00167692  1
  V  V44  1  0.12255741  0.00079592  0.11589102  1
  V  V45  1  0.85900732  0.51310551  0.36158262  1
  V  V46  1  0.25217756  -0.00239746  0.75798182  1
  V  V47  1  0.74938452  0.87191834  0.11652828  1
  V  V48  1  -0.00463828  0.75084689  0.24999476  1
  V  V49  1  -0.00500887  0.62463511  0.12933475  1
  V  V50  1  0.12373080  0.50522124  0.62837684  1
  V  V51  1  0.75133049  0.12323926  0.37607202  1
  V  V52  1  0.12464370  0.75164281  0.36718347  1
  V  V53  1  0.75122996  -0.00177262  0.24989782  1
  V  V54  1  0.51276836  0.50335651  0.50037275  1
  V  V55  1  0.87355115  0.74528272  0.61936638  1
  V  V56  1  0.24914957  0.74745478  -0.00158827  1
  V  V57  1  0.24656569  -0.00364740  0.25131066  1
  V  V58  1  0.37845498  0.74581206  0.62298400  1
  V  V59  1  0.37922782  0.50440371  0.37615041  1
  V  V60  1  0.50595217  0.38075632  0.87029648  1
  V  V61  1  0.62668685  0.11900919  0.50730936  1
  V  V62  1  -0.00289387  0.12431966  0.62342643  1
  V  V63  1  0.62617578  0.88235852  0.74714739  1
  V  V64  1  0.75704786  -0.00006840  0.75232558  1
  V  V65  1  0.25218722  0.37223464  0.12349143  1
  V  V66  1  0.50059358  0.87860346  0.37332045  1
  V  V67  1  -0.00219491  0.74372455  0.74469218  1
  V  V68  1  -0.00586398  0.88032110  0.87647841  1
  V  V69  1  0.25553936  0.50211129  0.25094969  1
  V  V70  1  0.63478189  0.75300686  0.87894817  1
  V  V71  1  0.87839914  0.12498255  0.25015666  1
  V  V72  1  0.87530231  0.37667529  -0.00109705  1
  V  V73  1  0.86808552  0.37706997  0.49697627  1
  V  V74  1  0.24719217  0.24505923  -0.01565211  1
  V  V75  1  0.37781261  0.62485943  0.75880305  1
  V  V76  1  0.74616296  0.37574013  0.64111009  1
  V  V77  1  0.87238669  0.74914017  0.11927545  1
  V  V78  1  0.62526474  0.86869763  0.25251139  1
  V  V79  1  0.24881236  0.25234188  0.50007638  1
  V  V80  1  0.50141926  -0.00065620  0.50464638  1
  V  V81  1  0.62691769  0.24809242  0.37579679  1
  V  V82  1  0.00370004  0.87910432  0.37309873  1
  V  V83  1  0.88048126  0.13065526  0.75408632  1
  V  V84  1  0.12206862  0.74616876  0.87336739  1
  Zn  Zn85  1  0.00127430  0.24992481  0.24785323  1
  Zn  Zn86  1  0.37392787  0.25065955  0.12522547  1
  Zn  Zn87  1  0.49751694  0.00253028  0.00023106  1
  Zn  Zn88  1  0.50089540  0.37639748  0.37689636  1
  Zn  Zn89  1  0.12458913  0.62403415  -0.00048666  1
  Zn  Zn90  1  0.50300644  0.11885526  0.62981470  1
  Zn  Zn91  1  0.25272551  0.61799139  0.87815375  1
  Zn  Zn92  1  0.37060251  0.74464400  0.13061030  1
  Zn  Zn93  1  0.37314040  0.00492625  0.87940583  1
  Zn  Zn94  1  0.87875706  0.25404624  0.62707091  1
  Zn  Zn95  1  0.87117004  0.49858046  0.86782312  1
  Zn  Zn96  1  0.75100925  0.24986342  0.50266794  1
  Zn  Zn97  1  -0.00561451  0.37839375  0.37215775  1
  Zn  Zn98  1  0.11448611  -0.00865362  0.61918447  1
  Zn  Zn99  1  0.62244536  0.12686121  -0.00117452  1
  Zn  Zn100  1  0.37652740  0.12703366  0.76243607  1
  Zn  Zn101  1  0.62835503  0.25433817  0.87083604  1
  Zn  Zn102  1  0.50372228  0.75013183  0.74948312  1
  Zn  Zn103  1  0.12466560  0.12553104  -0.02083988  1
  Zn  Zn104  1  0.51054255  0.62792694  0.62584020  1
  Zn  Zn105  1  0.06493852  0.21442578  0.80912167  1
  Zn  Zn106  1  0.12264913  0.87086807  0.74580972  1
  Zn  Zn107  1  0.18588924  0.18676294  0.18422496  1
  Zn  Zn108  1  0.19182308  0.16587376  0.68059721  1
  Zn  Zn109  1  0.18411855  0.68582386  0.18798226  1
  Zn  Zn110  1  0.18955987  0.68704552  0.68702943  1
  Zn  Zn111  1  0.68822146  0.18990344  0.18910275  1
  Zn  Zn112  1  0.69146530  0.18857358  0.68723534  1
  Zn  Zn113  1  0.69437630  0.68841380  0.18551114  1
  Zn  Zn114  1  0.69000441  0.69308655  0.68633884  1
  Zn  Zn115  1  0.31348648  0.31421775  0.31575863  1
  Zn  Zn116  1  0.32650328  0.31340507  0.81515136  1
  Zn  Zn117  1  0.31524200  0.81286632  0.31138239  1
  Zn  Zn118  1  0.31366688  0.81184110  0.81218007  1
  Zn  Zn119  1  0.81059442  0.31621122  0.31384753  1
  Zn  Zn120  1  0.81650784  0.30973838  0.81693108  1
  Zn  Zn121  1  0.80981951  0.80170388  0.30864207  1
  Zn  Zn122  1  0.81307797  0.80877527  0.81142247  1
  Zn  Zn123  1  0.18770096  0.43821048  0.44102076  1
  Zn  Zn124  1  0.18577217  0.43479967  0.93393659  1
  Zn  Zn125  1  0.18984845  0.93495175  0.43304452  1
  Zn  Zn126  1  0.18152406  0.93142348  0.93866515  1
  Zn  Zn127  1  0.68873943  0.43865812  0.43520256  1
  Zn  Zn128  1  0.68452598  0.44151301  0.93972304  1
  Zn  Zn129  1  0.68803582  0.93167919  0.43739456  1
  Zn  Zn130  1  0.68768051  0.94072475  0.93867869  1
  Zn  Zn131  1  0.31192489  0.06377565  0.06240483  1
  Zn  Zn132  1  0.31369363  0.06166784  0.56177868  1
  Zn  Zn133  1  0.31630818  0.56204625  0.06374709  1
  Zn  Zn134  1  0.30981245  0.56175887  0.56574391  1
  Zn  Zn135  1  0.81223954  0.06286561  0.06239499  1
  Zn  Zn136  1  0.81467951  0.05963543  0.56444437  1
  Zn  Zn137  1  0.81339819  0.56614244  0.06036657  1
  Zn  Zn138  1  0.80380157  0.56377476  0.55797381  1
  Zn  Zn139  1  0.44063898  0.44048042  0.18809614  1
  Zn  Zn140  1  0.43882640  0.43833402  0.68700120  1
  Zn  Zn141  1  0.43240193  0.93659705  0.18810090  1
  Zn  Zn142  1  0.43623698  0.93466480  0.68514139  1
  Zn  Zn143  1  0.93698660  0.43734910  0.18741313  1
  Zn  Zn144  1  0.93673641  0.44067296  0.68141345  1
  Zn  Zn145  1  0.94029340  0.93639041  0.18868569  1
  Zn  Zn146  1  0.93620491  0.93862589  0.68951633  1
  Zn  Zn147  1  0.06403144  0.06134974  0.30407799  1
  Zn  Zn148  1  0.06652410  0.05047069  0.80739894  1
  Zn  Zn149  1  0.05879082  0.56382423  0.31436418  1
  Zn  Zn150  1  0.06024706  0.56295264  0.81124887  1
  Zn  Zn151  1  0.56140264  0.05784699  0.31653459  1
  Zn  Zn152  1  0.56435029  0.06402596  0.81372738  1
  Zn  Zn153  1  0.62306129  0.59082747  0.30062284  1
  Zn  Zn154  1  0.55983159  0.56523558  0.81709860  1
  Zn  Zn155  1  0.43827229  0.18578324  0.43870356  1
  Zn  Zn156  1  0.43418069  0.19196770  0.93787169  1
  Zn  Zn157  1  0.45279729  0.68343379  0.43479678  1
  Zn  Zn158  1  0.44171952  0.69160028  0.93847809  1
  Zn  Zn159  1  0.93871518  0.19048130  0.43974052  1
  Zn  Zn160  1  0.93240371  0.18914462  0.93840951  1
  Zn  Zn161  1  0.93267740  0.68638050  0.43733538  1
  Zn  Zn162  1  0.93422695  0.68930846  0.93755769  1
  Zn  Zn163  1  0.06370776  0.31070109  0.05934838  1
  Zn  Zn164  1  0.05267675  0.30857936  0.55716813  1
  Zn  Zn165  1  0.06221278  0.81319125  0.05986214  1
  Zn  Zn166  1  0.05820830  0.81002322  0.55781464  1
  Zn  Zn167  1  0.56232285  0.31573248  0.06622242  1
  Zn  Zn168  1  0.56490314  0.31653178  0.56373383  1
  Zn  Zn169  1  0.56062249  0.80791509  0.06436081  1
  Zn  Zn170  1  0.56391694  0.81447056  0.56378713  1
  O  O171  1  0.11606179  0.11938926  0.12153872  1
  O  O172  1  0.11684729  0.11842772  0.61154213  1
  O  O173  1  0.11388280  0.61831344  0.12233878  1
  O  O174  1  0.13093669  0.61940452  0.61198373  1
  O  O175  1  0.61710838  0.11726823  0.12900685  1
  O  O176  1  0.62586692  0.12931926  0.61028289  1
  O  O177  1  0.61573372  0.63566078  0.11215008  1
  O  O178  1  0.62914414  0.61001644  0.63232252  1
  O  O179  1  0.37661462  0.38372646  0.38621877  1
  O  O180  1  0.39020551  0.37501382  0.88725819  1
  O  O181  1  0.38013378  0.87247979  0.38658600  1
  O  O182  1  0.38411872  0.87524150  0.88305421  1
  O  O183  1  0.87419328  0.38445105  0.38169399  1
  O  O184  1  0.87789411  0.37938911  0.88733326  1
  O  O185  1  0.88032943  0.87965736  0.37820248  1
  O  O186  1  0.88542953  0.86513559  0.88342713  1
  O  O187  1  0.24440790  0.00820892  0.36426023  1
  O  O188  1  0.24932575  -0.01469206  0.86030881  1
  O  O189  1  0.25649804  0.50735975  0.37288198  1
  O  O190  1  0.24007983  0.50051514  0.85640538  1
  O  O191  1  0.75875451  0.00296014  0.36831755  1
  O  O192  1  0.74821854  0.00963238  0.86875950  1
  O  O193  1  0.75906163  0.50112667  0.37263742  1
  O  O194  1  0.75089651  0.51327300  0.87769867  1
  O  O195  1  0.24622803  0.49176451  0.12936205  1
  O  O196  1  0.23910348  0.49825422  0.63462244  1
  O  O197  1  0.24461384  0.99212285  0.12941383  1
  O  O198  1  0.25213217  0.98493234  0.62710049  1
  O  O199  1  0.75389859  0.48904120  0.12179037  1
  O  O200  1  0.73815121  0.49084159  0.62354822  1
  O  O201  1  0.74267822  0.99481240  0.13081924  1
  O  O202  1  0.75541385  0.98786262  0.63508283  1
  O  O203  1  0.01422715  0.37365533  0.24948120  1
  O  O204  1  -0.00729097  0.38023878  0.76256417  1
  O  O205  1  -0.00129470  0.86186925  0.25855710  1
  O  O206  1  -0.00312305  0.86232889  0.75896371  1
  O  O207  1  0.50843096  0.36529450  0.25108048  1
  O  O208  1  0.49353058  0.36839165  0.76069635  1
  O  O209  1  0.50392407  0.87359578  0.25613230  1
  O  O210  1  0.50895053  0.87643175  0.75701532  1
  O  O211  1  0.49386066  0.12797530  0.24565211  1
  O  O212  1  0.49896669  0.13238080  0.74683810  1
  O  O213  1  0.51702406  0.63500344  0.24310969  1
  O  O214  1  0.49261190  0.62755799  0.74606394  1
  O  O215  1  0.99268272  0.12805910  0.23991309  1
  O  O216  1  0.99451075  0.12806223  0.74581157  1
  O  O217  1  1.00532147  0.63738862  0.24161000  1
  O  O218  1  0.98999853  0.63732070  0.75457606  1
  O  O219  1  0.36483353  0.26300922  0.00550875  1
  O  O220  1  0.37055080  0.25608895  0.50499793  1
  O  O221  1  0.36711382  0.75876737  0.00157527  1
  O  O222  1  0.37223560  0.75404053  0.50427329  1
  O  O223  1  0.86414390  0.25885835  0.00676174  1
  O  O224  1  0.87191115  0.26165458  0.50097875  1
  O  O225  1  0.88239003  0.76045150  0.01421954  1
  O  O226  1  0.87888009  0.75858567  0.50801995  1
  O  O227  1  0.12923767  0.24413675  0.49141958  1
  O  O228  1  0.14314944  0.25167108  1.00189552  1
  O  O229  1  0.12943755  0.74229507  0.48996717  1
  O  O230  1  0.13194724  0.74758804  0.99212814  1
  O  O231  1  0.62352196  0.24389883  0.48810952  1
  O  O232  1  0.63694365  0.24943689  1.00556815  1
  O  O233  1  0.64007253  0.75308024  0.51089467  1
  O  O234  1  0.61964173  0.74179149  0.98987298  1
  O  O235  1  0.50060414  0.24269002  0.13766119  1
  O  O236  1  0.49537656  0.24997479  0.63095742  1
  O  O237  1  0.49463792  0.74271862  0.13372009  1
  O  O238  1  0.49212514  0.74852191  0.62717027  1
  O  O239  1  0.99284549  0.24346937  0.12514741  1
  O  O240  1  0.99704085  0.23427000  0.62251705  1
  O  O241  1  0.99767359  0.74467341  0.13125325  1
  O  O242  1  0.98800772  0.75436725  0.63279232  1
  O  O243  1  0.01244226  0.25401371  0.37252132  1
  O  O244  1  -0.00901747  0.26827721  0.87721094  1
  O  O245  1  0.00478938  0.75435131  0.36797585  1
  O  O246  1  0.00592747  0.75329788  0.86820567  1
  O  O247  1  0.50630036  0.25031206  0.36614679  1
  O  O248  1  0.50371881  0.25904124  0.86821545  1
  O  O249  1  0.49609284  0.76490285  0.36730933  1
  O  O250  1  0.51007016  0.76224125  0.87268021  1
  O  O251  1  0.24268533  0.13073067  0.49468375  1
  O  O252  1  0.25137508  0.14238741  1.00367335  1
  O  O253  1  0.24351411  0.62888688  0.48938697  1
  O  O254  1  0.25064325  0.63500240  0.99948540  1
  O  O255  1  0.74412863  0.12416905  0.49405797  1
  O  O256  1  0.75008995  0.13356876  0.99534718  1
  O  O257  1  0.75012459  0.63307388  0.48837013  1
  O  O258  1  0.74049355  0.62486139  0.99287165  1
  O  O259  1  0.25640730  0.37274245  0.00536091  1
  O  O260  1  0.25917317  0.36592203  0.49559309  1
  O  O261  1  0.25441925  0.86398815  0.00530707  1
  O  O262  1  0.25785025  0.86870915  0.50252329  1
  O  O263  1  0.75483801  0.37105273  0.00684181  1
  O  O264  1  0.75881221  0.37582765  0.50451131  1
  O  O265  1  0.75682256  0.87970610  0.01050853  1
  O  O266  1  0.76454417  0.88373731  0.50794990  1
  O  O267  1  0.13181628  0.49349582  0.24696309  1
  O  O268  1  0.12756266  0.50737556  0.73498722  1
  O  O269  1  0.13940161  1.00531464  0.23592660  1
  O  O270  1  0.13939370  0.99007021  0.74021012  1
  O  O271  1  0.61200693  0.48298900  0.25746097  1
  O  O272  1  0.62202624  0.49803409  0.74286124  1
  O  O273  1  0.62810044  0.99280228  0.24051093  1
  O  O274  1  0.63661282  0.98915108  0.75580840  1
  O  O275  1  0.36165032  0.00916974  0.24497857  1
  O  O276  1  0.36305968  -0.00626939  0.75069989  1
  O  O277  1  0.36915365  0.49260890  0.26413683  1
  O  O278  1  0.36604586  0.51227675  0.73948668  1
  O  O279  1  0.87103943  0.00418514  0.25810588  1
  O  O280  1  0.86391711  0.01052289  0.74965056  1
  O  O281  1  0.87944769  0.49560713  0.26409981  1
  O  O282  1  0.88048020  0.51622660  0.74831015  1
  O  O283  1  0.12632330  0.36823582  0.36785493  1
  O  O284  1  0.10749748  0.37569744  0.87344871  1
  O  O285  1  0.11504265  0.86454987  0.38129879  1
  O  O286  1  0.11248644  0.86274006  0.87327156  1
  O  O287  1  0.62457258  0.36549929  0.36669760  1
  O  O288  1  0.61146965  0.37281705  0.88363924  1
  O  O289  1  0.61523639  0.88330360  0.36265970  1
  O  O290  1  0.62160623  0.86985765  0.87257009  1
  O  O291  1  0.38208698  0.12755510  0.13615253  1
  O  O292  1  0.37654250  0.13987752  0.62165007  1
  O  O293  1  0.39069640  0.62611191  0.12447824  1
  O  O294  1  0.37139919  0.63754105  0.63086319  1
  O  O295  1  0.88089684  0.12912792  0.13036214  1
  O  O296  1  0.88024762  0.12665591  0.63224864  1
  O  O297  1  0.88637850  0.63263331  0.12092692  1
  O  O298  1  0.86423876  0.63493841  0.63039252  1
  O  O299  1  0.25084808  0.26413260  0.12454149  1
  O  O300  1  0.25374802  0.25722861  0.62362528  1
  O  O301  1  0.24817060  0.75493765  0.11941702  1
  O  O302  1  0.25553565  0.75854215  0.61741659  1
  O  O303  1  0.75636220  0.25666758  0.12054115  1
  O  O304  1  0.75031785  0.26502576  0.62235101  1
  O  O305  1  0.75890809  0.76030124  0.12475615  1
  O  O306  1  0.76372632  0.76735226  0.63387958  1
  O  O307  1  0.24004589  0.24279114  0.37761691  1
  O  O308  1  0.25404652  0.25670750  0.88581339  1
  O  O309  1  0.24407726  0.74446886  0.37687687  1
  O  O310  1  0.24096098  0.75008787  0.88230469  1
  O  O311  1  0.74221789  0.24185214  0.37622882  1
  O  O312  1  0.74781414  0.24576741  0.88590355  1
  O  O313  1  0.73406372  0.76256179  0.37863822  1
  O  O314  1  0.73977170  0.74353866  0.87470302  1
  O  O315  1  0.00013428  0.12924882  0.01023144  1
  O  O316  1  0.00836931  0.12518312  0.50463385  1
  O  O317  1  -0.00019515  0.61607545  0.00580041  1
  O  O318  1  0.01103403  0.61963462  0.49508858  1
  O  O319  1  0.50040072  0.12762158  0.01616676  1
  O  O320  1  0.50762830  0.11553575  0.49900184  1
  O  O321  1  0.50532602  0.62003896  0.00580883  1
  O  O322  1  0.48871636  0.60538938  0.51179202  1
  O  O323  1  0.49281180  0.38561209  0.50007766  1
  O  O324  1  0.49448774  0.38255969  1.00002742  1
  O  O325  1  0.49529769  0.87979783  0.49416902  1
  O  O326  1  0.49126142  0.87456363  0.99564298  1
  O  O327  1  0.98558249  0.38296365  0.49809918  1
  O  O328  1  0.99199517  0.38261061  0.99791049  1
  O  O329  1  0.98809306  0.87278971  0.48721411  1
  O  O330  1  0.99411672  0.87142238  0.98589070  1
  O  O331  1  0.49195024  0.49747679  0.39139362  1
  O  O332  1  0.50238672  0.49514845  0.88923446  1
  O  O333  1  0.49799277  0.98785600  0.38413901  1
  O  O334  1  0.50379937  0.98718263  0.88034662  1
  O  O335  1  0.99980706  0.49741468  0.38763692  1
  O  O336  1  0.99655754  0.49215118  0.88232707  1
  O  O337  1  0.99460394  0.98836647  0.36394621  1
  O  O338  1  0.99891653  0.97867219  0.86628690  1
  O  O339  1  0.01115350  0.00770533  0.13089714  1
  O  O340  1  -0.00023028  0.01406956  0.63094983  1
  O  O341  1  0.00279615  0.50713849  0.11941696  1
  O  O342  1  0.00845373  0.49769521  0.61002757  1
  O  O343  1  0.50584191  0.00683787  0.12644815  1
  O  O344  1  0.49740530  -0.00080697  0.61076754  1
  O  O345  1  0.49908181  0.50824601  0.11479012  1
  O  O346  1  0.51643095  0.49653078  0.61891897  1
  O  O347  1  0.24231792  0.37970071  0.24442700  1
  O  O348  1  0.25638805  0.38063055  0.74699786  1
  O  O349  1  0.25394031  0.88206154  0.24125323  1
  O  O350  1  0.24901766  0.87763765  0.73913801  1
  O  O351  1  0.73587484  0.37161041  0.24343560  1
  O  O352  1  0.75654264  0.37460629  0.73972326  1
  O  O353  1  0.74264512  0.87916086  0.23932267  1
  O  O354  1  0.74764271  0.88302783  0.74742017  1
  O  O355  1  0.25626206  0.12012882  0.25310700  1
  O  O356  1  0.25841822  0.10242731  0.74347597  1
  O  O357  1  0.24660654  0.62024604  0.26261104  1
  O  O358  1  0.25819759  0.61904085  0.75166989  1
  O  O359  1  0.75782691  0.11881513  0.25496471  1
  O  O360  1  0.75383188  0.11829655  0.75673790  1
  O  O361  1  0.72297252  0.63170621  0.27163509  1
  O  O362  1  0.75818658  0.63262260  0.76034725  1
  O  O363  1  0.36915755  0.12957532  0.36319817  1
  O  O364  1  0.37997233  0.11764308  0.87639583  1
  O  O365  1  0.36879806  0.61346579  0.38229113  1
  O  O366  1  0.37441299  0.63270707  0.86272959  1
  O  O367  1  0.87389299  0.11788484  0.37054663  1
  O  O368  1  0.86292807  0.12895754  0.86923023  1
  O  O369  1  0.88021480  0.61132368  0.37269411  1
  O  O370  1  0.86516065  0.62622348  0.86851472  1
  O  O371  1  0.13150463  0.38059266  0.13148051  1
  O  O372  1  0.12628432  0.38146583  0.61857072  1
  O  O373  1  0.13573751  0.88205572  0.11877469  1
  O  O374  1  0.13335179  0.87245391  0.62029207  1
  O  O375  1  0.63229551  0.37169335  0.14014567  1
  O  O376  1  0.63912583  0.38446096  0.62367692  1
  O  O377  1  0.63105621  0.88149709  0.12734883  1
  O  O378  1  0.63557638  0.87361718  0.63552753  1
  O  O379  1  0.12647087  0.25802428  0.25725677  1
  O  O380  1  0.13986806  0.25904097  0.73208597  1
  O  O381  1  0.11909158  0.74755943  0.26212323  1
  O  O382  1  0.11725101  0.74940457  0.75473693  1
  O  O383  1  0.61795060  0.25236670  0.26046411  1
  O  O384  1  0.61385849  0.24900834  0.74838289  1
  O  O385  1  0.61158885  0.76671313  0.23941132  1
  O  O386  1  0.62579140  0.76382806  0.75876837  1
  O  O387  1  0.38329632  0.24487462  0.24990532  1
  O  O388  1  0.38556897  0.24825555  0.74096951  1
  O  O389  1  0.38945373  0.75191174  0.24887137  1
  O  O390  1  0.37666288  0.74394079  0.74094085  1
  O  O391  1  0.87607768  0.24500976  0.24573622  1
  O  O392  1  0.86850094  0.23504165  0.74679845  1
  O  O393  1  0.88390642  0.75457480  0.23506574  1
  O  O394  1  0.88089274  0.74241462  0.74213722  1
  O  O395  1  0.37687638  0.49194846  0.49895933  1
  O  O396  1  0.38157844  0.48951760  1.00289474  1
  O  O397  1  0.38197751  0.98859672  0.50269763  1
  O  O398  1  0.37420210  0.98620151  1.00169070  1
  O  O399  1  0.87960990  0.49687078  0.49373279  1
  O  O400  1  0.88479721  0.49369409  0.99947371  1
  O  O401  1  0.87511335  0.99533094  0.48521430  1
  O  O402  1  0.87590411  0.98701575  1.00507205  1
  O  O403  1  0.13374670  0.00696575  0.01056018  1
  O  O404  1  0.12863495  0.00971238  0.49708174  1
  O  O405  1  0.11472691  0.49898584  0.00591152  1
  O  O406  1  0.11984245  0.50704936  0.50652420  1
  O  O407  1  0.62253603  0.00353541  0.01416790  1
  O  O408  1  0.61658075  0.00808942  0.49295846  1
  O  O409  1  0.61649137  0.51427385  -0.00061381  1
  O  O410  1  0.61413954  0.49561973  0.50355238  1
  O  O411  1  0.36758345  0.37535704  0.12005679  1
  O  O412  1  0.37893724  0.36467667  0.61395138  1
  O  O413  1  0.36260138  0.87159194  0.11833797  1
  O  O414  1  0.36966030  0.86326121  0.61545852  1
  O  O415  1  0.86935884  0.37135076  0.11694835  1
  O  O416  1  0.86256155  0.37790829  0.61768085  1
  O  O417  1  0.86904055  0.87117008  0.11904338  1
  O  O418  1  0.87262013  0.87123417  0.61534360  1
  O  O419  1  0.12722720  0.13158371  0.37797660  1
  O  O420  1  0.11483957  0.13116047  0.86664509  1
  O  O421  1  0.13267714  0.63057410  0.38173873  1
  O  O422  1  0.12592543  0.63523442  0.87729050  1
  O  O423  1  0.63035440  0.12991447  0.38017996  1
  O  O424  1  0.63668983  0.13004958  0.87911518  1
  O  O425  1  0.60457007  0.64162887  0.40012453  1
  O  O426  1  0.63073850  0.63419927  0.88054017  1
