# generated using pymatgen
data_V85Zn86O256
_symmetry_space_group_name_H-M   'P 1'
_cell_length_a   16.93300199
_cell_length_b   16.94134790
_cell_length_c   16.93073767
_cell_angle_alpha   89.99695474
_cell_angle_beta   90.01016854
_cell_angle_gamma   89.99939761
_symmetry_Int_Tables_number   1
_chemical_formula_structural   V85Zn86O256
_chemical_formula_sum   'V85 Zn86 O256'
_cell_volume   4856.88469963
_cell_formula_units_Z   1
loop_
 _symmetry_equiv_pos_site_id
 _symmetry_equiv_pos_as_xyz
  1  'x, y, z'
loop_
 _atom_site_type_symbol
 _atom_site_label
 _atom_site_symmetry_multiplicity
 _atom_site_fract_x
 _atom_site_fract_y
 _atom_site_fract_z
 _atom_site_occupancy
  V  V0  1  0.37662611  -0.00147448  0.37053535  1
  V  V1  1  0.87037360  0.37477863  0.50464562  1
  V  V2  1  0.75103259  0.87298906  0.62129574  1
  V  V3  1  0.49534922  0.64029254  0.63008087  1
  V  V4  1  0.49612694  0.37783218  0.86604114  1
  V  V5  1  0.00061925  -0.00586701  0.49300962  1
  V  V6  1  0.00510059  0.62650511  0.61965650  1
  V  V7  1  0.12910025  0.50065627  0.62525119  1
  V  V8  1  0.37690199  0.37545237  0.49772842  1
  V  V9  1  0.12724532  0.12123710  0.00484552  1
  V  V10  1  0.72245565  0.11237097  0.88300753  1
  V  V11  1  0.37741296  -0.00175583  0.87747998  1
  V  V12  1  0.72931274  0.22326759  0.02148358  1
  V  V13  1  0.00704606  0.25561148  0.24927978  1
  V  V14  1  0.74546126  0.12864367  0.38098454  1
  V  V15  1  0.00875846  0.76424855  0.25410031  1
  V  V16  1  0.23453043  0.37925687  0.13054412  1
  V  V17  1  0.74255474  0.63258259  0.37529391  1
  V  V18  1  0.23899210  0.87136259  0.12463561  1
  V  V19  1  0.73689516  0.38021705  0.12552546  1
  V  V20  1  0.74713989  0.50072046  0.24660524  1
  V  V21  1  0.50348975  0.24827697  0.26845172  1
  V  V22  1  0.62590495  0.87261331  0.22903245  1
  V  V23  1  0.87618104  0.50098783  0.37527709  1
  V  V24  1  0.61993514  0.74742685  0.86942492  1
  V  V25  1  0.12847174  0.25478229  0.37161835  1
  V  V26  1  0.74382294  0.00037625  0.23774983  1
  V  V27  1  0.88304643  0.00014348  0.87343744  1
  V  V28  1  0.25637382  0.12548656  0.36950281  1
  V  V29  1  0.13090746  0.00157999  0.62467222  1
  V  V30  1  0.87256215  0.49765396  0.87585309  1
  V  V31  1  0.62515370  0.50232718  0.62370152  1
  V  V32  1  0.00641689  -0.00380519  0.00683141  1
  V  V33  1  0.62350260  -0.00125056  0.62744501  1
  V  V34  1  0.75281010  -0.00621422  0.74884420  1
  V  V35  1  0.37380492  0.12859192  0.75090472  1
  V  V36  1  0.60007781  0.23796804  0.89651333  1
  V  V37  1  0.87290943  0.75754410  0.12631101  1
  V  V38  1  0.62735365  0.61917728  0.00508796  1
  V  V39  1  0.12245083  0.25210859  0.87498357  1
  V  V40  1  0.62000928  0.37609749  0.26599499  1
  V  V41  1  0.37308510  0.63650445  0.75088616  1
  V  V42  1  0.74944326  0.62283335  0.87597505  1
  V  V43  1  0.38092217  0.25111464  0.13327593  1
  V  V44  1  0.00652189  0.12190370  0.12872389  1
  V  V45  1  0.87632488  0.62744041  0.25056204  1
  V  V46  1  0.50133332  0.62174291  0.12589738  1
  V  V47  1  0.87414164  -0.00522929  0.37274951  1
  V  V48  1  0.37652674  0.87021487  0.00114779  1
  V  V49  1  0.00424137  0.49921002  0.00315142  1
  V  V50  1  0.00107813  0.74776306  0.75194701  1
  V  V51  1  0.23737858  -0.00553183  0.24547884  1
  V  V52  1  0.00600897  0.50289757  0.49883834  1
  V  V53  1  0.00018579  0.12823171  0.62433896  1
  V  V54  1  0.86954251  0.37568904  0.00221130  1
  V  V55  1  0.50583067  0.49236647  0.00491827  1
  V  V56  1  0.24411722  0.63004111  0.38608353  1
  V  V57  1  0.13146069  0.62543856  0.00359963  1
  V  V58  1  0.49902137  0.12577193  0.63285795  1
  V  V59  1  0.25097592  0.25054269  0.00487259  1
  V  V60  1  0.37633342  0.50004999  0.37009319  1
  V  V61  1  0.51306966  0.86649517  0.37663518  1
  V  V62  1  0.37647532  0.25332312  0.62866929  1
  V  V63  1  0.49813549  0.50214475  0.49880319  1
  V  V64  1  0.87498720  0.74915668  0.62273387  1
  V  V65  1  0.74979630  0.49293154  0.74627385  1
  V  V66  1  0.37205343  0.74729557  0.12314641  1
  V  V67  1  0.86238618  0.25159385  0.62713364  1
  V  V68  1  0.37535430  0.37803763  0.00212814  1
  V  V69  1  0.12570143  0.75948305  0.38510013  1
  V  V70  1  0.25282426  0.85736499  0.62097447  1
  V  V71  1  0.00491758  0.62252453  0.12855517  1
  V  V72  1  0.49874639  -0.00155332  0.50223003  1
  V  V73  1  0.37289014  0.86171962  0.50063122  1
  V  V74  1  0.12553549  0.12745944  0.49789653  1
  V  V75  1  0.87579563  0.12499026  0.75268454  1
  V  V76  1  0.87810982  0.25329414  0.12618213  1
  V  V77  1  0.49711721  0.87166394  0.86917918  1
  V  V78  1  0.74873869  0.75944829  0.00223031  1
  V  V79  1  0.00224686  0.87179816  0.87641106  1
  V  V80  1  0.00328763  0.37497678  0.37313779  1
  V  V81  1  0.62155262  0.37074640  0.74451455  1
  V  V82  1  0.13387307  0.74851020  0.87971323  1
  V  V83  1  0.24820203  0.12157998  0.88016159  1
  V  V84  1  0.23046237  0.49971088  0.24949392  1
  Zn  Zn85  1  0.12749401  0.87450212  0.74997047  1
  Zn  Zn86  1  0.37294768  0.62541443  0.24941112  1
  Zn  Zn87  1  0.73904412  0.26162172  0.49675986  1
  Zn  Zn88  1  0.87420564  0.62140098  0.74985392  1
  Zn  Zn89  1  0.42547168  0.09353810  0.20670731  1
  Zn  Zn90  1  0.12329109  0.37566935  0.74914303  1
  Zn  Zn91  1  0.61898842  0.13661375  0.50047876  1
  Zn  Zn92  1  -0.00319754  0.37248107  0.87491765  1
  Zn  Zn93  1  0.24785775  -0.00252307  0.74970612  1
  Zn  Zn94  1  0.87160501  0.87708186  0.00293507  1
  Zn  Zn95  1  0.74697509  0.75413866  0.49283517  1
  Zn  Zn96  1  0.24786436  0.37324071  0.62693632  1
  Zn  Zn97  1  0.87956442  0.87176193  0.49395484  1
  Zn  Zn98  1  0.61801627  0.63412119  0.49549421  1
  Zn  Zn99  1  0.50467740  0.74576253  0.25220247  1
  Zn  Zn100  1  0.25107989  0.25145713  0.49999714  1
  Zn  Zn101  1  0.87421445  0.12545474  0.25221832  1
  Zn  Zn102  1  -0.00296822  0.25237205  0.75263459  1
  Zn  Zn103  1  0.61572390  0.86800983  0.74621961  1
  Zn  Zn104  1  0.25036916  0.49855680  0.75571641  1
  Zn  Zn105  1  0.37214464  0.50215672  0.87194176  1
  Zn  Zn106  1  0.25319514  0.62461211  0.88027861  1
  Zn  Zn107  1  0.19278210  0.18585464  0.18915821  1
  Zn  Zn108  1  0.18992172  0.18896920  0.69030450  1
  Zn  Zn109  1  0.18713264  0.68735834  0.19178856  1
  Zn  Zn110  1  0.18542312  0.68371670  0.69015365  1
  Zn  Zn111  1  0.68751571  0.19158493  0.19694696  1
  Zn  Zn112  1  0.68384350  0.17987386  0.69683650  1
  Zn  Zn113  1  0.68740255  0.68943442  0.18584125  1
  Zn  Zn114  1  0.68801084  0.68339077  0.68669491  1
  Zn  Zn115  1  0.31451624  0.31793142  0.31211576  1
  Zn  Zn116  1  0.30745102  0.31441944  0.81168465  1
  Zn  Zn117  1  0.31451203  0.81163454  0.31023885  1
  Zn  Zn118  1  0.31056144  0.81196637  0.80802796  1
  Zn  Zn119  1  0.81453353  0.31332125  0.31273013  1
  Zn  Zn120  1  0.79983174  0.30319123  0.82235991  1
  Zn  Zn121  1  0.81051452  0.81706412  0.30608447  1
  Zn  Zn122  1  0.81418255  0.81061497  0.81325696  1
  Zn  Zn123  1  0.19120997  0.43789233  0.43949719  1
  Zn  Zn124  1  0.18873260  0.43928597  0.93872686  1
  Zn  Zn125  1  0.19008695  0.93761265  0.43869350  1
  Zn  Zn126  1  0.18995078  0.93464822  0.94229396  1
  Zn  Zn127  1  0.68853608  0.44660862  0.43906496  1
  Zn  Zn128  1  0.68299129  0.42963909  0.93528830  1
  Zn  Zn129  1  0.68775166  0.94250841  0.43805779  1
  Zn  Zn130  1  0.68587791  0.93804696  0.93180107  1
  Zn  Zn131  1  0.34286878  0.04751195  0.07665222  1
  Zn  Zn132  1  0.31422469  0.06247518  0.55707856  1
  Zn  Zn133  1  0.31294691  0.55826697  0.06668568  1
  Zn  Zn134  1  0.31607413  0.56756761  0.56390793  1
  Zn  Zn135  1  0.82237856  0.06105834  0.06463675  1
  Zn  Zn136  1  0.81504766  0.06254979  0.56097766  1
  Zn  Zn137  1  0.81561285  0.56594870  0.06436814  1
  Zn  Zn138  1  0.81443482  0.56280332  0.56204246  1
  Zn  Zn139  1  0.43998367  0.43392120  0.18783165  1
  Zn  Zn140  1  0.43424511  0.44666510  0.68502922  1
  Zn  Zn141  1  0.44383958  0.93041643  0.18194974  1
  Zn  Zn142  1  0.43107296  0.93613177  0.68986766  1
  Zn  Zn143  1  0.93896730  0.43851748  0.18812330  1
  Zn  Zn144  1  0.94058515  0.43447254  0.68866696  1
  Zn  Zn145  1  0.93543802  0.93851019  0.18938854  1
  Zn  Zn146  1  0.94230345  0.93557063  0.68392488  1
  Zn  Zn147  1  0.06322443  0.06507519  0.31326680  1
  Zn  Zn148  1  0.06441532  0.06450391  0.81077237  1
  Zn  Zn149  1  0.06242750  0.57019787  0.31664839  1
  Zn  Zn150  1  0.06193664  0.56203107  0.81411534  1
  Zn  Zn151  1  0.56953940  0.05612135  0.31690738  1
  Zn  Zn152  1  0.56410714  0.05754983  0.82371883  1
  Zn  Zn153  1  0.56279095  0.55759007  0.31010352  1
  Zn  Zn154  1  0.55936584  0.56181181  0.81188520  1
  Zn  Zn155  1  0.43724746  0.18629743  0.44138727  1
  Zn  Zn156  1  0.43094661  0.19601933  0.93099521  1
  Zn  Zn157  1  0.43593468  0.68565322  0.43520028  1
  Zn  Zn158  1  0.43754957  0.68681055  0.93991743  1
  Zn  Zn159  1  0.93298045  0.18569961  0.43738801  1
  Zn  Zn160  1  0.93425733  0.18550328  0.94247486  1
  Zn  Zn161  1  0.93841072  0.68896718  0.43562844  1
  Zn  Zn162  1  0.93705307  0.68510396  0.93942256  1
  Zn  Zn163  1  0.06229462  0.31236980  0.05838292  1
  Zn  Zn164  1  0.06011911  0.31369602  0.56121415  1
  Zn  Zn165  1  0.06120210  0.80872278  0.06373064  1
  Zn  Zn166  1  0.06621827  0.81383193  0.56222491  1
  Zn  Zn167  1  0.55962297  0.19694293  0.06633022  1
  Zn  Zn168  1  0.55979912  0.31516623  0.56265367  1
  Zn  Zn169  1  0.55696028  0.80802328  0.05572714  1
  Zn  Zn170  1  0.56741590  0.81102902  0.55748374  1
  O  O171  1  0.11477022  0.12984733  0.12117359  1
  O  O172  1  0.11912786  0.12129346  0.62037951  1
  O  O173  1  0.11258769  0.63201215  0.11982184  1
  O  O174  1  0.11159757  0.61984229  0.62686075  1
  O  O175  1  0.66462759  0.15823009  0.09026609  1
  O  O176  1  0.61468593  0.11569961  0.62798829  1
  O  O177  1  0.61896091  0.62852220  0.11261105  1
  O  O178  1  0.61228896  0.61806083  0.62766506  1
  O  O179  1  0.36961476  0.38785885  0.38524700  1
  O  O180  1  0.37934595  0.37580329  0.88257133  1
  O  O181  1  0.38040809  0.88129520  0.38154511  1
  O  O182  1  0.37605905  0.87758451  0.87887221  1
  O  O183  1  0.88327963  0.38143435  0.38019215  1
  O  O184  1  0.86921655  0.37457552  0.88948710  1
  O  O185  1  0.86847145  0.88884505  0.37596980  1
  O  O186  1  0.88498384  0.88068773  0.87670327  1
  O  O187  1  0.25681451  0.00354201  0.36702898  1
  O  O188  1  0.25280850  0.00662478  0.87277437  1
  O  O189  1  0.25304105  0.50827339  0.36634546  1
  O  O190  1  0.25253396  0.50662136  0.87551649  1
  O  O191  1  0.75591027  0.00841924  0.36788479  1
  O  O192  1  0.77111161  -0.00586263  0.86516167  1
  O  O193  1  0.75638631  0.50970319  0.36408492  1
  O  O194  1  0.75355708  0.50306346  0.87076933  1
  O  O195  1  0.25229334  0.49443267  0.14209598  1
  O  O196  1  0.23482479  0.50585776  0.61981489  1
  O  O197  1  0.25553737  0.99016038  0.13864974  1
  O  O198  1  0.23777296  1.00450030  0.62366243  1
  O  O199  1  0.75894509  0.49606277  0.13892439  1
  O  O200  1  0.74054494  0.50832251  0.63442288  1
  O  O201  1  0.75623332  1.00519731  0.13910501  1
  O  O202  1  0.74823300  0.99401744  0.63134675  1
  O  O203  1  -0.00244714  0.36347434  0.25530138  1
  O  O204  1  0.00412671  0.37000707  0.75729976  1
  O  O205  1  -0.00025870  0.86257671  0.24851898  1
  O  O206  1  0.00350240  0.86235884  0.75329304  1
  O  O207  1  0.51472835  0.37098144  0.25114244  1
  O  O208  1  0.50766807  0.39195850  0.75752726  1
  O  O209  1  0.51388145  0.87688409  0.25583619  1
  O  O210  1  0.49671435  0.87515985  0.76301262  1
  O  O211  1  0.51092190  0.14080732  0.26243565  1
  O  O212  1  0.48878718  0.11425903  0.73914566  1
  O  O213  1  0.50251872  0.62347128  0.23659935  1
  O  O214  1  0.49072912  0.62164718  0.73828349  1
  O  O215  1  0.99903060  0.13547979  0.24426072  1
  O  O216  1  0.99452038  0.12727869  0.74079674  1
  O  O217  1  0.99485685  0.63090849  0.24402916  1
  O  O218  1  0.99702331  0.63503538  0.74403847  1
  O  O219  1  0.37052879  0.26081355  0.00823257  1
  O  O220  1  0.37462382  0.25917469  0.50767846  1
  O  O221  1  0.37390396  0.75397729  0.01205837  1
  O  O222  1  0.37580752  0.76255903  0.49683417  1
  O  O223  1  0.86675032  0.25518512  0.01261000  1
  O  O224  1  0.87116406  0.25768264  0.50823853  1
  O  O225  1  0.86680094  0.75043763  0.00728854  1
  O  O226  1  0.87273602  0.75232743  0.50991275  1
  O  O227  1  0.12700933  0.24394734  0.49267914  1
  O  O228  1  0.13183367  0.24122590  0.99586408  1
  O  O229  1  0.11658553  0.74783360  0.48415336  1
  O  O230  1  0.11569328  0.73792667  0.99093885  1
  O  O231  1  0.62810289  0.24932135  0.50752466  1
  O  O232  1  0.63569704  0.27453612  0.99650839  1
  O  O233  1  0.63454156  0.74546387  0.49930346  1
  O  O234  1  0.63229841  0.74168705  0.99227744  1
  O  O235  1  0.49061162  0.24467432  0.13995927  1
  O  O236  1  0.48524614  0.23921398  0.62420988  1
  O  O237  1  0.49249530  0.73848696  0.12396881  1
  O  O238  1  0.50508524  0.73854063  0.62618142  1
  O  O239  1  0.99699868  0.24646083  0.13051408  1
  O  O240  1  0.99281599  0.23771838  0.62386766  1
  O  O241  1  0.99493245  0.74451043  0.13658738  1
  O  O242  1  0.99665530  0.74505024  0.63004753  1
  O  O243  1  0.00665724  0.25206678  0.36772391  1
  O  O244  1  0.00852011  0.24822848  0.87913609  1
  O  O245  1  0.01103531  0.74571715  0.36362139  1
  O  O246  1  0.00372749  0.75243906  0.86801297  1
  O  O247  1  0.49515528  0.25411769  0.36718714  1
  O  O248  1  0.49699655  0.26900543  0.86223659  1
  O  O249  1  0.49566665  0.76111192  0.37018392  1
  O  O250  1  0.50982116  0.75601088  0.88150753  1
  O  O251  1  0.24420173  0.12509500  0.48602103  1
  O  O252  1  0.24875487  0.12734812  0.99143955  1
  O  O253  1  0.25236861  0.62274550  0.48441283  1
  O  O254  1  0.23468988  0.61858186  1.00610705  1
  O  O255  1  0.74995840  0.12316818  0.48835334  1
  O  O256  1  0.77070035  0.12673159  0.98660306  1
  O  O257  1  0.75268741  0.62206217  0.48243862  1
  O  O258  1  0.74312555  0.62948748  0.99591561  1
  O  O259  1  0.25716502  0.37300897  0.00992863  1
  O  O260  1  0.26251284  0.37464557  0.50564272  1
  O  O261  1  0.25891805  0.87788217  0.01635887  1
  O  O262  1  0.25818861  0.88050146  0.51310401  1
  O  O263  1  0.75636396  0.37713256  0.01050905  1
  O  O264  1  0.76557982  0.37959496  0.49340429  1
  O  O265  1  0.74856455  0.86411587  -0.00572701  1
  O  O266  1  0.75373585  0.87808294  0.51174915  1
  O  O267  1  0.13213143  0.49988152  0.25435346  1
  O  O268  1  0.12486876  0.50065605  0.73972759  1
  O  O269  1  0.13876156  0.99868643  0.25495094  1
  O  O270  1  0.12520585  0.99701821  0.73901706  1
  O  O271  1  0.63332719  0.48752188  0.25124931  1
  O  O272  1  0.63143370  0.49620322  0.74413769  1
  O  O273  1  0.63575261  0.99266137  0.24644281  1
  O  O274  1  0.63663699  0.99283797  0.74646150  1
  O  O275  1  0.37094810  -0.00096442  0.26408232  1
  O  O276  1  0.36884294  0.00996562  0.75941866  1
  O  O277  1  0.37703151  0.49975261  0.26251131  1
  O  O278  1  0.37112819  0.51379403  0.75158605  1
  O  O279  1  0.86356988  0.00130455  0.25547414  1
  O  O280  1  0.87432503  0.00276986  0.75353960  1
  O  O281  1  0.86945492  0.50576252  0.25633265  1
  O  O282  1  0.86689211  0.49746689  0.75573586  1
  O  O283  1  0.12128187  0.36181424  0.38203972  1
  O  O284  1  0.12402305  0.35999172  0.88216098  1
  O  O285  1  0.13408133  0.85918509  0.37701718  1
  O  O286  1  0.12037164  0.86652672  0.87548825  1
  O  O287  1  0.63167471  0.37841880  0.36460840  1
  O  O288  1  0.61371019  0.36292843  0.86633903  1
  O  O289  1  0.61506958  0.88308504  0.36990840  1
  O  O290  1  0.61396243  0.86602023  0.87552925  1
  O  O291  1  0.35149861  0.15000414  0.13296647  1
  O  O292  1  0.37788830  0.12813975  0.63279721  1
  O  O293  1  0.38230082  0.62973591  0.12549473  1
  O  O294  1  0.38615365  0.62617545  0.63444655  1
  O  O295  1  0.88817435  0.13561762  0.12797513  1
  O  O296  1  0.88273410  0.12890265  0.63122847  1
  O  O297  1  0.88506513  0.63570917  0.13033779  1
  O  O298  1  0.88450587  0.63266308  0.62708129  1
  O  O299  1  0.25283325  0.26287433  0.12378644  1
  O  O300  1  0.26294236  0.24692662  0.62189469  1
  O  O301  1  0.25592215  0.76289642  0.13438032  1
  O  O302  1  0.24240293  0.75945357  0.62243856  1
  O  O303  1  0.76270170  0.26342289  0.12724234  1
  O  O304  1  0.76151353  0.23745822  0.62553154  1
  O  O305  1  0.76041771  0.74325165  0.11460985  1
  O  O306  1  0.75902505  0.75651277  0.62709013  1
  O  O307  1  0.24556850  0.24313319  0.37209876  1
  O  O308  1  0.24429859  0.24218536  0.88436651  1
  O  O309  1  0.23973664  0.73860475  0.36594406  1
  O  O310  1  0.23728852  0.74760539  0.87318387  1
  O  O311  1  0.75943977  0.23249353  0.37479692  1
  O  O312  1  0.73281703  0.23023369  0.89250106  1
  O  O313  1  0.75969221  0.73527384  0.37102474  1
  O  O314  1  0.74644423  0.74257918  0.88305776  1
  O  O315  1  0.00481272  0.11711243  0.00955602  1
  O  O316  1  0.00407819  0.11821885  0.50668579  1
  O  O317  1  0.00450251  0.61786900  0.00909415  1
  O  O318  1  -0.00662776  0.61532183  0.50801354  1
  O  O319  1  0.53659023  0.16583736  -0.04132824  1
  O  O320  1  0.49710696  0.11551428  0.51342433  1
  O  O321  1  0.50695732  0.61622760  0.00781358  1
  O  O322  1  0.49628067  0.62201474  0.51212878  1
  O  O323  1  0.48628659  0.38789256  0.50653912  1
  O  O324  1  0.49046767  0.38230146  0.99042863  1
  O  O325  1  0.49459236  0.88010324  0.49398450  1
  O  O326  1  0.48433767  0.87123076  0.98952546  1
  O  O327  1  0.99004829  0.38139174  0.49309261  1
  O  O328  1  0.98938433  0.38245537  1.00030176  1
  O  O329  1  0.99957401  0.89067318  0.50649761  1
  O  O330  1  0.99903115  0.88133053  0.99656468  1
  O  O331  1  0.49086508  0.51220372  0.38862575  1
  O  O332  1  0.49824219  0.49378249  0.88630094  1
  O  O333  1  0.49401833  0.99415185  0.38310084  1
  O  O334  1  0.48776460  0.98899212  0.87443598  1
  O  O335  1  0.99709747  0.49755619  0.38137814  1
  O  O336  1  0.98957322  0.49847974  0.88413906  1
  O  O337  1  0.99095849  1.00743492  0.38199190  1
  O  O338  1  0.99713693  0.99412500  0.87965737  1
  O  O339  1  -0.00491039  0.00879822  0.11912645  1
  O  O340  1  0.00979444  0.00971122  0.61866764  1
  O  O341  1  -0.00668777  0.51092423  0.11730389  1
  O  O342  1  0.00620909  0.50754443  0.61875637  1
  O  O343  1  0.45006231  0.02347069  0.12129512  1
  O  O344  1  0.50045611  0.00243042  0.61988361  1
  O  O345  1  0.49581262  0.50510580  0.11335267  1
  O  O346  1  0.50395919  0.51168413  0.61406973  1
  O  O347  1  0.25072640  0.39070896  0.24579551  1
  O  O348  1  0.24310727  0.37939277  0.74492837  1
  O  O349  1  0.25479914  0.88602553  0.24006662  1
  O  O350  1  0.24886750  0.87717574  0.73402981  1
  O  O351  1  0.74518031  0.38238352  0.24802979  1
  O  O352  1  0.74017924  0.38629362  0.75987365  1
  O  O353  1  0.73654537  0.88750345  0.24950995  1
  O  O354  1  0.75406690  0.88226954  0.74060364  1
  O  O355  1  0.24781959  0.11172883  0.26070804  1
  O  O356  1  0.25492868  0.12324534  0.76396242  1
  O  O357  1  0.25080042  0.61111882  0.25448928  1
  O  O358  1  0.26273991  0.62426586  0.75014201  1
  O  O359  1  0.74889003  0.11531213  0.25935589  1
  O  O360  1  0.75595510  0.10864288  0.76125824  1
  O  O361  1  0.75376006  0.61960268  0.25540516  1
  O  O362  1  0.75123129  0.61273398  0.75808986  1
  O  O363  1  0.36709486  0.11485250  0.38126509  1
  O  O364  1  0.36854308  0.11884157  0.87087738  1
  O  O365  1  0.36224929  0.62009129  0.37087778  1
  O  O366  1  0.37607393  0.62595119  0.86430443  1
  O  O367  1  0.86582280  0.11443120  0.37271991  1
  O  O368  1  0.87877820  0.11419020  0.86789771  1
  O  O369  1  0.86964679  0.61906829  0.36811316  1
  O  O370  1  0.86756949  0.61683028  0.87444277  1
  O  O371  1  0.13540523  0.37515399  0.12016858  1
  O  O372  1  0.12417303  0.38545127  0.62415029  1
  O  O373  1  0.14002779  0.87135288  0.12054731  1
  O  O374  1  0.13686082  0.88337401  0.62335688  1
  O  O375  1  0.63911862  0.37539326  0.13823056  1
  O  O376  1  0.61550900  0.39567139  0.62939009  1
  O  O377  1  0.61547501  0.87769425  0.13014394  1
  O  O378  1  0.63404173  0.87946902  0.62842950  1
  O  O379  1  0.11841422  0.24673264  0.25836141  1
  O  O380  1  0.12224153  0.24827742  0.76216693  1
  O  O381  1  0.11229145  0.74799899  0.25708539  1
  O  O382  1  0.11667551  0.74956858  0.75940112  1
  O  O383  1  0.61480340  0.26312254  0.25185416  1
  O  O384  1  0.62565392  0.27264309  0.72860054  1
  O  O385  1  0.62572222  0.76780816  0.24403299  1
  O  O386  1  0.63439395  0.75030583  0.76544702  1
  O  O387  1  0.39240427  0.26186122  0.24749054  1
  O  O388  1  0.36966833  0.23642309  0.74597503  1
  O  O389  1  0.38069185  0.74770292  0.23734373  1
  O  O390  1  0.37501388  0.73647950  0.75100849  1
  O  O391  1  0.88318395  0.25040471  0.23948818  1
  O  O392  1  0.87108964  0.24356659  0.74696424  1
  O  O393  1  0.88353900  0.74740799  0.24491840  1
  O  O394  1  0.88243168  0.74789982  0.73998768  1
  O  O395  1  0.37957741  0.49679047  0.49342824  1
  O  O396  1  0.38064208  0.48947310  1.00040819  1
  O  O397  1  0.38442968  0.99258528  0.49277700  1
  O  O398  1  0.36554893  0.98748169  0.98268203  1
  O  O399  1  0.88490799  0.49382266  0.49713322  1
  O  O400  1  0.88075823  0.49343084  0.99688891  1
  O  O401  1  0.88433312  0.99952916  0.49214609  1
  O  O402  1  0.88854654  0.99735023  0.99136817  1
  O  O403  1  0.11351515  0.00505257  -0.00393156  1
  O  O404  1  0.11915707  0.00750580  0.50330506  1
  O  O405  1  0.10977368  0.50629816  -0.00373165  1
  O  O406  1  0.11183564  0.49505973  0.50445978  1
  O  O407  1  0.64845400  0.04605577  -0.07916309  1
  O  O408  1  0.61135534  0.00082154  0.50791395  1
  O  O409  1  0.61799763  0.50650222  -0.00413054  1
  O  O410  1  0.61704308  0.50865913  0.50573894  1
  O  O411  1  0.36961624  0.36823734  0.11930709  1
  O  O412  1  0.37436210  0.36732002  0.62172362  1
  O  O413  1  0.37031420  0.86482433  0.11722513  1
  O  O414  1  0.36065862  0.87835606  0.61781741  1
  O  O415  1  0.87125948  0.37098006  0.11769104  1
  O  O416  1  0.88050987  0.36362048  0.61723795  1
  O  O417  1  0.87808250  0.86204794  0.12291365  1
  O  O418  1  0.86953463  0.86652663  0.62297498  1
  O  O419  1  0.13197297  0.13588782  0.37870056  1
  O  O420  1  0.13118835  0.13155808  0.88172226  1
  O  O421  1  0.13820898  0.63353853  0.37359809  1
  O  O422  1  0.12352422  0.63203582  0.88529807  1
  O  O423  1  0.64122135  0.11852997  0.38143659  1
  O  O424  1  0.62599776  0.15701663  0.82706417  1
  O  O425  1  0.63997608  0.62101757  0.37133362  1
  O  O426  1  0.62734267  0.62956716  0.88423978  1
