# generated using pymatgen
data_V85Zn86O256
_symmetry_space_group_name_H-M   'P 1'
_cell_length_a   16.94859095
_cell_length_b   16.94817443
_cell_length_c   16.95231852
_cell_angle_alpha   90.02820082
_cell_angle_beta   89.97332062
_cell_angle_gamma   89.92387340
_symmetry_Int_Tables_number   1
_chemical_formula_structural   V85Zn86O256
_chemical_formula_sum   'V85 Zn86 O256'
_cell_volume   4869.50867631
_cell_formula_units_Z   1
loop_
 _symmetry_equiv_pos_site_id
 _symmetry_equiv_pos_as_xyz
  1  'x, y, z'
loop_
 _atom_site_type_symbol
 _atom_site_label
 _atom_site_symmetry_multiplicity
 _atom_site_fract_x
 _atom_site_fract_y
 _atom_site_fract_z
 _atom_site_occupancy
  V  V0  1  0.74553896  0.75101021  0.00982329  1
  V  V1  1  0.00099320  0.24338371  0.23881594  1
  V  V2  1  0.37401388  0.12675425  0.74871230  1
  V  V3  1  0.87813506  0.49515060  0.87612270  1
  V  V4  1  0.75421690  0.86866613  0.62806266  1
  V  V5  1  -0.01304852  0.12628817  0.62189983  1
  V  V6  1  0.11727111  0.87012696  0.25127211  1
  V  V7  1  0.38637994  0.74165748  0.12357416  1
  V  V8  1  0.62288316  0.49754976  0.62283139  1
  V  V9  1  0.62750952  0.87367785  0.24510070  1
  V  V10  1  -0.00056858  0.87325380  0.87466429  1
  V  V11  1  0.24793171  0.74469848  0.49893029  1
  V  V12  1  0.25008087  0.00046745  0.74760780  1
  V  V13  1  0.25295545  0.37855611  0.11903244  1
  V  V14  1  0.50125985  0.87210422  0.37241115  1
  V  V15  1  0.62249557  0.25148192  0.87636793  1
  V  V16  1  0.11666290  0.25227071  0.37724051  1
  V  V17  1  0.74688035  0.25193180  0.00587984  1
  V  V18  1  0.25324425  0.62383260  0.37677980  1
  V  V19  1  0.10936206  0.37208039  0.75297288  1
  V  V20  1  -0.00046695  0.74614624  0.74281601  1
  V  V21  1  0.11662154  0.62791856  0.00509421  1
  V  V22  1  0.37983367  0.62758464  0.75365984  1
  V  V23  1  0.37630837  0.49173256  0.88277908  1
  V  V24  1  0.63555062  -0.00320569  0.12464924  1
  V  V25  1  0.12096949  0.51303986  0.62354050  1
  V  V26  1  0.93480449  0.18406129  0.80239367  1
  V  V27  1  0.37644869  0.87389749  0.49917638  1
  V  V28  1  0.37741946  0.74862833  0.62789398  1
  V  V29  1  0.89268577  0.74571654  0.12323937  1
  V  V30  1  0.74585337  0.50204123  0.75127310  1
  V  V31  1  0.75381889  0.61910103  0.37505192  1
  V  V32  1  0.62996272  0.51457244  0.12383217  1
  V  V33  1  0.50045987  0.25424154  0.74868263  1
  V  V34  1  0.74476991  0.62673840  0.88141869  1
  V  V35  1  0.50066159  0.50486549  0.01044983  1
  V  V36  1  0.49738569  0.00068462  0.00106667  1
  V  V37  1  0.12387667  0.74786082  0.87602980  1
  V  V38  1  0.37397369  0.00156962  0.87625850  1
  V  V39  1  0.24697901  0.37690439  0.62557026  1
  V  V40  1  0.22561749  0.02264213  0.21636108  1
  V  V41  1  0.24825246  0.25207321  0.49973228  1
  V  V42  1  0.37587732  0.37960277  0.48699320  1
  V  V43  1  0.80507743  0.80362751  0.45255962  1
  V  V44  1  0.87366601  -0.00301238  0.87060574  1
  V  V45  1  0.25557477  0.49831050  0.25503621  1
  V  V46  1  0.24028183  0.12761757  0.87604271  1
  V  V47  1  0.49844501  0.26156214  0.25475581  1
  V  V48  1  0.11940603  0.37608634  0.25431480  1
  V  V49  1  0.61775179  0.87492238  0.74431814  1
  V  V50  1  0.12052530  -0.00178702  0.62249968  1
  V  V51  1  0.24935758  0.49998457  0.75035218  1
  V  V52  1  0.25069360  0.87450303  0.62468962  1
  V  V53  1  0.74735502  0.00568449  0.74379525  1
  V  V54  1  0.37568202  0.25304388  0.11580984  1
  V  V55  1  0.11616303  0.74983382  0.37580191  1
  V  V56  1  0.49733335  0.49656028  0.48633491  1
  V  V57  1  0.24955209  0.62408633  0.87776165  1
  V  V58  1  0.50028511  0.62729385  0.62762479  1
  V  V59  1  0.01668623  0.00455654  0.01053901  1
  V  V60  1  0.49680525  0.12382171  0.12858624  1
  V  V61  1  0.62809968  0.62899430  0.49816267  1
  V  V62  1  0.37426749  0.25246519  0.62345794  1
  V  V63  1  0.50576975  0.12045829  0.62391839  1
  V  V64  1  0.25108000  0.86779449  0.13172417  1
  V  V65  1  0.87766975  0.11419436  0.24720357  1
  V  V66  1  0.87766515  0.62487509  0.74535566  1
  V  V67  1  0.89247052  0.62513461  0.24643320  1
  V  V68  1  0.38109641  0.62241559  0.24999295  1
  V  V69  1  0.12057609  0.12359415  0.50242518  1
  V  V70  1  0.00095664  0.49276865  -0.00202327  1
  V  V71  1  0.24862327  0.11919280  0.38152511  1
  V  V72  1  0.75139922  0.25370674  0.49797795  1
  V  V73  1  0.24032041  0.25254264  -0.00361712  1
  V  V74  1  0.62745024  0.12020405  0.49807116  1
  V  V75  1  0.88267260  0.49141379  0.37216160  1
  V  V76  1  0.61831676  0.75045169  0.87547459  1
  V  V77  1  -0.01529713  -0.01446055  0.49000161  1
  V  V78  1  0.37455455  0.87365898  0.00115547  1
  V  V79  1  0.11856918  0.50531847  0.12836909  1
  V  V80  1  0.00480126  0.51688542  0.50158751  1
  V  V81  1  0.86937086  0.87790762  0.00525442  1
  V  V82  1  0.88843651  0.37252529  0.50074410  1
  V  V83  1  0.62437040  0.12482781  0.00013488  1
  V  V84  1  0.37262994  -0.00175561  0.37027402  1
  Zn  Zn85  1  0.87689903  0.25192388  0.62949417  1
  Zn  Zn86  1  0.87467097  0.74758838  0.62204336  1
  Zn  Zn87  1  0.37562165  0.12680830  0.25295887  1
  Zn  Zn88  1  0.75659857  0.12094371  0.37530686  1
  Zn  Zn89  1  0.62905028  0.37939674  0.25318293  1
  Zn  Zn90  1  0.49658586  0.87174763  0.87077202  1
  Zn  Zn91  1  0.74974026  0.37685214  0.12690769  1
  Zn  Zn92  1  0.49493739  0.37221116  0.88586571  1
  Zn  Zn93  1  0.12546259  0.87232188  0.74945035  1
  Zn  Zn94  1  0.62169631  0.25659239  0.37714338  1
  Zn  Zn95  1  0.75436066  0.49673951  0.24834989  1
  Zn  Zn96  1  0.62453752  0.74893474  0.37465010  1
  Zn  Zn97  1  0.75249166  0.37630812  0.62370296  1
  Zn  Zn98  1  0.50210053  -0.00148073  0.50212539  1
  Zn  Zn99  1  0.25068723  0.74642294  0.00161641  1
  Zn  Zn100  1  0.50451058  0.74377761  0.24609028  1
  Zn  Zn101  1  0.87651101  0.37275190  0.00076984  1
  Zn  Zn102  1  0.74981087  0.12656632  0.87110714  1
  Zn  Zn103  1  0.11186259  0.25255285  0.87313941  1
  Zn  Zn104  1  0.87494977  0.25138702  0.12773421  1
  Zn  Zn105  1  0.75469879  -0.00378394  0.25609097  1
  Zn  Zn106  1  0.62197144  0.37742874  0.75091652  1
  Zn  Zn107  1  0.19020601  0.19194812  0.18891903  1
  Zn  Zn108  1  0.18123066  0.18844288  0.68818091  1
  Zn  Zn109  1  0.18966422  0.68761982  0.18997022  1
  Zn  Zn110  1  0.19032873  0.68910457  0.69103884  1
  Zn  Zn111  1  0.68556531  0.18365469  0.19060153  1
  Zn  Zn112  1  0.68839054  0.19005280  0.68301935  1
  Zn  Zn113  1  0.69137691  0.68601996  0.19128821  1
  Zn  Zn114  1  0.68524078  0.68835808  0.69151437  1
  Zn  Zn115  1  0.30938379  0.30840833  0.30865315  1
  Zn  Zn116  1  0.30861300  0.31286953  0.81027053  1
  Zn  Zn117  1  0.31084316  0.81146439  0.30934830  1
  Zn  Zn118  1  0.31181200  0.81108895  0.81333897  1
  Zn  Zn119  1  0.81289477  0.31146449  0.31257729  1
  Zn  Zn120  1  0.80215372  0.31971161  0.81908374  1
  Zn  Zn121  1  0.81367519  0.81236934  0.29098531  1
  Zn  Zn122  1  0.80861260  0.81201650  0.81214093  1
  Zn  Zn123  1  0.18427464  0.43922622  0.43795071  1
  Zn  Zn124  1  0.18469633  0.43713150  0.93635867  1
  Zn  Zn125  1  0.18343577  0.93366331  0.43765323  1
  Zn  Zn126  1  0.19178611  0.93270293  0.93596115  1
  Zn  Zn127  1  0.68918830  0.43227752  0.43247070  1
  Zn  Zn128  1  0.68238543  0.43694676  0.94152640  1
  Zn  Zn129  1  0.68524459  0.94351018  0.43376696  1
  Zn  Zn130  1  0.68747712  0.93632651  0.93376657  1
  Zn  Zn131  1  0.29938585  0.06846947  0.06376996  1
  Zn  Zn132  1  0.31537037  0.06154882  0.56095358  1
  Zn  Zn133  1  0.31038306  0.56181690  0.06266992  1
  Zn  Zn134  1  0.31349404  0.56125397  0.56179749  1
  Zn  Zn135  1  0.81615963  0.06777795  0.06417849  1
  Zn  Zn136  1  0.80801903  0.05737122  0.56095005  1
  Zn  Zn137  1  0.81425349  0.56655534  0.06218368  1
  Zn  Zn138  1  0.81278004  0.56211961  0.56118984  1
  Zn  Zn139  1  0.43632578  0.43970759  0.18178097  1
  Zn  Zn140  1  0.43555851  0.43957183  0.68497386  1
  Zn  Zn141  1  0.43575965  0.93713022  0.18934580  1
  Zn  Zn142  1  0.43721549  0.93870919  0.68726183  1
  Zn  Zn143  1  0.93682362  0.43260886  0.18528158  1
  Zn  Zn144  1  0.93511852  0.44266086  0.68231588  1
  Zn  Zn145  1  0.93826461  0.93230459  0.18411440  1
  Zn  Zn146  1  0.93424617  0.93598958  0.68550178  1
  Zn  Zn147  1  0.05681117  0.06172128  0.31397259  1
  Zn  Zn148  1  0.06539649  0.05403547  0.81487617  1
  Zn  Zn149  1  0.06758697  0.56411768  0.31836411  1
  Zn  Zn150  1  0.06154555  0.56091581  0.81300014  1
  Zn  Zn151  1  0.56601108  0.06290933  0.31415989  1
  Zn  Zn152  1  0.56278886  0.06177587  0.81157310  1
  Zn  Zn153  1  0.56565783  0.55917551  0.31136393  1
  Zn  Zn154  1  0.56012561  0.56297246  0.81733992  1
  Zn  Zn155  1  0.43653358  0.18771533  0.43918487  1
  Zn  Zn156  1  0.43335572  0.18777189  0.93831761  1
  Zn  Zn157  1  0.43668771  0.68534795  0.43717281  1
  Zn  Zn158  1  0.43998068  0.68417948  0.93922046  1
  Zn  Zn159  1  0.93629296  0.18309031  0.43426573  1
  Zn  Zn160  1  0.93839656  0.18044060  0.96579345  1
  Zn  Zn161  1  0.94141993  0.68055208  0.43279228  1
  Zn  Zn162  1  0.93493789  0.68410588  0.93562857  1
  Zn  Zn163  1  0.06717245  0.31675903  0.06324960  1
  Zn  Zn164  1  0.06020938  0.31270843  0.56853864  1
  Zn  Zn165  1  0.06492762  0.82213740  0.06097089  1
  Zn  Zn166  1  0.06334943  0.81051173  0.56040187  1
  Zn  Zn167  1  0.56337053  0.32314073  0.06626315  1
  Zn  Zn168  1  0.56263582  0.31293423  0.55896689  1
  Zn  Zn169  1  0.56189010  0.81260619  0.06060226  1
  Zn  Zn170  1  0.56338006  0.81163514  0.56348688  1
  O  O171  1  0.19201772  0.09040958  0.13904882  1
  O  O172  1  0.11612387  0.11702157  0.62108006  1
  O  O173  1  0.13183432  0.61745447  0.11808078  1
  O  O174  1  0.13146131  0.61191161  0.63104083  1
  O  O175  1  0.61500189  0.11662209  0.11963731  1
  O  O176  1  0.61429416  0.13211619  0.61527860  1
  O  O177  1  0.62668825  0.61440149  0.12724203  1
  O  O178  1  0.61913118  0.61793117  0.62038805  1
  O  O179  1  0.36265839  0.37108731  0.38861769  1
  O  O180  1  0.37284866  0.38918089  0.86794988  1
  O  O181  1  0.37870403  0.88070955  0.37753829  1
  O  O182  1  0.37476581  0.88011418  0.88276816  1
  O  O183  1  0.87707319  0.38687634  0.38130614  1
  O  O184  1  0.86930276  0.39145675  0.87883195  1
  O  O185  1  0.86104940  0.85486587  0.38921102  1
  O  O186  1  0.88036048  0.88070044  0.88077163  1
  O  O187  1  0.25424789  0.00989202  0.38293523  1
  O  O188  1  0.25379612  0.00770142  0.86896998  1
  O  O189  1  0.24177421  0.51010345  0.36643735  1
  O  O190  1  0.25645015  0.50564838  0.87212444  1
  O  O191  1  0.74626341  0.00731003  0.36902229  1
  O  O192  1  0.75844774  0.00462497  0.86937823  1
  O  O193  1  0.76375287  0.50540241  0.37397469  1
  O  O194  1  0.75060660  0.50787017  0.87088934  1
  O  O195  1  0.24110357  0.49448059  0.13207033  1
  O  O196  1  0.24303049  0.49372027  0.62809583  1
  O  O197  1  0.27609020  0.97472196  0.12891187  1
  O  O198  1  0.24356786  0.99590098  0.62790875  1
  O  O199  1  0.74012725  0.50377174  0.12321260  1
  O  O200  1  0.74016367  0.50250045  0.63310564  1
  O  O201  1  0.73738473  1.00396245  0.12507650  1
  O  O202  1  0.75320780  0.98672897  0.63441818  1
  O  O203  1  0.01510774  0.36794517  0.24758760  1
  O  O204  1  0.01100054  0.38108105  0.74542723  1
  O  O205  1  0.01853157  0.87746816  0.24646153  1
  O  O206  1  -0.00045426  0.86851133  0.76146611  1
  O  O207  1  0.49536970  0.36274768  0.24496801  1
  O  O208  1  0.49884652  0.36273123  0.74804148  1
  O  O209  1  0.50721989  0.87264373  0.25671873  1
  O  O210  1  0.51297389  0.87980111  0.75053066  1
  O  O211  1  0.49712068  0.12891326  0.23809307  1
  O  O212  1  0.49622468  0.13502725  0.74337780  1
  O  O213  1  0.48461974  0.62367970  0.25871622  1
  O  O214  1  0.49030699  0.61962157  0.74184261  1
  O  O215  1  0.99285856  0.13036774  0.24856283  1
  O  O216  1  0.99641599  0.12337608  0.74562520  1
  O  O217  1  0.99169679  0.62365653  0.25567810  1
  O  O218  1  0.99014341  0.63379937  0.75748719  1
  O  O219  1  0.36499522  0.24916939  0.01040720  1
  O  O220  1  0.36792417  0.25721499  0.50578697  1
  O  O221  1  0.37426991  0.75490764  0.00525749  1
  O  O222  1  0.36856721  0.75471699  0.50708826  1
  O  O223  1  0.86231384  0.25092043  0.00279919  1
  O  O224  1  0.87227520  0.25793571  0.49880649  1
  O  O225  1  0.87048120  0.75462183  0.00693079  1
  O  O226  1  0.86793245  0.73868330  0.50291253  1
  O  O227  1  0.12874462  0.24727748  0.49437232  1
  O  O228  1  0.13492334  0.25456330  0.99269667  1
  O  O229  1  0.13492496  0.75555387  0.48732497  1
  O  O230  1  0.12548990  0.74395706  0.99510344  1
  O  O231  1  0.63382324  0.24446890  0.50006339  1
  O  O232  1  0.62601654  0.24664742  0.99385272  1
  O  O233  1  0.61807068  0.73240439  0.49814812  1
  O  O234  1  0.63561268  0.76027840  0.99058259  1
  O  O235  1  0.49158813  0.24515560  0.12855153  1
  O  O236  1  0.49492679  0.24418185  0.63165570  1
  O  O237  1  0.49020676  0.74740663  0.12420599  1
  O  O238  1  0.49412422  0.73526197  0.62065692  1
  O  O239  1  1.00803763  0.25054295  0.13589429  1
  O  O240  1  0.99661328  0.23552224  0.62368179  1
  O  O241  1  0.99071184  0.74966256  0.11500486  1
  O  O242  1  0.99960234  0.75422487  0.63969543  1
  O  O243  1  0.01444201  0.24394160  0.36675343  1
  O  O244  1  -0.00863571  0.23587663  0.86997811  1
  O  O245  1  0.01736045  0.74704557  0.38010254  1
  O  O246  1  0.00379386  0.75601555  0.87036731  1
  O  O247  1  0.49127061  0.24544775  0.35603492  1
  O  O248  1  0.50228989  0.25156534  0.86739760  1
  O  O249  1  0.49721330  0.76229370  0.37328814  1
  O  O250  1  0.51372909  0.75102457  0.88047880  1
  O  O251  1  0.24258260  0.13090314  0.49838459  1
  O  O252  1  0.25326282  0.13735008  0.98547076  1
  O  O253  1  0.25617300  0.63609259  0.49396123  1
  O  O254  1  0.23851633  0.62448041  0.99347989  1
  O  O255  1  0.74236563  0.13229964  0.50199433  1
  O  O256  1  0.74127652  0.13151484  0.99553986  1
  O  O257  1  0.74142847  0.61626482  0.48781518  1
  O  O258  1  0.75486575  0.63472848  0.98777348  1
  O  O259  1  0.24562703  0.36954420  0.00835158  1
  O  O260  1  0.25258698  0.37426755  0.51063247  1
  O  O261  1  0.26160570  0.87057045  0.00667401  1
  O  O262  1  0.25625224  0.86510394  0.50500980  1
  O  O263  1  0.75003961  0.36465933  0.00022415  1
  O  O264  1  0.76220310  0.36979014  0.50134989  1
  O  O265  1  0.76319201  0.86740230  -0.00730421  1
  O  O266  1  0.74254225  0.86822715  0.50745209  1
  O  O267  1  0.13149926  0.49480074  0.24591534  1
  O  O268  1  0.12977236  0.49261058  0.74392252  1
  O  O269  1  0.13329686  0.98884460  0.25904801  1
  O  O270  1  0.13034204  0.99700772  0.73774288  1
  O  O271  1  0.62771880  0.50253326  0.23623987  1
  O  O272  1  0.62969988  0.50145096  0.74294539  1
  O  O273  1  0.62191437  0.99351200  0.23917426  1
  O  O274  1  0.63288136  0.98552791  0.75703487  1
  O  O275  1  0.36560616  0.00215859  0.26203293  1
  O  O276  1  0.36940269  0.00603798  0.75577469  1
  O  O277  1  0.36258072  0.50486610  0.24465922  1
  O  O278  1  0.36887039  0.50929661  0.75544003  1
  O  O279  1  0.87610725  0.00953806  0.24118242  1
  O  O280  1  0.86511498  -0.00646646  0.76279562  1
  O  O281  1  0.87993568  0.50612210  0.25680422  1
  O  O282  1  0.86795081  0.50582161  0.75639202  1
  O  O283  1  0.13416491  0.36405700  0.36634026  1
  O  O284  1  0.12658690  0.37543099  0.85767266  1
  O  O285  1  0.13314270  0.86175735  0.36317927  1
  O  O286  1  0.11720844  0.86654115  0.87320259  1
  O  O287  1  0.62339703  0.37064215  0.36843571  1
  O  O288  1  0.62068355  0.36264048  0.87255325  1
  O  O289  1  0.61514856  0.87241078  0.36845503  1
  O  O290  1  0.62247231  0.86855596  0.86480258  1
  O  O291  1  0.38026594  0.13357829  0.12591097  1
  O  O292  1  0.37971562  0.13362501  0.62922634  1
  O  O293  1  0.36675801  0.63183695  0.13502263  1
  O  O294  1  0.38162493  0.62695313  0.63324745  1
  O  O295  1  0.87497557  0.13312076  0.13829322  1
  O  O296  1  0.88426684  0.12376877  0.62410280  1
  O  O297  1  0.87634507  0.63614562  0.13097423  1
  O  O298  1  0.86773168  0.62589760  0.64125424  1
  O  O299  1  0.25384379  0.25896754  0.11628447  1
  O  O300  1  0.25114203  0.25802890  0.61920360  1
  O  O301  1  0.26098729  0.75622720  0.12422456  1
  O  O302  1  0.25508671  0.75342761  0.61808546  1
  O  O303  1  0.74256180  0.24827222  0.11257547  1
  O  O304  1  0.75558128  0.25365725  0.61416189  1
  O  O305  1  0.75551055  0.74401927  0.11190471  1
  O  O306  1  0.75079323  0.76129838  0.63289913  1
  O  O307  1  0.24262449  0.23892795  0.38090302  1
  O  O308  1  0.25019415  0.24449354  0.88103804  1
  O  O309  1  0.24692304  0.74501170  0.38294649  1
  O  O310  1  0.24223127  0.74221980  0.87689283  1
  O  O311  1  0.75173171  0.24502809  0.38857524  1
  O  O312  1  0.73872066  0.24653823  0.88263962  1
  O  O313  1  0.75077921  0.74495080  0.38165027  1
  O  O314  1  0.74295283  0.74363728  0.88183990  1
  O  O315  1  0.00963517  0.10536613  0.00059383  1
  O  O316  1  0.00409229  0.11640660  0.50686822  1
  O  O317  1  0.01246326  0.61704035  -0.00434197  1
  O  O318  1  0.00266983  0.61556692  0.50541056  1
  O  O319  1  0.50267362  0.12212593  0.01021230  1
  O  O320  1  0.50646484  0.12738579  0.50822692  1
  O  O321  1  0.50059739  0.60484362  -0.00803568  1
  O  O322  1  0.50357759  0.61573685  0.50664232  1
  O  O323  1  0.48791295  0.38395528  0.50647086  1
  O  O324  1  0.49915403  0.39286799  0.99978472  1
  O  O325  1  0.49515484  0.87664347  0.49345994  1
  O  O326  1  0.48687673  0.88088155  0.99811378  1
  O  O327  1  0.99126284  0.38043234  0.50273248  1
  O  O328  1  1.00202788  0.38836766  1.00019088  1
  O  O329  1  0.99985998  0.88695374  0.50673872  1
  O  O330  1  0.98978947  0.87890579  0.98883034  1
  O  O331  1  0.50026392  0.50324025  0.38754437  1
  O  O332  1  0.49184093  0.49546008  0.88138319  1
  O  O333  1  0.49056728  0.98939720  0.37405498  1
  O  O334  1  0.49026114  1.00087696  0.88201683  1
  O  O335  1  0.99742430  0.50516186  0.39014763  1
  O  O336  1  0.99009454  0.50539325  0.88431008  1
  O  O337  1  1.00541146  0.99829839  0.39202068  1
  O  O338  1  0.99317225  0.99062666  0.87937453  1
  O  O339  1  0.00147323  -0.01116301  0.10820270  1
  O  O340  1  0.00579465  0.00533645  0.62163958  1
  O  O341  1  0.01365231  0.49707792  0.11989292  1
  O  O342  1  0.00718414  0.50030649  0.61244786  1
  O  O343  1  0.49999605  0.00826551  0.11918718  1
  O  O344  1  0.49214052  0.01656883  0.62346211  1
  O  O345  1  0.50699869  0.50301114  0.11724143  1
  O  O346  1  0.50622568  0.50980464  0.62088041  1
  O  O347  1  0.24214245  0.38133962  0.24406357  1
  O  O348  1  0.24593022  0.38129536  0.73816973  1
  O  O349  1  0.24360129  0.88146520  0.24259355  1
  O  O350  1  0.25006131  0.88205596  0.74315455  1
  O  O351  1  0.75059835  0.37849126  0.24647347  1
  O  O352  1  0.74544751  0.39072695  0.74802186  1
  O  O353  1  0.73296879  0.87710034  0.24798944  1
  O  O354  1  0.74113298  0.88239022  0.74525762  1
  O  O355  1  0.25381970  0.12237979  0.26767644  1
  O  O356  1  0.25506489  0.12071152  0.75227420  1
  O  O357  1  0.25728563  0.61685131  0.25721700  1
  O  O358  1  0.25652644  0.61809375  0.75809188  1
  O  O359  1  0.76411679  0.12514094  0.25013297  1
  O  O360  1  0.74045586  0.11034771  0.74989224  1
  O  O361  1  0.75973695  0.62433379  0.26402485  1
  O  O362  1  0.75390772  0.61646508  0.75845492  1
  O  O363  1  0.36704379  0.11607637  0.37836301  1
  O  O364  1  0.36606272  0.12122635  0.86694525  1
  O  O365  1  0.36141992  0.63054363  0.36688578  1
  O  O366  1  0.37023248  0.61822182  0.86900573  1
  O  O367  1  0.87704215  0.12903293  0.35372383  1
  O  O368  1  0.87936353  0.12189152  0.86860308  1
  O  O369  1  0.87169550  0.61577923  0.36786292  1
  O  O370  1  0.86494280  0.61641908  0.86674084  1
  O  O371  1  0.13531015  0.38342179  0.13350326  1
  O  O372  1  0.13037082  0.38289493  0.63342195  1
  O  O373  1  0.13733232  0.86691097  0.13847889  1
  O  O374  1  0.13231811  0.88147866  0.62664560  1
  O  O375  1  0.62867996  0.38975643  0.13169029  1
  O  O376  1  0.62501302  0.38868839  0.62542546  1
  O  O377  1  0.61476995  0.88598302  0.13213021  1
  O  O378  1  0.62953562  0.87006075  0.63851286  1
  O  O379  1  0.12312679  0.25547944  0.25639633  1
  O  O380  1  0.12519682  0.26717786  0.75054076  1
  O  O381  1  0.13163961  0.76013411  0.26134659  1
  O  O382  1  0.11745376  0.74951298  0.75828107  1
  O  O383  1  0.60608585  0.24832333  0.24719387  1
  O  O384  1  0.61721427  0.25120183  0.75696646  1
  O  O385  1  0.62213273  0.75663231  0.25201887  1
  O  O386  1  0.62901499  0.76500806  0.75996073  1
  O  O387  1  0.38113412  0.24794620  0.23749321  1
  O  O388  1  0.38070344  0.24594790  0.74431113  1
  O  O389  1  0.37639501  0.74107651  0.24062213  1
  O  O390  1  0.36942073  0.73584328  0.74507192  1
  O  O391  1  0.88915317  0.24696700  0.24968528  1
  O  O392  1  0.87076554  0.24818276  0.75388894  1
  O  O393  1  0.87704411  0.74272360  0.23172764  1
  O  O394  1  0.88276409  0.74117333  0.75482364  1
  O  O395  1  0.38473202  0.49151954  0.50505433  1
  O  O396  1  0.38297710  0.50382319  0.99330536  1
  O  O397  1  0.37677904  0.99230044  0.48901599  1
  O  O398  1  0.37566254  0.99360813  0.99489281  1
  O  O399  1  0.88795024  0.49670646  0.49528887  1
  O  O400  1  0.88522533  0.50384888  0.99376756  1
  O  O401  1  0.88576492  0.99989667  0.50065821  1
  O  O402  1  0.87702402  0.99342907  0.99101328  1
  O  O403  1  0.11527827  -0.01186653  -0.00247158  1
  O  O404  1  0.12229259  0.00244607  0.51162884  1
  O  O405  1  0.11965932  0.50656840  0.00736294  1
  O  O406  1  0.11242100  0.49694960  0.50763378  1
  O  O407  1  0.61791600  0.00285000  0.00477108  1
  O  O408  1  0.62032520  0.01564188  0.49933609  1
  O  O409  1  0.61570325  0.50007693  0.01282043  1
  O  O410  1  0.61756338  0.50719595  0.50667483  1
  O  O411  1  0.36072923  0.36887960  0.12887708  1
  O  O412  1  0.36428061  0.37067327  0.62049861  1
  O  O413  1  0.37473172  0.86161537  0.11919931  1
  O  O414  1  0.37131051  0.86905220  0.62100536  1
  O  O415  1  0.87068575  0.36987058  0.11897359  1
  O  O416  1  0.87318432  0.37378854  0.61582425  1
  O  O417  1  0.87603316  0.86016257  0.11684281  1
  O  O418  1  0.86291916  0.86688002  0.62949378  1
  O  O419  1  0.13133660  0.12972195  0.38316292  1
  O  O420  1  0.13705070  0.13042667  0.86306259  1
  O  O421  1  0.13887134  0.64106847  0.36841951  1
  O  O422  1  0.12976842  0.62877241  0.88227817  1
  O  O423  1  0.62258008  0.13458798  0.38514052  1
  O  O424  1  0.62064309  0.13637196  0.88163780  1
  O  O425  1  0.63451254  0.62532496  0.38051753  1
  O  O426  1  0.63465261  0.63577508  0.86681808  1
