# generated using pymatgen
data_V85Zn86O256
_symmetry_space_group_name_H-M   'P 1'
_cell_length_a   16.94912737
_cell_length_b   16.95034804
_cell_length_c   16.94707450
_cell_angle_alpha   90.01915061
_cell_angle_beta   89.98774823
_cell_angle_gamma   89.92816828
_symmetry_Int_Tables_number   1
_chemical_formula_structural   V85Zn86O256
_chemical_formula_sum   'V85 Zn86 O256'
_cell_volume   4868.78196539
_cell_formula_units_Z   1
loop_
 _symmetry_equiv_pos_site_id
 _symmetry_equiv_pos_as_xyz
  1  'x, y, z'
loop_
 _atom_site_type_symbol
 _atom_site_label
 _atom_site_symmetry_multiplicity
 _atom_site_fract_x
 _atom_site_fract_y
 _atom_site_fract_z
 _atom_site_occupancy
  V  V0  1  0.25969481  0.37351070  0.12396548  1
  V  V1  1  0.63479414  0.75453089  0.87516555  1
  V  V2  1  0.49537500  0.87398928  0.87414777  1
  V  V3  1  0.62930287  0.26158074  0.88215085  1
  V  V4  1  0.61661179  -0.00743074  0.11924330  1
  V  V5  1  0.62855833  0.37568503  0.25565291  1
  V  V6  1  0.12124651  0.87317680  0.25272898  1
  V  V7  1  0.24602247  0.49999819  0.74747533  1
  V  V8  1  0.00123301  0.36941368  0.87413672  1
  V  V9  1  0.37277302  0.11649270  0.25714542  1
  V  V10  1  0.49723176  0.12418169  0.62696788  1
  V  V11  1  0.37673789  0.75111049  0.62578487  1
  V  V12  1  0.87577320  0.23082572  0.62975412  1
  V  V13  1  0.75248648  0.76179624  0.50938402  1
  V  V14  1  0.87267601  0.36718269  0.00062951  1
  V  V15  1  0.12277101  0.74793342  0.87160838  1
  V  V16  1  0.50165250  0.26098067  0.75215298  1
  V  V17  1  0.62873720  0.49585410  0.62246683  1
  V  V18  1  -0.00323745  0.00447303  0.00715464  1
  V  V19  1  0.12890107  0.62024585  0.50691155  1
  V  V20  1  0.87466946  0.49595449  0.87598901  1
  V  V21  1  0.24755857  0.24745117  0.49776668  1
  V  V22  1  0.75186680  0.62696391  0.87785239  1
  V  V23  1  0.74825400  0.63882865  0.37450301  1
  V  V24  1  0.24924171  0.74780272  -0.00219689  1
  V  V25  1  0.75360700  0.37320495  0.12305430  1
  V  V26  1  0.44138607  0.04823316  -0.05820039  1
  V  V27  1  0.49793233  0.62419959  0.12439315  1
  V  V28  1  0.75275692  0.00977988  0.74682503  1
  V  V29  1  -0.00115224  0.87398045  0.87548450  1
  V  V30  1  0.63151572  0.12203139  -0.00496228  1
  V  V31  1  0.37378849  0.37618095  0.49803167  1
  V  V32  1  0.37143543  0.88039829  0.49082519  1
  V  V33  1  0.87228323  0.37589725  0.51368617  1
  V  V34  1  0.26256744  0.00445918  0.76211797  1
  V  V35  1  0.75090370  0.49487341  0.74568610  1
  V  V36  1  0.00130876  0.62316937  0.12305340  1
  V  V37  1  0.37692263  0.25045386  0.62601928  1
  V  V38  1  -0.00388282  -0.00938688  0.49841690  1
  V  V39  1  0.48812451  0.25125774  0.24886443  1
  V  V40  1  0.49643091  0.48848719  -0.00449002  1
  V  V41  1  0.62545657  0.62867490  -0.00159134  1
  V  V42  1  0.12223063  0.87071013  0.74622817  1
  V  V43  1  0.37910832  0.48446464  0.87542643  1
  V  V44  1  0.00293403  0.49608838  0.00081325  1
  V  V45  1  0.25265267  0.74423793  0.49434523  1
  V  V46  1  -0.00208282  0.74764459  0.24925465  1
  V  V47  1  0.37657910  0.62450506  0.75305549  1
  V  V48  1  0.13028835  0.49884306  0.12884664  1
  V  V49  1  0.62583918  0.12970693  0.49870855  1
  V  V50  1  0.00367683  0.50124010  0.51088303  1
  V  V51  1  0.62565778  0.63069351  0.49679178  1
  V  V52  1  0.49656647  0.00162555  0.49330573  1
  V  V53  1  0.62680415  0.49938070  0.12402848  1
  V  V54  1  0.86860266  0.75067595  0.11394584  1
  V  V55  1  0.50469951  0.87104283  0.37474062  1
  V  V56  1  0.36167154  0.50219264  0.37249809  1
  V  V57  1  0.37666962  0.87687346  -0.00156735  1
  V  V58  1  0.12283719  0.37379129  0.74535475  1
  V  V59  1  0.87556916  0.62489563  0.24923704  1
  V  V60  1  0.24638854  0.37749843  0.62444692  1
  V  V61  1  0.68254288  0.19087158  0.32580497  1
  V  V62  1  0.26258700  0.24903833  0.00328948  1
  V  V63  1  0.63586568  -0.00211305  0.61980738  1
  V  V64  1  0.13030725  0.24531327  0.87944959  1
  V  V65  1  0.62590997  0.87694573  0.74459299  1
  V  V66  1  0.49046053  0.12598904  0.12231738  1
  V  V67  1  0.24842514  0.87527445  0.12587943  1
  V  V68  1  0.50517266  0.74633592  0.25421530  1
  V  V69  1  0.87644066  0.23642083  0.12621471  1
  V  V70  1  0.25022852  0.88435239  0.62447500  1
  V  V71  1  0.36322162  0.62207075  0.25313466  1
  V  V72  1  -0.00093154  0.37400914  0.37620893  1
  V  V73  1  0.07571079  0.05899371  0.67593612  1
  V  V74  1  0.12780811  0.37703337  0.25114381  1
  V  V75  1  0.74413018  0.25734140  0.50729265  1
  V  V76  1  0.50195637  0.37394682  0.37412046  1
  V  V77  1  -0.00247506  0.23674348  0.24749806  1
  V  V78  1  0.88193428  0.63090539  0.74807971  1
  V  V79  1  0.49965734  0.50213572  0.49721058  1
  V  V80  1  0.12048954  0.11672770  0.49825553  1
  V  V81  1  0.87451207  0.50291037  0.37783165  1
  V  V82  1  0.87331570  0.01082574  0.87341335  1
  V  V83  1  0.12606960  0.74135893  0.37442161  1
  V  V84  1  0.12097538  0.00732900  0.12883719  1
  Zn  Zn85  1  0.25620365  0.11091671  0.38263114  1
  Zn  Zn86  1  0.00793949  0.63048209  0.63373186  1
  Zn  Zn87  1  0.86179636  0.00534985  0.35745812  1
  Zn  Zn88  1  0.12801834  0.12843098  0.00672917  1
  Zn  Zn89  1  0.50188379  0.62576487  0.62508789  1
  Zn  Zn90  1  0.86132290  0.86803846  -0.01273620  1
  Zn  Zn91  1  0.75395539  0.13318899  0.87391066  1
  Zn  Zn92  1  0.75092006  0.50154602  0.25141042  1
  Zn  Zn93  1  -0.01290339  0.86839060  0.38328062  1
  Zn  Zn94  1  0.25038270  0.62115033  0.87640790  1
  Zn  Zn95  1  0.88991449  0.77356777  0.61213245  1
  Zn  Zn96  1  0.62590943  0.37755522  0.74939220  1
  Zn  Zn97  1  0.74947860  -0.00294949  0.24678330  1
  Zn  Zn98  1  0.12749704  0.62142016  -0.00206523  1
  Zn  Zn99  1  0.12502534  0.24637018  0.37486970  1
  Zn  Zn100  1  -0.00205704  0.23804955  0.74756541  1
  Zn  Zn101  1  0.37797288  0.12509063  0.76688918  1
  Zn  Zn102  1  0.37337406  0.74888314  0.12580180  1
  Zn  Zn103  1  0.62622212  0.87241669  0.25362153  1
  Zn  Zn104  1  0.25363105  -0.00903074  0.26009998  1
  Zn  Zn105  1  0.50255268  0.74873106  0.74967096  1
  Zn  Zn106  1  0.74416308  0.87030114  0.11790038  1
  Zn  Zn107  1  0.18956511  0.19188493  0.19004112  1
  Zn  Zn108  1  0.19827988  0.19289937  0.69430631  1
  Zn  Zn109  1  0.18638812  0.68818933  0.18399809  1
  Zn  Zn110  1  0.19186521  0.68967860  0.68516056  1
  Zn  Zn111  1  0.68370168  0.18981667  0.15955896  1
  Zn  Zn112  1  0.68644040  0.19137428  0.68503276  1
  Zn  Zn113  1  0.68840604  0.68728872  0.18799318  1
  Zn  Zn114  1  0.68965244  0.68401539  0.68742267  1
  Zn  Zn115  1  0.31113709  0.31248224  0.31260673  1
  Zn  Zn116  1  0.31124854  0.31051614  0.81350646  1
  Zn  Zn117  1  0.31429547  0.80805817  0.31220466  1
  Zn  Zn118  1  0.31030026  0.81443163  0.81207081  1
  Zn  Zn119  1  0.81996867  0.31572849  0.31111388  1
  Zn  Zn120  1  0.81148597  0.31000562  0.80763292  1
  Zn  Zn121  1  0.81232219  0.82303764  0.30755944  1
  Zn  Zn122  1  0.82726211  0.83300822  0.77832013  1
  Zn  Zn123  1  0.18454733  0.43612057  0.43778778  1
  Zn  Zn124  1  0.19042060  0.43279505  0.93718362  1
  Zn  Zn125  1  0.18301520  0.93577873  0.43605755  1
  Zn  Zn126  1  0.18563685  0.93681148  0.94015003  1
  Zn  Zn127  1  0.69016124  0.44099245  0.43745108  1
  Zn  Zn128  1  0.68900468  0.43984942  0.93899954  1
  Zn  Zn129  1  0.69096084  0.93954104  0.42958371  1
  Zn  Zn130  1  0.68812742  0.93942665  0.93794935  1
  Zn  Zn131  1  0.30608641  0.06571194  0.07310933  1
  Zn  Zn132  1  0.31190316  0.06238045  0.56452108  1
  Zn  Zn133  1  0.31334037  0.55847448  0.06201551  1
  Zn  Zn134  1  0.31261843  0.56308219  0.56500069  1
  Zn  Zn135  1  0.80806562  0.05286305  0.06283462  1
  Zn  Zn136  1  0.82716417  0.07592783  0.52091430  1
  Zn  Zn137  1  0.81323413  0.56038207  0.06052539  1
  Zn  Zn138  1  0.81245010  0.56823864  0.56394640  1
  Zn  Zn139  1  0.43991042  0.44234546  0.18956673  1
  Zn  Zn140  1  0.43647334  0.44085412  0.68351754  1
  Zn  Zn141  1  0.43998051  0.93718242  0.18453794  1
  Zn  Zn142  1  0.43998588  0.93818151  0.68411980  1
  Zn  Zn143  1  0.94021398  0.43524961  0.18945876  1
  Zn  Zn144  1  0.93927190  0.43969274  0.69088004  1
  Zn  Zn145  1  0.93211462  0.93653981  0.19130400  1
  Zn  Zn146  1  0.93225076  0.94067197  0.68628546  1
  Zn  Zn147  1  0.06496130  0.05866744  0.31877169  1
  Zn  Zn148  1  0.07063635  0.05893539  0.83670577  1
  Zn  Zn149  1  0.06401126  0.56132031  0.31566531  1
  Zn  Zn150  1  0.06430687  0.55891912  0.81519368  1
  Zn  Zn151  1  0.55687554  0.05433018  0.30779294  1
  Zn  Zn152  1  0.56863646  0.06904647  0.80673593  1
  Zn  Zn153  1  0.56177554  0.56154196  0.31358798  1
  Zn  Zn154  1  0.56143001  0.56214440  0.81191952  1
  Zn  Zn155  1  0.43995805  0.19133150  0.43480570  1
  Zn  Zn156  1  0.44265927  0.21562828  0.93909054  1
  Zn  Zn157  1  0.43646791  0.68671097  0.43478433  1
  Zn  Zn158  1  0.43872550  0.68779828  0.93529707  1
  Zn  Zn159  1  0.93755438  0.18670308  0.43670666  1
  Zn  Zn160  1  0.94264313  0.18672508  0.94061141  1
  Zn  Zn161  1  0.93772621  0.68882599  0.44225435  1
  Zn  Zn162  1  0.94186952  0.68423198  0.93346942  1
  Zn  Zn163  1  0.06307656  0.31088593  0.06601552  1
  Zn  Zn164  1  0.05859634  0.30598395  0.56508692  1
  Zn  Zn165  1  0.05998236  0.81437399  0.06085612  1
  Zn  Zn166  1  0.06764415  0.80834806  0.56600935  1
  Zn  Zn167  1  0.56326801  0.31072832  0.06606212  1
  Zn  Zn168  1  0.56197877  0.31555437  0.56359263  1
  Zn  Zn169  1  0.55696896  0.80727667  0.05780175  1
  Zn  Zn170  1  0.56378677  0.81262642  0.55997337  1
  O  O171  1  0.12972342  0.11025689  0.13122724  1
  O  O172  1  0.13229677  0.12497295  0.62073799  1
  O  O173  1  0.12043811  0.61549554  0.12315340  1
  O  O174  1  0.12766148  0.62753533  0.61181999  1
  O  O175  1  0.61011232  0.11851962  0.11223347  1
  O  O176  1  0.61355604  0.12121000  0.61657539  1
  O  O177  1  0.61981169  0.62116797  0.11658782  1
  O  O178  1  0.62279044  0.61592768  0.61643074  1
  O  O179  1  0.37966744  0.38218143  0.37849541  1
  O  O180  1  0.37791121  0.38515103  0.86972216  1
  O  O181  1  0.38151132  0.86871557  0.38710219  1
  O  O182  1  0.38663641  0.87170340  0.87951352  1
  O  O183  1  0.88323525  0.38291760  0.38370869  1
  O  O184  1  0.87928827  0.37479533  0.88205961  1
  O  O185  1  0.87734867  0.88784055  0.36872126  1
  O  O186  1  0.88484343  0.88347817  0.86979036  1
  O  O187  1  0.24979709  -0.00231074  0.37256275  1
  O  O188  1  0.24645174  -0.00506520  0.86007355  1
  O  O189  1  0.26237342  0.49444969  0.37761305  1
  O  O190  1  0.25869400  0.49849252  0.86531314  1
  O  O191  1  0.74138715  0.00764917  0.36157693  1
  O  O192  1  0.75727436  0.00680715  0.86768589  1
  O  O193  1  0.76454229  0.50699320  0.37601324  1
  O  O194  1  0.75457430  0.50720344  0.86888574  1
  O  O195  1  0.23820224  0.48964343  0.12052719  1
  O  O196  1  0.25621379  0.49243738  0.63848497  1
  O  O197  1  0.24150167  0.98768630  0.13214996  1
  O  O198  1  0.25572017  0.98836634  0.63470036  1
  O  O199  1  0.74528697  0.49098846  0.12726086  1
  O  O200  1  0.74217471  0.50795084  0.63360688  1
  O  O201  1  0.72722147  1.00226090  0.12587792  1
  O  O202  1  0.73713886  1.00657046  0.62746212  1
  O  O203  1  0.00703629  0.36940036  0.26071392  1
  O  O204  1  0.00814427  0.37387534  0.75638892  1
  O  O205  1  0.01131574  0.86479623  0.24695247  1
  O  O206  1  0.01671809  0.88713253  0.76174363  1
  O  O207  1  0.50877431  0.36807072  0.25053194  1
  O  O208  1  0.50139656  0.36419961  0.74073937  1
  O  O209  1  0.49537353  0.86519670  0.25769221  1
  O  O210  1  0.50749293  0.87515953  0.75719961  1
  O  O211  1  0.49008790  0.13082652  0.24462208  1
  O  O212  1  0.49816431  0.13506426  0.74048712  1
  O  O213  1  0.49485284  0.62820007  0.24268409  1
  O  O214  1  0.49089829  0.62802313  0.74656528  1
  O  O215  1  1.00543920  0.13898311  0.25947999  1
  O  O216  1  1.02034038  0.11419661  0.74125056  1
  O  O217  1  0.99564235  0.62860128  0.24434140  1
  O  O218  1  0.98644648  0.61395517  0.75155960  1
  O  O219  1  0.36193918  0.25738943  0.00455090  1
  O  O220  1  0.36831264  0.25604603  0.50409798  1
  O  O221  1  0.36458400  0.75702003  -0.00049267  1
  O  O222  1  0.36885455  0.75457849  0.50513064  1
  O  O223  1  0.88507596  0.26166972  0.00846085  1
  O  O224  1  0.86788419  0.25852416  0.51076097  1
  O  O225  1  0.88260223  0.74706365  0.01063474  1
  O  O226  1  0.85907240  0.74931238  0.50083627  1
  O  O227  1  0.13076081  0.23836530  0.50152639  1
  O  O228  1  0.13105644  0.25094306  0.99532600  1
  O  O229  1  0.13454693  0.74219694  0.49232968  1
  O  O230  1  0.13568361  0.75119319  0.99338092  1
  O  O231  1  0.63215543  0.24664364  0.50381277  1
  O  O232  1  0.61795862  0.24373496  0.98760599  1
  O  O233  1  0.63142200  0.73671188  0.50284307  1
  O  O234  1  0.62000325  0.73633453  0.99140124  1
  O  O235  1  0.50813319  0.23959764  0.13733848  1
  O  O236  1  0.49646747  0.24364581  0.62999408  1
  O  O237  1  0.49463485  0.73686006  0.12843979  1
  O  O238  1  0.48711197  0.74979348  0.62433701  1
  O  O239  1  0.99357053  0.25246842  0.13984936  1
  O  O240  1  0.98199823  0.24892269  0.62811348  1
  O  O241  1  0.99579956  0.74077388  0.12845532  1
  O  O242  1  0.99713905  0.74219348  0.61778104  1
  O  O243  1  -0.00158233  0.25797450  0.36882506  1
  O  O244  1  0.00867594  0.25273679  0.86916081  1
  O  O245  1  0.00703423  0.74928169  0.36892627  1
  O  O246  1  0.01375463  0.75766066  0.87908347  1
  O  O247  1  0.49787662  0.26266794  0.36440143  1
  O  O248  1  0.51597170  0.25275057  0.86394212  1
  O  O249  1  0.49549138  0.75664781  0.36591804  1
  O  O250  1  0.50997764  0.75786773  0.87205613  1
  O  O251  1  0.24290795  0.13127967  0.50253821  1
  O  O252  1  0.24860561  0.14432189  1.01199856  1
  O  O253  1  0.24541697  0.63402516  0.50363380  1
  O  O254  1  0.24956698  0.63484918  0.99921791  1
  O  O255  1  0.73111476  0.13837338  0.50384155  1
  O  O256  1  0.73429872  0.12369559  0.99912607  1
  O  O257  1  0.74355049  0.63025172  0.49197864  1
  O  O258  1  0.74181822  0.61743380  0.98654004  1
  O  O259  1  0.24618859  0.36817635  0.01662526  1
  O  O260  1  0.25134283  0.36813765  0.50603153  1
  O  O261  1  0.25820547  0.87021511  0.00511749  1
  O  O262  1  0.25526855  0.86899774  0.50746268  1
  O  O263  1  0.76050255  0.38060769  0.00948536  1
  O  O264  1  0.75855645  0.36604643  0.49357046  1
  O  O265  1  0.74988731  0.87565831  0.00484303  1
  O  O266  1  0.73572925  0.85902580  0.49819724  1
  O  O267  1  0.11975915  0.48994050  0.24271132  1
  O  O268  1  0.13567423  0.48897457  0.75597885  1
  O  O269  1  0.12361612  0.98815801  0.24608389  1
  O  O270  1  0.13292956  1.00079236  0.74509639  1
  O  O271  1  0.62548314  0.49188756  0.24150126  1
  O  O272  1  0.63178256  0.50138273  0.74177974  1
  O  O273  1  0.61774816  0.99554359  0.23182624  1
  O  O274  1  0.62557083  0.99614221  0.73808675  1
  O  O275  1  0.37529309  0.01342889  0.24642798  1
  O  O276  1  0.36645446  0.00015740  0.75127547  1
  O  O277  1  0.37917663  0.51328478  0.25809776  1
  O  O278  1  0.37072377  0.50689982  0.75564346  1
  O  O279  1  0.86551082  0.00715829  0.24061724  1
  O  O280  1  0.86423208  0.00384233  0.75921567  1
  O  O281  1  0.87681629  0.50603644  0.25965930  1
  O  O282  1  0.86838009  0.50572821  0.75749092  1
  O  O283  1  0.11549038  0.37188382  0.36981805  1
  O  O284  1  0.12148231  0.36569748  0.86716809  1
  O  O285  1  0.12203005  0.86025053  0.36632737  1
  O  O286  1  0.12075054  0.86862167  0.86898824  1
  O  O287  1  0.62076539  0.38416612  0.36230836  1
  O  O288  1  0.62729603  0.36514166  0.87539648  1
  O  O289  1  0.60795812  0.87563661  0.37457372  1
  O  O290  1  0.61370196  0.86986299  0.87164947  1
  O  O291  1  0.38445331  0.12426335  0.13572184  1
  O  O292  1  0.38732972  0.13122770  0.62232678  1
  O  O293  1  0.38179925  0.62181194  0.13495872  1
  O  O294  1  0.37529337  0.63290535  0.63554946  1
  O  O295  1  0.86636161  0.13866971  0.11378802  1
  O  O296  1  0.86995739  0.13346781  0.61786620  1
  O  O297  1  0.88182554  0.62884693  0.12745674  1
  O  O298  1  0.87382789  0.62661132  0.64303020  1
  O  O299  1  0.24478841  0.26450318  0.11703318  1
  O  O300  1  0.25775728  0.25580467  0.61630274  1
  O  O301  1  0.25025734  0.75946875  0.11605600  1
  O  O302  1  0.26142772  0.75891141  0.61727035  1
  O  O303  1  0.76075666  0.26488071  0.12714393  1
  O  O304  1  0.76010643  0.25111685  0.61741740  1
  O  O305  1  0.76658059  0.74064001  0.12216077  1
  O  O306  1  0.74937443  0.74514671  0.61050466  1
  O  O307  1  0.24909544  0.24914562  0.38958356  1
  O  O308  1  0.24520333  0.26063151  0.89387642  1
  O  O309  1  0.24387904  0.75371869  0.38675767  1
  O  O310  1  0.24105134  0.75037922  0.88182805  1
  O  O311  1  0.74932173  0.24916434  0.37943276  1
  O  O312  1  0.73442470  0.24953105  0.86957836  1
  O  O313  1  0.75306580  0.74093470  0.38097733  1
  O  O314  1  0.73748004  0.74222776  0.86999014  1
  O  O315  1  0.00698605  0.10904935  -0.00242440  1
  O  O316  1  0.01650505  0.11482736  0.50485010  1
  O  O317  1  0.00335401  0.61315630  0.00464470  1
  O  O318  1  0.00954440  0.61502234  0.49854449  1
  O  O319  1  0.49646482  0.12397546  0.00304844  1
  O  O320  1  0.50609908  0.12113551  0.50299582  1
  O  O321  1  0.50535573  0.61986195  0.00719934  1
  O  O322  1  0.50774387  0.61993028  0.49797259  1
  O  O323  1  0.49410162  0.38102768  0.49341827  1
  O  O324  1  0.50383635  0.38964043  1.00936014  1
  O  O325  1  0.49240539  0.88140964  0.49441231  1
  O  O326  1  0.48453900  0.87196494  0.99308547  1
  O  O327  1  0.99539809  0.38014346  0.49376657  1
  O  O328  1  0.99473725  0.37892163  0.99574665  1
  O  O329  1  1.01912404  0.88848782  0.49896600  1
  O  O330  1  0.99965786  0.88230037  0.98668801  1
  O  O331  1  0.49211027  0.49338689  0.38032959  1
  O  O332  1  0.49202998  0.50398132  0.88342416  1
  O  O333  1  0.49897636  0.99284404  0.38704777  1
  O  O334  1  0.50308951  0.99471682  0.87500923  1
  O  O335  1  0.99086510  0.49357268  0.38272990  1
  O  O336  1  0.99548511  0.48981111  0.88194717  1
  O  O337  1  1.00239684  0.99646485  0.39223833  1
  O  O338  1  0.99312359  0.99292820  0.88403276  1
  O  O339  1  0.00962767  -0.01393637  0.11624726  1
  O  O340  1  0.01287392  -0.00310371  0.62432048  1
  O  O341  1  0.00939959  0.50210179  0.12040235  1
  O  O342  1  -0.00230020  0.50441708  0.61349164  1
  O  O343  1  0.50583278  0.01076034  0.12311565  1
  O  O344  1  0.50523805  0.00853580  0.61460951  1
  O  O345  1  0.50602894  0.50960832  0.11987639  1
  O  O346  1  0.50552463  0.50367778  0.61381527  1
  O  O347  1  0.23636679  0.36586972  0.24107628  1
  O  O348  1  0.24364998  0.37956757  0.74471438  1
  O  O349  1  0.24089420  0.86831215  0.24199090  1
  O  O350  1  0.24376495  0.88600050  0.74522530  1
  O  O351  1  0.74459561  0.37821187  0.24578632  1
  O  O352  1  0.74894910  0.39114246  0.75377874  1
  O  O353  1  0.73976361  0.87119862  0.23421040  1
  O  O354  1  0.72904416  0.89303242  0.76154422  1
  O  O355  1  0.26583933  0.12868383  0.25059370  1
  O  O356  1  0.25865072  0.10993372  0.74732219  1
  O  O357  1  0.26473808  0.62945580  0.24485415  1
  O  O358  1  0.25653177  0.61576230  0.75016708  1
  O  O359  1  0.73128278  0.13897485  0.25537359  1
  O  O360  1  0.73730122  0.11312030  0.75261884  1
  O  O361  1  0.75585825  0.62305288  0.25805609  1
  O  O362  1  0.75665338  0.61641249  0.76100852  1
  O  O363  1  0.37667692  0.12809329  0.36094469  1
  O  O364  1  0.39145490  0.12087281  0.88473006  1
  O  O365  1  0.37706977  0.61775067  0.36184592  1
  O  O366  1  0.37266746  0.62356510  0.86247177  1
  O  O367  1  0.87079323  0.10300453  0.41780451  1
  O  O368  1  0.87450275  0.11548626  0.88072459  1
  O  O369  1  0.86985637  0.61933936  0.37136893  1
  O  O370  1  0.86854278  0.61464254  0.87398914  1
  O  O371  1  0.12884128  0.38171556  0.13426029  1
  O  O372  1  0.12804287  0.36718212  0.63767586  1
  O  O373  1  0.13229952  0.87755591  0.13189092  1
  O  O374  1  0.13870378  0.86874205  0.63545420  1
  O  O375  1  0.63444133  0.37572754  0.13514570  1
  O  O376  1  0.62333109  0.39146998  0.62444575  1
  O  O377  1  0.61239644  0.88656554  0.11858101  1
  O  O378  1  0.61588040  0.88578464  0.63267126  1
  O  O379  1  0.11373611  0.25700003  0.25233816  1
  O  O380  1  0.12745884  0.25676694  0.75932147  1
  O  O381  1  0.11994270  0.75149898  0.25588281  1
  O  O382  1  0.13416964  0.75991588  0.75850672  1
  O  O383  1  0.62441375  0.25225693  0.25902941  1
  O  O384  1  0.61891283  0.25560682  0.75652928  1
  O  O385  1  0.60918956  0.74965671  0.24242437  1
  O  O386  1  0.62499960  0.75856130  0.75465001  1
  O  O387  1  0.38427618  0.24349825  0.25066356  1
  O  O388  1  0.38169672  0.24604908  0.74663678  1
  O  O389  1  0.38334055  0.73706862  0.24794144  1
  O  O390  1  0.37377422  0.74423977  0.74232758  1
  O  O391  1  0.88854232  0.25289663  0.24297246  1
  O  O392  1  0.87465843  0.24747750  0.73527863  1
  O  O393  1  0.88110968  0.74249825  0.23938878  1
  O  O394  1  0.87478437  0.72745098  0.76985117  1
  O  O395  1  0.37952694  0.49653992  0.49364389  1
  O  O396  1  0.38355156  0.50578094  0.98743813  1
  O  O397  1  0.38340840  0.99077957  0.50719205  1
  O  O398  1  0.37047083  0.99559374  1.00124205  1
  O  O399  1  0.88081962  0.49641307  0.49587666  1
  O  O400  1  0.88212274  0.48848795  0.99571537  1
  O  O401  1  0.89959698  0.98476520  0.52507170  1
  O  O402  1  0.88162368  0.99450071  0.99386532  1
  O  O403  1  0.11980138  0.00091895  0.01035387  1
  O  O404  1  0.12251846  0.01099950  0.50601930  1
  O  O405  1  0.11982191  0.49731422  0.00731140  1
  O  O406  1  0.11669924  0.50859979  0.49403850  1
  O  O407  1  0.61894610  0.00929440  0.00653333  1
  O  O408  1  0.61742010  0.00920589  0.50391105  1
  O  O409  1  0.61799587  0.51005254  0.00327494  1
  O  O410  1  0.62122791  0.50841797  0.50432051  1
  O  O411  1  0.35768366  0.38334161  0.13568569  1
  O  O412  1  0.36926723  0.37003393  0.61685864  1
  O  O413  1  0.36706551  0.87338177  0.11742791  1
  O  O414  1  0.37089012  0.86848071  0.61632632  1
  O  O415  1  0.87017311  0.37172845  0.11938312  1
  O  O416  1  0.87752528  0.37717361  0.61474897  1
  O  O417  1  0.87843796  0.85535211  0.12091477  1
  O  O418  1  0.85870719  0.86142141  0.67095590  1
  O  O419  1  0.13086540  0.12690196  0.38746569  1
  O  O420  1  0.13188724  0.14082025  0.88099911  1
  O  O421  1  0.12412218  0.63506822  0.38278242  1
  O  O422  1  0.12843940  0.63327358  0.87638801  1
  O  O423  1  0.61594821  0.13021688  0.37870063  1
  O  O424  1  0.62398872  0.13583784  0.88217157  1
  O  O425  1  0.63700590  0.61661119  0.38310298  1
  O  O426  1  0.63109108  0.63132235  0.87918436  1
