# generated using pymatgen
data_V85Zn86O256
_symmetry_space_group_name_H-M   'P 1'
_cell_length_a   16.92367014
_cell_length_b   16.92486818
_cell_length_c   16.92052469
_cell_angle_alpha   89.97802116
_cell_angle_beta   90.01987637
_cell_angle_gamma   90.06045338
_symmetry_Int_Tables_number   1
_chemical_formula_structural   V85Zn86O256
_chemical_formula_sum   'V85 Zn86 O256'
_cell_volume   4846.55753451
_cell_formula_units_Z   1
loop_
 _symmetry_equiv_pos_site_id
 _symmetry_equiv_pos_as_xyz
  1  'x, y, z'
loop_
 _atom_site_type_symbol
 _atom_site_label
 _atom_site_symmetry_multiplicity
 _atom_site_fract_x
 _atom_site_fract_y
 _atom_site_fract_z
 _atom_site_occupancy
  V  V0  1  0.74677849  0.87086240  0.61562963  1
  V  V1  1  0.75879559  0.49450222  0.74542775  1
  V  V2  1  0.11174837  0.87522560  0.77139580  1
  V  V3  1  0.24737273  0.62561572  0.37774821  1
  V  V4  1  0.74881751  0.00169287  0.74737268  1
  V  V5  1  -0.00045707  0.12545645  0.12530108  1
  V  V6  1  0.24932742  0.12036847  0.37286411  1
  V  V7  1  0.75039057  0.12775443  0.87472674  1
  V  V8  1  -0.00823279  0.88155948  0.37270158  1
  V  V9  1  0.50078233  0.50132552  0.50101837  1
  V  V10  1  0.37622832  0.50724160  0.37445332  1
  V  V11  1  0.87722786  0.74727345  0.12094733  1
  V  V12  1  0.75642887  0.62853387  0.37386403  1
  V  V13  1  0.25289551  0.50511864  0.24864003  1
  V  V14  1  0.88138349  0.12974173  0.75018288  1
  V  V15  1  0.37314849  0.74636895  0.13135390  1
  V  V16  1  0.49252133  0.74331249  0.75232624  1
  V  V17  1  0.25291413  0.37257413  0.12838738  1
  V  V18  1  0.49880934  0.37685746  0.87372183  1
  V  V19  1  0.13199350  -0.00090263  0.13256128  1
  V  V20  1  0.87729213  0.25234074  0.11828947  1
  V  V21  1  -0.00395290  0.73944738  0.24956275  1
  V  V22  1  0.37505500  0.37241314  0.00202489  1
  V  V23  1  0.49548581  0.25039302  0.23986420  1
  V  V24  1  -0.00140732  -0.00563012  0.00031591  1
  V  V25  1  0.12439931  -0.01199582  0.62530978  1
  V  V26  1  0.87890265  0.49257735  0.89418212  1
  V  V27  1  0.62254892  0.00134292  0.62302630  1
  V  V28  1  0.00094456  0.37641166  0.37725506  1
  V  V29  1  0.00367812  0.13019353  0.62771487  1
  V  V30  1  0.62675925  0.37630196  0.24923741  1
  V  V31  1  0.87588982  0.12241551  0.25336427  1
  V  V32  1  0.75340530  0.11839614  0.37744810  1
  V  V33  1  0.49561019  0.62398007  0.13148951  1
  V  V34  1  0.37570302  0.37384579  0.50602130  1
  V  V35  1  0.24367947  0.37824895  0.63732684  1
  V  V36  1  0.24997095  0.25089275  0.00354782  1
  V  V37  1  0.62455718  0.25096766  0.87521510  1
  V  V38  1  0.25588373  -0.01043639  0.75015245  1
  V  V39  1  0.63003372  0.75172367  0.37767489  1
  V  V40  1  0.49740328  0.50033145  0.00018277  1
  V  V41  1  0.75802428  0.50451205  0.25082077  1
  V  V42  1  0.25666945  0.24945553  0.50687991  1
  V  V43  1  0.62114278  0.87463287  0.74926770  1
  V  V44  1  0.75100841  -0.00155685  0.24602531  1
  V  V45  1  0.49529900  0.88798662  0.87727015  1
  V  V46  1  0.62351804  0.87413772  0.23874070  1
  V  V47  1  0.62114891  0.11417795  0.00526040  1
  V  V48  1  0.62278920  0.62705073  0.00120445  1
  V  V49  1  0.00508051  0.37875963  0.87560133  1
  V  V50  1  0.75039177  0.25607375  0.50416255  1
  V  V51  1  0.36784190  0.87292323  0.50478240  1
  V  V52  1  0.37170718  0.13052720  0.24425794  1
  V  V53  1  0.25770975  0.12166789  0.87247564  1
  V  V54  1  0.24652404  0.74856162  0.00011575  1
  V  V55  1  0.12513005  0.12258728  0.50193085  1
  V  V56  1  0.12379628  0.61544033  0.00430650  1
  V  V57  1  0.36757580  -0.00525516  0.36508905  1
  V  V58  1  0.24524348  0.62744110  0.86496269  1
  V  V59  1  0.48940878  0.12879285  0.62096210  1
  V  V60  1  0.24115592  0.74920294  0.50501278  1
  V  V61  1  0.12606915  0.50896610  0.63576918  1
  V  V62  1  0.37053787  0.50690454  0.86140508  1
  V  V63  1  0.87424397  0.74874106  0.62096498  1
  V  V64  1  0.63031346  0.49543662  0.62433314  1
  V  V65  1  0.75061298  0.62321284  0.87348942  1
  V  V66  1  0.12519837  0.12640930  -0.00142908  1
  V  V67  1  0.87582527  0.38041274  0.50097261  1
  V  V68  1  0.87873434  -0.00268288  0.87767672  1
  V  V69  1  0.75415259  0.37576048  0.11928583  1
  V  V70  1  0.49668985  0.00028904  0.49496652  1
  V  V71  1  0.75723284  0.87803110  0.11611436  1
  V  V72  1  0.36991393  0.74209716  0.62711051  1
  V  V73  1  0.62933733  0.37418647  0.74645760  1
  V  V74  1  0.12067242  0.74554360  0.37626423  1
  V  V75  1  0.62163289  0.75075660  0.87453892  1
  V  V76  1  0.62897115  0.63003890  0.50269802  1
  V  V77  1  0.62450876  0.24734535  0.37254489  1
  V  V78  1  0.12147221  0.25225574  0.85975294  1
  V  V79  1  0.62383101  0.12666540  0.49852404  1
  V  V80  1  0.49939252  0.87210413  0.37410162  1
  V  V81  1  0.49132282  0.25068303  0.74494891  1
  V  V82  1  0.37694625  0.88498937  -0.00139245  1
  V  V83  1  0.87622932  0.25750596  0.62836655  1
  V  V84  1  0.12604838  0.25184793  0.37578148  1
  Zn  Zn85  1  0.11994614  0.49429030  0.12328149  1
  Zn  Zn86  1  0.49456640  0.11406881  0.11449986  1
  Zn  Zn87  1  -0.00021642  0.25092421  0.25069343  1
  Zn  Zn88  1  0.75609982  0.75541401  -0.00515747  1
  Zn  Zn89  1  0.49809853  0.37637224  0.37358734  1
  Zn  Zn90  1  0.01907846  0.51412982  0.49607484  1
  Zn  Zn91  1  0.49623887  0.62160416  0.63072710  1
  Zn  Zn92  1  -0.00955968  0.61250176  0.12528405  1
  Zn  Zn93  1  0.75246426  0.25419705  -0.00188105  1
  Zn  Zn94  1  -0.00930004  0.00151963  0.49746436  1
  Zn  Zn95  1  0.12503335  0.37532894  0.24973423  1
  Zn  Zn96  1  0.00790789  0.63094045  0.62426391  1
  Zn  Zn97  1  0.93490737  0.83212590  -0.06451603  1
  Zn  Zn98  1  0.25455882  0.87770202  0.13261302  1
  Zn  Zn99  1  0.37666871  0.11885892  0.75074976  1
  Zn  Zn100  1  0.13055415  0.87574852  0.25347457  1
  Zn  Zn101  1  0.88160635  0.50864740  0.37516751  1
  Zn  Zn102  1  0.62466166  0.50022760  0.12581553  1
  Zn  Zn103  1  0.49679062  0.74382901  0.25354062  1
  Zn  Zn104  1  0.86670096  0.87998507  0.49387172  1
  Zn  Zn105  1  -0.00191660  0.75078515  0.76290164  1
  Zn  Zn106  1  0.88293854  0.62543450  0.75100467  1
  Zn  Zn107  1  0.18753125  0.18827147  0.18788019  1
  Zn  Zn108  1  0.19405604  0.18365030  0.68545767  1
  Zn  Zn109  1  0.18772149  0.68769600  0.18999879  1
  Zn  Zn110  1  0.18407605  0.69675348  0.69080131  1
  Zn  Zn111  1  0.68956053  0.18835933  0.18663640  1
  Zn  Zn112  1  0.68703047  0.18838820  0.68571110  1
  Zn  Zn113  1  0.68919989  0.69083395  0.18698323  1
  Zn  Zn114  1  0.68818852  0.68641095  0.68826968  1
  Zn  Zn115  1  0.31318772  0.31512033  0.31795507  1
  Zn  Zn116  1  0.31355345  0.31008033  0.81771490  1
  Zn  Zn117  1  0.30775127  0.81176991  0.31033468  1
  Zn  Zn118  1  0.31013030  0.81220196  0.81476997  1
  Zn  Zn119  1  0.81388168  0.31116949  0.31105064  1
  Zn  Zn120  1  0.81828891  0.31616104  0.81186329  1
  Zn  Zn121  1  0.81327883  0.80915608  0.30601430  1
  Zn  Zn122  1  0.80822730  0.81122398  0.80322244  1
  Zn  Zn123  1  0.18918866  0.43816519  0.44344054  1
  Zn  Zn124  1  0.18907491  0.43733106  0.93013845  1
  Zn  Zn125  1  0.18253465  0.93355823  0.43707297  1
  Zn  Zn126  1  0.19146515  0.93999544  0.94186732  1
  Zn  Zn127  1  0.68967807  0.43855620  0.43558497  1
  Zn  Zn128  1  0.68692331  0.43987607  0.93682880  1
  Zn  Zn129  1  0.68513281  0.94081329  0.43275681  1
  Zn  Zn130  1  0.68688309  0.93946115  0.93417452  1
  Zn  Zn131  1  0.31212995  0.06539624  0.06169890  1
  Zn  Zn132  1  0.30866823  0.05665937  0.56277198  1
  Zn  Zn133  1  0.31134441  0.56131085  0.05971470  1
  Zn  Zn134  1  0.30597778  0.56175324  0.56380741  1
  Zn  Zn135  1  0.81110259  0.06426589  0.06173841  1
  Zn  Zn136  1  0.81488736  0.06259920  0.56202833  1
  Zn  Zn137  1  0.80827659  0.56580903  0.06520216  1
  Zn  Zn138  1  0.81260763  0.56546734  0.56084266  1
  Zn  Zn139  1  0.43480006  0.43790957  0.18759925  1
  Zn  Zn140  1  0.43792348  0.43556199  0.68409712  1
  Zn  Zn141  1  0.43683636  0.93656001  0.18253249  1
  Zn  Zn142  1  0.43740045  0.93277156  0.68468188  1
  Zn  Zn143  1  0.93854940  0.43632224  0.18838351  1
  Zn  Zn144  1  0.94943594  0.43535994  0.69406075  1
  Zn  Zn145  1  0.93845736  0.93521286  0.18895431  1
  Zn  Zn146  1  0.93583959  0.94013990  0.68365982  1
  Zn  Zn147  1  0.06160170  0.06493233  0.31254137  1
  Zn  Zn148  1  0.06479559  0.06217636  0.81277026  1
  Zn  Zn149  1  0.06634032  0.56069331  0.31093112  1
  Zn  Zn150  1  0.06451504  0.56306547  0.80773065  1
  Zn  Zn151  1  0.54459579  0.04296841  0.27615402  1
  Zn  Zn152  1  0.56236093  0.06552416  0.81087761  1
  Zn  Zn153  1  0.56726549  0.56179178  0.31404626  1
  Zn  Zn154  1  0.56303317  0.56101640  0.81177024  1
  Zn  Zn155  1  0.43698544  0.18803307  0.43048059  1
  Zn  Zn156  1  0.43876179  0.18814328  0.93691073  1
  Zn  Zn157  1  0.43826912  0.68666819  0.44073561  1
  Zn  Zn158  1  0.43248658  0.69096736  0.94053582  1
  Zn  Zn159  1  0.93805864  0.18832859  0.44074653  1
  Zn  Zn160  1  0.94160394  0.18874190  0.93809995  1
  Zn  Zn161  1  0.93700669  0.69284706  0.44559736  1
  Zn  Zn162  1  0.94005051  0.67282649  0.93668883  1
  Zn  Zn163  1  0.06253865  0.31602017  0.05813948  1
  Zn  Zn164  1  0.06467089  0.31447514  0.56310805  1
  Zn  Zn165  1  0.06710557  0.80856142  0.06466502  1
  Zn  Zn166  1  0.05592171  0.81121289  0.55947417  1
  Zn  Zn167  1  0.56426508  0.30892013  0.06242434  1
  Zn  Zn168  1  0.56184757  0.31429200  0.56213118  1
  Zn  Zn169  1  0.55944382  0.81137156  0.06061180  1
  Zn  Zn170  1  0.55788959  0.81050919  0.56274437  1
  O  O171  1  0.12007185  0.11817640  0.12087994  1
  O  O172  1  0.11893511  0.11973443  0.62218142  1
  O  O173  1  0.13210909  0.62084217  0.11158121  1
  O  O174  1  0.13179751  0.61313149  0.63030189  1
  O  O175  1  0.62880514  0.13209773  0.10678291  1
  O  O176  1  0.61675705  0.12072755  0.61710377  1
  O  O177  1  0.62039362  0.62617488  0.11320617  1
  O  O178  1  0.62446257  0.61598182  0.61858359  1
  O  O179  1  0.37451794  0.38826871  0.38743600  1
  O  O180  1  0.37917042  0.38613782  0.87959363  1
  O  O181  1  0.37845165  0.87894547  0.38132518  1
  O  O182  1  0.38045547  0.87110061  0.88959638  1
  O  O183  1  0.88327437  0.37282770  0.38369434  1
  O  O184  1  0.87597061  0.38775811  0.88049746  1
  O  O185  1  0.88797344  0.86861153  0.37223750  1
  O  O186  1  0.85989838  0.89347690  0.87144772  1
  O  O187  1  0.25455273  0.00999101  0.38283095  1
  O  O188  1  0.24409891  0.00887725  0.86199895  1
  O  O189  1  0.25588188  0.50693112  0.37300337  1
  O  O190  1  0.26264598  0.51004672  0.87498323  1
  O  O191  1  0.75111882  0.01348154  0.37082813  1
  O  O192  1  0.75394788  0.01285891  0.86939630  1
  O  O193  1  0.75070143  0.51008612  0.36808271  1
  O  O194  1  0.75969596  0.50302156  0.87029473  1
  O  O195  1  0.25195255  0.49214811  0.13413020  1
  O  O196  1  0.24430833  0.48643930  0.62610636  1
  O  O197  1  0.23445139  1.00276455  0.12022182  1
  O  O198  1  0.23877848  1.00434075  0.63978912  1
  O  O199  1  0.74712611  0.49438902  0.13292662  1
  O  O200  1  0.74273019  0.50387124  0.63391373  1
  O  O201  1  0.75456489  0.99279065  0.13399816  1
  O  O202  1  0.74083408  0.99712553  0.62991076  1
  O  O203  1  0.00194997  0.37046080  0.26540152  1
  O  O204  1  -0.01372037  0.36412940  0.77398566  1
  O  O205  1  0.00445285  0.86720329  0.25991859  1
  O  O206  1  0.00993951  0.88333276  0.75323629  1
  O  O207  1  0.50677147  0.36857837  0.25047502  1
  O  O208  1  0.50734608  0.36802025  0.75237279  1
  O  O209  1  0.50864330  0.87085499  0.25726570  1
  O  O210  1  0.50302039  0.86629225  0.75637698  1
  O  O211  1  0.48485245  0.14030742  0.26539625  1
  O  O212  1  0.49820285  0.13188398  0.74028320  1
  O  O213  1  0.50841301  0.62301866  0.23512029  1
  O  O214  1  0.50348847  0.63914255  0.75164181  1
  O  O215  1  0.99119622  0.12795893  0.24603350  1
  O  O216  1  0.99105840  0.12261623  0.74326006  1
  O  O217  1  1.00306896  0.63578556  0.24969640  1
  O  O218  1  0.99992446  0.63054183  0.74258439  1
  O  O219  1  0.36794580  0.26421411  -0.00947114  1
  O  O220  1  0.36823759  0.25956272  0.49207001  1
  O  O221  1  0.36598728  0.75711307  0.01016862  1
  O  O222  1  0.36690315  0.75538346  0.50504706  1
  O  O223  1  0.87144381  0.24122677  0.01357659  1
  O  O224  1  0.86852598  0.25803263  0.50723904  1
  O  O225  1  0.87500931  0.75294206  0.00515316  1
  O  O226  1  0.87044989  0.76145564  0.51598709  1
  O  O227  1  0.13338658  0.24366949  0.49248774  1
  O  O228  1  0.13424241  0.24366295  0.99355333  1
  O  O229  1  0.13380247  0.75395434  0.49447122  1
  O  O230  1  0.14041269  0.74170487  1.00507452  1
  O  O231  1  0.63214813  0.24839563  0.49383697  1
  O  O232  1  0.62709035  0.24703279  0.98509111  1
  O  O233  1  0.62024890  0.74159125  0.49256785  1
  O  O234  1  0.62629993  0.74238204  0.99216409  1
  O  O235  1  0.50338833  0.24241055  0.13748355  1
  O  O236  1  0.50701636  0.24108966  0.63267494  1
  O  O237  1  0.49249134  0.74050083  0.12516782  1
  O  O238  1  0.49069944  0.74757051  0.63424847  1
  O  O239  1  0.99503806  0.24507024  0.12732248  1
  O  O240  1  0.99321313  0.23849444  0.61950325  1
  O  O241  1  0.99447225  0.74837213  0.13266198  1
  O  O242  1  0.98392855  0.75508266  0.62964982  1
  O  O243  1  0.01043026  0.25547826  0.37729632  1
  O  O244  1  0.01747131  0.24870743  0.87514704  1
  O  O245  1  0.00394682  0.75456498  0.36916667  1
  O  O246  1  -0.01269021  0.75413497  0.87617181  1
  O  O247  1  0.51399329  0.25493297  0.37206329  1
  O  O248  1  0.50746205  0.25589898  0.86643664  1
  O  O249  1  0.50826927  0.75382228  0.37414065  1
  O  O250  1  0.50180767  0.75650612  0.86948095  1
  O  O251  1  0.24720323  0.13118501  0.49411271  1
  O  O252  1  0.24701814  0.13223786  0.99305087  1
  O  O253  1  0.25415946  0.63459140  0.48763345  1
  O  O254  1  0.24541528  0.63131078  0.99332018  1
  O  O255  1  0.74682619  0.13530806  0.49361860  1
  O  O256  1  0.74008373  0.12824642  0.98991992  1
  O  O257  1  0.73599479  0.62002244  0.49079674  1
  O  O258  1  0.74033172  0.62491815  0.98865060  1
  O  O259  1  0.25615695  0.36941824  0.00365246  1
  O  O260  1  0.25838290  0.36630529  0.50723685  1
  O  O261  1  0.25993620  0.86801280  0.00307441  1
  O  O262  1  0.25814466  0.86373364  0.49288854  1
  O  O263  1  0.74236730  0.37548588  0.01518579  1
  O  O264  1  0.75702115  0.36287839  0.49369930  1
  O  O265  1  0.74198549  0.87650319  0.01254450  1
  O  O266  1  0.74248401  0.88029004  0.51254807  1
  O  O267  1  0.14165834  0.49493388  0.25192193  1
  O  O268  1  0.12663554  0.49394611  0.73683856  1
  O  O269  1  0.12062913  1.00315198  0.23489860  1
  O  O270  1  0.13085602  0.99098142  0.74538883  1
  O  O271  1  0.63281184  0.48995083  0.24898002  1
  O  O272  1  0.63271022  0.49512935  0.74327207  1
  O  O273  1  0.64338608  0.98584866  0.26224236  1
  O  O274  1  0.62803724  0.99643188  0.74280031  1
  O  O275  1  0.37169220  0.00780766  0.26210554  1
  O  O276  1  0.35996987  -0.00432780  0.74377625  1
  O  O277  1  0.36382028  0.49426877  0.26080315  1
  O  O278  1  0.38293765  0.49987092  0.76318257  1
  O  O279  1  0.86676318  0.01244627  0.24774236  1
  O  O280  1  0.86930408  0.01221347  0.75457027  1
  O  O281  1  0.86128684  0.49523196  0.25596952  1
  O  O282  1  0.86569997  0.50082003  0.74963400  1
  O  O283  1  0.12021132  0.36722795  0.37774798  1
  O  O284  1  0.12061957  0.36363197  0.87360440  1
  O  O285  1  0.11511200  0.86229082  0.37436186  1
  O  O286  1  0.12137693  0.88149572  0.87017053  1
  O  O287  1  0.62644274  0.36804593  0.36357441  1
  O  O288  1  0.61865905  0.36967027  0.86948617  1
  O  O289  1  0.62053527  0.86710601  0.36957456  1
  O  O290  1  0.61710977  0.87016047  0.87043223  1
  O  O291  1  0.37414652  0.12278211  0.13998425  1
  O  O292  1  0.38657456  0.12043354  0.62336274  1
  O  O293  1  0.38449952  0.63192583  0.11795926  1
  O  O294  1  0.37634010  0.63731909  0.61957398  1
  O  O295  1  0.87972223  0.13074877  0.13230899  1
  O  O296  1  0.88233452  0.13369737  0.63211771  1
  O  O297  1  0.87411260  0.64033629  0.12005960  1
  O  O298  1  0.86421736  0.64166344  0.62858217  1
  O  O299  1  0.24836562  0.25458452  0.11180051  1
  O  O300  1  0.24942291  0.25596865  0.61324137  1
  O  O301  1  0.25774277  0.74983055  0.11906375  1
  O  O302  1  0.25529622  0.74822362  0.61541773  1
  O  O303  1  0.75766662  0.25857966  0.12400957  1
  O  O304  1  0.76005336  0.24500987  0.61448397  1
  O  O305  1  0.75877364  0.75868463  0.12246164  1
  O  O306  1  0.75533609  0.76157059  0.63159465  1
  O  O307  1  0.24426014  0.24412782  0.38605820  1
  O  O308  1  0.24155559  0.24627940  0.88347451  1
  O  O309  1  0.24217304  0.74274626  0.38078190  1
  O  O310  1  0.25881986  0.73498971  0.88459627  1
  O  O311  1  0.74072009  0.24354358  0.37900001  1
  O  O312  1  0.74499312  0.24240190  0.87375337  1
  O  O313  1  0.73824822  0.74519156  0.36942970  1
  O  O314  1  0.74295608  0.74058934  0.87365971  1
  O  O315  1  0.00693457  0.11843945  0.00660850  1
  O  O316  1  0.00733301  0.12299481  0.50711070  1
  O  O317  1  0.02067293  0.62583211  0.00348576  1
  O  O318  1  -0.01068480  0.62160789  0.51203409  1
  O  O319  1  0.51382978  0.12941208  -0.00057295  1
  O  O320  1  0.50298634  0.12244527  0.50337584  1
  O  O321  1  0.50574507  0.62146940  0.00608782  1
  O  O322  1  0.51154804  0.61712973  0.50174961  1
  O  O323  1  0.49359998  0.38285533  0.49843691  1
  O  O324  1  0.49384830  0.37759005  0.99578015  1
  O  O325  1  0.49212509  0.87939585  0.49184477  1
  O  O326  1  0.48749135  0.87199377  0.99271224  1
  O  O327  1  0.99263434  0.37435252  0.49098797  1
  O  O328  1  0.99840249  0.36411339  0.97839519  1
  O  O329  1  0.99810500  0.87597379  0.48307738  1
  O  O330  1  1.00283401  0.89020414  1.00795961  1
  O  O331  1  0.49368560  0.49940448  0.38069741  1
  O  O332  1  0.49113264  0.49674655  0.87996486  1
  O  O333  1  0.48894758  0.99259560  0.37586615  1
  O  O334  1  0.50044869  0.98730988  0.86667960  1
  O  O335  1  0.99989715  0.49263416  0.37889620  1
  O  O336  1  0.98750343  0.49379625  0.87313938  1
  O  O337  1  1.00598548  0.98479904  0.37315677  1
  O  O338  1  0.99005695  1.00840638  0.88487463  1
  O  O339  1  0.00566197  0.00731245  0.11987224  1
  O  O340  1  0.00779265  0.01251514  0.62474411  1
  O  O341  1  0.00710392  0.50120420  0.13304370  1
  O  O342  1  0.01627757  0.49740296  0.62503473  1
  O  O343  1  0.51223477  0.01538272  0.16598297  1
  O  O344  1  0.50378786  0.00629496  0.61691295  1
  O  O345  1  0.50052477  0.50565212  0.11829265  1
  O  O346  1  0.50848112  0.50284096  0.61967932  1
  O  O347  1  0.25148247  0.37888320  0.24226139  1
  O  O348  1  0.26031594  0.36671481  0.73419094  1
  O  O349  1  0.24480471  0.87623344  0.24639833  1
  O  O350  1  0.23901389  0.88623682  0.75761865  1
  O  O351  1  0.74328755  0.38031488  0.24367147  1
  O  O352  1  0.74238167  0.38384041  0.75465681  1
  O  O353  1  0.74612352  0.88124962  0.24117282  1
  O  O354  1  0.73880195  0.88392440  0.74173982  1
  O  O355  1  0.25681460  0.13365364  0.26406068  1
  O  O356  1  0.25476687  0.11456938  0.75569486  1
  O  O357  1  0.24918860  0.61832404  0.26391793  1
  O  O358  1  0.24690446  0.63335911  0.76618809  1
  O  O359  1  0.75362572  0.11804855  0.25607917  1
  O  O360  1  0.75478013  0.12094651  0.75628197  1
  O  O361  1  0.74001506  0.61542070  0.25946792  1
  O  O362  1  0.74580708  0.61474935  0.76324536  1
  O  O363  1  0.36572310  0.11586631  0.37113621  1
  O  O364  1  0.36220414  0.12896217  0.87410867  1
  O  O365  1  0.36980003  0.61381930  0.37936663  1
  O  O366  1  0.36654315  0.61289611  0.88105174  1
  O  O367  1  0.86510523  0.13565573  0.36646882  1
  O  O368  1  0.86846584  0.12295744  0.86823708  1
  O  O369  1  0.85976280  0.62936628  0.38142763  1
  O  O370  1  0.86605759  0.60949764  0.87332696  1
  O  O371  1  0.13924787  0.37331371  0.12581723  1
  O  O372  1  0.14004323  0.37306950  0.62743737  1
  O  O373  1  0.12503251  0.89118146  0.12468633  1
  O  O374  1  0.11755205  0.88693340  0.62536631  1
  O  O375  1  0.63114972  0.37309987  0.13596213  1
  O  O376  1  0.62306493  0.38727851  0.62919739  1
  O  O377  1  0.63121510  0.86726289  0.13512135  1
  O  O378  1  0.62685868  0.88004433  0.62909889  1
  O  O379  1  0.12582135  0.25110154  0.26467322  1
  O  O380  1  0.13237428  0.24512831  0.76204775  1
  O  O381  1  0.11586501  0.75094914  0.25787976  1
  O  O382  1  0.12104472  0.77308268  0.74787811  1
  O  O383  1  0.61963430  0.25448238  0.25618019  1
  O  O384  1  0.61986731  0.25319361  0.75845952  1
  O  O385  1  0.62263965  0.75814527  0.25820844  1
  O  O386  1  0.61651967  0.75551570  0.75517248  1
  O  O387  1  0.38362163  0.24484222  0.25886006  1
  O  O388  1  0.38879904  0.24722030  0.75410887  1
  O  O389  1  0.37761979  0.75206038  0.23625475  1
  O  O390  1  0.38045253  0.75900279  0.73963536  1
  O  O391  1  0.87364981  0.23803128  0.24028128  1
  O  O392  1  0.86694553  0.23885615  0.74178614  1
  O  O393  1  0.88601275  0.75224119  0.23846399  1
  O  O394  1  0.87475013  0.74805136  0.73822429  1
  O  O395  1  0.38128077  0.49596116  0.49593585  1
  O  O396  1  0.37905934  0.48921253  0.99226871  1
  O  O397  1  0.37707563  0.99131752  0.49243563  1
  O  O398  1  0.37232431  0.98465851  1.00699621  1
  O  O399  1  0.86959514  0.48551630  0.49947195  1
  O  O400  1  0.87265583  0.50225655  0.99200952  1
  O  O401  1  0.87705606  0.99344645  0.50353474  1
  O  O402  1  0.88415305  1.00908215  0.98998048  1
  O  O403  1  0.11873618  0.00807084  0.00728810  1
  O  O404  1  0.12465086  0.00616956  0.50903128  1
  O  O405  1  0.13638172  0.51194580  0.00170581  1
  O  O406  1  0.12917068  0.49081171  0.52163630  1
  O  O407  1  0.62518032  0.01558184  -0.00514864  1
  O  O408  1  0.61581017  0.00734724  0.50131624  1
  O  O409  1  0.61610760  0.50860903  0.00048204  1
  O  O410  1  0.62107819  0.50336570  0.50642602  1
  O  O411  1  0.36407334  0.37719751  0.11566216  1
  O  O412  1  0.36668646  0.38015144  0.61249176  1
  O  O413  1  0.37665638  0.86696000  0.11521782  1
  O  O414  1  0.37967628  0.86514861  0.61010809  1
  O  O415  1  0.86594176  0.36441856  0.13291726  1
  O  O416  1  0.88418250  0.36314342  0.61952985  1
  O  O417  1  0.86645525  0.86648287  0.12786078  1
  O  O418  1  0.86175720  0.86901436  0.62851843  1
  O  O419  1  0.13163830  0.13002642  0.38029477  1
  O  O420  1  0.13484145  0.13398221  0.87802232  1
  O  O421  1  0.13122745  0.63650334  0.37491246  1
  O  O422  1  0.13953172  0.61705159  0.88478244  1
  O  O423  1  0.63362720  0.13351988  0.38135416  1
  O  O424  1  0.63128476  0.13291517  0.87856054  1
  O  O425  1  0.63041594  0.63337262  0.38237350  1
  O  O426  1  0.62918694  0.62773007  0.88359110  1
